data_PCOD9399188
_publ_section_title
;
Structure prediction by ZEFSAII (Michael W. Deem and Ramdas Pophale) SiO2 
 PCOD9399188
Probable space group: P M M A
;
_chemical_formula_sum "Si O2"
_cell_formula_units_Z 48
_cell_length_a 18.805632
_cell_length_b 7.653648
_cell_length_c 17.047824
_cell_angle_alpha 90.000000
_cell_angle_beta 90.000000
_cell_angle_gamma 90.000000
_cell_volume 2453.722081
_symmetry_space_group_name_H-M "P M M A"
_symmetry_group_IT_number 51
_symmetry_cell_setting 'orthorhombic'
loop_
_space_group_symop_operation_xyz
x,y,z
1/2-x,-y,z
1/2+x,-y,-z
-x,y,-z
-x,-y,-z
1/2+x,y,-z
1/2-x,y,z
x,-y,z
loop_
_atom_site_type_symbol
_atom_site_label
_atom_site_fract_x
_atom_site_fract_y
_atom_site_fract_z
Si Si1 0.581043 0.790838 0.504646
Si Si2 0.474152 0.790215 0.084033
Si Si3 0.670704 0.710392 0.834634
Si Si4 0.091529 0.291642 0.320535
Si Si5 0.831524 0.785266 0.353551
Si Si6 0.448768 0.795842 0.761812
O O1 0.500000 0.721934 0.500000
O O2 0.611226 0.753026 0.590887
O O3 0.629713 0.727183 0.433479
O O4 0.576926 0.000000 0.496335
O O5 0.391892 0.756885 0.105074
O O6 0.520976 0.719671 0.157017
O O7 0.482608 0.000000 0.083441
O O8 0.500000 0.723073 0.000000
O O9 0.750000 0.775236 0.852665
O O10 0.673627 0.500000 0.832280
O O11 0.644288 0.770376 0.748321
O O12 0.086198 0.500000 0.314018
O O13 0.013932 0.216440 0.299671
O O14 0.750000 0.730513 0.350067
O O15 0.879187 0.723474 0.280354
O O16 0.832529 0.000000 0.353201
O O17 0.434730 0.000000 0.776506
#
# Coordination Sequence:
#
# PCOD9399188 Si02
#       6
#     8   8   8   8   8   8
#     4  10  18  30  47  67  92 124 161 202 243 287
#     4   9  18  32  52  79 104 126 159 203 249 298
#     4   9  19  35  52  72 101 135 168 203 245 295
#     4  10  19  30  48  72  95 124 163 201 240 289
#     4   9  17  29  46  67  89 119 161 200 232 276
#     4   9  16  31  51  68  93 127 158 192 237 289
#
# _framework density 19.562117000000001
#
# number of rings (size 3 to 8) (size 9 to 14) (size 15 to 20)
#    0.000    2.667    1.667    0.500    0.000    2.333 
#    0.000    0.833    0.000    4.500    0.000    0.000 
#    0.000    0.000    0.000    0.000    0.000    0.000 
#
# Total GULP energy -267711.780378 kJ/mol
# GULP energy per Si atom -5577.328758 kJ/mol
# Density = 1.951759 g / cm^3
# Si number density = 19.562117 Si / 1000 Ang^3
#
#
#
# Elastic Constant Matrix: (Units=GPa)
#
#
# Indices 1 2 3 4 5 6 
#
# 1 173.4734 6.9955 103.6782 0.0000 0.0000 0.0000
# 2 6.9955 36.2680 1.7185 0.0000 0.0000 0.0000
# 3 103.6782 1.7185 151.2269 0.0000 0.0000 0.0000
# 4 0.0000 0.0000 0.0000 6.6764 0.0000 0.0000
# 5 0.0000 0.0000 0.0000 0.0000 21.1350 0.0000
# 6 0.0000 0.0000 0.0000 0.0000 0.0000 28.7641
#
#
#
# Elastic Compliance Matrix: (Units=1/GPa)
#
#
# Indices 1 2 3 4 5 6 
#
# 1 0.009856 -0.001582 -0.006739 0.000000 0.000000 0.000000
# 2 -0.001582 0.027841 0.000768 0.000000 0.000000 0.000000
# 3 -0.006739 0.000768 0.011224 0.000000 0.000000 0.000000
# 4 0.000000 0.000000 0.000000 0.149782 0.000000 0.000000
# 5 0.000000 0.000000 0.000000 0.000000 0.047315 0.000000
# 6 0.000000 0.000000 0.000000 0.000000 0.000000 0.034766
#
#
# Mechanical properties :
#
#
# Convention : Reuss Voigt Hill
#
# Bulk Modulus (GPa) = 29.57210 65.08363 47.32787
# Shear Modulus (GPa) = 16.27806 27.88683 22.08244
#
# Velocity S-wave (km/s) = 2.88778 3.77975 3.36346
# Velocity P-wave (km/s) = 5.12532 7.23817 6.27136
#
# Compressibility (1/GPa) = 0.03381566
#
# Stress axis : x y z
#
# Youngs Moduli (GPa) = 101.46005 35.91793 89.09402
#
# Poissons Ratio (x) = 0.05681 0.60042
# Poissons Ratio (y) = 0.16049 -0.06843
# Poissons Ratio (z) = 0.68376 -0.02759
#
# Static dielectric constant tensor:
#      x y z
#    x 1.673250 0.000000 0.000000 
#    y 0.000000 1.718190 0.000000 
#    z 0.000000 0.000000 1.689690 
# 
# From -- ./inp_files/24777.got.cif
#   From: 2010.05.17/outbox.cif.g08.bks.cpg/sg51_13_cif.got.tgz:24777.got - 2010.06.03 11:52:47.
