data_PCOD9399688
_publ_section_title
;
Structure prediction by ZEFSAII (Michael W. Deem and Ramdas Pophale) SiO2 
 PCOD9399688
Probable space group: P M M A
;
_chemical_formula_sum "Si O2"
_cell_formula_units_Z 64
_cell_length_a 14.998436
_cell_length_b 7.961493
_cell_length_c 25.595098
_cell_angle_alpha 90.000000
_cell_angle_beta 90.000000
_cell_angle_gamma 90.000000
_cell_volume 3056.309199
_symmetry_space_group_name_H-M "P M M A"
_symmetry_group_IT_number 51
_symmetry_cell_setting 'orthorhombic'
loop_
_space_group_symop_operation_xyz
x,y,z
1/2-x,-y,z
1/2+x,-y,-z
-x,y,-z
-x,-y,-z
1/2+x,y,-z
1/2-x,y,z
x,-y,z
loop_
_atom_site_type_symbol
_atom_site_label
_atom_site_fract_x
_atom_site_fract_y
_atom_site_fract_z
Si Si1 0.347071 0.304901 0.399113
Si Si2 0.544970 0.300843 0.874464
Si Si3 0.479465 0.193630 0.317846
Si Si4 0.604186 0.810151 0.984632
Si Si5 0.605204 0.197353 0.489719
Si Si6 0.850045 0.794118 0.372434
Si Si7 0.648632 0.799871 0.771429
Si Si8 0.846993 0.302104 0.096364
O O1 0.250000 0.248294 0.379908
O O2 0.359519 0.500000 0.385662
O O3 0.423941 0.200100 0.371677
O O4 0.350268 0.286676 0.461315
O O5 0.538302 0.500000 0.867269
O O6 0.601349 0.268207 0.927295
O O7 0.597801 0.226222 0.825843
O O8 0.442370 0.234354 0.881957
O O9 0.575004 0.269022 0.332487
O O10 0.415422 0.271310 0.274089
O O11 0.495114 0.000000 0.302518
O O12 0.638652 0.000000 0.982033
O O13 0.500000 0.815717 0.000000
O O14 0.648208 0.717622 0.033437
O O15 0.500000 0.212105 0.500000
O O16 0.629477 0.259757 0.432012
O O17 0.629609 0.000000 0.492132
O O18 0.750000 0.746569 0.358291
O O19 0.855387 0.000000 0.373115
O O20 0.750000 0.732102 0.771595
O O21 0.656012 0.000000 0.762259
O O22 0.750000 0.231469 0.113587
O O23 0.846596 0.500000 0.108455
#
# Coordination Sequence:
#
# PCOD9399688 Si02
#       8
#     8   8   8   8   8   8   8   8
#     4  11  23  35  50  77 111 143 174 214 266 317
#     4  10  20  35  56  80 108 144 183 223 268 320
#     4  10  20  38  60  79 102 135 178 223 267 318
#     4   9  17  30  50  77 110 145 181 222 265 308
#     4  10  18  32  54  79 106 141 182 216 253 308
#     4   9  17  31  54  82 108 135 172 218 263 311
#     4  10  22  39  58  79 103 134 174 224 279 326
#     4   9  18  33  53  79 112 149 186 220 259 313
#
# _framework density 20.940289
#
# number of rings (size 3 to 8) (size 9 to 14) (size 15 to 20)
#    0.000    2.250    1.250    1.875    0.000    5.750 
#    0.000    0.625    0.000    1.125    0.000    0.000 
#    0.000    0.000    0.000    0.000    0.000    0.000 
#
# Total GULP energy -356975.043927 kJ/mol
# GULP energy per Si atom -5577.735061 kJ/mol
# Density = 2.089263 g / cm^3
# Si number density = 20.940289 Si / 1000 Ang^3
#
#
#
# Elastic Constant Matrix: (Units=GPa)
#
#
# Indices 1 2 3 4 5 6 
#
# 1 152.9030 5.5999 65.9522 0.0000 0.0000 0.0000
# 2 5.5999 19.6210 -6.0603 0.0000 0.0000 0.0000
# 3 65.9522 -6.0603 100.2637 0.0000 0.0000 0.0000
# 4 0.0000 0.0000 0.0000 224.4176 0.0000 0.0000
# 5 0.0000 0.0000 0.0000 0.0000 61.9377 0.0000
# 6 0.0000 0.0000 0.0000 0.0000 0.0000 0.9339
#
#
#
# Elastic Compliance Matrix: (Units=1/GPa)
#
#
# Indices 1 2 3 4 5 6 
#
# 1 0.009547 -0.004753 -0.006567 0.000000 0.000000 0.000000
# 2 -0.004753 0.054302 0.006409 0.000000 0.000000 0.000000
# 3 -0.006567 0.006409 0.014681 0.000000 0.000000 0.000000
# 4 0.000000 0.000000 0.000000 0.004456 0.000000 0.000000
# 5 0.000000 0.000000 0.000000 0.000000 0.016145 0.000000
# 6 0.000000 0.000000 0.000000 0.000000 0.000000 1.070724
#
#
# Mechanical properties :
#
#
# Convention : Reuss Voigt Hill
#
# Bulk Modulus (GPa) = 14.55465 44.86346 29.70906
# Shear Modulus (GPa) = 4.15773 71.27758 37.71766
#
# Velocity S-wave (km/s) = 1.41061 5.84058 4.24866
# Velocity P-wave (km/s) = 3.10141 8.18255 6.18760
#
# Compressibility (1/GPa) = 0.06870659
#
# Stress axis : x y z
#
# Youngs Moduli (GPa) = 104.74782 18.41561 68.11633
#
# Poissons Ratio (x) = 0.08753 0.44732
# Poissons Ratio (y) = 0.49787 -0.43654
# Poissons Ratio (z) = 0.68788 -0.11802
#
# Static dielectric constant tensor:
#      x y z
#    x 1.816040 0.000000 0.000000 
#    y 0.000000 1.761130 0.000000 
#    z 0.000000 0.000000 1.730120 
# 
# From -- ./inp_files/35605.got.cif
#   From: 2010.05.17/outbox.cif.g08.bks.cpg/sg51_18_cif.got.tgz:35605.got - 2010.06.03 11:52:47.
