data_PCOD9399308
_publ_section_title
;
Structure prediction by ZEFSAII (Michael W. Deem and Ramdas Pophale) SiO2 
 PCOD9399308
Probable space group: P M M A
;
_chemical_formula_sum "Si O2"
_cell_formula_units_Z 36
_cell_length_a 9.081063
_cell_length_b 14.523374
_cell_length_c 15.934286
_cell_angle_alpha 90.000000
_cell_angle_beta 90.000000
_cell_angle_gamma 90.000000
_cell_volume 2101.535922
_symmetry_space_group_name_H-M "P M M A"
_symmetry_group_IT_number 51
_symmetry_cell_setting 'orthorhombic'
loop_
_space_group_symop_operation_xyz
x,y,z
1/2-x,-y,z
1/2+x,-y,-z
-x,y,-z
-x,-y,-z
1/2+x,y,-z
1/2-x,y,z
x,-y,z
loop_
_atom_site_type_symbol
_atom_site_label
_atom_site_fract_x
_atom_site_fract_y
_atom_site_fract_z
Si Si1 0.424942 0.610781 0.089188
Si Si2 0.923159 0.000000 0.911590
Si Si3 0.080817 0.610915 0.415239
Si Si4 0.926263 0.695100 0.254576
Si Si5 0.076789 0.099476 0.773046
O O1 0.250000 0.630303 0.087070
O O2 0.442674 0.500000 0.100423
O O3 0.501692 0.661159 0.167516
O O4 0.500000 0.635036 0.000000
O O5 0.981059 0.086075 0.856747
O O6 0.750000 0.000000 0.919034
O O7 0.000000 0.000000 0.000000
O O8 0.250000 0.642830 0.412938
O O9 0.082361 0.500000 0.417128
O O10 0.000000 0.643012 0.500000
O O11 0.995222 0.641521 0.332477
O O12 0.750000 0.681798 0.250810
O O13 0.957778 0.803866 0.268411
O O14 0.250000 0.102693 0.795299
O O15 0.053646 0.000000 0.727516
#
# Coordination Sequence:
#
# PCOD9399308 Si02
#       5
#     8   4   8   8   8
#     4  10  21  36  52  73 105 142 180 223 267 317
#     4  10  18  30  50  72  97 132 173 220 270 316
#     4  10  21  37  57  83 115 146 179 223 271 323
#     4  11  21  34  57  82 107 143 181 222 272 325
#     4   8  18  36  51  70 101 135 172 215 262 313
#
# _framework density 17.130329
#
# number of rings (size 3 to 8) (size 9 to 14) (size 15 to 20)
#    0.667    1.556    0.000    3.333    0.000    8.000 
#    0.000    0.000    0.000    0.667    0.000    0.000 
#    0.000    0.000    0.000    0.000    0.000    0.000 
#
# Total GULP energy -200506.644157 kJ/mol
# GULP energy per Si atom -5569.629004 kJ/mol
# Density = 1.709134 g / cm^3
# Si number density = 17.130329 Si / 1000 Ang^3
#
#
#
# Elastic Constant Matrix: (Units=GPa)
#
#
# Indices 1 2 3 4 5 6 
#
# 1 87.6094 39.6816 50.0176 0.0000 0.0000 0.0000
# 2 39.6816 44.2597 30.9422 0.0000 0.0000 0.0000
# 3 50.0176 30.9422 104.8167 0.0000 0.0000 0.0000
# 4 0.0000 0.0000 0.0000 2.2925 0.0000 0.0000
# 5 0.0000 0.0000 0.0000 0.0000 28.7971 0.0000
# 6 0.0000 0.0000 0.0000 0.0000 0.0000 21.1986
#
#
#
# Elastic Compliance Matrix: (Units=1/GPa)
#
#
# Indices 1 2 3 4 5 6 
#
# 1 0.021707 -0.015398 -0.005813 0.000000 0.000000 0.000000
# 2 -0.015398 0.039392 -0.004281 0.000000 0.000000 0.000000
# 3 -0.005813 -0.004281 0.013578 0.000000 0.000000 0.000000
# 4 0.000000 0.000000 0.000000 0.436205 0.000000 0.000000
# 5 0.000000 0.000000 0.000000 0.000000 0.034726 0.000000
# 6 0.000000 0.000000 0.000000 0.000000 0.000000 0.047173
#
#
# Mechanical properties :
#
#
# Convention : Reuss Voigt Hill
#
# Bulk Modulus (GPa) = 42.20541 53.10764 47.65653
# Shear Modulus (GPa) = 7.67268 18.19393 12.93330
#
# Velocity S-wave (km/s) = 2.11866 3.26251 2.75070
# Velocity P-wave (km/s) = 5.53862 6.72766 6.16188
#
# Compressibility (1/GPa) = 0.02369364
#
# Stress axis : x y z
#
# Youngs Moduli (GPa) = 46.06705 25.38579 73.64804
#
# Poissons Ratio (x) = 0.39090 0.42812
# Poissons Ratio (y) = 0.70935 0.31527
# Poissons Ratio (z) = 0.26779 0.10867
#
# Static dielectric constant tensor:
#      x y z
#    x 1.572930 0.000000 0.000000 
#    y 0.000000 2.030990 0.000000 
#    z 0.000000 0.000000 1.542160 
# 
# From -- ./inp_files/20328.got.cif
#   From: 2010.05.17/outbox.cif.g08.bks.cpg/sg51_11_cif.got.tgz:20328.got - 2010.06.03 11:52:47.
