data_PCOD9399541
_publ_section_title
;
Structure prediction by ZEFSAII (Michael W. Deem and Ramdas Pophale) SiO2 
 PCOD9399541
Probable space group: P M M A
;
_chemical_formula_sum "Si O2"
_cell_formula_units_Z 64
_cell_length_a 24.765881
_cell_length_b 7.585277
_cell_length_c 15.341125
_cell_angle_alpha 90.000000
_cell_angle_beta 90.000000
_cell_angle_gamma 90.000000
_cell_volume 2881.923414
_symmetry_space_group_name_H-M "P M M A"
_symmetry_group_IT_number 51
_symmetry_cell_setting 'orthorhombic'
loop_
_space_group_symop_operation_xyz
x,y,z
1/2-x,-y,z
1/2+x,-y,-z
-x,y,-z
-x,-y,-z
1/2+x,y,-z
1/2-x,y,z
x,-y,z
loop_
_atom_site_type_symbol
_atom_site_label
_atom_site_fract_x
_atom_site_fract_y
_atom_site_fract_z
Si Si1 0.504835 0.288432 0.283687
Si Si2 0.189107 0.209125 0.857399
Si Si3 0.972811 0.284746 0.909521
Si Si4 0.105881 0.712196 0.361540
Si Si5 0.627931 0.211859 0.311620
Si Si6 0.692767 0.284830 0.774776
Si Si7 0.311371 0.211103 0.516878
Si Si8 0.351615 0.712117 0.048612
O O1 0.500138 0.500000 0.279489
O O2 0.497104 0.224541 0.183197
O O3 0.455364 0.224465 0.344981
O O4 0.564429 0.249800 0.318378
O O5 0.250000 0.282277 0.855327
O O6 0.151485 0.279885 0.780169
O O7 0.163667 0.231840 0.952327
O O8 0.193319 0.000000 0.842863
O O9 0.975538 0.500000 0.908405
O O10 0.910671 0.232810 0.919759
O O11 0.000000 0.226672 0.000000
O O12 0.103363 0.500000 0.359076
O O13 0.141888 0.775132 0.280165
O O14 0.142385 0.754748 0.445099
O O15 0.664479 0.278049 0.391446
O O16 0.632436 0.000000 0.312204
O O17 0.750000 0.227954 0.736210
O O18 0.691626 0.500000 0.773080
O O19 0.688223 0.229898 0.874924
O O20 0.250000 0.277681 0.498665
O O21 0.306900 0.000000 0.522966
O O22 0.351296 0.500000 0.047184
#
# Coordination Sequence:
#
# PCOD9399541 Si02
#       8
#     8   8   8   8   8   8   8   8
#     4  10  20  36  57  85 117 147 185 231 279 332
#     4  10  21  37  55  77 109 147 186 232 287 340
#     4   9  16  28  49  76 108 146 184 221 261 311
#     4  10  20  36  58  85 117 148 180 223 279 336
#     4  10  22  40  60  80 107 147 190 233 285 340
#     4   9  16  28  49  77 108 141 177 217 263 320
#     4  10  22  41  63  85 109 143 190 237 281 335
#     4  10  18  31  52  80 109 141 184 227 268 322
#
# _framework density 22.207391999999999
#
# number of rings (size 3 to 8) (size 9 to 14) (size 15 to 20)
#    0.000    2.250    1.250    1.875    0.000    6.000 
#    0.000    3.750    0.000    6.750    0.000    0.000 
#    0.000    0.000    0.000    0.000    0.000    0.000 
#
# Total GULP energy -357240.899092 kJ/mol
# GULP energy per Si atom -5581.889048 kJ/mol
# Density = 2.215685 g / cm^3
# Si number density = 22.207392 Si / 1000 Ang^3
#
#
#
# Elastic Constant Matrix: (Units=GPa)
#
#
# Indices 1 2 3 4 5 6 
#
# 1 99.9188 4.0655 44.7976 0.0000 0.0000 0.0000
# 2 4.0655 47.7604 0.8307 0.0000 0.0000 0.0000
# 3 44.7976 0.8307 118.8700 0.0000 0.0000 0.0000
# 4 0.0000 0.0000 0.0000 18.6026 0.0000 0.0000
# 5 0.0000 0.0000 0.0000 0.0000 28.4822 0.0000
# 6 0.0000 0.0000 0.0000 0.0000 0.0000 16.1548
#
#
#
# Elastic Compliance Matrix: (Units=1/GPa)
#
#
# Indices 1 2 3 4 5 6 
#
# 1 0.012086 -0.000950 -0.004548 0.000000 0.000000 0.000000
# 2 -0.000950 0.021015 0.000211 0.000000 0.000000 0.000000
# 3 -0.004548 0.000211 0.010125 0.000000 0.000000 0.000000
# 4 0.000000 0.000000 0.000000 0.053756 0.000000 0.000000
# 5 0.000000 0.000000 0.000000 0.000000 0.035110 0.000000
# 6 0.000000 0.000000 0.000000 0.000000 0.000000 0.061901
#
#
# Mechanical properties :
#
#
# Convention : Reuss Voigt Hill
#
# Bulk Modulus (GPa) = 30.62549 40.65963 35.64256
# Shear Modulus (GPa) = 23.20721 27.10494 25.15608
#
# Velocity S-wave (km/s) = 3.23619 3.49741 3.36933
# Velocity P-wave (km/s) = 5.27110 5.88710 5.58760
#
# Compressibility (1/GPa) = 0.03265254
#
# Stress axis : x y z
#
# Youngs Moduli (GPa) = 82.74144 47.58501 98.76476
#
# Poissons Ratio (x) = 0.04519 0.44919
# Poissons Ratio (y) = 0.07858 -0.02084
# Poissons Ratio (z) = 0.37631 -0.01004
#
# Static dielectric constant tensor:
#      x y z
#    x 1.861380 0.000000 0.000000 
#    y 0.000000 1.851230 0.000000 
#    z 0.000000 0.000000 1.808990 
# 
# From -- ./inp_files/26316.got.cif
#   From: 2010.05.17/outbox.cif.g08.bks.cpg/sg51_14_cif.got.tgz:26316.got - 2010.06.03 11:52:47.
