data_PCOD9399395
_publ_section_title
;
Structure prediction by ZEFSAII (Michael W. Deem and Ramdas Pophale) SiO2 
 PCOD9399395
Probable space group: P M M A
;
_chemical_formula_sum "Si O2"
_cell_formula_units_Z 64
_cell_length_a 29.704612
_cell_length_b 7.511842
_cell_length_c 12.987691
_cell_angle_alpha 90.000000
_cell_angle_beta 90.000000
_cell_angle_gamma 90.000000
_cell_volume 2898.025991
_symmetry_space_group_name_H-M "P M M A"
_symmetry_group_IT_number 51
_symmetry_cell_setting 'orthorhombic'
loop_
_space_group_symop_operation_xyz
x,y,z
1/2-x,-y,z
1/2+x,-y,-z
-x,y,-z
-x,-y,-z
1/2+x,y,-z
1/2-x,y,z
x,-y,z
loop_
_atom_site_type_symbol
_atom_site_label
_atom_site_fract_x
_atom_site_fract_y
_atom_site_fract_z
Si Si1 0.061496 0.214128 0.750557
Si Si2 0.368078 0.211967 0.118637
Si Si3 0.479925 0.782578 0.389701
Si Si4 0.839071 0.290499 0.285663
Si Si5 0.551013 0.782176 0.018694
Si Si6 0.799435 0.207620 0.500928
Si Si7 0.698524 0.285817 0.067281
Si Si8 0.622631 0.218444 0.650283
O O1 0.065221 0.277531 0.867806
O O2 0.189047 0.215378 0.619759
O O3 0.016013 0.276832 0.695791
O O4 0.058865 0.000000 0.752928
O O5 0.362687 0.276203 0.235084
O O6 0.373295 0.000000 0.127799
O O7 0.413916 0.281002 0.066382
O O8 0.328803 0.242009 0.035918
O O9 0.500000 0.730080 0.500000
O O10 0.428699 0.724330 0.371823
O O11 0.479310 0.000000 0.387284
O O12 0.750000 0.286661 0.520149
O O13 0.830342 0.500000 0.284947
O O14 0.892021 0.260568 0.304847
O O15 0.825375 0.219774 0.172437
O O16 0.551807 0.000000 0.017452
O O17 0.500000 0.727676 0.000000
O O18 0.841046 0.281704 0.566698
O O19 0.796917 0.000000 0.529703
O O20 0.750000 0.222500 0.063441
O O21 0.699245 0.500000 0.073259
O O22 0.621672 0.000000 0.646616
#
# Coordination Sequence:
#
# PCOD9399395 Si02
#       8
#     8   8   8   8   8   8   8   8
#     4  10  18  30  52  80 111 144 184 228 270 320
#     4  10  19  33  55  83 112 142 179 223 268 320
#     4   9  16  27  48  79 110 145 185 222 265 321
#     4  11  22  37  57  80 110 144 183 231 284 336
#     4   9  16  27  47  78 112 143 176 217 264 312
#     4  10  21  37  58  82 107 138 179 230 283 333
#     4  10  22  39  56  75 105 145 184 226 279 333
#     4   9  18  33  54  83 117 145 177 223 276 329
#
# _framework density 22.083998999999999
#
# number of rings (size 3 to 8) (size 9 to 14) (size 15 to 20)
#    0.000    2.250    1.250    2.250    0.000    7.000 
#    0.000    1.875    0.000    7.125    0.000    0.000 
#    0.000    0.000    0.000    0.000    0.000    0.000 
#
# Total GULP energy -357550.175434 kJ/mol
# GULP energy per Si atom -5586.721491 kJ/mol
# Density = 2.203373 g / cm^3
# Si number density = 22.083999 Si / 1000 Ang^3
#
#
#
# Elastic Constant Matrix: (Units=GPa)
#
#
# Indices 1 2 3 4 5 6 
#
# 1 178.8368 -3.5433 72.5225 0.0000 0.0000 0.0000
# 2 -3.5433 55.8451 -1.4128 0.0000 0.0000 0.0000
# 3 72.5225 -1.4128 137.3367 0.0000 0.0000 0.0000
# 4 0.0000 0.0000 0.0000 13.8012 0.0000 0.0000
# 5 0.0000 0.0000 0.0000 0.0000 33.9904 0.0000
# 6 0.0000 0.0000 0.0000 0.0000 0.0000 145.4239
#
#
#
# Elastic Compliance Matrix: (Units=1/GPa)
#
#
# Indices 1 2 3 4 5 6 
#
# 1 0.007123 0.000357 -0.003757 0.000000 0.000000 0.000000
# 2 0.000357 0.017929 -0.000004 0.000000 0.000000 0.000000
# 3 -0.003757 -0.000004 0.009266 0.000000 0.000000 0.000000
# 4 0.000000 0.000000 0.000000 0.072457 0.000000 0.000000
# 5 0.000000 0.000000 0.000000 0.000000 0.029420 0.000000
# 6 0.000000 0.000000 0.000000 0.000000 0.000000 0.006876
#
#
# Mechanical properties :
#
#
# Convention : Reuss Voigt Hill
#
# Bulk Modulus (GPa) = 36.35307 56.35018 46.35162
# Shear Modulus (GPa) = 31.43675 58.93993 45.18834
#
# Velocity S-wave (km/s) = 3.77703 5.17174 4.52840
# Velocity P-wave (km/s) = 5.95972 7.82523 6.95531
#
# Compressibility (1/GPa) = 0.02750799
#
# Stress axis : x y z
#
# Youngs Moduli (GPa) = 140.40014 55.77494 107.92709
#
# Poissons Ratio (x) = -0.01990 0.40553
# Poissons Ratio (y) = -0.05010 0.00043
# Poissons Ratio (z) = 0.52755 0.00022
#
# Static dielectric constant tensor:
#      x y z
#    x 1.786910 0.000000 0.000000 
#    y 0.000000 1.843680 0.000000 
#    z 0.000000 0.000000 1.792040 
# 
# From -- ./inp_files/19217.got.cif
#   From: 2010.05.17/outbox.cif.g08.bks.cpg/sg51_10_cif.got.tgz:19217.got - 2010.06.03 11:52:47.
