data_PCOD9399847
_publ_section_title
;
Structure prediction by ZEFSAII (Michael W. Deem and Ramdas Pophale) SiO2 
 PCOD9399847
Probable space group: P M M A
;
_chemical_formula_sum "Si O2"
_cell_formula_units_Z 48
_cell_length_a 15.025841
_cell_length_b 16.260649
_cell_length_c 10.206027
_cell_angle_alpha 90.000000
_cell_angle_beta 90.000000
_cell_angle_gamma 90.000000
_cell_volume 2493.637826
_symmetry_space_group_name_H-M "P M M A"
_symmetry_group_IT_number 51
_symmetry_cell_setting 'orthorhombic'
loop_
_space_group_symop_operation_xyz
x,y,z
1/2-x,-y,z
1/2+x,-y,-z
-x,y,-z
-x,-y,-z
1/2+x,y,-z
1/2-x,y,z
x,-y,z
loop_
_atom_site_type_symbol
_atom_site_label
_atom_site_fract_x
_atom_site_fract_y
_atom_site_fract_z
Si Si1 0.851979 0.792016 0.261570
Si Si2 0.899821 0.500000 0.055354
Si Si3 0.859416 0.500000 0.359688
Si Si4 0.144014 0.665090 0.502768
Si Si5 0.146617 0.232065 0.264729
Si Si6 0.508367 0.903492 0.657777
Si Si7 0.892869 0.317076 0.007031
O O1 0.750000 0.820519 0.262581
O O2 0.867515 0.735590 0.389236
O O3 0.921373 0.865859 0.272365
O O4 0.866232 0.733108 0.136622
O O5 0.896452 0.500000 0.212884
O O6 0.860108 0.411884 0.011775
O O7 0.000000 0.500000 0.000000
O O8 0.750000 0.500000 0.348459
O O9 0.889833 0.580328 0.438209
O O10 0.250000 0.652015 0.485127
O O11 0.108964 0.699115 0.365549
O O12 0.250000 0.216594 0.296816
O O13 0.089898 0.150571 0.288738
O O14 0.139819 0.268490 0.120011
O O15 0.500000 0.892770 0.500000
O O16 0.518765 0.000000 0.683645
O O17 0.000000 0.319134 0.000000
#
# Coordination Sequence:
#
# PCOD9399847 Si02
#       7
#     8   4   4   8   8   8   8
#     4  11  21  39  65  93 122 162 209 255 309 373
#     4  10  22  35  56  90 129 166 217 258 299 355
#     4  10  18  33  58  89 124 166 217 262 301 357
#     4   9  19  34  58  87 121 162 208 255 301 358
#     4  11  23  41  63  94 130 167 207 257 318 376
#     4  11  24  42  68  97 124 158 202 261 324 383
#     4  11  22  39  63  90 132 174 212 257 309 368
#
# _framework density 19.248985999999999
#
# number of rings (size 3 to 8) (size 9 to 14) (size 15 to 20)
#    0.000    1.500    5.000    0.500    0.000    2.000 
#    0.000    4.167    0.000    5.000    0.000    0.000 
#    0.000    0.000    0.000    0.000    0.000    0.000 
#
# Total GULP energy -268103.725564 kJ/mol
# GULP energy per Si atom -5585.494283 kJ/mol
# Density = 1.920517 g / cm^3
# Si number density = 19.248986 Si / 1000 Ang^3
#
#
#
# Elastic Constant Matrix: (Units=GPa)
#
#
# Indices 1 2 3 4 5 6 
#
# 1 91.9333 54.6724 18.9149 0.0000 0.0000 0.0000
# 2 54.6724 149.0291 35.3591 0.0000 0.0000 0.0000
# 3 18.9149 35.3591 82.2678 0.0000 0.0000 0.0000
# 4 0.0000 0.0000 0.0000 23.5618 0.0000 0.0000
# 5 0.0000 0.0000 0.0000 0.0000 24.8195 0.0000
# 6 0.0000 0.0000 0.0000 0.0000 0.0000 3.1198
#
#
#
# Elastic Compliance Matrix: (Units=1/GPa)
#
#
# Indices 1 2 3 4 5 6 
#
# 1 0.014006 -0.004871 -0.001127 0.000000 0.000000 0.000000
# 2 -0.004871 0.009166 -0.002820 0.000000 0.000000 0.000000
# 3 -0.001127 -0.002820 0.013626 0.000000 0.000000 0.000000
# 4 0.000000 0.000000 0.000000 0.042442 0.000000 0.000000
# 5 0.000000 0.000000 0.000000 0.000000 0.040291 0.000000
# 6 0.000000 0.000000 0.000000 0.000000 0.000000 0.320534
#
#
# Mechanical properties :
#
#
# Convention : Reuss Voigt Hill
#
# Bulk Modulus (GPa) = 52.18164 60.12478 56.15321
# Shear Modulus (GPa) = 10.77385 24.58581 17.67983
#
# Velocity S-wave (km/s) = 2.36839 3.57774 3.03393
# Velocity P-wave (km/s) = 5.88614 6.95486 6.44270
#
# Compressibility (1/GPa) = 0.01916383
#
# Stress axis : x y z
#
# Youngs Moduli (GPa) = 71.39830 109.09863 73.38693
#
# Poissons Ratio (x) = 0.53140 0.08269
# Poissons Ratio (y) = 0.34777 0.20693
# Poissons Ratio (z) = 0.08045 0.30763
#
# Static dielectric constant tensor:
#      x y z
#    x 1.702140 0.000000 0.000000 
#    y 0.000000 1.649310 0.000000 
#    z 0.000000 0.000000 1.644060 
# 
# From -- ./inp_files/8312.got.cif
#   From: 2010.05.17/outbox.cif.g08.bks.cpg/sg51_5_cif.got.tgz:8312.got - 2010.06.03 11:52:47.
