data_PCOD9399798
_publ_section_title
;
Structure prediction by ZEFSAII (Michael W. Deem and Ramdas Pophale) SiO2 
 PCOD9399798
Probable space group: P M M A
;
_chemical_formula_sum "Si O2"
_cell_formula_units_Z 56
_cell_length_a 21.858425
_cell_length_b 8.695578
_cell_length_c 17.288550
_cell_angle_alpha 90.000000
_cell_angle_beta 90.000000
_cell_angle_gamma 90.000000
_cell_volume 3286.063044
_symmetry_space_group_name_H-M "P M M A"
_symmetry_group_IT_number 51
_symmetry_cell_setting 'orthorhombic'
loop_
_space_group_symop_operation_xyz
x,y,z
1/2-x,-y,z
1/2+x,-y,-z
-x,y,-z
-x,-y,-z
1/2+x,y,-z
1/2-x,y,z
x,-y,z
loop_
_atom_site_type_symbol
_atom_site_label
_atom_site_fract_x
_atom_site_fract_y
_atom_site_fract_z
Si Si1 0.437142 0.313904 0.455025
Si Si2 0.677392 0.321431 0.134007
Si Si3 0.474095 0.315346 0.118179
Si Si4 0.588022 0.180982 0.022347
Si Si5 0.871378 0.314169 0.302387
Si Si6 0.319052 0.815941 0.542636
Si Si7 0.513051 0.686660 0.706486
O O1 0.500000 0.269515 0.500000
O O2 0.434278 0.500000 0.458814
O O3 0.375391 0.250129 0.492781
O O4 0.445912 0.264297 0.365851
O O5 0.750000 0.315349 0.137393
O O6 0.658297 0.500000 0.122624
O O7 0.650475 0.222850 0.064617
O O8 0.650919 0.271429 0.216856
O O9 0.478068 0.500000 0.116599
O O10 0.535476 0.248185 0.079149
O O11 0.468913 0.263496 0.207138
O O12 0.421042 0.259359 0.060841
O O13 0.579385 0.000000 0.014515
O O14 0.866819 0.500000 0.309368
O O15 0.832163 0.238838 0.369867
O O16 0.942600 0.270256 0.309840
O O17 0.250000 0.766172 0.519708
O O18 0.321174 0.000000 0.539103
O O19 0.514133 0.500000 0.707206
#
# Coordination Sequence:
#
# PCOD9399798 Si02
#       7
#     8   8   8   8   8   8   8
#     4  10  19  35  58  82 106 136 177 226 271 317
#     4  10  20  34  53  76 103 140 182 215 252 310
#     4  10  18  33  55  75 101 135 173 216 259 303
#     4  11  21  32  48  75 108 138 172 210 257 311
#     4  10  18  34  56  79 106 139 179 219 262 313
#     4  11  24  38  51  75 112 149 183 219 264 323
#     4   9  17  31  55  83 107 131 170 224 270 310
#
# _framework density 17.041668999999999
#
# number of rings (size 3 to 8) (size 9 to 14) (size 15 to 20)
#    0.000    1.857    2.857    3.429    0.000    2.857 
#    0.000    1.429    0.000    0.857    0.000    2.000 
#    0.000    0.000    0.000    0.000    0.000    0.000 
#
# Total GULP energy -312462.711716 kJ/mol
# GULP energy per Si atom -5579.691281 kJ/mol
# Density = 1.700288 g / cm^3
# Si number density = 17.041669 Si / 1000 Ang^3
#
#
#
# Elastic Constant Matrix: (Units=GPa)
#
#
# Indices 1 2 3 4 5 6 
#
# 1 92.2813 19.0760 50.6793 0.0000 0.0000 0.0000
# 2 19.0760 36.6181 24.0889 0.0000 0.0000 0.0000
# 3 50.6793 24.0889 116.7758 0.0000 0.0000 0.0000
# 4 0.0000 0.0000 0.0000 -4.0092 0.0000 0.0000
# 5 0.0000 0.0000 0.0000 0.0000 22.0892 0.0000
# 6 0.0000 0.0000 0.0000 0.0000 0.0000 17.5181
#
#
#
# Elastic Compliance Matrix: (Units=1/GPa)
#
#
# Indices 1 2 3 4 5 6 
#
# 1 0.014719 -0.004010 -0.005561 0.000000 0.000000 0.000000
# 2 -0.004010 0.032689 -0.005003 0.000000 0.000000 0.000000
# 3 -0.005561 -0.005003 0.012009 0.000000 0.000000 0.000000
# 4 0.000000 0.000000 0.000000 -0.249424 0.000000 0.000000
# 5 0.000000 0.000000 0.000000 0.000000 0.045271 0.000000
# 6 0.000000 0.000000 0.000000 0.000000 0.000000 0.057084
#
#
# Mechanical properties :
#
#
# Convention : Reuss Voigt Hill
#
# Bulk Modulus (GPa) = 33.03624 48.15151 40.59387
# Shear Modulus (GPa) = -103.27361 17.24167 -43.01597
#
# Velocity S-wave (km/s) = -7.79309 3.18423 -5.02956
# Velocity P-wave (km/s) = 7.84529 6.46804 3.13951
#
# Compressibility (1/GPa) = 0.03026979
#
# Stress axis : x y z
#
# Youngs Moduli (GPa) = 67.93834 30.59141 83.27232
#
# Poissons Ratio (x) = 0.12266 0.46306
# Poissons Ratio (y) = 0.27242 0.41661
# Poissons Ratio (z) = 0.37779 0.15305
#
# Static dielectric constant tensor:
#      x y z
#    x 1.576470 0.000000 0.000000 
#    y 0.000000 1.583040 0.000000 
#    z 0.000000 0.000000 1.583990 
# 
# From -- ./inp_files/30378.got.cif
#   From: 2010.05.17/outbox.cif.g08.bks.cpg/sg51_16_cif.got.tgz:30378.got - 2010.06.03 11:52:47.
