data_PCOD9399459
_publ_section_title
;
Structure prediction by ZEFSAII (Michael W. Deem and Ramdas Pophale) SiO2 
 PCOD9399459
Probable space group: P M M A
;
_chemical_formula_sum "Si O2"
_cell_formula_units_Z 64
_cell_length_a 14.932010
_cell_length_b 14.282775
_cell_length_c 17.526702
_cell_angle_alpha 90.000000
_cell_angle_beta 90.000000
_cell_angle_gamma 90.000000
_cell_volume 3737.929185
_symmetry_space_group_name_H-M "P M M A"
_symmetry_group_IT_number 51
_symmetry_cell_setting 'orthorhombic'
loop_
_space_group_symop_operation_xyz
x,y,z
1/2-x,-y,z
1/2+x,-y,-z
-x,y,-z
-x,-y,-z
1/2+x,y,-z
1/2-x,y,z
x,-y,z
loop_
_atom_site_type_symbol
_atom_site_label
_atom_site_fract_x
_atom_site_fract_y
_atom_site_fract_z
Si Si1 0.353669 0.606988 0.746053
Si Si2 0.105391 0.893337 0.515531
Si Si3 0.146798 0.205959 0.673197
Si Si4 0.530905 0.611824 0.104306
Si Si5 0.854949 0.693456 0.964267
Si Si6 0.347257 0.113737 0.348487
Si Si7 0.500099 0.111481 0.767635
Si Si8 0.577223 0.106521 0.936063
O O1 0.250000 0.616870 0.774318
O O2 0.364261 0.500000 0.720859
O O3 0.366051 0.682936 0.680327
O O4 0.424116 0.625604 0.813456
O O5 0.121378 0.834490 0.591059
O O6 0.144938 0.855439 0.436231
O O7 0.000000 0.898629 0.500000
O O8 0.138330 0.000000 0.528220
O O9 0.250000 0.184078 0.685866
O O10 0.089803 0.160228 0.740781
O O11 0.529987 0.500000 0.088967
O O12 0.429550 0.650808 0.094551
O O13 0.597626 0.661466 0.043534
O O14 0.750000 0.663816 0.958547
O O15 0.859632 0.806012 0.955034
O O16 0.250000 0.138667 0.317277
O O17 0.424834 0.145598 0.292392
O O18 0.353295 0.000000 0.351662
O O19 0.532207 0.125783 0.853757
O O20 0.489752 0.000000 0.757263
O O21 0.615463 0.000000 0.933735
O O22 0.500000 0.107067 0.000000
#
# Coordination Sequence:
#
# PCOD9399459 Si02
#       8
#     8   8   8   8   8   8   8   8
#     4   9  19  36  56  77 102 134 173 215 261 316
#     4  10  18  31  49  75 112 144 167 203 258 311
#     4  11  21  31  52  81 108 137 170 211 266 321
#     4  10  20  36  56  79 107 135 166 215 281 337
#     4  11  21  33  53  79 105 133 175 223 273 327
#     4   9  17  30  49  71  98 135 175 212 251 297
#     4  10  20  34  51  73 104 139 177 218 258 308
#     4  10  21  38  55  70 102 149 191 228 264 305
#
# _framework density 17.121780000000001
#
# number of rings (size 3 to 8) (size 9 to 14) (size 15 to 20)
#    0.000    2.000    2.500    2.625    0.000    3.750 
#    0.000    1.250    0.000    2.625    0.000    0.000 
#    0.000    0.000    0.000    0.000    0.000    0.000 
#
# Total GULP energy -356645.088252 kJ/mol
# GULP energy per Si atom -5572.579504 kJ/mol
# Density = 1.708281 g / cm^3
# Si number density = 17.121780 Si / 1000 Ang^3
#
#
#
# Elastic Constant Matrix: (Units=GPa)
#
#
# Indices 1 2 3 4 5 6 
#
# 1 108.3450 46.7044 30.2773 0.0000 0.0000 0.0000
# 2 46.7044 81.5726 51.5772 0.0000 0.0000 0.0000
# 3 30.2773 51.5772 77.8169 0.0000 0.0000 0.0000
# 4 0.0000 0.0000 0.0000 16.4379 0.0000 0.0000
# 5 0.0000 0.0000 0.0000 0.0000 9.4175 0.0000
# 6 0.0000 0.0000 0.0000 0.0000 0.0000 4.8318
#
#
#
# Elastic Compliance Matrix: (Units=1/GPa)
#
#
# Indices 1 2 3 4 5 6 
#
# 1 0.012256 -0.006889 -0.000202 0.000000 0.000000 0.000000
# 2 -0.006889 0.024975 -0.013873 0.000000 0.000000 0.000000
# 3 -0.000202 -0.013873 0.022125 0.000000 0.000000 0.000000
# 4 0.000000 0.000000 0.000000 0.060835 0.000000 0.000000
# 5 0.000000 0.000000 0.000000 0.000000 0.106185 0.000000
# 6 0.000000 0.000000 0.000000 0.000000 0.000000 0.206961
#
#
# Mechanical properties :
#
#
# Convention : Reuss Voigt Hill
#
# Bulk Modulus (GPa) = 57.38460 58.31691 57.85075
# Shear Modulus (GPa) = 10.39337 15.41582 12.90460
#
# Velocity S-wave (km/s) = 2.46646 3.00386 2.74833
# Velocity P-wave (km/s) = 6.45752 6.79448 6.62814
#
# Compressibility (1/GPa) = 0.01742628
#
# Stress axis : x y z
#
# Youngs Moduli (GPa) = 81.59202 40.03964 45.19851
#
# Poissons Ratio (x) = 0.27584 0.00915
# Poissons Ratio (y) = 0.56211 0.62705
# Poissons Ratio (z) = 0.01652 0.55548
#
# Static dielectric constant tensor:
#      x y z
#    x 1.600030 0.000000 0.000000 
#    y 0.000000 1.600410 0.000000 
#    z 0.000000 0.000000 1.581300 
# 
# From -- ./inp_files/29993.got.cif
#   From: 2010.05.17/outbox.cif.g08.bks.cpg/sg51_15_cif.got.tgz:29993.got - 2010.06.03 11:52:47.
