data_PCOD9399861
_publ_section_title
;
Structure prediction by ZEFSAII (Michael W. Deem and Ramdas Pophale) SiO2 
 PCOD9399861
Probable space group: P M M A
;
_chemical_formula_sum "Si O2"
_cell_formula_units_Z 64
_cell_length_a 8.483984
_cell_length_b 15.968616
_cell_length_c 24.463733
_cell_angle_alpha 90.000000
_cell_angle_beta 90.000000
_cell_angle_gamma 90.000000
_cell_volume 3314.284963
_symmetry_space_group_name_H-M "P M M A"
_symmetry_group_IT_number 51
_symmetry_cell_setting 'orthorhombic'
loop_
_space_group_symop_operation_xyz
x,y,z
1/2-x,-y,z
1/2+x,-y,-z
-x,y,-z
-x,-y,-z
1/2+x,y,-z
1/2-x,y,z
x,-y,z
loop_
_atom_site_type_symbol
_atom_site_label
_atom_site_fract_x
_atom_site_fract_y
_atom_site_fract_z
Si Si1 0.059343 0.406338 0.630250
Si Si2 0.060138 0.592307 0.133318
Si Si3 0.440917 0.906380 0.631876
Si Si4 0.060983 0.749679 0.061588
Si Si5 0.440267 0.349381 0.750798
Si Si6 0.558526 0.845941 0.249399
Si Si7 0.562794 0.750791 0.561571
Si Si8 0.940887 0.906183 0.130439
O O1 0.250000 0.402206 0.628484
O O2 0.010742 0.500000 0.613448
O O3 0.012364 0.390188 0.693317
O O4 0.994522 0.332252 0.593041
O O5 0.250000 0.593145 0.131130
O O6 0.005247 0.500000 0.115479
O O7 0.002578 0.668972 0.095986
O O8 0.009347 0.607868 0.195637
O O9 0.250000 0.903247 0.631248
O O10 0.492956 0.889031 0.694421
O O11 0.501989 0.832409 0.593791
O O12 0.489585 0.000000 0.615067
O O13 0.250000 0.748370 0.061272
O O14 0.004880 0.833581 0.091868
O O15 0.000000 0.746823 0.000000
O O16 0.250000 0.353343 0.754174
O O17 0.487168 0.251609 0.750344
O O18 0.750000 0.848863 0.249587
O O19 0.507306 0.888209 0.192941
O O20 0.500000 0.750893 0.500000
O O21 0.750000 0.751982 0.560904
O O22 0.750000 0.902485 0.129549
O O23 0.988830 0.000000 0.114180
#
# Coordination Sequence:
#
# PCOD9399861 Si02
#       8
#     8   8   8   8   8   8   8   8
#     4  10  21  39  63  91 123 157 196 242 291 347
#     4  10  22  39  58  84 119 154 189 235 291 347
#     4  10  20  38  65  93 122 157 196 240 292 348
#     4  11  24  41  60  81 110 149 195 243 293 342
#     4  10  18  33  61  91 121 155 192 233 280 342
#     4   9  16  31  59  91 122 152 187 231 282 342
#     4  12  26  43  63  85 117 157 202 250 297 350
#     4  10  20  36  60  89 119 152 190 232 281 339
#
# _framework density 19.310348999999999
#
# number of rings (size 3 to 8) (size 9 to 14) (size 15 to 20)
#    0.000    1.750    2.500    2.250    0.000    5.000 
#    0.000    0.625    0.000    1.500    0.000    0.000 
#    0.000    0.000    0.000    0.000    0.000    0.000 
#
# Total GULP energy -357552.426840 kJ/mol
# GULP energy per Si atom -5586.756669 kJ/mol
# Density = 1.926640 g / cm^3
# Si number density = 19.310349 Si / 1000 Ang^3
#
#
#
# Elastic Constant Matrix: (Units=GPa)
#
#
# Indices 1 2 3 4 5 6 
#
# 1 27.0616 40.7238 28.8379 0.0000 0.0000 0.0000
# 2 40.7238 208.1406 98.4131 0.0000 0.0000 0.0000
# 3 28.8379 98.4131 158.2872 0.0000 0.0000 0.0000
# 4 0.0000 0.0000 0.0000 -7.1933 0.0000 0.0000
# 5 0.0000 0.0000 0.0000 0.0000 20.7990 0.0000
# 6 0.0000 0.0000 0.0000 0.0000 0.0000 20.4682
#
#
#
# Elastic Compliance Matrix: (Units=1/GPa)
#
#
# Indices 1 2 3 4 5 6 
#
# 1 0.054728 -0.008489 -0.004693 0.000000 0.000000 0.000000
# 2 -0.008489 0.008122 -0.003503 0.000000 0.000000 0.000000
# 3 -0.004693 -0.003503 0.009351 0.000000 0.000000 0.000000
# 4 0.000000 0.000000 0.000000 -0.139018 0.000000 0.000000
# 5 0.000000 0.000000 0.000000 0.000000 0.048079 0.000000
# 6 0.000000 0.000000 0.000000 0.000000 0.000000 0.048856
#
#
# Mechanical properties :
#
#
# Convention : Reuss Voigt Hill
#
# Bulk Modulus (GPa) = 25.75266 81.04877 53.40072
# Shear Modulus (GPa) = 65.41848 21.84909 43.63379
#
# Velocity S-wave (km/s) = 5.82675 3.36738 4.75869
# Velocity P-wave (km/s) = 7.65723 7.56187 7.60970
#
# Compressibility (1/GPa) = 0.03883093
#
# Stress axis : x y z
#
# Youngs Moduli (GPa) = 18.27204 123.12813 106.94595
#
# Poissons Ratio (x) = 1.04524 0.50188
# Poissons Ratio (y) = 0.15511 0.37462
# Poissons Ratio (z) = 0.08575 0.43131
#
# Static dielectric constant tensor:
#      x y z
#    x 1.664970 0.000000 0.000000 
#    y 0.000000 1.676280 0.000000 
#    z 0.000000 0.000000 1.640820 
# 
# From -- ./inp_files/34986.got.cif
#   From: 2010.05.17/outbox.cif.g08.bks.cpg/sg51_18_cif.got.tgz:34986.got - 2010.06.03 11:52:47.
