data_PCOD9399223
_publ_section_title
;
Structure prediction by ZEFSAII (Michael W. Deem and Ramdas Pophale) SiO2 
 PCOD9399223
Probable space group: P M M A
;
_chemical_formula_sum "Si O2"
_cell_formula_units_Z 52
_cell_length_a 8.993484
_cell_length_b 22.501884
_cell_length_c 15.791957
_cell_angle_alpha 90.000000
_cell_angle_beta 90.000000
_cell_angle_gamma 90.000000
_cell_volume 3195.823608
_symmetry_space_group_name_H-M "P M M A"
_symmetry_group_IT_number 51
_symmetry_cell_setting 'orthorhombic'
loop_
_space_group_symop_operation_xyz
x,y,z
1/2-x,-y,z
1/2+x,-y,-z
-x,y,-z
-x,-y,-z
1/2+x,y,-z
1/2-x,y,z
x,-y,z
loop_
_atom_site_type_symbol
_atom_site_label
_atom_site_fract_x
_atom_site_fract_y
_atom_site_fract_z
Si Si1 0.070554 0.878561 0.093221
Si Si2 0.571954 0.353862 0.762055
Si Si3 0.921747 0.644778 0.413797
Si Si4 0.429590 0.000000 0.905516
Si Si5 0.920608 0.789471 0.413842
Si Si6 0.926364 0.429477 0.089590
Si Si7 0.072588 0.215126 0.238972
O O1 0.250000 0.885783 0.085293
O O2 0.038132 0.825020 0.157669
O O3 0.995817 0.938692 0.130064
O O4 0.000000 0.868176 0.000000
O O5 0.750000 0.358645 0.763119
O O6 0.508984 0.372841 0.670666
O O7 0.500300 0.392727 0.835444
O O8 0.531301 0.284213 0.774593
O O9 0.750000 0.626306 0.410295
O O10 0.924658 0.717105 0.415407
O O11 0.000000 0.624226 0.500000
O O12 0.250000 0.000000 0.907387
O O13 0.500000 0.000000 0.000000
O O14 0.750000 0.808158 0.414283
O O15 0.000000 0.809771 0.500000
O O16 0.997558 0.806753 0.325772
O O17 0.750000 0.418883 0.086587
O O18 0.950833 0.500000 0.102517
O O19 0.000000 0.413223 0.000000
O O20 0.250000 0.213491 0.251678
#
# Coordination Sequence:
#
# PCOD9399223 Si02
#       7
#     8   8   8   4   8   8   8
#     4  10  19  32  48  67  94 127 160 195 234 277
#     4  10  19  32  50  73 100 128 158 195 239 285
#     4   9  16  27  44  68  96 127 160 193 232 279
#     4  10  18  30  48  68  89 118 159 200 234 274
#     4   9  16  26  43  65  92 125 159 195 233 275
#     4  10  21  37  55  73  93 121 160 202 240 282
#     4   9  19  32  46  69 100 129 158 193 235 282
#
# _framework density 16.271235999999998
#
# number of rings (size 3 to 8) (size 9 to 14) (size 15 to 20)
#    0.000    2.462    0.000    3.923    0.000    7.077 
#    0.000    1.538    0.000    0.462    0.000    0.538 
#    0.000    0.000    0.000    0.000    0.000    0.000 
#
# Total GULP energy -289849.337108 kJ/mol
# GULP energy per Si atom -5574.025714 kJ/mol
# Density = 1.623420 g / cm^3
# Si number density = 16.271236 Si / 1000 Ang^3
#
#
#
# Elastic Constant Matrix: (Units=GPa)
#
#
# Indices 1 2 3 4 5 6 
#
# 1 97.8115 49.3220 80.9845 0.0000 0.0000 0.0000
# 2 49.3220 45.4475 66.8857 0.0000 0.0000 0.0000
# 3 80.9845 66.8857 159.4319 0.0000 0.0000 0.0000
# 4 0.0000 0.0000 0.0000 -4.5132 0.0000 0.0000
# 5 0.0000 0.0000 0.0000 0.0000 35.5301 0.0000
# 6 0.0000 0.0000 0.0000 0.0000 0.0000 18.4862
#
#
#
# Elastic Compliance Matrix: (Units=1/GPa)
#
#
# Indices 1 2 3 4 5 6 
#
# 1 0.023186 -0.020466 -0.003192 0.000000 0.000000 0.000000
# 2 -0.020466 0.075578 -0.021311 0.000000 0.000000 0.000000
# 3 -0.003192 -0.021311 0.016834 0.000000 0.000000 0.000000
# 4 0.000000 0.000000 0.000000 -0.221571 0.000000 0.000000
# 5 0.000000 0.000000 0.000000 0.000000 0.028145 0.000000
# 6 0.000000 0.000000 0.000000 0.000000 0.000000 0.054094
#
#
# Mechanical properties :
#
#
# Convention : Reuss Voigt Hill
#
# Bulk Modulus (GPa) = 38.96960 77.45282 58.21121
# Shear Modulus (GPa) = 66.88312 16.93385 41.90848
#
# Velocity S-wave (km/s) = 6.41828 3.22952 5.08056
# Velocity P-wave (km/s) = 8.88413 7.84926 8.38268
#
# Compressibility (1/GPa) = 0.02566103
#
# Stress axis : x y z
#
# Youngs Moduli (GPa) = 43.12880 13.23144 59.40320
#
# Poissons Ratio (x) = 0.27079 0.18960
# Poissons Ratio (y) = 0.88266 1.26595
# Poissons Ratio (z) = 0.13766 0.28198
#
# Static dielectric constant tensor:
#      x y z
#    x 1.544810 0.000000 0.000000 
#    y 0.000000 1.551200 0.000000 
#    z 0.000000 0.000000 1.531400 
# 
# From -- ./inp_files/21503.got.cif
#   From: 2010.05.17/outbox.cif.g08.bks.cpg/sg51_11_cif.got.tgz:21503.got - 2010.06.03 11:52:47.
