data_PCOD9399532
_publ_section_title
;
Structure prediction by ZEFSAII (Michael W. Deem and Ramdas Pophale) SiO2 
 PCOD9399532
Probable space group: P M M A
;
_chemical_formula_sum "Si O2"
_cell_formula_units_Z 64
_cell_length_a 8.910221
_cell_length_b 20.469906
_cell_length_c 20.891844
_cell_angle_alpha 90.000000
_cell_angle_beta 90.000000
_cell_angle_gamma 90.000000
_cell_volume 3810.492390
_symmetry_space_group_name_H-M "P M M A"
_symmetry_group_IT_number 51
_symmetry_cell_setting 'orthorhombic'
loop_
_space_group_symop_operation_xyz
x,y,z
1/2-x,-y,z
1/2+x,-y,-z
-x,y,-z
-x,-y,-z
1/2+x,y,-z
1/2-x,y,z
x,-y,z
loop_
_atom_site_type_symbol
_atom_site_label
_atom_site_fract_x
_atom_site_fract_y
_atom_site_fract_z
Si Si1 0.931240 0.347673 0.934507
Si Si2 0.570357 0.424587 0.430050
Si Si3 0.926963 0.071421 0.101937
Si Si4 0.927119 0.928889 0.257038
Si Si5 0.431901 0.657842 0.316703
Si Si6 0.430314 0.794295 0.109617
Si Si7 0.930178 0.205166 0.740301
Si Si8 0.067324 0.574641 0.192092
O O1 0.750000 0.349225 0.937384
O O2 0.978361 0.272170 0.924667
O O3 0.979421 0.388655 0.872504
O O4 0.000000 0.373372 0.000000
O O5 0.500000 0.413733 0.500000
O O6 0.750000 0.418882 0.433325
O O7 0.533693 0.500000 0.411351
O O8 0.503488 0.374583 0.378842
O O9 0.750000 0.074847 0.087467
O O10 0.942909 0.071115 0.179535
O O11 0.005739 0.138269 0.081647
O O12 0.984237 0.000000 0.079641
O O13 0.750000 0.924866 0.270267
O O14 0.007710 0.864478 0.282010
O O15 0.983176 0.000000 0.279477
O O16 0.250000 0.656081 0.321958
O O17 0.477807 0.732235 0.300828
O O18 0.476284 0.614810 0.254903
O O19 0.250000 0.797900 0.107830
O O20 0.474671 0.786944 0.184758
O O21 0.750000 0.203555 0.739666
O O22 0.250000 0.574229 0.191541
O O23 0.015463 0.500000 0.194295
#
# Coordination Sequence:
#
# PCOD9399532 Si02
#       8
#     8   8   8   8   8   8   8   8
#     4  10  20  34  49  67  90 118 156 200 244 293
#     4  10  21  36  53  75 104 137 171 205 241 284
#     4   8  14  24  39  61  87 113 144 183 228 281
#     4   8  14  24  37  57  89 126 159 191 232 283
#     4  10  18  31  52  77 102 130 165 202 242 290
#     4   9  16  28  44  62  88 117 150 193 235 283
#     4   9  16  26  43  67  94 123 157 198 240 284
#     4   9  17  31  52  73  93 122 158 195 241 296
#
# _framework density 16.795731
#
# number of rings (size 3 to 8) (size 9 to 14) (size 15 to 20)
#    0.000    2.875    1.250    1.500    0.000    3.000 
#    0.000    3.125    0.000    1.125    0.000    0.000 
#    0.000    0.500    0.000    1.625    0.000    2.375 
#
# Total GULP energy -356635.066935 kJ/mol
# GULP energy per Si atom -5572.422921 kJ/mol
# Density = 1.675750 g / cm^3
# Si number density = 16.795731 Si / 1000 Ang^3
#
#
#
# Elastic Constant Matrix: (Units=GPa)
#
#
# Indices 1 2 3 4 5 6 
#
# 1 11.7957 30.8708 20.9441 0.0000 0.0000 0.0000
# 2 30.8708 148.9956 57.1228 0.0000 0.0000 0.0000
# 3 20.9441 57.1228 75.0085 0.0000 0.0000 0.0000
# 4 0.0000 0.0000 0.0000 -50.5860 0.0000 0.0000
# 5 0.0000 0.0000 0.0000 0.0000 18.9343 0.0000
# 6 0.0000 0.0000 0.0000 0.0000 0.0000 21.2803
#
#
#
# Elastic Compliance Matrix: (Units=1/GPa)
#
#
# Indices 1 2 3 4 5 6 
#
# 1 0.260604 -0.036859 -0.044697 0.000000 0.000000 0.000000
# 2 -0.036859 0.014693 -0.000897 0.000000 0.000000 0.000000
# 3 -0.044697 -0.000897 0.026495 0.000000 0.000000 0.000000
# 4 0.000000 0.000000 0.000000 -0.019768 0.000000 0.000000
# 5 0.000000 0.000000 0.000000 0.000000 0.052814 0.000000
# 6 0.000000 0.000000 0.000000 0.000000 0.000000 0.046992
#
#
# Mechanical properties :
#
#
# Convention : Reuss Voigt Hill
#
# Bulk Modulus (GPa) = 7.30536 50.40837 28.85686
# Shear Modulus (GPa) = 8.44076 6.38319 7.41197
#
# Velocity S-wave (km/s) = 2.24420 1.95160 2.10300
# Velocity P-wave (km/s) = 3.32780 5.92926 4.80782
#
# Compressibility (1/GPa) = 0.13688587
#
# Stress axis : x y z
#
# Youngs Moduli (GPa) = 3.83724 68.06181 37.74245
#
# Poissons Ratio (x) = 2.50871 1.68696
# Poissons Ratio (y) = 0.14144 0.03386
# Poissons Ratio (z) = 0.17151 0.06106
#
# Static dielectric constant tensor:
#      x y z
#    x 1.566880 0.000000 0.000000 
#    y 0.000000 1.592580 0.000000 
#    z 0.000000 0.000000 1.545860 
# 
# From -- ./inp_files/32655.got.cif
#   From: 2010.05.17/outbox.cif.g08.bks.cpg/sg51_17_cif.got.tgz:32655.got - 2010.06.03 11:52:47.
