data_PCOD9399650
_publ_section_title
;
Structure prediction by ZEFSAII (Michael W. Deem and Ramdas Pophale) SiO2 
 PCOD9399650
Probable space group: P M M A
;
_chemical_formula_sum "Si O2"
_cell_formula_units_Z 52
_cell_length_a 9.232027
_cell_length_b 17.386175
_cell_length_c 18.239223
_cell_angle_alpha 90.000000
_cell_angle_beta 90.000000
_cell_angle_gamma 90.000000
_cell_volume 2927.571063
_symmetry_space_group_name_H-M "P M M A"
_symmetry_group_IT_number 51
_symmetry_cell_setting 'orthorhombic'
loop_
_space_group_symop_operation_xyz
x,y,z
1/2-x,-y,z
1/2+x,-y,-z
-x,y,-z
-x,-y,-z
1/2+x,y,-z
1/2-x,y,z
x,-y,z
loop_
_atom_site_type_symbol
_atom_site_label
_atom_site_fract_x
_atom_site_fract_y
_atom_site_fract_z
Si Si1 0.250000 0.407454 0.947477
Si Si2 0.425627 0.839787 0.420492
Si Si3 0.415198 0.224990 0.706845
Si Si4 0.750000 0.591130 0.877717
Si Si5 0.084151 0.838220 0.071899
Si Si6 0.976702 0.683293 0.150187
Si Si7 0.083418 0.912638 0.222515
Si Si8 0.070628 0.000000 0.581327
O O1 0.250000 0.500000 0.939174
O O2 0.380677 0.367502 0.904557
O O3 0.250000 0.391211 0.034461
O O4 0.500000 0.826696 0.500000
O O5 0.250000 0.846720 0.425995
O O6 0.477197 0.774551 0.362971
O O7 0.499869 0.919869 0.391105
O O8 0.250000 0.217770 0.681156
O O9 0.421965 0.290702 0.769556
O O10 0.469501 0.148812 0.749004
O O11 0.750000 0.500000 0.870854
O O12 0.615591 0.631149 0.840054
O O13 0.250000 0.820161 0.053368
O O14 0.082553 0.902092 0.134915
O O15 0.015551 0.761441 0.106955
O O16 0.000000 0.861635 0.000000
O O17 0.250000 0.893580 0.246528
O O18 0.051691 0.000000 0.242278
O O19 0.000000 0.000000 0.500000
O O20 0.250000 0.000000 0.582472
#
# Coordination Sequence:
#
# PCOD9399650 Si02
#       8
#     4   8   8   4   8   8   8   4
#     4  11  22  38  58  86 118 154 187 230 284 336
#     4  11  22  37  59  85 115 149 191 236 286 343
#     4  11  23  38  56  79 112 152 190 234 285 338
#     4  11  22  36  60  88 118 152 191 234 280 340
#     4  10  20  32  51  72  97 136 181 230 285 335
#     4  11  22  37  55  81 116 149 189 231 278 341
#     4   9  20  37  52  70  98 135 185 237 288 336
#     4  10  18  32  52  80 118 152 187 232 285 338
#
# _framework density 17.762166000000001
#
# number of rings (size 3 to 8) (size 9 to 14) (size 15 to 20)
#    0.000    1.538    1.538    5.308    4.308    2.462 
#    0.000    0.000    0.000    0.000    0.000    0.000 
#    0.000    3.692    0.000    0.000    0.000    0.000 
#
# Total GULP energy -289881.452396 kJ/mol
# GULP energy per Si atom -5574.643315 kJ/mol
# Density = 1.772174 g / cm^3
# Si number density = 17.762166 Si / 1000 Ang^3
#
#
#
# Elastic Constant Matrix: (Units=GPa)
#
#
# Indices 1 2 3 4 5 6 
#
# 1 122.5572 20.9300 28.4017 0.0000 0.0000 0.0000
# 2 20.9300 62.6703 23.0659 0.0000 0.0000 0.0000
# 3 28.4017 23.0659 90.5426 0.0000 0.0000 0.0000
# 4 0.0000 0.0000 0.0000 27.0195 0.0000 0.0000
# 5 0.0000 0.0000 0.0000 0.0000 29.4723 0.0000
# 6 0.0000 0.0000 0.0000 0.0000 0.0000 23.3592
#
#
#
# Elastic Compliance Matrix: (Units=1/GPa)
#
#
# Indices 1 2 3 4 5 6 
#
# 1 0.009062 -0.002185 -0.002286 0.000000 0.000000 0.000000
# 2 -0.002185 0.018134 -0.003934 0.000000 0.000000 0.000000
# 3 -0.002286 -0.003934 0.012764 0.000000 0.000000 0.000000
# 4 0.000000 0.000000 0.000000 0.037010 0.000000 0.000000
# 5 0.000000 0.000000 0.000000 0.000000 0.033930 0.000000
# 6 0.000000 0.000000 0.000000 0.000000 0.000000 0.042810
#
#
# Mechanical properties :
#
#
# Convention : Reuss Voigt Hill
#
# Bulk Modulus (GPa) = 43.19733 46.72946 44.96339
# Shear Modulus (GPa) = 28.05232 29.52837 28.79035
#
# Velocity S-wave (km/s) = 3.97839 4.08171 4.03038
# Velocity P-wave (km/s) = 6.74360 6.96989 6.85768
#
# Compressibility (1/GPa) = 0.02314958
#
# Stress axis : x y z
#
# Youngs Moduli (GPa) = 110.34591 55.14403 78.34600
#
# Poissons Ratio (x) = 0.12050 0.17910
# Poissons Ratio (y) = 0.24113 0.30824
# Poissons Ratio (z) = 0.25226 0.21695
#
# Static dielectric constant tensor:
#      x y z
#    x 1.607020 0.000000 0.000000 
#    y 0.000000 1.592110 0.000000 
#    z 0.000000 0.000000 1.656990 
# 
# From -- ./inp_files/28008.got.cif
#   From: 2010.05.17/outbox.cif.g08.bks.cpg/sg51_15_cif.got.tgz:28008.got - 2010.06.03 11:52:47.
