data_PCOD9399254
_publ_section_title
;
Structure prediction by ZEFSAII (Michael W. Deem and Ramdas Pophale) SiO2 
 PCOD9399254
Probable space group: P M M A
;
_chemical_formula_sum "Si O2"
_cell_formula_units_Z 32
_cell_length_a 8.175554
_cell_length_b 13.562323
_cell_length_c 14.469088
_cell_angle_alpha 90.000000
_cell_angle_beta 90.000000
_cell_angle_gamma 90.000000
_cell_volume 1604.325302
_symmetry_space_group_name_H-M "P M M A"
_symmetry_group_IT_number 51
_symmetry_cell_setting 'orthorhombic'
loop_
_space_group_symop_operation_xyz
x,y,z
1/2-x,-y,z
1/2+x,-y,-z
-x,y,-z
-x,-y,-z
1/2+x,y,-z
1/2-x,y,z
x,-y,z
loop_
_atom_site_type_symbol
_atom_site_label
_atom_site_fract_x
_atom_site_fract_y
_atom_site_fract_z
Si Si1 0.052410 0.391981 0.893281
Si Si2 0.549581 0.195921 0.212436
Si Si3 0.447855 0.000000 0.893548
Si Si4 0.056004 0.286435 0.605483
Si Si5 0.555835 0.500000 0.607263
O O1 0.250000 0.392007 0.888659
O O2 0.995170 0.500000 0.858487
O O3 0.994714 0.295092 0.840036
O O4 0.000000 0.384763 0.000000
O O5 0.750000 0.195028 0.211365
O O6 0.494741 0.098193 0.159610
O O7 0.496626 0.207776 0.319012
O O8 0.250000 0.000000 0.891310
O O9 0.500000 0.000000 0.000000
O O10 0.250000 0.282739 0.603034
O O11 0.000000 0.273929 0.500000
O O12 0.009586 0.395671 0.642467
O O13 0.750000 0.500000 0.611878
O O14 0.500000 0.500000 0.500000
#
# Coordination Sequence:
#
# PCOD9399254 Si02
#       5
#     8   8   4   8   4
#     4   9  17  30  48  71  99 130 165 204 255 313
#     4   9  19  33  54  77 101 139 178 214 259 319
#     4  10  20  38  59  82 106 134 179 222 267 318
#     4  10  19  33  52  75 105 143 181 219 261 310
#     4  10  18  30  48  74 105 140 175 216 261 308
#
# _framework density 19.946079999999998
#
# number of rings (size 3 to 8) (size 9 to 14) (size 15 to 20)
#    0.000    2.500    0.000    4.125    1.750    0.000 
#    0.000    5.625    0.000    0.000    0.000    0.000 
#    0.000    0.000    0.000    0.000    0.000    0.000 
#
# Total GULP energy -178509.060838 kJ/mol
# GULP energy per Si atom -5578.408151 kJ/mol
# Density = 1.990068 g / cm^3
# Si number density = 19.946080 Si / 1000 Ang^3
#
#
#
# Elastic Constant Matrix: (Units=GPa)
#
#
# Indices 1 2 3 4 5 6 
#
# 1 24.3719 15.6083 12.1051 0.0000 0.0000 0.0000
# 2 15.6083 174.0337 110.3402 0.0000 0.0000 0.0000
# 3 12.1051 110.3402 144.0613 0.0000 0.0000 0.0000
# 4 0.0000 0.0000 0.0000 40.0395 0.0000 0.0000
# 5 0.0000 0.0000 0.0000 0.0000 19.5634 0.0000
# 6 0.0000 0.0000 0.0000 0.0000 0.0000 8.5805
#
#
#
# Elastic Compliance Matrix: (Units=1/GPa)
#
#
# Indices 1 2 3 4 5 6 
#
# 1 0.043656 -0.003090 -0.001301 0.000000 0.000000 0.000000
# 2 -0.003090 0.011389 -0.008464 0.000000 0.000000 0.000000
# 3 -0.001301 -0.008464 0.013533 0.000000 0.000000 0.000000
# 4 0.000000 0.000000 0.000000 0.024975 0.000000 0.000000
# 5 0.000000 0.000000 0.000000 0.000000 0.051116 0.000000
# 6 0.000000 0.000000 0.000000 0.000000 0.000000 0.116544
#
#
# Mechanical properties :
#
#
# Convention : Reuss Voigt Hill
#
# Bulk Modulus (GPa) = 23.32729 68.73044 46.02887
# Shear Modulus (GPa) = 16.59949 27.26422 21.93185
#
# Velocity S-wave (km/s) = 2.88795 3.70117 3.31955
# Velocity P-wave (km/s) = 4.77921 7.26621 6.14974
#
# Compressibility (1/GPa) = 0.04286825
#
# Stress axis : x y z
#
# Youngs Moduli (GPa) = 22.90624 87.80215 73.89140
#
# Poissons Ratio (x) = 0.27132 0.09617
# Poissons Ratio (y) = 0.07078 0.62539
# Poissons Ratio (z) = 0.02981 0.74313
#
# Static dielectric constant tensor:
#      x y z
#    x 1.689300 0.000000 0.000000 
#    y 0.000000 1.728840 0.000000 
#    z 0.000000 0.000000 1.717370 
# 
# From -- ./inp_files/20152.got.cif
#   From: 2010.05.17/outbox.cif.g08.bks.cpg/sg51_11_cif.got.tgz:20152.got - 2010.06.03 11:52:47.
