data_PCOD9399240
_publ_section_title
;
Structure prediction by ZEFSAII (Michael W. Deem and Ramdas Pophale) SiO2 
 PCOD9399240
Probable space group: P M M A
;
_chemical_formula_sum "Si O2"
_cell_formula_units_Z 36
_cell_length_a 8.664161
_cell_length_b 15.890103
_cell_length_c 14.760103
_cell_angle_alpha 90.000000
_cell_angle_beta 90.000000
_cell_angle_gamma 90.000000
_cell_volume 2032.088482
_symmetry_space_group_name_H-M "P M M A"
_symmetry_group_IT_number 51
_symmetry_cell_setting 'orthorhombic'
loop_
_space_group_symop_operation_xyz
x,y,z
1/2-x,-y,z
1/2+x,-y,-z
-x,y,-z
-x,-y,-z
1/2+x,y,-z
1/2-x,y,z
x,-y,z
loop_
_atom_site_type_symbol
_atom_site_label
_atom_site_fract_x
_atom_site_fract_y
_atom_site_fract_z
Si Si1 0.065383 0.675621 0.899296
Si Si2 0.565498 0.903241 0.598606
Si Si3 0.565437 0.500000 0.897365
Si Si4 0.936671 0.405596 0.398281
Si Si5 0.436027 0.243732 0.718659
O O1 0.250000 0.668536 0.905778
O O2 0.023935 0.744569 0.824271
O O3 0.000828 0.587107 0.860760
O O4 0.000000 0.689950 0.000000
O O5 0.500000 0.879309 0.500000
O O6 0.750000 0.900575 0.594828
O O7 0.505528 0.838040 0.672295
O O8 0.517252 0.000000 0.616637
O O9 0.750000 0.500000 0.897254
O O10 0.500000 0.500000 0.000000
O O11 0.750000 0.404606 0.400851
O O12 0.984183 0.500000 0.367254
O O13 0.986596 0.327652 0.336072
O O14 0.000000 0.394430 0.500000
O O15 0.250000 0.239922 0.712415
#
# Coordination Sequence:
#
# PCOD9399240 Si02
#       5
#     8   8   4   8   8
#     4  10  20  34  52  74 104 140 180 225 273 318
#     4  10  21  37  58  83 111 140 171 215 267 318
#     4  10  18  30  48  70  97 134 179 224 268 310
#     4   9  18  32  48  68  99 136 171 206 249 302
#     4  10  21  34  54  79 103 139 179 219 267 317
#
# _framework density 17.715764
#
# number of rings (size 3 to 8) (size 9 to 14) (size 15 to 20)
#    0.000    2.222    0.000    4.333    1.556    5.778 
#    0.000    0.000    0.000    0.667    0.000    0.000 
#    0.000    0.000    0.000    0.000    0.000    0.000 
#
# Total GULP energy -200873.528748 kJ/mol
# GULP energy per Si atom -5579.820243 kJ/mol
# Density = 1.767544 g / cm^3
# Si number density = 17.715764 Si / 1000 Ang^3
#
#
#
# Elastic Constant Matrix: (Units=GPa)
#
#
# Indices 1 2 3 4 5 6 
#
# 1 44.8350 35.4062 39.0275 0.0000 0.0000 0.0000
# 2 35.4062 94.6689 79.5757 0.0000 0.0000 0.0000
# 3 39.0275 79.5757 115.9527 0.0000 0.0000 0.0000
# 4 0.0000 0.0000 0.0000 27.7265 0.0000 0.0000
# 5 0.0000 0.0000 0.0000 0.0000 22.3848 0.0000
# 6 0.0000 0.0000 0.0000 0.0000 0.0000 28.2091
#
#
#
# Elastic Compliance Matrix: (Units=1/GPa)
#
#
# Indices 1 2 3 4 5 6 
#
# 1 0.033509 -0.007213 -0.006328 0.000000 0.000000 0.000000
# 2 -0.007213 0.026516 -0.015770 0.000000 0.000000 0.000000
# 3 -0.006328 -0.015770 0.021577 0.000000 0.000000 0.000000
# 4 0.000000 0.000000 0.000000 0.036067 0.000000 0.000000
# 5 0.000000 0.000000 0.000000 0.000000 0.044673 0.000000
# 6 0.000000 0.000000 0.000000 0.000000 0.000000 0.035450
#
#
# Mechanical properties :
#
#
# Convention : Reuss Voigt Hill
#
# Bulk Modulus (GPa) = 43.51687 62.60839 53.06263
# Shear Modulus (GPa) = 18.93415 22.42722 20.68068
#
# Velocity S-wave (km/s) = 3.27276 3.56188 3.42037
# Velocity P-wave (km/s) = 6.23687 7.23417 6.75395
#
# Compressibility (1/GPa) = 0.02297959
#
# Stress axis : x y z
#
# Youngs Moduli (GPa) = 29.84305 37.71252 46.34613
#
# Poissons Ratio (x) = 0.27201 0.29330
# Poissons Ratio (y) = 0.21525 0.73087
# Poissons Ratio (z) = 0.18886 0.59472
#
# Static dielectric constant tensor:
#      x y z
#    x 1.595100 0.000000 0.000000 
#    y 0.000000 1.618110 0.000000 
#    z 0.000000 0.000000 1.584950 
# 
# From -- ./inp_files/20313.got.cif
#   From: 2010.05.17/outbox.cif.g08.bks.cpg/sg51_11_cif.got.tgz:20313.got - 2010.06.03 11:52:47.
