data_PCOD9399978
_publ_section_title
;
Structure prediction by ZEFSAII (Michael W. Deem and Ramdas Pophale) SiO2 
 PCOD9399978
Probable space group: P M M A
;
_chemical_formula_sum "Si O2"
_cell_formula_units_Z 56
_cell_length_a 19.058357
_cell_length_b 7.582126
_cell_length_c 19.985616
_cell_angle_alpha 90.000000
_cell_angle_beta 90.000000
_cell_angle_gamma 90.000000
_cell_volume 2887.978753
_symmetry_space_group_name_H-M "P M M A"
_symmetry_group_IT_number 51
_symmetry_cell_setting 'orthorhombic'
loop_
_space_group_symop_operation_xyz
x,y,z
1/2-x,-y,z
1/2+x,-y,-z
-x,y,-z
-x,-y,-z
1/2+x,y,-z
1/2-x,y,z
x,-y,z
loop_
_atom_site_type_symbol
_atom_site_label
_atom_site_fract_x
_atom_site_fract_y
_atom_site_fract_z
Si Si1 0.329450 0.792181 0.088934
Si Si2 0.527603 0.715313 0.571710
Si Si3 0.956584 0.715600 0.291897
Si Si4 0.171837 0.715536 0.361792
Si Si5 0.099385 0.709346 0.227539
Si Si6 0.668911 0.284422 0.202714
Si Si7 0.169368 0.288879 0.944081
O O1 0.250000 0.713770 0.091871
O O2 0.373700 0.738726 0.153192
O O3 0.322461 0.000000 0.093024
O O4 0.362534 0.754140 0.016121
O O5 0.500000 0.775652 0.500000
O O6 0.527905 0.500000 0.570927
O O7 0.477175 0.769160 0.633051
O O8 0.606838 0.769787 0.591293
O O9 0.954914 0.500000 0.291925
O O10 0.883683 0.775902 0.260216
O O11 0.021462 0.774010 0.245012
O O12 0.250000 0.775136 0.379938
O O13 0.172814 0.500000 0.362755
O O14 0.151645 0.773132 0.286170
O O15 0.096323 0.500000 0.237036
O O16 0.750000 0.229574 0.210367
O O17 0.669232 0.500000 0.203670
O O18 0.642293 0.229696 0.128414
O O19 0.250000 0.222900 0.947597
O O20 0.171517 0.500000 0.940945
#
# Coordination Sequence:
#
# PCOD9399978 Si02
#       7
#     8   8   8   8   8   8   8
#     4  10  19  28  39  58  83 107 132 168 211 247
#     4   8  13  21  32  48  76 109 132 156 198 246
#     4   8  14  24  38  57  78 101 134 171 203 238
#     4   8  13  21  34  52  72  98 136 173 196 224
#     4   9  16  26  41  58  78 108 142 171 198 235
#     4   8  13  23  40  59  76  95 127 174 215 240
#     4   8  14  25  41  58  75 101 137 170 201 242
#
# _framework density 19.390725
#
# number of rings (size 3 to 8) (size 9 to 14) (size 15 to 20)
#    0.000    3.571    0.000    3.429    0.000    1.429 
#    0.000    1.429    0.000    9.429    0.000    0.000 
#    0.000    9.143    0.000    0.000    0.000   44.286 
#
# Total GULP energy -311769.225123 kJ/mol
# GULP energy per Si atom -5567.307591 kJ/mol
# Density = 1.934659 g / cm^3
# Si number density = 19.390725 Si / 1000 Ang^3
#
#
#
# Elastic Constant Matrix: (Units=GPa)
#
#
# Indices 1 2 3 4 5 6 
#
# 1 118.8654 3.6754 108.3710 0.0000 0.0000 0.0000
# 2 3.6754 36.2516 -0.6188 0.0000 0.0000 0.0000
# 3 108.3710 -0.6188 179.3090 0.0000 0.0000 0.0000
# 4 0.0000 0.0000 0.0000 -34.1059 0.0000 0.0000
# 5 0.0000 0.0000 0.0000 0.0000 23.4816 0.0000
# 6 0.0000 0.0000 0.0000 0.0000 0.0000 -4.1883
#
#
#
# Elastic Compliance Matrix: (Units=1/GPa)
#
#
# Indices 1 2 3 4 5 6 
#
# 1 0.018898 -0.002111 -0.011429 0.000000 0.000000 0.000000
# 2 -0.002111 0.027822 0.001372 0.000000 0.000000 0.000000
# 3 -0.011429 0.001372 0.012489 0.000000 0.000000 0.000000
# 4 0.000000 0.000000 0.000000 -0.029320 0.000000 0.000000
# 5 0.000000 0.000000 0.000000 0.000000 0.042587 0.000000
# 6 0.000000 0.000000 0.000000 0.000000 0.000000 -0.238763
#
#
# Mechanical properties :
#
#
# Convention : Reuss Voigt Hill
#
# Bulk Modulus (GPa) = 28.67511 61.92014 45.29762
# Shear Modulus (GPa) = -38.36518 11.90404 -13.23057
#
# Velocity S-wave (km/s) = -4.45290 2.48040 -2.61495
# Velocity P-wave (km/s) = 3.40845 6.34077 3.78073
#
# Compressibility (1/GPa) = 0.03487346
#
# Stress axis : x y z
#
# Youngs Moduli (GPa) = 52.91571 35.94220 80.06990
#
# Poissons Ratio (x) = 0.07588 0.91511
# Poissons Ratio (y) = 0.11171 -0.10985
# Poissons Ratio (z) = 0.60477 -0.04931
#
# Static dielectric constant tensor:
#      x y z
#    x 1.799360 0.000000 0.000000 
#    y 0.000000 1.709970 0.000000 
#    z 0.000000 0.000000 1.691620 
# 
# From -- ./inp_files/30443.got.cif
#   From: 2010.05.17/outbox.cif.g08.bks.cpg/sg51_16_cif.got.tgz:30443.got - 2010.06.03 11:52:47.
