data_PCOD9399447
_publ_section_title
;
Structure prediction by ZEFSAII (Michael W. Deem and Ramdas Pophale) SiO2 
 PCOD9399447
Probable space group: P M M A
;
_chemical_formula_sum "Si O2"
_cell_formula_units_Z 64
_cell_length_a 21.803573
_cell_length_b 9.353984
_cell_length_c 19.420302
_cell_angle_alpha 90.000000
_cell_angle_beta 90.000000
_cell_angle_gamma 90.000000
_cell_volume 3960.775894
_symmetry_space_group_name_H-M "P M M A"
_symmetry_group_IT_number 51
_symmetry_cell_setting 'orthorhombic'
loop_
_space_group_symop_operation_xyz
x,y,z
1/2-x,-y,z
1/2+x,-y,-z
-x,y,-z
-x,-y,-z
1/2+x,y,-z
1/2-x,y,z
x,-y,z
loop_
_atom_site_type_symbol
_atom_site_label
_atom_site_fract_x
_atom_site_fract_y
_atom_site_fract_z
Si Si1 0.011230 0.832097 0.677884
Si Si2 0.442143 0.671663 0.548827
Si Si3 0.117247 0.167144 0.086861
Si Si4 0.822096 0.337854 0.798449
Si Si5 0.933283 0.663871 0.037390
Si Si6 0.484421 0.167921 0.838775
Si Si7 0.133087 0.831979 0.333080
Si Si8 0.819554 0.670922 0.534878
O O1 0.049546 0.742395 0.623187
O O2 0.017149 0.791112 0.758397
O O3 0.939876 0.816851 0.657002
O O4 0.026776 0.000000 0.672844
O O5 0.500000 0.715041 0.500000
O O6 0.445053 0.500000 0.554994
O O7 0.376501 0.708688 0.514843
O O8 0.164955 0.259071 0.130152
O O9 0.053421 0.178574 0.130404
O O10 0.132645 0.000000 0.082524
O O11 0.106736 0.236897 0.012495
O O12 0.750000 0.344219 0.785396
O O13 0.846858 0.500000 0.799542
O O14 0.851353 0.245395 0.737950
O O15 0.911832 0.500000 0.041177
O O16 0.943210 0.734711 0.111768
O O17 0.000000 0.661733 0.000000
O O18 0.467456 0.000000 0.844574
O O19 0.168786 0.755405 0.394597
O O20 0.147790 0.000000 0.329272
O O21 0.750000 0.699575 0.509569
O O22 0.823833 0.500000 0.548005
#
# Coordination Sequence:
#
# PCOD9399447 Si02
#       8
#     8   8   8   8   8   8   8   8
#     4  10  20  33  50  74 103 135 167 206 258 306
#     4  10  20  34  52  75  99 130 171 210 253 310
#     4  10  18  31  49  68  94 130 167 204 246 294
#     4  11  23  35  47  67  98 136 175 214 254 296
#     4   9  17  28  44  70  97 124 158 195 238 287
#     4   9  17  31  47  68  97 128 161 197 246 299
#     4  11  21  34  51  73 100 133 173 211 250 302
#     4  10  21  37  54  73 100 133 169 212 259 304
#
# _framework density 16.158450999999999
#
# number of rings (size 3 to 8) (size 9 to 14) (size 15 to 20)
#    0.000    2.000    2.500    1.875    0.000    6.500 
#    0.000    0.000    0.000    0.000    0.000    0.875 
#    0.000    3.000    0.000    0.000    0.000    0.000 
#
# Total GULP energy -356917.483810 kJ/mol
# GULP energy per Si atom -5576.835685 kJ/mol
# Density = 1.612167 g / cm^3
# Si number density = 16.158451 Si / 1000 Ang^3
#
#
#
# Elastic Constant Matrix: (Units=GPa)
#
#
# Indices 1 2 3 4 5 6 
#
# 1 56.6109 34.8411 33.9421 0.0000 0.0000 0.0000
# 2 34.8411 65.4784 40.5494 0.0000 0.0000 0.0000
# 3 33.9421 40.5494 93.9847 0.0000 0.0000 0.0000
# 4 0.0000 0.0000 0.0000 36.9408 0.0000 0.0000
# 5 0.0000 0.0000 0.0000 0.0000 20.7579 0.0000
# 6 0.0000 0.0000 0.0000 0.0000 0.0000 13.7211
#
#
#
# Elastic Compliance Matrix: (Units=1/GPa)
#
#
# Indices 1 2 3 4 5 6 
#
# 1 0.027893 -0.011740 -0.005008 0.000000 0.000000 0.000000
# 2 -0.011740 0.025782 -0.006884 0.000000 0.000000 0.000000
# 3 -0.005008 -0.006884 0.015419 0.000000 0.000000 0.000000
# 4 0.000000 0.000000 0.000000 0.027070 0.000000 0.000000
# 5 0.000000 0.000000 0.000000 0.000000 0.048175 0.000000
# 6 0.000000 0.000000 0.000000 0.000000 0.000000 0.072880
#
#
# Mechanical properties :
#
#
# Convention : Reuss Voigt Hill
#
# Bulk Modulus (GPa) = 45.80972 48.30434 47.05703
# Shear Modulus (GPa) = 18.39864 21.40003 19.89934
#
# Velocity S-wave (km/s) = 3.37803 3.64316 3.51310
# Velocity P-wave (km/s) = 6.60505 6.90332 6.75583
#
# Compressibility (1/GPa) = 0.02182943
#
# Stress axis : x y z
#
# Youngs Moduli (GPa) = 35.85170 38.78647 64.85684
#
# Poissons Ratio (x) = 0.45537 0.32480
# Poissons Ratio (y) = 0.42091 0.44645
# Poissons Ratio (z) = 0.17954 0.26699
#
# Static dielectric constant tensor:
#      x y z
#    x 1.543650 0.000000 0.000000 
#    y 0.000000 1.544940 0.000000 
#    z 0.000000 0.000000 1.527040 
# 
# From -- ./inp_files/30934.got.cif
#   From: 2010.05.17/outbox.cif.g08.bks.cpg/sg51_16_cif.got.tgz:30934.got - 2010.06.03 11:52:47.
