data_PCOD9399917
_publ_section_title
;
Structure prediction by ZEFSAII (Michael W. Deem and Ramdas Pophale) SiO2 
 PCOD9399917
Probable space group: P M M A
;
_chemical_formula_sum "Si O2"
_cell_formula_units_Z 64
_cell_length_a 31.791395
_cell_length_b 8.662274
_cell_length_c 12.191405
_cell_angle_alpha 90.000000
_cell_angle_beta 90.000000
_cell_angle_gamma 90.000000
_cell_volume 3357.339506
_symmetry_space_group_name_H-M "P M M A"
_symmetry_group_IT_number 51
_symmetry_cell_setting 'orthorhombic'
loop_
_space_group_symop_operation_xyz
x,y,z
1/2-x,-y,z
1/2+x,-y,-z
-x,y,-z
-x,-y,-z
1/2+x,y,-z
1/2-x,y,z
x,-y,z
loop_
_atom_site_type_symbol
_atom_site_label
_atom_site_fract_x
_atom_site_fract_y
_atom_site_fract_z
Si Si1 0.622771 0.314595 0.634227
Si Si2 0.296312 0.687711 0.506470
Si Si3 0.296524 0.685841 0.990817
Si Si4 0.876450 0.183644 0.879435
Si Si5 0.581954 0.183334 0.245379
Si Si6 0.548315 0.185846 0.486736
Si Si7 0.047647 0.315931 0.976446
Si Si8 0.824774 0.685846 0.251603
O O1 0.623410 0.500000 0.636812
O O2 0.664025 0.260422 0.565869
O O3 0.623841 0.251423 0.757174
O O4 0.580941 0.259755 0.571450
O O5 0.250000 0.739987 0.469057
O O6 0.296424 0.500000 0.502284
O O7 0.302912 0.729900 0.634151
O O8 0.250000 0.733404 0.029463
O O9 0.299792 0.500000 0.002511
O O10 0.335068 0.760194 0.055404
O O11 0.300674 0.720330 0.861027
O O12 0.917684 0.240783 0.944505
O O13 0.876809 0.000000 0.874982
O O14 0.563136 0.222710 0.363775
O O15 0.630459 0.231956 0.245380
O O16 0.577944 0.000000 0.227964
O O17 0.559299 0.271223 0.147219
O O18 0.500000 0.235184 0.500000
O O19 0.550065 0.000000 0.500730
O O20 0.050069 0.500000 0.990729
O O21 0.000000 0.264957 0.000000
O O22 0.831053 0.500000 0.254762
#
# Coordination Sequence:
#
# PCOD9399917 Si02
#       8
#     8   8   8   8   8   8   8   8
#     4  11  23  40  63  91 121 160 209 258 306 358
#     4   9  18  34  59  91 122 155 199 247 298 356
#     4  10  21  38  63  93 124 162 207 254 304 363
#     4  12  26  43  63  88 124 166 206 254 313 373
#     4  11  22  37  62  93 127 163 201 245 305 370
#     4  10  23  42  62  89 125 165 204 247 305 369
#     4  11  25  44  66  93 123 157 204 259 310 365
#     4  10  18  34  61  91 124 158 198 248 304 358
#
# _framework density 19.062714
#
# number of rings (size 3 to 8) (size 9 to 14) (size 15 to 20)
#    0.000    1.500    2.500    2.625    1.750    4.000 
#    0.000    1.250    0.000    3.750    0.000    0.000 
#    0.000    0.000    0.000    0.000    0.000    0.000 
#
# Total GULP energy -357634.274063 kJ/mol
# GULP energy per Si atom -5588.035532 kJ/mol
# Density = 1.901933 g / cm^3
# Si number density = 19.062714 Si / 1000 Ang^3
#
#
#
# Elastic Constant Matrix: (Units=GPa)
#
#
# Indices 1 2 3 4 5 6 
#
# 1 184.6009 49.0821 81.5096 0.0000 0.0000 0.0000
# 2 49.0821 38.7431 48.3934 0.0000 0.0000 0.0000
# 3 81.5096 48.3934 135.2753 0.0000 0.0000 0.0000
# 4 0.0000 0.0000 0.0000 27.4339 0.0000 0.0000
# 5 0.0000 0.0000 0.0000 0.0000 53.6366 0.0000
# 6 0.0000 0.0000 0.0000 0.0000 0.0000 6.6007
#
#
#
# Elastic Compliance Matrix: (Units=1/GPa)
#
#
# Indices 1 2 3 4 5 6 
#
# 1 0.008549 -0.007948 -0.002308 0.000000 0.000000 0.000000
# 2 -0.007948 0.054050 -0.014547 0.000000 0.000000 0.000000
# 3 -0.002308 -0.014547 0.013987 0.000000 0.000000 0.000000
# 4 0.000000 0.000000 0.000000 0.036451 0.000000 0.000000
# 5 0.000000 0.000000 0.000000 0.000000 0.018644 0.000000
# 6 0.000000 0.000000 0.000000 0.000000 0.000000 0.151499
#
#
# Mechanical properties :
#
#
# Convention : Reuss Voigt Hill
#
# Bulk Modulus (GPa) = 37.06329 79.62106 58.34218
# Shear Modulus (GPa) = 14.62927 29.50985 22.06956
#
# Velocity S-wave (km/s) = 2.77325 3.93878 3.40624
# Velocity P-wave (km/s) = 5.45340 7.90847 6.79278
#
# Compressibility (1/GPa) = 0.02698087
#
# Stress axis : x y z
#
# Youngs Moduli (GPa) = 116.96667 18.50124 71.49407
#
# Poissons Ratio (x) = 0.14705 0.16502
# Poissons Ratio (y) = 0.92963 1.04003
# Poissons Ratio (z) = 0.26998 0.26914
#
# Static dielectric constant tensor:
#      x y z
#    x 1.657430 0.000000 0.000000 
#    y 0.000000 1.643490 0.000000 
#    z 0.000000 0.000000 1.640970 
# 
# From -- ./inp_files/19544.got.cif
#   From: 2010.05.17/outbox.cif.g08.bks.cpg/sg51_10_cif.got.tgz:19544.got - 2010.06.03 11:52:47.
