data_PCOD9399023
_publ_section_title
;
Structure prediction by ZEFSAII (Michael W. Deem and Ramdas Pophale) SiO2 
 PCOD9399023
Probable space group: P M M A
;
_chemical_formula_sum "Si O2"
_cell_formula_units_Z 56
_cell_length_a 23.348157
_cell_length_b 8.888769
_cell_length_c 15.979882
_cell_angle_alpha 90.000000
_cell_angle_beta 90.000000
_cell_angle_gamma 90.000000
_cell_volume 3316.406770
_symmetry_space_group_name_H-M "P M M A"
_symmetry_group_IT_number 51
_symmetry_cell_setting 'orthorhombic'
loop_
_space_group_symop_operation_xyz
x,y,z
1/2-x,-y,z
1/2+x,-y,-z
-x,y,-z
-x,-y,-z
1/2+x,y,-z
1/2-x,y,z
x,-y,z
loop_
_atom_site_type_symbol
_atom_site_label
_atom_site_fract_x
_atom_site_fract_y
_atom_site_fract_z
Si Si1 0.064936 0.682124 0.676826
Si Si2 0.569916 0.679859 0.674752
Si Si3 0.112928 0.675382 0.847170
Si Si4 0.493201 0.836110 0.901272
Si Si5 0.817708 0.319830 0.991342
Si Si6 0.430636 0.827755 0.501138
Si Si7 0.878753 0.826851 0.832120
O O1 0.065383 0.500000 0.675128
O O2 0.106607 0.734692 0.752164
O O3 0.084314 0.746061 0.587673
O O4 0.997450 0.726780 0.690782
O O5 0.570409 0.500000 0.675612
O O6 0.586087 0.741709 0.583292
O O7 0.613721 0.741781 0.744208
O O8 0.127975 0.500000 0.840488
O O9 0.047975 0.700948 0.877470
O O10 0.151600 0.738022 0.923138
O O11 0.556027 0.824936 0.864777
O O12 0.468115 0.000000 0.875462
O O13 0.500000 0.836829 0.000000
O O14 0.750000 0.295046 0.997520
O O15 0.828395 0.500000 0.986390
O O16 0.842001 0.246907 0.906433
O O17 0.500000 0.829528 0.500000
O O18 0.410600 0.000000 0.499899
O O19 0.861017 0.000000 0.819741
#
# Coordination Sequence:
#
# PCOD9399023 Si02
#       7
#     8   8   8   8   8   8   8
#     4   9  17  28  43  67  97 130 164 198 241 291
#     4  10  18  29  46  69  99 132 164 199 241 291
#     4  10  19  31  49  71  96 128 166 203 242 291
#     4  10  19  30  44  68  99 127 157 196 245 294
#     4  10  22  38  53  70  95 129 169 210 248 289
#     4   9  17  28  42  64  97 134 165 195 236 288
#     4  11  21  32  49  72  99 130 164 203 246 295
#
# _framework density 16.885745
#
# number of rings (size 3 to 8) (size 9 to 14) (size 15 to 20)
#    0.000    2.143    2.857    1.286    0.000    4.000 
#    0.000    0.000    0.000    0.000    0.000    1.000 
#    0.000    5.714    0.000    0.000    0.000    0.000 
#
# Total GULP energy -311745.289368 kJ/mol
# GULP energy per Si atom -5566.880167 kJ/mol
# Density = 1.684731 g / cm^3
# Si number density = 16.885745 Si / 1000 Ang^3
#
#
#
# Elastic Constant Matrix: (Units=GPa)
#
#
# Indices 1 2 3 4 5 6 
#
# 1 35.0047 18.9460 37.6109 0.0000 0.0000 0.0000
# 2 18.9460 40.9703 47.4969 0.0000 0.0000 0.0000
# 3 37.6109 47.4969 166.1620 0.0000 0.0000 0.0000
# 4 0.0000 0.0000 0.0000 -4.2817 0.0000 0.0000
# 5 0.0000 0.0000 0.0000 0.0000 5.8216 0.0000
# 6 0.0000 0.0000 0.0000 0.0000 0.0000 23.0258
#
#
#
# Elastic Compliance Matrix: (Units=1/GPa)
#
#
# Indices 1 2 3 4 5 6 
#
# 1 0.041598 -0.012444 -0.005858 0.000000 0.000000 0.000000
# 2 -0.012444 0.040228 -0.008682 0.000000 0.000000 0.000000
# 3 -0.005858 -0.008682 0.009826 0.000000 0.000000 0.000000
# 4 0.000000 0.000000 0.000000 -0.233554 0.000000 0.000000
# 5 0.000000 0.000000 0.000000 0.000000 0.171773 0.000000
# 6 0.000000 0.000000 0.000000 0.000000 0.000000 0.043430
#
#
# Mechanical properties :
#
#
# Convention : Reuss Voigt Hill
#
# Bulk Modulus (GPa) = 26.53818 50.02717 38.28268
# Shear Modulus (GPa) = 35.75765 14.11871 24.93818
#
# Velocity S-wave (km/s) = 4.60676 2.89473 3.84719
# Velocity P-wave (km/s) = 6.63677 6.39248 6.51577
#
# Compressibility (1/GPa) = 0.03768156
#
# Stress axis : x y z
#
# Youngs Moduli (GPa) = 24.03985 24.85833 101.76983
#
# Poissons Ratio (x) = 0.30934 0.59622
# Poissons Ratio (y) = 0.29916 0.88359
# Poissons Ratio (z) = 0.14084 0.21583
#
# Static dielectric constant tensor:
#      x y z
#    x 1.552440 0.000000 0.000000 
#    y 0.000000 1.623510 0.000000 
#    z 0.000000 0.000000 1.614100 
# 
# From -- ./inp_files/25643.got.cif
#   From: 2010.05.17/outbox.cif.g08.bks.cpg/sg51_13_cif.got.tgz:25643.got - 2010.06.03 11:52:47.
