data_PCOD9399750
_publ_section_title
;
Structure prediction by ZEFSAII (Michael W. Deem and Ramdas Pophale) SiO2 
 PCOD9399750
Probable space group: P M M A
;
_chemical_formula_sum "Si O2"
_cell_formula_units_Z 48
_cell_length_a 9.023321
_cell_length_b 15.659343
_cell_length_c 18.037635
_cell_angle_alpha 90.000000
_cell_angle_beta 90.000000
_cell_angle_gamma 90.000000
_cell_volume 2548.704812
_symmetry_space_group_name_H-M "P M M A"
_symmetry_group_IT_number 51
_symmetry_cell_setting 'orthorhombic'
loop_
_space_group_symop_operation_xyz
x,y,z
1/2-x,-y,z
1/2+x,-y,-z
-x,y,-z
-x,-y,-z
1/2+x,y,-z
1/2-x,y,z
x,-y,z
loop_
_atom_site_type_symbol
_atom_site_label
_atom_site_fract_x
_atom_site_fract_y
_atom_site_fract_z
Si Si1 0.423398 0.681618 0.156840
Si Si2 0.074727 0.592934 0.579821
Si Si3 0.426629 0.500000 0.082245
Si Si4 0.424794 0.833856 0.919861
Si Si5 0.427942 0.000000 0.083222
Si Si6 0.928366 0.098356 0.579741
Si Si7 0.422779 0.737724 0.328082
O O1 0.250000 0.697086 0.134561
O O2 0.459706 0.585166 0.130765
O O3 0.536180 0.745420 0.117808
O O4 0.433393 0.708977 0.242729
O O5 0.250000 0.596071 0.570808
O O6 0.034679 0.500000 0.613244
O O7 0.000000 0.597696 0.500000
O O8 0.019705 0.670797 0.627553
O O9 0.250000 0.500000 0.069881
O O10 0.500000 0.500000 0.000000
O O11 0.250000 0.850079 0.925172
O O12 0.507934 0.913768 0.881245
O O13 0.500000 0.827505 0.000000
O O14 0.250000 0.000000 0.079639
O O15 0.500000 0.000000 0.000000
O O16 0.750000 0.099025 0.571172
O O17 0.965229 0.166866 0.644222
O O18 0.000000 0.122094 0.500000
O O19 0.972848 0.000000 0.596567
O O20 0.250000 0.727484 0.349071
#
# Coordination Sequence:
#
# PCOD9399750 Si02
#       7
#     8   8   4   8   4   8   8
#     4  10  22  39  57  84 115 150 192 237 298 356
#     4  10  21  36  55  81 112 148 190 234 282 341
#     4  10  22  40  62  84 111 146 193 246 291 354
#     4  11  21  36  58  84 115 149 189 237 285 343
#     4  10  18  32  56  84 112 144 181 226 277 336
#     4   9  18  34  56  83 114 150 194 238 280 333
#     4  10  21  36  57  83 115 151 189 238 291 346
#
# _framework density 18.833096000000001
#
# number of rings (size 3 to 8) (size 9 to 14) (size 15 to 20)
#    0.000    2.000    0.000    4.750    1.167    5.667 
#    1.500    0.000    0.000    0.000    0.000    0.000 
#    0.000    0.000    0.000    0.000    0.000    0.000 
#
# Total GULP energy -267547.514538 kJ/mol
# GULP energy per Si atom -5573.906553 kJ/mol
# Density = 1.879023 g / cm^3
# Si number density = 18.833096 Si / 1000 Ang^3
#
#
#
# Elastic Constant Matrix: (Units=GPa)
#
#
# Indices 1 2 3 4 5 6 
#
# 1 90.2290 66.6982 36.3718 0.0000 0.0000 0.0000
# 2 66.6982 147.6225 50.1994 0.0000 0.0000 0.0000
# 3 36.3718 50.1994 54.7999 0.0000 0.0000 0.0000
# 4 0.0000 0.0000 0.0000 185.3962 0.0000 0.0000
# 5 0.0000 0.0000 0.0000 0.0000 24.4893 0.0000
# 6 0.0000 0.0000 0.0000 0.0000 0.0000 32.5810
#
#
#
# Elastic Compliance Matrix: (Units=1/GPa)
#
#
# Indices 1 2 3 4 5 6 
#
# 1 0.018140 -0.005958 -0.006583 0.000000 0.000000 0.000000
# 2 -0.005958 0.011796 -0.006851 0.000000 0.000000 0.000000
# 3 -0.006583 -0.006851 0.028893 0.000000 0.000000 0.000000
# 4 0.000000 0.000000 0.000000 0.005394 0.000000 0.000000
# 5 0.000000 0.000000 0.000000 0.000000 0.040834 0.000000
# 6 0.000000 0.000000 0.000000 0.000000 0.000000 0.030693
#
#
# Mechanical properties :
#
#
# Convention : Reuss Voigt Hill
#
# Bulk Modulus (GPa) = 49.88441 66.57669 58.23055
# Shear Modulus (GPa) = 27.59159 57.78542 42.68851
#
# Velocity S-wave (km/s) = 3.83176 5.54523 4.76613
# Velocity P-wave (km/s) = 6.79129 8.74225 7.82779
#
# Compressibility (1/GPa) = 0.02004634
#
# Stress axis : x y z
#
# Youngs Moduli (GPa) = 55.12564 84.77787 34.61031
#
# Poissons Ratio (x) = 0.50508 0.22783
# Poissons Ratio (y) = 0.32842 0.23712
# Poissons Ratio (z) = 0.36287 0.58082
#
# Static dielectric constant tensor:
#      x y z
#    x 1.632790 0.000000 0.000000 
#    y 0.000000 1.729210 0.000000 
#    z 0.000000 0.000000 1.736550 
# 
# From -- ./inp_files/27686.got.cif
#   From: 2010.05.17/outbox.cif.g08.bks.cpg/sg51_14_cif.got.tgz:27686.got - 2010.06.03 11:52:47.
