data_PCOD9399212
_publ_section_title
;
Structure prediction by ZEFSAII (Michael W. Deem and Ramdas Pophale) SiO2 
 PCOD9399212
Probable space group: P M M A
;
_chemical_formula_sum "Si O2"
_cell_formula_units_Z 36
_cell_length_a 9.029736
_cell_length_b 12.945332
_cell_length_c 20.997038
_cell_angle_alpha 90.000000
_cell_angle_beta 90.000000
_cell_angle_gamma 90.000000
_cell_volume 2454.405301
_symmetry_space_group_name_H-M "P M M A"
_symmetry_group_IT_number 51
_symmetry_cell_setting 'orthorhombic'
loop_
_space_group_symop_operation_xyz
x,y,z
1/2-x,-y,z
1/2+x,-y,-z
-x,y,-z
-x,-y,-z
1/2+x,y,-z
1/2-x,y,z
x,-y,z
loop_
_atom_site_type_symbol
_atom_site_label
_atom_site_fract_x
_atom_site_fract_y
_atom_site_fract_z
Si Si1 0.428993 0.500000 0.071070
Si Si2 0.079301 0.125917 0.564940
Si Si3 0.071427 0.709523 0.930224
Si Si4 0.927052 0.119068 0.174417
Si Si5 0.420267 0.874310 0.305717
O O1 0.250000 0.500000 0.069331
O O2 0.495221 0.393747 0.098307
O O3 0.500000 0.500000 0.000000
O O4 0.250000 0.156767 0.564668
O O5 0.000000 0.159639 0.500000
O O6 0.000644 0.160668 0.629831
O O7 0.074658 0.000000 0.565084
O O8 0.250000 0.695613 0.936010
O O9 0.040355 0.805843 0.884261
O O10 0.000000 0.726324 0.000000
O O11 0.750000 0.119116 0.183667
O O12 0.001355 0.155672 0.239997
O O13 0.972921 0.000000 0.162016
O O14 0.250000 0.842138 0.306044
O O15 0.424504 0.000000 0.306725
#
# Coordination Sequence:
#
# PCOD9399212 Si02
#       5
#     4   8   8   8   8
#     4  10  18  30  48  66  84 104 131 168 211 256
#     4   9  15  22  33  49  70  97 131 170 207 242
#     4  10  19  31  47  65  85 108 137 173 212 253
#     4   9  18  31  44  59  82 113 144 172 206 249
#     4   9  16  25  37  53  74 102 136 171 205 243
#
# _framework density 14.667503999999999
#
# number of rings (size 3 to 8) (size 9 to 14) (size 15 to 20)
#    0.000    2.667    0.000    4.333    0.000    7.556 
#    0.000    0.000    0.000    0.000    0.000    0.000 
#    0.000    0.000    0.000    1.000    0.000   13.556 
#
# Total GULP energy -200439.162395 kJ/mol
# GULP energy per Si atom -5567.754511 kJ/mol
# Density = 1.463412 g / cm^3
# Si number density = 14.667504 Si / 1000 Ang^3
#
#
#
# Elastic Constant Matrix: (Units=GPa)
#
#
# Indices 1 2 3 4 5 6 
#
# 1 95.0513 41.0345 69.0271 0.0000 0.0000 0.0000
# 2 41.0345 54.7539 48.9591 0.0000 0.0000 0.0000
# 3 69.0271 48.9591 121.4399 0.0000 0.0000 0.0000
# 4 0.0000 0.0000 0.0000 -0.2974 0.0000 0.0000
# 5 0.0000 0.0000 0.0000 0.0000 29.4872 0.0000
# 6 0.0000 0.0000 0.0000 0.0000 0.0000 13.8893
#
#
#
# Elastic Compliance Matrix: (Units=1/GPa)
#
#
# Indices 1 2 3 4 5 6 
#
# 1 0.019671 -0.007419 -0.008190 0.000000 0.000000 0.000000
# 2 -0.007419 0.031357 -0.008425 0.000000 0.000000 0.000000
# 3 -0.008190 -0.008425 0.016286 0.000000 0.000000 0.000000
# 4 0.000000 0.000000 0.000000 -3.362599 0.000000 0.000000
# 5 0.000000 0.000000 0.000000 0.000000 0.033913 0.000000
# 6 0.000000 0.000000 0.000000 0.000000 0.000000 0.071998
#
#
# Mechanical properties :
#
#
# Convention : Reuss Voigt Hill
#
# Bulk Modulus (GPa) = 51.95725 65.47629 58.71677
# Shear Modulus (GPa) = -1.59495 16.09743 7.25124
#
# Velocity S-wave (km/s) = -1.04392 3.31643 2.22587
# Velocity P-wave (km/s) = 5.83500 7.70729 6.83555
#
# Compressibility (1/GPa) = 0.01924659
#
# Stress axis : x y z
#
# Youngs Moduli (GPa) = 50.83540 31.89129 61.40093
#
# Poissons Ratio (x) = 0.23660 0.50289
# Poissons Ratio (y) = 0.37714 0.51728
# Poissons Ratio (z) = 0.41636 0.26867
#
# Static dielectric constant tensor:
#      x y z
#    x 1.494140 0.000000 0.000000 
#    y 0.000000 1.484330 0.000000 
#    z 0.000000 0.000000 1.478540 
# 
# From -- ./inp_files/31292.got.cif
#   From: 2010.05.17/outbox.cif.g08.bks.cpg/sg51_16_cif.got.tgz:31292.got - 2010.06.03 11:52:47.
