data_PCOD9399804
_publ_section_title
;
Structure prediction by ZEFSAII (Michael W. Deem and Ramdas Pophale) SiO2 
 PCOD9399804
Probable space group: P M M A
;
_chemical_formula_sum "Si O2"
_cell_formula_units_Z 64
_cell_length_a 19.245306
_cell_length_b 8.996229
_cell_length_c 20.946837
_cell_angle_alpha 90.000000
_cell_angle_beta 90.000000
_cell_angle_gamma 90.000000
_cell_volume 3626.634393
_symmetry_space_group_name_H-M "P M M A"
_symmetry_group_IT_number 51
_symmetry_cell_setting 'orthorhombic'
loop_
_space_group_symop_operation_xyz
x,y,z
1/2-x,-y,z
1/2+x,-y,-z
-x,y,-z
-x,-y,-z
1/2+x,y,-z
1/2-x,y,z
x,-y,z
loop_
_atom_site_type_symbol
_atom_site_label
_atom_site_fract_x
_atom_site_fract_y
_atom_site_fract_z
Si Si1 0.830121 0.181128 0.173530
Si Si2 0.170806 0.180827 0.581865
Si Si3 0.665353 0.171863 0.032326
Si Si4 0.925719 0.822297 0.534114
Si Si5 0.834599 0.330035 0.903472
Si Si6 0.567412 0.323048 0.672218
Si Si7 0.833396 0.173840 0.772521
Si Si8 0.079135 0.180260 0.704630
O O1 0.750000 0.228653 0.184289
O O2 0.854231 0.228673 0.102822
O O3 0.880001 0.224060 0.231227
O O4 0.828736 0.000000 0.171838
O O5 0.250000 0.232997 0.586119
O O6 0.132848 0.224857 0.516554
O O7 0.125327 0.223613 0.643158
O O8 0.171882 0.000000 0.582046
O O9 0.750000 0.172243 0.032614
O O10 0.643731 0.000000 0.025234
O O11 0.641721 0.264375 0.971215
O O12 0.922092 0.738257 0.600734
O O13 0.000000 0.798492 0.500000
O O14 0.919527 0.000000 0.545804
O O15 0.750000 0.328080 0.905086
O O16 0.856719 0.500000 0.895134
O O17 0.855008 0.232523 0.842472
O O18 0.563951 0.500000 0.671978
O O19 0.628417 0.266080 0.718120
O O20 0.495607 0.253887 0.698136
O O21 0.750000 0.190275 0.767664
O O22 0.850359 0.000000 0.766074
O O23 0.071920 0.000000 0.703971
#
# Coordination Sequence:
#
# PCOD9399804 Si02
#       8
#     8   8   8   8   8   8   8   8
#     4   8  14  25  47  79 109 138 180 233 275 308
#     4   9  17  30  54  85 109 133 174 228 275 313
#     4   8  13  23  41  69 104 140 178 218 262 313
#     4  10  19  36  58  80 105 137 180 226 269 316
#     4   9  16  27  46  74 107 140 173 213 264 320
#     4  12  25  38  55  79 110 145 179 214 264 328
#     4  10  21  38  60  83 105 133 174 224 273 320
#     4  10  18  33  55  78 106 142 184 224 266 316
#
# _framework density 17.647216
#
# number of rings (size 3 to 8) (size 9 to 14) (size 15 to 20)
#    0.000    2.500    1.250    3.000    0.000    4.500 
#    0.000    1.875    0.000    3.750    0.000    5.250 
#    0.000    0.000    0.000    0.000    0.000    0.000 
#
# Total GULP energy -356912.613322 kJ/mol
# GULP energy per Si atom -5576.759583 kJ/mol
# Density = 1.760705 g / cm^3
# Si number density = 17.647216 Si / 1000 Ang^3
#
#
#
# Elastic Constant Matrix: (Units=GPa)
#
#
# Indices 1 2 3 4 5 6 
#
# 1 39.3183 28.6767 34.8742 0.0000 0.0000 0.0000
# 2 28.6767 60.6965 55.2540 0.0000 0.0000 0.0000
# 3 34.8742 55.2540 149.8445 0.0000 0.0000 0.0000
# 4 0.0000 0.0000 0.0000 -9.6166 0.0000 0.0000
# 5 0.0000 0.0000 0.0000 0.0000 8.3174 0.0000
# 6 0.0000 0.0000 0.0000 0.0000 0.0000 9.9384
#
#
#
# Elastic Compliance Matrix: (Units=1/GPa)
#
#
# Indices 1 2 3 4 5 6 
#
# 1 0.040004 -0.015693 -0.003524 0.000000 0.000000 0.000000
# 2 -0.015693 0.030956 -0.007763 0.000000 0.000000 0.000000
# 3 -0.003524 -0.007763 0.010356 0.000000 0.000000 0.000000
# 4 0.000000 0.000000 0.000000 -0.103987 0.000000 0.000000
# 5 0.000000 0.000000 0.000000 0.000000 0.120231 0.000000
# 6 0.000000 0.000000 0.000000 0.000000 0.000000 0.100620
#
#
# Mechanical properties :
#
#
# Convention : Reuss Voigt Hill
#
# Bulk Modulus (GPa) = 36.55178 54.16321 45.35750
# Shear Modulus (GPa) = 19.13819 10.46479 14.80149
#
# Velocity S-wave (km/s) = 3.29673 2.43780 2.89925
# Velocity P-wave (km/s) = 5.93706 6.21954 6.07994
#
# Compressibility (1/GPa) = 0.02735845
#
# Stress axis : x y z
#
# Youngs Moduli (GPa) = 24.99719 32.30386 96.56117
#
# Poissons Ratio (x) = 0.50693 0.34028
# Poissons Ratio (y) = 0.39227 0.74956
# Poissons Ratio (z) = 0.08809 0.25076
#
# Static dielectric constant tensor:
#      x y z
#    x 1.590520 0.000000 0.000000 
#    y 0.000000 1.587600 0.000000 
#    z 0.000000 0.000000 1.598920 
# 
# From -- ./inp_files/33756.got.cif
#   From: 2010.05.17/outbox.cif.g08.bks.cpg/sg51_17_cif.got.tgz:33756.got - 2010.06.03 11:52:47.
