data_PCOD9399270
_publ_section_title
;
Structure prediction by ZEFSAII (Michael W. Deem and Ramdas Pophale) SiO2 
 PCOD9399270
Probable space group: P M M A
;
_chemical_formula_sum "Si O2"
_cell_formula_units_Z 40
_cell_length_a 15.414521
_cell_length_b 7.676755
_cell_length_c 15.744337
_cell_angle_alpha 90.000000
_cell_angle_beta 90.000000
_cell_angle_gamma 90.000000
_cell_volume 1863.082521
_symmetry_space_group_name_H-M "P M M A"
_symmetry_group_IT_number 51
_symmetry_cell_setting 'orthorhombic'
loop_
_space_group_symop_operation_xyz
x,y,z
1/2-x,-y,z
1/2+x,-y,-z
-x,y,-z
-x,-y,-z
1/2+x,y,-z
1/2-x,y,z
x,-y,z
loop_
_atom_site_type_symbol
_atom_site_label
_atom_site_fract_x
_atom_site_fract_y
_atom_site_fract_z
Si Si1 0.750000 0.204974 0.216325
Si Si2 0.750000 0.203587 0.669617
Si Si3 0.063257 0.293842 0.258525
Si Si4 0.750000 0.712017 0.471725
Si Si5 0.572109 0.286628 0.932655
Si Si6 0.250000 0.710691 0.981917
Si Si7 0.104306 0.297097 0.654333
O O1 0.750000 0.234200 0.116051
O O2 0.834494 0.284603 0.262240
O O3 0.750000 0.000000 0.234249
O O4 0.838939 0.275718 0.708779
O O5 0.750000 0.237134 0.569114
O O6 0.750000 0.000000 0.686718
O O7 0.044640 0.500000 0.252695
O O8 0.055724 0.223826 0.162843
O O9 0.989251 0.220602 0.321380
O O10 0.750000 0.500000 0.466422
O O11 0.664601 0.776155 0.420973
O O12 0.572104 0.500000 0.930505
O O13 0.500000 0.232345 0.000000
O O14 0.664872 0.230590 0.968306
O O15 0.250000 0.500000 0.981749
O O16 0.091178 0.500000 0.632045
#
# Coordination Sequence:
#
# PCOD9399270 Si02
#       7
#     4   4   8   4   8   4   8
#     4  11  21  32  51  81 117 153 185 224 279 338
#     4  12  26  40  55  80 118 157 188 223 272 333
#     4  10  20  38  63  86 109 143 188 236 282 327
#     4   9  19  38  61  87 113 139 179 228 281 338
#     4   9  17  30  53  83 108 135 180 235 281 320
#     4  10  18  30  49  72 104 145 188 231 272 321
#     4   9  19  37  63  88 109 138 182 237 287 331
#
# _framework density 21.469792999999999
#
# number of rings (size 3 to 8) (size 9 to 14) (size 15 to 20)
#    0.000    2.200    0.000    4.200    0.000    8.000 
#    0.000    6.000    0.000    2.400    0.000    0.000 
#    0.000    0.000    0.000    0.000    0.000    0.000 
#
# Total GULP energy -223403.918916 kJ/mol
# GULP energy per Si atom -5585.097973 kJ/mol
# Density = 2.142093 g / cm^3
# Si number density = 21.469793 Si / 1000 Ang^3
#
#
#
# Elastic Constant Matrix: (Units=GPa)
#
#
# Indices 1 2 3 4 5 6 
#
# 1 166.0309 -11.7712 54.1257 0.0000 0.0000 0.0000
# 2 -11.7712 34.2427 -10.2165 0.0000 0.0000 0.0000
# 3 54.1257 -10.2165 124.2643 0.0000 0.0000 0.0000
# 4 0.0000 0.0000 0.0000 -56.7074 0.0000 0.0000
# 5 0.0000 0.0000 0.0000 0.0000 -63.7653 0.0000
# 6 0.0000 0.0000 0.0000 0.0000 0.0000 61.0220
#
#
#
# Elastic Compliance Matrix: (Units=1/GPa)
#
#
# Indices 1 2 3 4 5 6 
#
# 1 0.007100 0.001556 -0.002964 0.000000 0.000000 0.000000
# 2 0.001556 0.030279 0.001812 0.000000 0.000000 0.000000
# 3 -0.002964 0.001812 0.009488 0.000000 0.000000 0.000000
# 4 0.000000 0.000000 0.000000 -0.017634 0.000000 0.000000
# 5 0.000000 0.000000 0.000000 0.000000 -0.015683 0.000000
# 6 0.000000 0.000000 0.000000 0.000000 0.000000 0.016388
#
#
# Mechanical properties :
#
#
# Convention : Reuss Voigt Hill
#
# Bulk Modulus (GPa) = 20.97646 43.20154 32.08900
# Shear Modulus (GPa) = 111.05926 7.60318 59.33122
#
# Velocity S-wave (km/s) = 7.20003 1.88389 5.26258
# Velocity P-wave (km/s) = 8.88324 4.98976 7.20450
#
# Compressibility (1/GPa) = 0.04767249
#
# Stress axis : x y z
#
# Youngs Moduli (GPa) = 140.85073 33.02647 105.40131
#
# Poissons Ratio (x) = -0.05139 0.31246
# Poissons Ratio (y) = -0.21918 -0.19095
# Poissons Ratio (z) = 0.41755 -0.05983
#
# Static dielectric constant tensor:
#      x y z
#    x 1.822350 0.000000 0.000000 
#    y 0.000000 1.792880 0.000000 
#    z 0.000000 0.000000 1.737070 
# 
# From -- ./inp_files/23855.got.cif
#   From: 2010.05.17/outbox.cif.g08.bks.cpg/sg51_12_cif.got.tgz:23855.got - 2010.06.03 11:52:47.
