data_PCOD9399227
_publ_section_title
;
Structure prediction by ZEFSAII (Michael W. Deem and Ramdas Pophale) SiO2 
 PCOD9399227
Probable space group: P M M A
;
_chemical_formula_sum "Si O2"
_cell_formula_units_Z 40
_cell_length_a 21.629674
_cell_length_b 8.123393
_cell_length_c 13.069211
_cell_angle_alpha 90.000000
_cell_angle_beta 90.000000
_cell_angle_gamma 90.000000
_cell_volume 2296.343262
_symmetry_space_group_name_H-M "P M M A"
_symmetry_group_IT_number 51
_symmetry_cell_setting 'orthorhombic'
loop_
_space_group_symop_operation_xyz
x,y,z
1/2-x,-y,z
1/2+x,-y,-z
-x,y,-z
-x,-y,-z
1/2+x,y,-z
1/2-x,y,z
x,-y,z
loop_
_atom_site_type_symbol
_atom_site_label
_atom_site_fract_x
_atom_site_fract_y
_atom_site_fract_z
Si Si1 0.087499 0.700409 0.076563
Si Si2 0.448685 0.301335 0.857361
Si Si3 0.540134 0.811126 0.361094
Si Si4 0.178960 0.701770 0.252736
Si Si5 0.410204 0.308358 0.432217
O O1 0.088283 0.500000 0.075981
O O2 0.141357 0.756234 0.152077
O O3 0.020238 0.746921 0.121203
O O4 0.089025 0.752731 0.957961
O O5 0.446674 0.500000 0.852800
O O6 0.430377 0.232680 0.747489
O O7 0.583208 0.779627 0.458951
O O8 0.477548 0.706945 0.378629
O O9 0.520496 0.000000 0.361476
O O10 0.250000 0.753873 0.253065
O O11 0.177799 0.500000 0.252842
O O12 0.140892 0.754885 0.353063
O O13 0.398092 0.500000 0.452106
#
# Coordination Sequence:
#
# PCOD9399227 Si02
#       5
#     8   8   8   8   8
#     4   8  14  25  44  69  94 119 151 186 224 275
#     4   9  15  27  47  68  92 123 154 184 229 280
#     4  11  20  29  44  68  98 124 153 197 236 272
#     4   9  16  27  47  74  97 116 147 195 239 274
#     4  10  18  30  48  68  93 124 156 188 233 288
#
# _framework density 17.418998999999999
#
# number of rings (size 3 to 8) (size 9 to 14) (size 15 to 20)
#    0.000    2.600    2.000    4.800    0.000    0.000 
#    0.000    2.000    0.000    3.600    0.000    5.600 
#    0.000    0.000    0.000    0.000    0.000    0.000 
#
# Total GULP energy -222943.084444 kJ/mol
# GULP energy per Si atom -5573.577111 kJ/mol
# Density = 1.737935 g / cm^3
# Si number density = 17.418999 Si / 1000 Ang^3
#
#
#
# Elastic Constant Matrix: (Units=GPa)
#
#
# Indices 1 2 3 4 5 6 
#
# 1 93.1359 0.3177 66.7002 0.0000 0.0000 0.0000
# 2 0.3177 15.8775 6.8721 0.0000 0.0000 0.0000
# 3 66.7002 6.8721 174.9851 0.0000 0.0000 0.0000
# 4 0.0000 0.0000 0.0000 -27.9816 0.0000 0.0000
# 5 0.0000 0.0000 0.0000 0.0000 21.5565 0.0000
# 6 0.0000 0.0000 0.0000 0.0000 0.0000 -5.3586
#
#
#
# Elastic Compliance Matrix: (Units=1/GPa)
#
#
# Indices 1 2 3 4 5 6 
#
# 1 0.014843 0.002189 -0.005744 0.000000 0.000000 0.000000
# 2 0.002189 0.064394 -0.003363 0.000000 0.000000 0.000000
# 3 -0.005744 -0.003363 0.008036 0.000000 0.000000 0.000000
# 4 0.000000 0.000000 0.000000 -0.035738 0.000000 0.000000
# 5 0.000000 0.000000 0.000000 0.000000 0.046390 0.000000
# 6 0.000000 0.000000 0.000000 0.000000 0.000000 -0.186617
#
#
# Mechanical properties :
#
#
# Convention : Reuss Voigt Hill
#
# Bulk Modulus (GPa) = 13.61710 47.97537 30.79624
# Shear Modulus (GPa) = -99.25111 11.65051 -43.80030
#
# Velocity S-wave (km/s) = -7.55661 2.58900 -5.01993
# Velocity P-wave (km/s) = 8.26451 6.04475 3.98517
#
# Compressibility (1/GPa) = 0.07343710
#
# Stress axis : x y z
#
# Youngs Moduli (GPa) = 67.37183 15.52941 124.43616
#
# Poissons Ratio (x) = -0.03399 0.71473
# Poissons Ratio (y) = -0.14748 0.41852
# Poissons Ratio (z) = 0.38697 0.05223
#
# Static dielectric constant tensor:
#      x y z
#    x 1.559830 0.000000 0.000000 
#    y 0.000000 1.592240 0.000000 
#    z 0.000000 0.000000 1.621820 
# 
# From -- ./inp_files/25412.got.cif
#   From: 2010.05.17/outbox.cif.g08.bks.cpg/sg51_13_cif.got.tgz:25412.got - 2010.06.03 11:52:47.
