data_PCOD9399819
_publ_section_title
;
Structure prediction by ZEFSAII (Michael W. Deem and Ramdas Pophale) SiO2 
 PCOD9399819
Probable space group: P M M A
;
_chemical_formula_sum "Si O2"
_cell_formula_units_Z 48
_cell_length_a 31.164614
_cell_length_b 8.686646
_cell_length_c 9.852304
_cell_angle_alpha 90.000000
_cell_angle_beta 90.000000
_cell_angle_gamma 90.000000
_cell_volume 2667.176030
_symmetry_space_group_name_H-M "P M M A"
_symmetry_group_IT_number 51
_symmetry_cell_setting 'orthorhombic'
loop_
_space_group_symop_operation_xyz
x,y,z
1/2-x,-y,z
1/2+x,-y,-z
-x,y,-z
-x,-y,-z
1/2+x,y,-z
1/2-x,y,z
x,-y,z
loop_
_atom_site_type_symbol
_atom_site_label
_atom_site_fract_x
_atom_site_fract_y
_atom_site_fract_z
Si Si1 0.357020 0.315526 0.093943
Si Si2 0.386795 0.182180 0.816512
Si Si3 0.129529 0.684808 0.523968
Si Si4 0.981190 0.683842 0.151644
Si Si5 0.299897 0.815828 0.322301
Si Si6 0.934256 0.313453 0.705495
O O1 0.353712 0.500000 0.099869
O O2 0.318461 0.240883 0.178250
O O3 0.400613 0.270729 0.175752
O O4 0.361616 0.259780 0.940952
O O5 0.473708 0.500000 0.829493
O O6 0.370938 0.241960 0.671421
O O7 0.436503 0.231173 0.831076
O O8 0.128847 0.500000 0.533960
O O9 0.170293 0.736905 0.435555
O O10 0.087573 0.733953 0.435695
O O11 0.018152 0.737962 0.255679
O O12 0.882532 0.000000 0.174359
O O13 0.000000 0.703225 0.000000
O O14 0.250000 0.775990 0.337575
O O15 0.304517 0.000000 0.331962
O O16 0.935854 0.500000 0.705233
#
# Coordination Sequence:
#
# PCOD9399819 Si02
#       6
#     8   8   8   8   8   8
#     4  10  19  36  60  84 110 146 192 232 273 330
#     4  12  24  36  52  81 119 153 189 239 298 338
#     4  10  21  38  59  82 112 153 198 236 279 337
#     4  10  18  33  56  79 109 149 197 243 284 334
#     4  10  21  39  63  91 120 146 174 220 285 346
#     4   8  16  32  55  80 104 142 191 239 278 320
#
# _framework density 17.996562000000001
#
# number of rings (size 3 to 8) (size 9 to 14) (size 15 to 20)
#    0.000    2.000    1.667    4.000    0.000    2.333 
#    0.000    5.833    0.000    5.000    0.000    0.000 
#    0.000    0.000    0.000    0.000    0.000    0.000 
#
# Total GULP energy -267997.529263 kJ/mol
# GULP energy per Si atom -5583.281860 kJ/mol
# Density = 1.795560 g / cm^3
# Si number density = 17.996562 Si / 1000 Ang^3
#
#
#
# Elastic Constant Matrix: (Units=GPa)
#
#
# Indices 1 2 3 4 5 6 
#
# 1 61.1773 9.9081 8.6620 0.0000 0.0000 0.0000
# 2 9.9081 37.1777 4.7073 0.0000 0.0000 0.0000
# 3 8.6620 4.7073 91.2602 0.0000 0.0000 0.0000
# 4 0.0000 0.0000 0.0000 23.1904 0.0000 0.0000
# 5 0.0000 0.0000 0.0000 0.0000 13.7283 0.0000
# 6 0.0000 0.0000 0.0000 0.0000 0.0000 28.5463
#
#
#
# Elastic Compliance Matrix: (Units=1/GPa)
#
#
# Indices 1 2 3 4 5 6 
#
# 1 0.017262 -0.004422 -0.001410 0.000000 0.000000 0.000000
# 2 -0.004422 0.028207 -0.001035 0.000000 0.000000 0.000000
# 3 -0.001410 -0.001035 0.011145 0.000000 0.000000 0.000000
# 4 0.000000 0.000000 0.000000 0.043121 0.000000 0.000000
# 5 0.000000 0.000000 0.000000 0.000000 0.072842 0.000000
# 6 0.000000 0.000000 0.000000 0.000000 0.000000 0.035031
#
#
# Mechanical properties :
#
#
# Convention : Reuss Voigt Hill
#
# Bulk Modulus (GPa) = 23.32128 26.24108 24.78118
# Shear Modulus (GPa) = 21.21916 24.18220 22.70068
#
# Velocity S-wave (km/s) = 3.43748 3.66964 3.55546
# Velocity P-wave (km/s) = 5.36115 5.70683 5.53669
#
# Compressibility (1/GPa) = 0.04287930
#
# Stress axis : x y z
#
# Youngs Moduli (GPa) = 57.93151 35.45180 89.72679
#
# Poissons Ratio (x) = 0.15676 0.12654
# Poissons Ratio (y) = 0.25616 0.09289
# Poissons Ratio (z) = 0.08170 0.03670
#
# Static dielectric constant tensor:
#      x y z
#    x 1.604640 0.000000 0.000000 
#    y 0.000000 1.604570 0.000000 
#    z 0.000000 0.000000 1.610210 
# 
# From -- ./inp_files/12770.got.cif
#   From: 2010.05.17/outbox.cif.g08.bks.cpg/sg51_7_cif.got.tgz:12770.got - 2010.06.03 11:52:47.
