data_PCOD9399429
_publ_section_title
;
Structure prediction by ZEFSAII (Michael W. Deem and Ramdas Pophale) SiO2 
 PCOD9399429
Probable space group: P M M A
;
_chemical_formula_sum "Si O2"
_cell_formula_units_Z 24
_cell_length_a 13.943061
_cell_length_b 10.616465
_cell_length_c 9.052086
_cell_angle_alpha 90.000000
_cell_angle_beta 90.000000
_cell_angle_gamma 90.000000
_cell_volume 1339.944255
_symmetry_space_group_name_H-M "P M M A"
_symmetry_group_IT_number 51
_symmetry_cell_setting 'orthorhombic'
loop_
_space_group_symop_operation_xyz
x,y,z
1/2-x,-y,z
1/2+x,-y,-z
-x,y,-z
-x,-y,-z
1/2+x,y,-z
1/2-x,y,z
x,-y,z
loop_
_atom_site_type_symbol
_atom_site_label
_atom_site_fract_x
_atom_site_fract_y
_atom_site_fract_z
Si Si1 0.029386 0.000000 0.824839
Si Si2 0.750000 0.726964 0.958472
Si Si3 0.042609 0.500000 0.663660
Si Si4 0.750000 0.500000 0.199497
Si Si5 0.456287 0.265599 0.165161
Si Si6 0.750000 0.000000 0.115102
O O1 0.983654 0.129534 0.768408
O O2 0.144971 0.000000 0.807484
O O3 0.000000 0.000000 0.000000
O O4 0.844134 0.714273 0.859543
O O5 0.750000 0.622571 0.089894
O O6 0.750000 0.869075 0.024017
O O7 0.156228 0.500000 0.697072
O O8 0.000000 0.500000 0.500000
O O9 0.002099 0.623520 0.742969
O O10 0.500000 0.270199 0.000000
#
# Coordination Sequence:
#
# PCOD9399429 Si02
#       6
#     4   4   4   2   8   2
#     4  10  18  30  55  86 121 136 187 234 291 336
#     4  12  20  31  64  88 116 142 190 235 290 338
#     4  12  26  41  57  80 120 155 194 234 279 339
#     4  12  22  38  60  82 106 158 192 232 284 336
#     4  11  20  37  58  89 112 147 188 240 282 335
#     4  12  16  28  50  92 116 144 166 244 298 332
#
# _framework density 17.911192
#
# number of rings (size 3 to 8) (size 9 to 14) (size 15 to 20)
#    0.000    0.667   10.000    1.500    0.000    1.333 
#    0.000    0.833    0.000    0.000    0.000    0.000 
#    0.000    0.000    0.000    0.000    0.000    0.000 
#
# Total GULP energy -133903.004864 kJ/mol
# GULP energy per Si atom -5579.291869 kJ/mol
# Density = 1.787043 g / cm^3
# Si number density = 17.911192 Si / 1000 Ang^3
#
#
#
# Elastic Constant Matrix: (Units=GPa)
#
#
# Indices 1 2 3 4 5 6 
#
# 1 220.8022 56.0815 44.9567 0.0000 0.0000 0.0000
# 2 56.0815 174.3236 59.4152 0.0000 0.0000 0.0000
# 3 44.9567 59.4152 55.7956 0.0000 0.0000 0.0000
# 4 0.0000 0.0000 0.0000 -18.0338 0.0000 0.0000
# 5 0.0000 0.0000 0.0000 0.0000 7.2946 0.0000
# 6 0.0000 0.0000 0.0000 0.0000 0.0000 34.9305
#
#
#
# Elastic Compliance Matrix: (Units=1/GPa)
#
#
# Indices 1 2 3 4 5 6 
#
# 1 0.005436 -0.000402 -0.003952 0.000000 0.000000 0.000000
# 2 -0.000402 0.009034 -0.009297 0.000000 0.000000 0.000000
# 3 -0.003952 -0.009297 0.031006 0.000000 0.000000 0.000000
# 4 0.000000 0.000000 0.000000 -0.055452 0.000000 0.000000
# 5 0.000000 0.000000 0.000000 0.000000 0.137089 0.000000
# 6 0.000000 0.000000 0.000000 0.000000 0.000000 0.028628
#
#
# Mechanical properties :
#
#
# Convention : Reuss Voigt Hill
#
# Bulk Modulus (GPa) = 55.01813 85.75867 70.38840
# Shear Modulus (GPa) = 26.44089 24.20278 25.32184
#
# Velocity S-wave (km/s) = 3.84633 3.67994 3.76406
# Velocity P-wave (km/s) = 7.10701 8.12649 7.63379
#
# Compressibility (1/GPa) = 0.01817583
#
# Stress axis : x y z
#
# Youngs Moduli (GPa) = 183.97216 110.68893 32.25132
#
# Poissons Ratio (x) = 0.04447 0.12745
# Poissons Ratio (y) = 0.07391 0.29983
# Poissons Ratio (z) = 0.72703 1.02904
#
# Static dielectric constant tensor:
#      x y z
#    x 1.663510 0.000000 0.000000 
#    y 0.000000 1.554170 0.000000 
#    z 0.000000 0.000000 1.571560 
# 
# From -- ./inp_files/6578.got.cif
#   From: 2010.05.17/outbox.cif.g08.bks.cpg/sg51_4_cif.got.tgz:6578.got - 2010.06.03 11:52:47.
