data_PCOD9399578
_publ_section_title
;
Structure prediction by ZEFSAII (Michael W. Deem and Ramdas Pophale) SiO2 
 PCOD9399578
Probable space group: P M M A
;
_chemical_formula_sum "Si O2"
_cell_formula_units_Z 36
_cell_length_a 10.228831
_cell_length_b 13.910640
_cell_length_c 13.445845
_cell_angle_alpha 90.000000
_cell_angle_beta 90.000000
_cell_angle_gamma 90.000000
_cell_volume 1913.203714
_symmetry_space_group_name_H-M "P M M A"
_symmetry_group_IT_number 51
_symmetry_cell_setting 'orthorhombic'
loop_
_space_group_symop_operation_xyz
x,y,z
1/2-x,-y,z
1/2+x,-y,-z
-x,y,-z
-x,-y,-z
1/2+x,y,-z
1/2-x,y,z
x,-y,z
loop_
_atom_site_type_symbol
_atom_site_label
_atom_site_fract_x
_atom_site_fract_y
_atom_site_fract_z
Si Si1 0.250000 0.608688 0.943492
Si Si2 0.397806 0.386436 0.584183
Si Si3 0.579377 0.113399 0.083665
Si Si4 0.041212 0.307891 0.796973
Si Si5 0.750000 0.111562 0.927306
Si Si6 0.250000 0.698727 0.157143
O O1 0.250000 0.500000 0.980316
O O2 0.375494 0.629072 0.875201
O O3 0.250000 0.678492 0.038177
O O4 0.500000 0.357359 0.500000
O O5 0.250000 0.376705 0.546418
O O6 0.419350 0.500000 0.607141
O O7 0.412277 0.328368 0.686114
O O8 0.750000 0.120058 0.060948
O O9 0.568092 0.199703 0.163906
O O10 0.413147 0.124240 0.044716
O O11 0.574304 0.000000 0.113850
O O12 0.888312 0.335933 0.802734
O O13 0.750000 0.186493 0.835964
O O14 0.750000 0.000000 0.899082
#
# Coordination Sequence:
#
# PCOD9399578 Si02
#       6
#     4   8   8   8   4   4
#     4  12  24  40  55  76 118 167 200 235 287 350
#     4  10  23  44  68  88 108 141 195 260 313 357
#     4  10  18  31  54  83 120 164 204 240 278 334
#     4  12  22  38  60  87 120 157 200 243 297 352
#     4  10  18  32  52  80 122 164 204 245 277 319
#     4  12  24  34  53  90 126 163 198 236 280 351
#
# _framework density 18.816606
#
# number of rings (size 3 to 8) (size 9 to 14) (size 15 to 20)
#    0.000    1.111    5.556    1.333    1.556    2.667 
#    0.000    0.000    0.000    0.667    0.000    0.000 
#    0.000    0.000    0.000    0.000    0.000    0.000 
#
# Total GULP energy -200722.764990 kJ/mol
# GULP energy per Si atom -5575.632361 kJ/mol
# Density = 1.877378 g / cm^3
# Si number density = 18.816606 Si / 1000 Ang^3
#
#
#
# Elastic Constant Matrix: (Units=GPa)
#
#
# Indices 1 2 3 4 5 6 
#
# 1 163.9017 11.1659 26.5550 0.0000 0.0000 0.0000
# 2 11.1659 76.9668 32.2756 0.0000 0.0000 0.0000
# 3 26.5550 32.2756 78.6017 0.0000 0.0000 0.0000
# 4 0.0000 0.0000 0.0000 23.3896 0.0000 0.0000
# 5 0.0000 0.0000 0.0000 0.0000 26.0031 0.0000
# 6 0.0000 0.0000 0.0000 0.0000 0.0000 -26.1397
#
#
#
# Elastic Compliance Matrix: (Units=1/GPa)
#
#
# Indices 1 2 3 4 5 6 
#
# 1 0.006455 -0.000027 -0.002170 0.000000 0.000000 0.000000
# 2 -0.000027 0.015695 -0.006436 0.000000 0.000000 0.000000
# 3 -0.002170 -0.006436 0.016098 0.000000 0.000000 0.000000
# 4 0.000000 0.000000 0.000000 0.042754 0.000000 0.000000
# 5 0.000000 0.000000 0.000000 0.000000 0.038457 0.000000
# 6 0.000000 0.000000 0.000000 0.000000 0.000000 -0.038256
#
#
# Mechanical properties :
#
#
# Convention : Reuss Voigt Hill
#
# Bulk Modulus (GPa) = 47.65601 51.05147 49.35374
# Shear Modulus (GPa) = 47.41050 21.28218 34.34634
#
# Velocity S-wave (km/s) = 5.02502 3.36673 4.27701
# Velocity P-wave (km/s) = 7.68435 6.50409 7.11872
#
# Compressibility (1/GPa) = 0.02098371
#
# Stress axis : x y z
#
# Youngs Moduli (GPa) = 154.92924 63.71327 62.11910
#
# Poissons Ratio (x) = 0.00169 0.13478
# Poissons Ratio (y) = 0.00411 0.39979
# Poissons Ratio (z) = 0.33616 0.41005
#
# Static dielectric constant tensor:
#      x y z
#    x 1.870730 0.000000 0.000000 
#    y 0.000000 1.614750 0.000000 
#    z 0.000000 0.000000 1.586650 
# 
# From -- ./inp_files/20387.got.cif
#   From: 2010.05.17/outbox.cif.g08.bks.cpg/sg51_11_cif.got.tgz:20387.got - 2010.06.03 11:52:47.
