data_PCOD9399010
_publ_section_title
;
Structure prediction by ZEFSAII (Michael W. Deem and Ramdas Pophale) SiO2 
 PCOD9399010
Probable space group: P M M A
;
_chemical_formula_sum "Si O2"
_cell_formula_units_Z 64
_cell_length_a 8.744945
_cell_length_b 24.321258
_cell_length_c 19.561420
_cell_angle_alpha 90.000000
_cell_angle_beta 90.000000
_cell_angle_gamma 90.000000
_cell_volume 4160.480540
_symmetry_space_group_name_H-M "P M M A"
_symmetry_group_IT_number 51
_symmetry_cell_setting 'orthorhombic'
loop_
_space_group_symop_operation_xyz
x,y,z
1/2-x,-y,z
1/2+x,-y,-z
-x,y,-z
-x,-y,-z
1/2+x,y,-z
1/2-x,y,z
x,-y,z
loop_
_atom_site_type_symbol
_atom_site_label
_atom_site_fract_x
_atom_site_fract_y
_atom_site_fract_z
Si Si1 0.566840 0.162375 0.204931
Si Si2 0.433744 0.114731 0.427886
Si Si3 0.566833 0.243901 0.572712
Si Si4 0.933798 0.230540 0.074962
Si Si5 0.434616 0.937782 0.285412
Si Si6 0.565687 0.437368 0.925348
Si Si7 0.433365 0.273107 0.713734
Si Si8 0.566115 0.667632 0.840538
O O1 0.750000 0.157108 0.208724
O O2 0.526650 0.182045 0.128512
O O3 0.492219 0.106873 0.231504
O O4 0.522359 0.213582 0.253938
O O5 0.500000 0.094896 0.500000
O O6 0.250000 0.112010 0.431296
O O7 0.476709 0.179117 0.419804
O O8 0.485351 0.081624 0.361152
O O9 0.500000 0.262471 0.500000
O O10 0.750000 0.247297 0.572282
O O11 0.499371 0.275282 0.637749
O O12 0.750000 0.235364 0.072835
O O13 0.001906 0.286057 0.107896
O O14 0.000000 0.221657 0.000000
O O15 0.250000 0.936890 0.285499
O O16 0.485435 0.000000 0.271616
O O17 0.750000 0.436543 0.929845
O O18 0.517823 0.500000 0.908977
O O19 0.520499 0.391732 0.870149
O O20 0.500000 0.423281 0.000000
O O21 0.250000 0.276085 0.713153
O O22 0.499611 0.317664 0.766331
O O23 0.750000 0.671189 0.838735
#
# Coordination Sequence:
#
# PCOD9399010 Si02
#       8
#     8   8   8   8   8   8   8   8
#     4   9  19  33  48  66  89 114 145 182 225 275
#     4   9  18  30  44  64  88 116 148 183 219 264
#     4  10  18  29  46  67  92 124 156 189 231 280
#     4  10  20  33  49  72  96 119 147 187 232 278
#     4  10  20  33  48  66  88 114 147 186 226 272
#     4   9  18  31  46  66  95 132 170 202 231 267
#     4  10  19  31  47  68  94 122 155 196 236 278
#     4  10  19  30  47  70  97 129 161 196 234 272
#
# _framework density 15.382839000000001
#
# number of rings (size 3 to 8) (size 9 to 14) (size 15 to 20)
#    0.000    2.375    1.250    2.625    0.000    6.000 
#    0.000    0.000    0.000    0.375    0.000    0.000 
#    0.000    0.500    0.000    1.375    0.000    2.000 
#
# Total GULP energy -356927.323038 kJ/mol
# GULP energy per Si atom -5576.989422 kJ/mol
# Density = 1.534783 g / cm^3
# Si number density = 15.382839 Si / 1000 Ang^3
#
#
#
# Elastic Constant Matrix: (Units=GPa)
#
#
# Indices 1 2 3 4 5 6 
#
# 1 32.4300 30.5716 42.1147 0.0000 0.0000 0.0000
# 2 30.5716 95.7287 69.4994 0.0000 0.0000 0.0000
# 3 42.1147 69.4994 145.3070 0.0000 0.0000 0.0000
# 4 0.0000 0.0000 0.0000 25.0799 0.0000 0.0000
# 5 0.0000 0.0000 0.0000 0.0000 29.6770 0.0000
# 6 0.0000 0.0000 0.0000 0.0000 0.0000 17.1458
#
#
#
# Elastic Compliance Matrix: (Units=1/GPa)
#
#
# Indices 1 2 3 4 5 6 
#
# 1 0.054103 -0.009029 -0.011362 0.000000 0.000000 0.000000
# 2 -0.009029 0.017510 -0.005758 0.000000 0.000000 0.000000
# 3 -0.011362 -0.005758 0.012929 0.000000 0.000000 0.000000
# 4 0.000000 0.000000 0.000000 0.039873 0.000000 0.000000
# 5 0.000000 0.000000 0.000000 0.000000 0.033696 0.000000
# 6 0.000000 0.000000 0.000000 0.000000 0.000000 0.058323
#
#
# Mechanical properties :
#
#
# Convention : Reuss Voigt Hill
#
# Bulk Modulus (GPa) = 31.01420 61.98191 46.49806
# Shear Modulus (GPa) = 17.89036 23.13254 20.51145
#
# Velocity S-wave (km/s) = 3.41399 3.88208 3.65553
# Velocity P-wave (km/s) = 5.97878 7.77653 6.93614
#
# Compressibility (1/GPa) = 0.03224329
#
# Stress axis : x y z
#
# Youngs Moduli (GPa) = 18.48339 57.11012 77.34479
#
# Poissons Ratio (x) = 0.51565 0.87880
# Poissons Ratio (y) = 0.16689 0.44535
# Poissons Ratio (z) = 0.21001 0.32884
#
# Static dielectric constant tensor:
#      x y z
#    x 1.515770 0.000000 0.000000 
#    y 0.000000 1.502140 0.000000 
#    z 0.000000 0.000000 1.504690 
# 
# From -- ./inp_files/28573.got.cif
#   From: 2010.05.17/outbox.cif.g08.bks.cpg/sg51_15_cif.got.tgz:28573.got - 2010.06.03 11:52:47.
