data_PCOD9399417
_publ_section_title
;
Structure prediction by ZEFSAII (Michael W. Deem and Ramdas Pophale) SiO2 
 PCOD9399417
Probable space group: P M M A
;
_chemical_formula_sum "Si O2"
_cell_formula_units_Z 48
_cell_length_a 8.699526
_cell_length_b 31.553962
_cell_length_c 9.437514
_cell_angle_alpha 90.000000
_cell_angle_beta 90.000000
_cell_angle_gamma 90.000000
_cell_volume 2590.640183
_symmetry_space_group_name_H-M "P M M A"
_symmetry_group_IT_number 51
_symmetry_cell_setting 'orthorhombic'
loop_
_space_group_symop_operation_xyz
x,y,z
1/2-x,-y,z
1/2+x,-y,-z
-x,y,-z
-x,-y,-z
1/2+x,y,-z
1/2-x,y,z
x,-y,z
loop_
_atom_site_type_symbol
_atom_site_label
_atom_site_fract_x
_atom_site_fract_y
_atom_site_fract_z
Si Si1 0.565169 0.248125 0.157728
Si Si2 0.933529 0.000000 0.160198
Si Si3 0.065077 0.575576 0.657005
Si Si4 0.434260 0.829010 0.341749
Si Si5 0.933981 0.087763 0.841065
Si Si6 0.565216 0.327526 0.344078
Si Si7 0.066535 0.500000 0.157004
O O1 0.750000 0.246690 0.152857
O O2 0.504350 0.210056 0.254840
O O3 0.516356 0.292337 0.231269
O O4 0.500000 0.244460 0.000000
O O5 0.996119 0.955826 0.220665
O O6 0.750000 0.000000 0.157482
O O7 0.000000 0.000000 0.000000
O O8 0.250000 0.572088 0.655859
O O9 0.022100 0.624181 0.694126
O O10 0.994571 0.541379 0.761689
O O11 0.000000 0.567489 0.500000
O O12 0.500000 0.830060 0.500000
O O13 0.250000 0.824679 0.346938
O O14 0.470904 0.872188 0.256846
O O15 0.750000 0.083351 0.851991
O O16 0.000000 0.094194 0.000000
O O17 0.500000 0.317981 0.500000
O O18 0.750000 0.326199 0.353477
O O19 0.750000 0.500000 0.844704
O O20 0.000000 0.500000 0.000000
#
# Coordination Sequence:
#
# PCOD9399417 Si02
#       7
#     8   4   8   8   8   8   4
#     4  11  23  39  59  85 116 150 188 232 280 333
#     4  10  18  30  53  82 111 144 182 224 274 328
#     4  10  20  38  61  86 115 150 191 232 277 333
#     4  11  24  40  59  83 112 149 189 233 282 335
#     4  10  20  35  56  82 112 145 184 228 276 328
#     4   9  20  37  59  86 115 148 187 230 278 332
#     4  12  25  40  57  82 114 150 190 236 289 338
#
# _framework density 18.52824
#
# number of rings (size 3 to 8) (size 9 to 14) (size 15 to 20)
#    0.000    1.667    0.000    5.750    0.000    8.000 
#    0.000    2.083    0.000    0.000    0.000    0.000 
#    0.000    0.000    0.000    0.000    0.000    0.000 
#
# Total GULP energy -268219.759500 kJ/mol
# GULP energy per Si atom -5587.911656 kJ/mol
# Density = 1.848607 g / cm^3
# Si number density = 18.528240 Si / 1000 Ang^3
#
#
#
# Elastic Constant Matrix: (Units=GPa)
#
#
# Indices 1 2 3 4 5 6 
#
# 1 87.8888 75.2034 60.6988 0.0000 0.0000 0.0000
# 2 75.2034 172.7614 121.4761 0.0000 0.0000 0.0000
# 3 60.6988 121.4761 147.1580 0.0000 0.0000 0.0000
# 4 0.0000 0.0000 0.0000 31.8919 0.0000 0.0000
# 5 0.0000 0.0000 0.0000 0.0000 34.3740 0.0000
# 6 0.0000 0.0000 0.0000 0.0000 0.0000 31.5654
#
#
#
# Elastic Compliance Matrix: (Units=1/GPa)
#
#
# Indices 1 2 3 4 5 6 
#
# 1 0.018463 -0.006393 -0.002338 0.000000 0.000000 0.000000
# 2 -0.006393 0.016009 -0.010579 0.000000 0.000000 0.000000
# 3 -0.002338 -0.010579 0.016492 0.000000 0.000000 0.000000
# 4 0.000000 0.000000 0.000000 0.031356 0.000000 0.000000
# 5 0.000000 0.000000 0.000000 0.000000 0.029092 0.000000
# 6 0.000000 0.000000 0.000000 0.000000 0.000000 0.031680
#
#
# Mechanical properties :
#
#
# Convention : Reuss Voigt Hill
#
# Bulk Modulus (GPa) = 81.00268 102.50721 91.75494
# Shear Modulus (GPa) = 26.90667 29.59491 28.25079
#
# Velocity S-wave (km/s) = 3.81491 4.00094 3.90903
# Velocity P-wave (km/s) = 7.95098 8.76290 8.36679
#
# Compressibility (1/GPa) = 0.01234527
#
# Stress axis : x y z
#
# Youngs Moduli (GPa) = 54.16215 62.46329 60.63397
#
# Poissons Ratio (x) = 0.39931 0.14179
# Poissons Ratio (y) = 0.34625 0.64142
# Poissons Ratio (z) = 0.12665 0.66077
#
# Static dielectric constant tensor:
#      x y z
#    x 1.621260 0.000000 0.000000 
#    y 0.000000 1.655530 0.000000 
#    z 0.000000 0.000000 1.593840 
# 
# From -- ./inp_files/6118.got.cif
#   From: 2010.05.17/outbox.cif.g08.bks.cpg/sg51_4_cif.got.tgz:6118.got - 2010.06.03 11:52:47.
