data_PCOD9399538
_publ_section_title
;
Structure prediction by ZEFSAII (Michael W. Deem and Ramdas Pophale) SiO2 
 PCOD9399538
Probable space group: P M M A
;
_chemical_formula_sum "Si O2"
_cell_formula_units_Z 52
_cell_length_a 11.412768
_cell_length_b 7.511077
_cell_length_c 28.574415
_cell_angle_alpha 90.000000
_cell_angle_beta 90.000000
_cell_angle_gamma 90.000000
_cell_volume 2449.461124
_symmetry_space_group_name_H-M "P M M A"
_symmetry_group_IT_number 51
_symmetry_cell_setting 'orthorhombic'
loop_
_space_group_symop_operation_xyz
x,y,z
1/2-x,-y,z
1/2+x,-y,-z
-x,y,-z
-x,-y,-z
1/2+x,y,-z
1/2-x,y,z
x,-y,z
loop_
_atom_site_type_symbol
_atom_site_label
_atom_site_fract_x
_atom_site_fract_y
_atom_site_fract_z
Si Si1 0.250000 0.783426 0.882356
Si Si2 0.120215 0.290157 0.370341
Si Si3 0.515308 0.786206 0.279139
Si Si4 0.004543 0.786432 0.096431
Si Si5 0.617925 0.205609 0.522856
Si Si6 0.884960 0.500000 0.967037
Si Si7 0.378320 0.784100 0.191803
Si Si8 0.750000 0.781783 0.226879
O O1 0.131303 0.733194 0.909057
O O2 0.250000 0.724613 0.827659
O O3 0.250000 0.000000 0.880240
O O4 0.250000 0.230419 0.353199
O O5 0.125252 0.500000 0.378548
O O6 0.100688 0.207006 0.421132
O O7 0.022229 0.258805 0.331419
O O8 0.417629 0.721347 0.242515
O O9 0.636897 0.724580 0.256490
O O10 0.518661 0.000000 0.277228
O O11 0.092140 0.675080 0.064678
O O12 0.032765 0.743020 0.150503
O O13 0.016931 0.000000 0.089607
O O14 0.500000 0.285804 0.500000
O O15 0.750000 0.281251 0.514013
O O16 0.623023 0.000000 0.506822
O O17 0.250000 0.500000 0.015586
O O18 0.000000 0.500000 0.000000
O O19 0.250000 0.719441 0.179196
O O20 0.375248 0.000000 0.193661
O O21 0.750000 0.000000 0.225189
#
# Coordination Sequence:
#
# PCOD9399538 Si02
#       8
#     4   8   8   8   8   4   8   4
#     4   9  16  33  65  99 124 163 213 254 307 373
#     4  10  21  36  52  73 107 149 189 231 282 343
#     4  10  18  31  52  78 111 151 192 235 281 339
#     4  10  21  41  70  97 129 168 212 262 316 377
#     4   9  18  35  59  83 104 131 177 236 293 351
#     4  12  30  50  70 100 134 168 214 268 321 382
#     4   9  16  28  52  84 115 150 192 240 293 349
#     4   9  16  30  52  84 120 151 195 245 286 341
#
# _framework density 21.229158999999999
#
# number of rings (size 3 to 8) (size 9 to 14) (size 15 to 20)
#    0.000    2.308    1.538    1.385    1.077    3.077 
#    2.769    0.385    1.692    0.000    0.000    0.000 
#    0.000    0.000    0.000    0.000    0.000    0.000 
#
# Total GULP energy -290019.558251 kJ/mol
# GULP energy per Si atom -5577.299197 kJ/mol
# Density = 2.118084 g / cm^3
# Si number density = 21.229159 Si / 1000 Ang^3
#
#
#
# Elastic Constant Matrix: (Units=GPa)
#
#
# Indices 1 2 3 4 5 6 
#
# 1 136.6182 18.6902 33.8238 0.0000 0.0000 0.0000
# 2 18.6902 65.6966 8.7347 0.0000 0.0000 0.0000
# 3 33.8238 8.7347 55.6509 0.0000 0.0000 0.0000
# 4 0.0000 0.0000 0.0000 24.8249 0.0000 0.0000
# 5 0.0000 0.0000 0.0000 0.0000 36.9860 0.0000
# 6 0.0000 0.0000 0.0000 0.0000 0.0000 0.8758
#
#
#
# Elastic Compliance Matrix: (Units=1/GPa)
#
#
# Indices 1 2 3 4 5 6 
#
# 1 0.008828 -0.001836 -0.005077 0.000000 0.000000 0.000000
# 2 -0.001836 0.015928 -0.001384 0.000000 0.000000 0.000000
# 3 -0.005077 -0.001384 0.021272 0.000000 0.000000 0.000000
# 4 0.000000 0.000000 0.000000 0.040282 0.000000 0.000000
# 5 0.000000 0.000000 0.000000 0.000000 0.027037 0.000000
# 6 0.000000 0.000000 0.000000 0.000000 0.000000 1.141781
#
#
# Mechanical properties :
#
#
# Convention : Reuss Voigt Hill
#
# Bulk Modulus (GPa) = 33.97538 42.27370 38.12454
# Shear Modulus (GPa) = 3.90157 25.65181 14.77669
#
# Velocity S-wave (km/s) = 1.35714 3.47987 2.64115
# Velocity P-wave (km/s) = 4.30054 6.00852 5.22479
#
# Compressibility (1/GPa) = 0.02943308
#
# Stress axis : x y z
#
# Youngs Moduli (GPa) = 113.27689 62.78279 47.00966
#
# Poissons Ratio (x) = 0.11530 0.23868
# Poissons Ratio (y) = 0.20803 0.06505
# Poissons Ratio (z) = 0.57513 0.08688
#
# Static dielectric constant tensor:
#      x y z
#    x 1.809520 0.000000 0.000000 
#    y 0.000000 1.800500 0.000000 
#    z 0.000000 0.000000 1.728600 
# 
# From -- ./inp_files/36601.got.cif
#   From: 2010.05.17/outbox.cif.g08.bks.cpg/sg51_19_cif.got.tgz:36601.got - 2010.06.03 11:52:47.
