data_PCOD9399356
_publ_section_title
;
Structure prediction by ZEFSAII (Michael W. Deem and Ramdas Pophale) SiO2 
 PCOD9399356
Probable space group: P M M A
;
_chemical_formula_sum "Si O2"
_cell_formula_units_Z 52
_cell_length_a 15.887734
_cell_length_b 7.336890
_cell_length_c 19.623036
_cell_angle_alpha 90.000000
_cell_angle_beta 90.000000
_cell_angle_gamma 90.000000
_cell_volume 2287.389739
_symmetry_space_group_name_H-M "P M M A"
_symmetry_group_IT_number 51
_symmetry_cell_setting 'orthorhombic'
loop_
_space_group_symop_operation_xyz
x,y,z
1/2-x,-y,z
1/2+x,-y,-z
-x,y,-z
-x,-y,-z
1/2+x,y,-z
1/2-x,y,z
x,-y,z
loop_
_atom_site_type_symbol
_atom_site_label
_atom_site_fract_x
_atom_site_fract_y
_atom_site_fract_z
Si Si1 0.840677 0.721881 0.342607
Si Si2 0.093264 0.212747 0.022085
Si Si3 0.750000 0.746191 0.069631
Si Si4 0.506532 0.722598 0.578247
Si Si5 0.379426 0.721945 0.810489
Si Si6 0.654239 0.722464 0.679690
Si Si7 0.573311 0.719626 0.822163
O O1 0.750000 0.778593 0.370621
O O2 0.842542 0.500000 0.343326
O O3 0.847966 0.776177 0.263872
O O4 0.922291 0.782176 0.383050
O O5 0.104043 0.225073 0.103364
O O6 0.095202 0.000000 0.002439
O O7 0.174271 0.294256 0.985230
O O8 0.000000 0.283426 0.000000
O O9 0.677609 0.785303 0.128030
O O10 0.500000 0.780180 0.500000
O O11 0.507841 0.500000 0.578467
O O12 0.587911 0.780012 0.621792
O O13 0.374052 0.500000 0.813872
O O14 0.476058 0.776995 0.817186
O O15 0.750000 0.779480 0.667012
O O16 0.653157 0.500000 0.679953
O O17 0.623192 0.780686 0.754967
O O18 0.574066 0.500000 0.820456
#
# Coordination Sequence:
#
# PCOD9399356 Si02
#       7
#     8   8   4   8   8   8   8
#     4   9  15  24  39  61  91 128 167 210 259 308
#     4  11  25  42  55  74 107 143 174 217 275 329
#     4  12  22  36  54  76  97 136 173 218 271 328
#     4   9  16  25  38  60  96 139 177 212 256 314
#     4  10  18  30  51  77 103 130 170 226 275 315
#     4   9  17  29  46  69  99 134 175 222 265 308
#     4  10  20  36  56  77 100 137 183 225 264 314
#
# _framework density 22.733336999999999
#
# number of rings (size 3 to 8) (size 9 to 14) (size 15 to 20)
#    0.000    2.154    3.846    0.462    1.077    2.154 
#    0.000    3.077    0.000    0.000    0.000    0.000 
#    0.000    0.615    0.000    0.000    0.615    0.000 
#
# Total GULP energy -289632.712397 kJ/mol
# GULP energy per Si atom -5569.859854 kJ/mol
# Density = 2.268159 g / cm^3
# Si number density = 22.733337 Si / 1000 Ang^3
#
#
#
# Elastic Constant Matrix: (Units=GPa)
#
#
# Indices 1 2 3 4 5 6 
#
# 1 255.6554 13.8164 137.1976 0.0000 0.0000 0.0000
# 2 13.8164 85.7795 3.0407 0.0000 0.0000 0.0000
# 3 137.1976 3.0407 213.2039 0.0000 0.0000 0.0000
# 4 0.0000 0.0000 0.0000 1.3097 0.0000 0.0000
# 5 0.0000 0.0000 0.0000 0.0000 23.0492 0.0000
# 6 0.0000 0.0000 0.0000 0.0000 0.0000 -18.3899
#
#
#
# Elastic Compliance Matrix: (Units=1/GPa)
#
#
# Indices 1 2 3 4 5 6 
#
# 1 0.006034 -0.000835 -0.003871 0.000000 0.000000 0.000000
# 2 -0.000835 0.011779 0.000369 0.000000 0.000000 0.000000
# 3 -0.003871 0.000369 0.007176 0.000000 0.000000 0.000000
# 4 0.000000 0.000000 0.000000 0.763560 0.000000 0.000000
# 5 0.000000 0.000000 0.000000 0.000000 0.043385 0.000000
# 6 0.000000 0.000000 0.000000 0.000000 0.000000 -0.054378
#
#
# Mechanical properties :
#
#
# Convention : Reuss Voigt Hill
#
# Bulk Modulus (GPa) = 61.28901 95.86091 78.57496
# Shear Modulus (GPa) = 6.31577 27.89940 17.10758
#
# Velocity S-wave (km/s) = 1.66860 3.50701 2.74621
# Velocity P-wave (km/s) = 5.54354 7.65884 6.68538
#
# Compressibility (1/GPa) = 0.01631614
#
# Stress axis : x y z
#
# Youngs Moduli (GPa) = 165.72766 84.89576 139.35176
#
# Poissons Ratio (x) = 0.07086 0.53943
# Poissons Ratio (y) = 0.13833 -0.05144
# Poissons Ratio (z) = 0.64153 -0.03134
#
# Static dielectric constant tensor:
#      x y z
#    x 1.813680 0.000000 0.000000 
#    y 0.000000 1.907060 0.000000 
#    z 0.000000 0.000000 1.794150 
# 
# From -- ./inp_files/29767.got.cif
#   From: 2010.05.17/outbox.cif.g08.bks.cpg/sg51_15_cif.got.tgz:29767.got - 2010.06.03 11:52:47.
