data_PCOD9399386
_publ_section_title
;
Structure prediction by ZEFSAII (Michael W. Deem and Ramdas Pophale) SiO2 
 PCOD9399386
Probable space group: P M M A
;
_chemical_formula_sum "Si O2"
_cell_formula_units_Z 56
_cell_length_a 15.785151
_cell_length_b 14.874321
_cell_length_c 13.211217
_cell_angle_alpha 90.000000
_cell_angle_beta 90.000000
_cell_angle_gamma 90.000000
_cell_volume 3101.906597
_symmetry_space_group_name_H-M "P M M A"
_symmetry_group_IT_number 51
_symmetry_cell_setting 'orthorhombic'
loop_
_space_group_symop_operation_xyz
x,y,z
1/2-x,-y,z
1/2+x,-y,-z
-x,y,-z
-x,-y,-z
1/2+x,y,-z
1/2-x,y,z
x,-y,z
loop_
_atom_site_type_symbol
_atom_site_label
_atom_site_fract_x
_atom_site_fract_y
_atom_site_fract_z
Si Si1 0.647307 0.218709 0.619706
Si Si2 0.650725 0.400104 0.299194
Si Si3 0.353404 0.896584 0.575827
Si Si4 0.650163 0.898622 0.804166
Si Si5 0.853012 0.211466 0.223751
Si Si6 0.098983 0.102906 0.974174
Si Si7 0.401096 0.399457 0.473164
O O1 0.750000 0.220215 0.620011
O O2 0.619858 0.160117 0.522304
O O3 0.615473 0.169881 0.721124
O O4 0.617789 0.320299 0.604066
O O5 0.750000 0.405337 0.273703
O O6 0.612924 0.500000 0.281957
O O7 0.615687 0.313665 0.240782
O O8 0.644568 0.381396 0.419462
O O9 0.250000 0.897282 0.574981
O O10 0.379791 0.847656 0.679180
O O11 0.381609 0.000000 0.571293
O O12 0.750000 0.906199 0.782336
O O13 0.641303 0.868977 0.920051
O O14 0.613217 0.000000 0.795825
O O15 0.750000 0.212776 0.224114
O O16 0.882017 0.165864 0.120279
O O17 0.126604 0.000000 0.951015
O O18 0.000000 0.101682 0.000000
O O19 0.500000 0.399351 0.500000
O O20 0.377076 0.500000 0.438971
#
# Coordination Sequence:
#
# PCOD9399386 Si02
#       7
#     8   8   8   8   8   8   8
#     4  10  18  31  51  73  98 130 165 202 243 292
#     4   9  17  31  51  75 101 126 159 205 253 301
#     4   9  16  26  44  74 104 125 151 195 249 295
#     4   9  18  33  52  71  94 130 172 206 240 292
#     4  10  18  30  52  77  98 126 164 208 255 295
#     4  10  21  35  50  70  99 134 171 208 245 290
#     4  10  20  32  47  70 101 135 168 201 241 293
#
# _framework density 18.053412999999999
#
# number of rings (size 3 to 8) (size 9 to 14) (size 15 to 20)
#    0.000    2.429    1.429    1.714    0.000    5.143 
#    0.000    0.000    0.000    2.143    0.000    2.000 
#    0.000    0.000    0.000    0.000    0.000    0.000 
#
# Total GULP energy -312319.240645 kJ/mol
# GULP energy per Si atom -5577.129297 kJ/mol
# Density = 1.801232 g / cm^3
# Si number density = 18.053413 Si / 1000 Ang^3
#
#
#
# Elastic Constant Matrix: (Units=GPa)
#
#
# Indices 1 2 3 4 5 6 
#
# 1 9.4768 0.9863 -5.8981 0.0000 0.0000 0.0000
# 2 0.9863 142.9957 77.5096 0.0000 0.0000 0.0000
# 3 -5.8981 77.5096 98.8473 0.0000 0.0000 0.0000
# 4 0.0000 0.0000 0.0000 25.0663 0.0000 0.0000
# 5 0.0000 0.0000 0.0000 0.0000 -26.2377 0.0000
# 6 0.0000 0.0000 0.0000 0.0000 0.0000 11.6285
#
#
#
# Elastic Compliance Matrix: (Units=1/GPa)
#
#
# Indices 1 2 3 4 5 6 
#
# 1 0.114391 -0.007807 0.012947 0.000000 0.000000 0.000000
# 2 -0.007807 0.012696 -0.010421 0.000000 0.000000 0.000000
# 3 0.012947 -0.010421 0.019061 0.000000 0.000000 0.000000
# 4 0.000000 0.000000 0.000000 0.039894 0.000000 0.000000
# 5 0.000000 0.000000 0.000000 0.000000 -0.038113 0.000000
# 6 0.000000 0.000000 0.000000 0.000000 0.000000 0.085996
#
#
# Mechanical properties :
#
#
# Convention : Reuss Voigt Hill
#
# Bulk Modulus (GPa) = 7.37541 44.05729 25.71635
# Shear Modulus (GPa) = 17.26040 14.00621 15.63330
#
# Velocity S-wave (km/s) = 3.09540 2.78838 2.94589
# Velocity P-wave (km/s) = 4.10725 5.90115 5.08395
#
# Compressibility (1/GPa) = 0.13558564
#
# Stress axis : x y z
#
# Youngs Moduli (GPa) = 8.74196 78.76719 52.46437
#
# Poissons Ratio (x) = 0.61493 -0.67927
# Poissons Ratio (y) = 0.06825 0.54673
# Poissons Ratio (z) = -0.11318 0.82083
#
# Static dielectric constant tensor:
#      x y z
#    x 1.657580 0.000000 0.000000 
#    y 0.000000 1.645740 0.000000 
#    z 0.000000 0.000000 1.594380 
# 
# From -- ./inp_files/16585.got.cif
#   From: 2010.05.17/outbox.cif.g08.bks.cpg/sg51_9_cif.got.tgz:16585.got - 2010.06.03 11:52:47.
