data_PCOD9399145
_publ_section_title
;
Structure prediction by ZEFSAII (Michael W. Deem and Ramdas Pophale) SiO2 
 PCOD9399145
Probable space group: P M M A
;
_chemical_formula_sum "Si O2"
_cell_formula_units_Z 64
_cell_length_a 35.505797
_cell_length_b 14.849286
_cell_length_c 7.374422
_cell_angle_alpha 90.000000
_cell_angle_beta 90.000000
_cell_angle_gamma 90.000000
_cell_volume 3888.058798
_symmetry_space_group_name_H-M "P M M A"
_symmetry_group_IT_number 51
_symmetry_cell_setting 'orthorhombic'
loop_
_space_group_symop_operation_xyz
x,y,z
1/2-x,-y,z
1/2+x,-y,-z
-x,y,-z
-x,-y,-z
1/2+x,y,-z
1/2-x,y,z
x,-y,z
loop_
_atom_site_type_symbol
_atom_site_label
_atom_site_fract_x
_atom_site_fract_y
_atom_site_fract_z
Si Si1 0.152402 0.894119 0.643343
Si Si2 0.549020 0.599726 0.299747
Si Si3 0.792212 0.108682 0.054061
Si Si4 0.641331 0.892922 0.785761
Si Si5 0.506804 0.897570 0.214210
Si Si6 0.918848 0.784230 0.304223
Si Si7 0.931734 0.787548 0.729029
Si Si8 0.038296 0.399635 0.260552
O O1 0.152253 0.881081 0.426688
O O2 0.119700 0.835272 0.735625
O O3 0.143864 0.000000 0.674320
O O4 0.191235 0.873300 0.745760
O O5 0.562626 0.500000 0.251085
O O6 0.574471 0.682633 0.238859
O O7 0.506374 0.611195 0.228035
O O8 0.544178 0.601252 0.519922
O O9 0.750000 0.144045 0.026725
O O10 0.823921 0.137860 0.910120
O O11 0.790332 0.000000 0.035621
O O12 0.602119 0.841463 0.822960
O O13 0.635089 0.000000 0.814796
O O14 0.545070 0.843824 0.250723
O O15 0.470444 0.843858 0.284341
O O16 0.508953 0.000000 0.284296
O O17 0.500000 0.901754 0.000000
O O18 0.919126 0.776557 0.522064
O O19 0.940760 0.689154 0.808959
O O20 0.049440 0.500000 0.197207
#
# Coordination Sequence:
#
# PCOD9399145 Si02
#       8
#     8   8   8   8   8   8   8   8
#     4   9  18  30  45  67  93 120 151 188 226 267
#     4   8  13  23  41  63  84 109 147 191 228 262
#     4   9  18  32  50  69  90 119 148 177 224 281
#     4   9  18  30  45  67  93 120 151 188 226 267
#     4  11  23  31  38  57  84 120 161 193 220 259
#     4  10  18  30  46  63  85 117 154 189 226 265
#     4  10  18  30  46  63  85 117 154 189 226 265
#     4   8  13  23  41  63  84 109 147 191 228 262
#
# _framework density 16.460657000000001
#
# number of rings (size 3 to 8) (size 9 to 14) (size 15 to 20)
#    0.000    2.750    1.250    1.875    1.750    2.500 
#    0.000    2.500    0.000    1.500    0.000    0.000 
#    0.000    2.000    0.000    9.750    0.000    0.250 
#
# Total GULP energy -356739.285032 kJ/mol
# GULP energy per Si atom -5574.051329 kJ/mol
# Density = 1.642319 g / cm^3
# Si number density = 16.460657 Si / 1000 Ang^3
#
#
#
# Elastic Constant Matrix: (Units=GPa)
#
#
# Indices 1 2 3 4 5 6 
#
# 1 83.9937 38.9776 -2.2489 0.0000 0.0000 0.0000
# 2 38.9776 99.9090 6.8416 0.0000 0.0000 0.0000
# 3 -2.2489 6.8416 28.1408 0.0000 0.0000 0.0000
# 4 0.0000 0.0000 0.0000 -3.0157 0.0000 0.0000
# 5 0.0000 0.0000 0.0000 0.0000 19.7961 0.0000
# 6 0.0000 0.0000 0.0000 0.0000 0.0000 9.6707
#
#
#
# Elastic Compliance Matrix: (Units=1/GPa)
#
#
# Indices 1 2 3 4 5 6 
#
# 1 0.014725 -0.005924 0.002617 0.000000 0.000000 0.000000
# 2 -0.005924 0.012562 -0.003527 0.000000 0.000000 0.000000
# 3 0.002617 -0.003527 0.036602 0.000000 0.000000 0.000000
# 4 0.000000 0.000000 0.000000 -0.331598 0.000000 0.000000
# 5 0.000000 0.000000 0.000000 0.000000 0.050515 0.000000
# 6 0.000000 0.000000 0.000000 0.000000 0.000000 0.103405
#
#
# Mechanical properties :
#
#
# Convention : Reuss Voigt Hill
#
# Bulk Modulus (GPa) = 19.91233 33.24269 26.57751
# Shear Modulus (GPa) = -59.96602 16.52176 -21.72213
#
# Velocity S-wave (km/s) = -6.04227 3.17158 -3.63662
# Velocity P-wave (km/s) = 6.04611 5.80095 1.20510
#
# Compressibility (1/GPa) = 0.05022015
#
# Stress axis : x y z
#
# Youngs Moduli (GPa) = 67.91324 79.60705 27.32070
#
# Poissons Ratio (x) = 0.47157 -0.07150
# Poissons Ratio (y) = 0.40230 0.09637
# Poissons Ratio (z) = -0.17772 0.28081
#
# Static dielectric constant tensor:
#      x y z
#    x 1.568070 0.000000 0.000000 
#    y 0.000000 1.573270 0.000000 
#    z 0.000000 0.000000 1.631620 
# 
# From -- ./inp_files/13234.got.cif
#   From: 2010.05.17/outbox.cif.g08.bks.cpg/sg51_7_cif.got.tgz:13234.got - 2010.06.03 11:52:47.
