data_PCOD9399380
_publ_section_title
;
Structure prediction by ZEFSAII (Michael W. Deem and Ramdas Pophale) SiO2 
 PCOD9399380
Probable space group: P M M A
;
_chemical_formula_sum "Si O2"
_cell_formula_units_Z 48
_cell_length_a 18.604614
_cell_length_b 7.650098
_cell_length_c 17.117012
_cell_angle_alpha 90.000000
_cell_angle_beta 90.000000
_cell_angle_gamma 90.000000
_cell_volume 2436.215027
_symmetry_space_group_name_H-M "P M M A"
_symmetry_group_IT_number 51
_symmetry_cell_setting 'orthorhombic'
loop_
_space_group_symop_operation_xyz
x,y,z
1/2-x,-y,z
1/2+x,-y,-z
-x,y,-z
-x,-y,-z
1/2+x,y,-z
1/2-x,y,z
x,-y,z
loop_
_atom_site_type_symbol
_atom_site_label
_atom_site_fract_x
_atom_site_fract_y
_atom_site_fract_z
Si Si1 0.168434 0.289289 0.145508
Si Si2 0.171213 0.204023 0.658409
Si Si3 0.960532 0.206896 0.746496
Si Si4 0.892144 0.299251 0.178827
Si Si5 0.524428 0.213933 0.414989
Si Si6 0.916817 0.714172 0.008135
O O1 0.250000 0.225219 0.152386
O O2 0.170667 0.500000 0.141545
O O3 0.116753 0.241927 0.217159
O O4 0.129605 0.228397 0.065944
O O5 0.250000 0.282434 0.645977
O O6 0.149561 0.212583 0.749670
O O7 0.103781 0.277040 0.610213
O O8 0.175107 0.000000 0.637321
O O9 0.023245 0.292792 0.798552
O O10 0.972492 0.263570 0.656974
O O11 0.974957 0.000000 0.749770
O O12 0.868316 0.500000 0.177698
O O13 0.885927 0.226458 0.091595
O O14 0.500000 0.273840 0.500000
O O15 0.525632 0.000000 0.416721
O O16 0.916760 0.500000 0.009667
O O17 0.000000 0.768224 0.000000
#
# Coordination Sequence:
#
# PCOD9399380 Si02
#       6
#     8   8   8   8   8   8
#     4  10  20  34  51  70  96 133 173 210 248 289
#     4   9  18  32  49  72 104 134 160 201 258 305
#     4  10  19  32  51  74 100 127 158 200 250 299
#     4  10  18  30  52  75  96 127 169 206 240 289
#     4   8  15  30  52  75  96 124 165 204 239 292
#     4   9  16  29  49  71  94 125 169 212 241 279
#
# _framework density 19.702694999999999
#
# number of rings (size 3 to 8) (size 9 to 14) (size 15 to 20)
#    0.000    2.667    1.667    2.000    0.000    1.333 
#    0.000    5.000    0.000   15.500    0.000    0.000 
#    0.000    0.000    0.000    0.000    0.000    0.000 
#
# Total GULP energy -267757.762758 kJ/mol
# GULP energy per Si atom -5578.286724 kJ/mol
# Density = 1.965785 g / cm^3
# Si number density = 19.702695 Si / 1000 Ang^3
#
#
#
# Elastic Constant Matrix: (Units=GPa)
#
#
# Indices 1 2 3 4 5 6 
#
# 1 149.9731 -0.6918 94.3379 0.0000 0.0000 0.0000
# 2 -0.6918 39.0510 1.9425 0.0000 0.0000 0.0000
# 3 94.3379 1.9425 173.4923 0.0000 0.0000 0.0000
# 4 0.0000 0.0000 0.0000 17.1456 0.0000 0.0000
# 5 0.0000 0.0000 0.0000 0.0000 18.5537 0.0000
# 6 0.0000 0.0000 0.0000 0.0000 0.0000 16.7207
#
#
#
# Elastic Compliance Matrix: (Units=1/GPa)
#
#
# Indices 1 2 3 4 5 6 
#
# 1 0.010142 0.000454 -0.005520 0.000000 0.000000 0.000000
# 2 0.000454 0.025642 -0.000534 0.000000 0.000000 0.000000
# 3 -0.005520 -0.000534 0.008771 0.000000 0.000000 0.000000
# 4 0.000000 0.000000 0.000000 0.058324 0.000000 0.000000
# 5 0.000000 0.000000 0.000000 0.000000 0.053897 0.000000
# 6 0.000000 0.000000 0.000000 0.000000 0.000000 0.059806
#
#
# Mechanical properties :
#
#
# Convention : Reuss Voigt Hill
#
# Bulk Modulus (GPa) = 29.97952 61.52151 45.75051
# Shear Modulus (GPa) = 20.92910 28.27920 24.60415
#
# Velocity S-wave (km/s) = 3.26275 3.79264 3.53763
# Velocity P-wave (km/s) = 5.42614 7.10433 6.32118
#
# Compressibility (1/GPa) = 0.03335611
#
# Stress axis : x y z
#
# Youngs Moduli (GPa) = 98.59782 38.99832 114.00596
#
# Poissons Ratio (x) = -0.01771 0.62931
# Poissons Ratio (y) = -0.04479 0.06089
# Poissons Ratio (z) = 0.54426 0.02083
#
# Static dielectric constant tensor:
#      x y z
#    x 1.691360 0.000000 0.000000 
#    y 0.000000 1.763490 0.000000 
#    z 0.000000 0.000000 1.675210 
# 
# From -- ./inp_files/30079.got.cif
#   From: 2010.05.17/outbox.cif.g08.bks.cpg/sg51_16_cif.got.tgz:30079.got - 2010.06.03 11:52:47.
