data_PCOD9399279
_publ_section_title
;
Structure prediction by ZEFSAII (Michael W. Deem and Ramdas Pophale) SiO2 
 PCOD9399279
Probable space group: P M M A
;
_chemical_formula_sum "Si O2"
_cell_formula_units_Z 64
_cell_length_a 7.841832
_cell_length_b 20.503622
_cell_length_c 20.902599
_cell_angle_alpha 90.000000
_cell_angle_beta 90.000000
_cell_angle_gamma 90.000000
_cell_volume 3360.844428
_symmetry_space_group_name_H-M "P M M A"
_symmetry_group_IT_number 51
_symmetry_cell_setting 'orthorhombic'
loop_
_space_group_symop_operation_xyz
x,y,z
1/2-x,-y,z
1/2+x,-y,-z
-x,y,-z
-x,-y,-z
1/2+x,y,-z
1/2-x,y,z
x,-y,z
loop_
_atom_site_type_symbol
_atom_site_label
_atom_site_fract_x
_atom_site_fract_y
_atom_site_fract_z
Si Si1 0.957485 0.210563 0.247946
Si Si2 0.544184 0.425708 0.427652
Si Si3 0.047908 0.787159 0.098199
Si Si4 0.551894 0.660936 0.312881
Si Si5 0.043632 0.069533 0.758266
Si Si6 0.947116 0.574528 0.803410
Si Si7 0.451569 0.070511 0.092428
Si Si8 0.944992 0.643389 0.069917
O O1 0.750000 0.214489 0.244864
O O2 0.023215 0.270082 0.290409
O O3 0.006395 0.138378 0.271995
O O4 0.020504 0.216174 0.174901
O O5 0.500000 0.406528 0.500000
O O6 0.750000 0.427801 0.422246
O O7 0.481530 0.500000 0.417350
O O8 0.476965 0.376896 0.373552
O O9 0.250000 0.784694 0.085195
O O10 0.979008 0.857786 0.074260
O O11 0.965237 0.721780 0.071483
O O12 0.750000 0.673657 0.328375
O O13 0.544255 0.614220 0.251081
O O14 0.250000 0.069952 0.763155
O O15 0.973008 0.070139 0.830623
O O16 0.992287 0.000000 0.728773
O O17 0.750000 0.573478 0.783249
O O18 0.007730 0.500000 0.809551
O O19 0.956906 0.611457 0.871068
O O20 0.250000 0.070433 0.077434
O O21 0.524915 0.000000 0.070741
O O22 0.750000 0.626492 0.080789
O O23 0.000000 0.620142 0.000000
#
# Coordination Sequence:
#
# PCOD9399279 Si02
#       8
#     8   8   8   8   8   8   8   8
#     4   9  16  26  43  68  96 129 164 199 244 292
#     4   9  18  32  49  70  98 133 171 207 247 294
#     4  10  18  30  49  72  99 128 162 204 247 295
#     4  10  19  32  52  77 105 136 168 205 246 295
#     4   8  13  21  34  56  89 125 159 195 235 282
#     4  11  24  40  58  81 105 128 159 200 247 300
#     4   8  14  24  40  64  93 125 158 193 237 288
#     4  12  25  41  59  76  97 127 164 207 254 305
#
# _framework density 19.042833000000002
#
# number of rings (size 3 to 8) (size 9 to 14) (size 15 to 20)
#    0.000    2.375    1.250    2.250    0.000    2.750 
#    0.000    1.250    0.000    0.375    0.000    0.000 
#    0.000    0.500    0.000    0.375    0.000    1.000 
#
# Total GULP energy -356871.183807 kJ/mol
# GULP energy per Si atom -5576.112247 kJ/mol
# Density = 1.899949 g / cm^3
# Si number density = 19.042833 Si / 1000 Ang^3
#
#
#
# Elastic Constant Matrix: (Units=GPa)
#
#
# Indices 1 2 3 4 5 6 
#
# 1 32.9129 -5.2518 -8.0358 0.0000 0.0000 0.0000
# 2 -5.2518 144.2193 59.0025 0.0000 0.0000 0.0000
# 3 -8.0358 59.0025 89.4855 0.0000 0.0000 0.0000
# 4 0.0000 0.0000 0.0000 34.4659 0.0000 0.0000
# 5 0.0000 0.0000 0.0000 0.0000 15.4937 0.0000
# 6 0.0000 0.0000 0.0000 0.0000 0.0000 16.8175
#
#
#
# Elastic Compliance Matrix: (Units=1/GPa)
#
#
# Indices 1 2 3 4 5 6 
#
# 1 0.031064 -0.000014 0.002799 0.000000 0.000000 0.000000
# 2 -0.000014 0.009495 -0.006262 0.000000 0.000000 0.000000
# 3 0.002799 -0.006262 0.015555 0.000000 0.000000 0.000000
# 4 0.000000 0.000000 0.000000 0.029014 0.000000 0.000000
# 5 0.000000 0.000000 0.000000 0.000000 0.064542 0.000000
# 6 0.000000 0.000000 0.000000 0.000000 0.000000 0.059462
#
#
# Mechanical properties :
#
#
# Convention : Reuss Voigt Hill
#
# Bulk Modulus (GPa) = 20.34150 39.78306 30.06228
# Shear Modulus (GPa) = 21.50779 28.08229 24.79504
#
# Velocity S-wave (km/s) = 3.36436 3.84434 3.61233
# Velocity P-wave (km/s) = 5.07908 6.37510 5.76364
#
# Compressibility (1/GPa) = 0.04916057
#
# Stress axis : x y z
#
# Youngs Moduli (GPa) = 32.19128 105.31584 64.28746
#
# Poissons Ratio (x) = 0.00145 -0.17992
# Poissons Ratio (y) = 0.00044 0.40256
# Poissons Ratio (z) = -0.09009 0.65948
#
# Static dielectric constant tensor:
#      x y z
#    x 1.689880 0.000000 0.000000 
#    y 0.000000 1.737420 0.000000 
#    z 0.000000 0.000000 1.678730 
# 
# From -- ./inp_files/32631.got.cif
#   From: 2010.05.17/outbox.cif.g08.bks.cpg/sg51_17_cif.got.tgz:32631.got - 2010.06.03 11:52:47.
