data_PCOD9399702
_publ_section_title
;
Structure prediction by ZEFSAII (Michael W. Deem and Ramdas Pophale) SiO2 
 PCOD9399702
Probable space group: P M M A
;
_chemical_formula_sum "Si O2"
_cell_formula_units_Z 48
_cell_length_a 8.541984
_cell_length_b 20.071115
_cell_length_c 16.117233
_cell_angle_alpha 90.000000
_cell_angle_beta 90.000000
_cell_angle_gamma 90.000000
_cell_volume 2763.253554
_symmetry_space_group_name_H-M "P M M A"
_symmetry_group_IT_number 51
_symmetry_cell_setting 'orthorhombic'
loop_
_space_group_symop_operation_xyz
x,y,z
1/2-x,-y,z
1/2+x,-y,-z
-x,y,-z
-x,-y,-z
1/2+x,y,-z
1/2-x,y,z
x,-y,z
loop_
_atom_site_type_symbol
_atom_site_label
_atom_site_fract_x
_atom_site_fract_y
_atom_site_fract_z
Si Si1 0.937155 0.000000 0.593918
Si Si2 0.435883 0.500000 0.408742
Si Si3 0.432051 0.427433 0.886829
Si Si4 0.430162 0.616455 0.699403
Si Si5 0.566009 0.242023 0.734862
Si Si6 0.063100 0.142156 0.595087
Si Si7 0.560979 0.722515 0.087046
O O1 0.000000 0.000000 0.500000
O O2 0.001487 0.070082 0.626559
O O3 0.750000 0.000000 0.595694
O O4 0.250000 0.500000 0.404303
O O5 0.500000 0.500000 0.500000
O O6 0.503280 0.565374 0.365606
O O7 0.250000 0.428284 0.914704
O O8 0.502928 0.500000 0.908792
O O9 0.431475 0.421113 0.787556
O O10 0.499311 0.355104 0.911421
O O11 0.250000 0.635349 0.682299
O O12 0.532024 0.682516 0.706310
O O13 0.750000 0.228437 0.739237
O O14 0.490680 0.195102 0.664386
O O15 0.495631 0.241195 0.828759
O O16 0.250000 0.141001 0.589194
O O17 0.000000 0.153893 0.500000
O O18 0.750000 0.720678 0.089063
O O19 0.500000 0.751536 0.000000
#
# Coordination Sequence:
#
# PCOD9399702 Si02
#       7
#     4   4   8   8   8   8   8
#     4  10  18  32  54  84 119 154 185 220 264 312
#     4  12  24  36  50  70  93 126 171 220 272 328
#     4   8  14  27  49  71  92 123 160 205 264 325
#     4  10  19  35  54  71  95 129 169 218 272 324
#     4  11  22  37  56  81 110 143 184 230 277 330
#     4  11  21  36  57  85 118 153 188 223 267 321
#     4  10  20  34  52  75 105 141 182 228 280 335
#
# _framework density 17.370827999999999
#
# number of rings (size 3 to 8) (size 9 to 14) (size 15 to 20)
#    0.000    1.833    0.833    7.500    0.000    1.000 
#    0.000    3.333    0.000    0.000    0.000    0.583 
#    0.000    0.000    0.000    0.000    0.000    0.000 
#
# Total GULP energy -267566.634723 kJ/mol
# GULP energy per Si atom -5574.304890 kJ/mol
# Density = 1.733129 g / cm^3
# Si number density = 17.370828 Si / 1000 Ang^3
#
#
#
# Elastic Constant Matrix: (Units=GPa)
#
#
# Indices 1 2 3 4 5 6 
#
# 1 108.3639 23.4932 45.5171 0.0000 0.0000 0.0000
# 2 23.4932 87.6200 50.6319 0.0000 0.0000 0.0000
# 3 45.5171 50.6319 130.4187 0.0000 0.0000 0.0000
# 4 0.0000 0.0000 0.0000-1170.0316 0.0000 0.0000
# 5 0.0000 0.0000 0.0000 0.0000 24.5781 0.0000
# 6 0.0000 0.0000 0.0000 0.0000 0.0000 22.3087
#
#
#
# Elastic Compliance Matrix: (Units=1/GPa)
#
#
# Indices 1 2 3 4 5 6 
#
# 1 0.010872 -0.000931 -0.003433 0.000000 0.000000 0.000000
# 2 -0.000931 0.014794 -0.005418 0.000000 0.000000 0.000000
# 3 -0.003433 -0.005418 0.010969 0.000000 0.000000 0.000000
# 4 0.000000 0.000000 0.000000 -0.000855 0.000000 0.000000
# 5 0.000000 0.000000 0.000000 0.000000 0.040687 0.000000
# 6 0.000000 0.000000 0.000000 0.000000 0.000000 0.044826
#
#
# Mechanical properties :
#
#
# Convention : Reuss Voigt Hill
#
# Bulk Modulus (GPa) = 58.58240 62.85411 60.71825
# Shear Modulus (GPa) = 34.11870 -210.84493 -88.36312
#
# Velocity S-wave (km/s) = 4.43667 -11.02915 -7.13997
# Velocity P-wave (km/s) = 7.74875 11.22174 5.73952
#
# Compressibility (1/GPa) = 0.01706997
#
# Stress axis : x y z
#
# Youngs Moduli (GPa) = 91.97932 67.59684 91.16458
#
# Poissons Ratio (x) = 0.06296 0.31295
# Poissons Ratio (y) = 0.08567 0.49395
# Poissons Ratio (z) = 0.31575 0.36625
#
# Static dielectric constant tensor:
#      x y z
#    x 1.538460 0.000000 0.000000 
#    y 0.000000 1.606350 0.000000 
#    z 0.000000 0.000000 1.589880 
# 
# From -- ./inp_files/21249.got.cif
#   From: 2010.05.17/outbox.cif.g08.bks.cpg/sg51_11_cif.got.tgz:21249.got - 2010.06.03 11:52:47.
