data_PCOD9399697
_publ_section_title
;
Structure prediction by ZEFSAII (Michael W. Deem and Ramdas Pophale) SiO2 
 PCOD9399697
Probable space group: P M M A
;
_chemical_formula_sum "Si O2"
_cell_formula_units_Z 36
_cell_length_a 8.743172
_cell_length_b 10.738877
_cell_length_c 20.096661
_cell_angle_alpha 90.000000
_cell_angle_beta 90.000000
_cell_angle_gamma 90.000000
_cell_volume 1886.912654
_symmetry_space_group_name_H-M "P M M A"
_symmetry_group_IT_number 51
_symmetry_cell_setting 'orthorhombic'
loop_
_space_group_symop_operation_xyz
x,y,z
1/2-x,-y,z
1/2+x,-y,-z
-x,y,-z
-x,-y,-z
1/2+x,y,-z
1/2-x,y,z
x,-y,z
loop_
_atom_site_type_symbol
_atom_site_label
_atom_site_fract_x
_atom_site_fract_y
_atom_site_fract_z
Si Si1 0.066556 0.500000 0.074918
Si Si2 0.567942 0.758392 0.073846
Si Si3 0.575866 0.349497 0.568232
Si Si4 0.567444 0.643962 0.289459
Si Si5 0.568303 0.862674 0.800276
O O1 0.750000 0.500000 0.924720
O O2 0.999198 0.372284 0.102143
O O3 0.000000 0.500000 0.000000
O O4 0.750000 0.750483 0.068843
O O5 0.512856 0.856136 0.127983
O O6 0.500000 0.778969 0.000000
O O7 0.500000 0.302933 0.500000
O O8 0.750000 0.304319 0.575895
O O9 0.582857 0.500000 0.562679
O O10 0.478606 0.326215 0.634419
O O11 0.750000 0.647423 0.281375
O O12 0.516869 0.500000 0.275507
O O13 0.492466 0.749227 0.243934
O O14 0.750000 0.849023 0.809743
O O15 0.538977 0.000000 0.770524
#
# Coordination Sequence:
#
# PCOD9399697 Si02
#       5
#     4   8   8   8   8
#     4  10  18  32  54  82 114 144 177 224 281 338
#     4  11  22  38  60  85 114 147 189 238 292 349
#     4   9  16  28  50  82 119 155 192 236 286 336
#     4  10  21  37  59  88 120 154 195 240 288 346
#     4  11  25  43  61  83 114 154 197 242 295 352
#
# _framework density 19.078785
#
# number of rings (size 3 to 8) (size 9 to 14) (size 15 to 20)
#    0.000    1.778    0.000    6.333    1.556    6.222 
#    0.000    0.000    0.000    0.667    0.000    0.000 
#    0.000    0.000    0.000    0.000    0.000    0.000 
#
# Total GULP energy -200938.918842 kJ/mol
# GULP energy per Si atom -5581.636635 kJ/mol
# Density = 1.903536 g / cm^3
# Si number density = 19.078785 Si / 1000 Ang^3
#
#
#
# Elastic Constant Matrix: (Units=GPa)
#
#
# Indices 1 2 3 4 5 6 
#
# 1 141.7072 54.2625 40.9871 0.0000 0.0000 0.0000
# 2 54.2625 101.4170 56.5618 0.0000 0.0000 0.0000
# 3 40.9871 56.5618 101.2620 0.0000 0.0000 0.0000
# 4 0.0000 0.0000 0.0000 6.2522 0.0000 0.0000
# 5 0.0000 0.0000 0.0000 0.0000 34.6418 0.0000
# 6 0.0000 0.0000 0.0000 0.0000 0.0000 17.3913
#
#
#
# Elastic Compliance Matrix: (Units=1/GPa)
#
#
# Indices 1 2 3 4 5 6 
#
# 1 0.009007 -0.004046 -0.001385 0.000000 0.000000 0.000000
# 2 -0.004046 0.016140 -0.007377 0.000000 0.000000 0.000000
# 3 -0.001385 -0.007377 0.014557 0.000000 0.000000 0.000000
# 4 0.000000 0.000000 0.000000 0.159944 0.000000 0.000000
# 5 0.000000 0.000000 0.000000 0.000000 0.028867 0.000000
# 6 0.000000 0.000000 0.000000 0.000000 0.000000 0.057500
#
#
# Mechanical properties :
#
#
# Convention : Reuss Voigt Hill
#
# Bulk Modulus (GPa) = 70.99661 72.00101 71.49881
# Shear Modulus (GPa) = 15.80639 24.49537 20.15088
#
# Velocity S-wave (km/s) = 2.88146 3.58705 3.25344
# Velocity P-wave (km/s) = 6.95439 7.41462 7.18819
#
# Compressibility (1/GPa) = 0.01408518
#
# Stress axis : x y z
#
# Youngs Moduli (GPa) = 111.02473 61.95886 68.69595
#
# Poissons Ratio (x) = 0.25071 0.09518
# Poissons Ratio (y) = 0.44925 0.50679
# Poissons Ratio (z) = 0.15382 0.45709
#
# Static dielectric constant tensor:
#      x y z
#    x 1.645000 0.000000 0.000000 
#    y 0.000000 1.704010 0.000000 
#    z 0.000000 0.000000 1.620020 
# 
# From -- ./inp_files/26996.got.cif
#   From: 2010.05.17/outbox.cif.g08.bks.cpg/sg51_14_cif.got.tgz:26996.got - 2010.06.03 11:52:47.
