data_PCOD9399620
_publ_section_title
;
Structure prediction by ZEFSAII (Michael W. Deem and Ramdas Pophale) SiO2 
 PCOD9399620
Probable space group: P M M A
;
_chemical_formula_sum "Si O2"
_cell_formula_units_Z 52
_cell_length_a 8.780864
_cell_length_b 16.537334
_cell_length_c 25.833360
_cell_angle_alpha 90.000000
_cell_angle_beta 90.000000
_cell_angle_gamma 90.000000
_cell_volume 3751.315959
_symmetry_space_group_name_H-M "P M M A"
_symmetry_group_IT_number 51
_symmetry_cell_setting 'orthorhombic'
loop_
_space_group_symop_operation_xyz
x,y,z
1/2-x,-y,z
1/2+x,-y,-z
-x,y,-z
-x,-y,-z
1/2+x,y,-z
1/2-x,y,z
x,-y,z
loop_
_atom_site_type_symbol
_atom_site_label
_atom_site_fract_x
_atom_site_fract_y
_atom_site_fract_z
Si Si1 0.577620 0.095735 0.551540
Si Si2 0.433348 0.500000 0.558092
Si Si3 0.926090 0.098489 0.053923
Si Si4 0.567052 0.669326 0.558710
Si Si5 0.066898 0.906486 0.729685
Si Si6 0.070630 0.193321 0.632675
Si Si7 0.076766 0.097989 0.160711
O O1 0.500000 0.129616 0.500000
O O2 0.750000 0.127377 0.559033
O O3 0.464433 0.115255 0.597664
O O4 0.590189 0.000000 0.545932
O O5 0.250000 0.500000 0.558085
O O6 0.500000 0.500000 0.500000
O O7 0.499162 0.584066 0.579269
O O8 0.750000 0.121019 0.055351
O O9 0.007621 0.126678 0.106351
O O10 0.933983 0.000000 0.053903
O O11 0.000000 0.125625 0.000000
O O12 0.500000 0.682077 0.500000
O O13 0.750000 0.665502 0.554623
O O14 0.514747 0.737216 0.599929
O O15 0.250000 0.909053 0.726578
O O16 0.015744 0.838015 0.688790
O O17 0.017031 0.883670 0.787615
O O18 0.012682 0.000000 0.719283
O O19 0.250000 0.212174 0.634584
O O20 0.250000 0.125598 0.166424
O O21 0.077859 0.000000 0.157698
#
# Coordination Sequence:
#
# PCOD9399620 Si02
#       7
#     8   4   8   8   8   8   8
#     4  10  20  32  44  57  74  97 125 158 197 238
#     4  10  18  32  52  72  90 106 124 146 181 230
#     4   9  15  22  33  49  69  91 117 152 195 239
#     4  11  21  34  50  68  88 107 127 153 190 235
#     4   9  18  31  44  56  73 101 135 169 204 239
#     4  11  21  32  45  61  80 102 130 163 197 233
#     4   9  16  25  37  52  70  93 123 159 198 238
#
# _framework density 13.861802000000001
#
# number of rings (size 3 to 8) (size 9 to 14) (size 15 to 20)
#    0.000    2.154    0.000    5.769    0.000    6.462 
#    0.000    1.538    0.000    0.000    0.000    0.000 
#    0.000    0.000    0.000    0.000    0.000    0.000 
#
# Total GULP energy -289512.376612 kJ/mol
# GULP energy per Si atom -5567.545704 kJ/mol
# Density = 1.383025 g / cm^3
# Si number density = 13.861802 Si / 1000 Ang^3
#
#
#
# Elastic Constant Matrix: (Units=GPa)
#
#
# Indices 1 2 3 4 5 6 
#
# 1 65.9532 27.3878 25.7547 0.0000 0.0000 0.0000
# 2 27.3878 54.9181 27.7454 0.0000 0.0000 0.0000
# 3 25.7547 27.7454 97.2756 0.0000 0.0000 0.0000
# 4 0.0000 0.0000 0.0000 1.8179 0.0000 0.0000
# 5 0.0000 0.0000 0.0000 0.0000 20.8940 0.0000
# 6 0.0000 0.0000 0.0000 0.0000 0.0000 13.8553
#
#
#
# Elastic Compliance Matrix: (Units=1/GPa)
#
#
# Indices 1 2 3 4 5 6 
#
# 1 0.019767 -0.008428 -0.002830 0.000000 0.000000 0.000000
# 2 -0.008428 0.024868 -0.004862 0.000000 0.000000 0.000000
# 3 -0.002830 -0.004862 0.012416 0.000000 0.000000 0.000000
# 4 0.000000 0.000000 0.000000 0.550085 0.000000 0.000000
# 5 0.000000 0.000000 0.000000 0.000000 0.047861 0.000000
# 6 0.000000 0.000000 0.000000 0.000000 0.000000 0.072175
#
#
# Mechanical properties :
#
#
# Convention : Reuss Voigt Hill
#
# Bulk Modulus (GPa) = 40.30256 42.21363 41.25810
# Shear Modulus (GPa) = 6.51311 16.46403 11.48857
#
# Velocity S-wave (km/s) = 2.16998 3.45008 2.88200
# Velocity P-wave (km/s) = 5.95114 6.81102 6.39555
#
# Compressibility (1/GPa) = 0.02481232
#
# Stress axis : x y z
#
# Youngs Moduli (GPa) = 50.58887 40.21174 80.54210
#
# Poissons Ratio (x) = 0.33892 0.22790
# Poissons Ratio (y) = 0.42638 0.39156
# Poissons Ratio (z) = 0.14314 0.19549
#
# Static dielectric constant tensor:
#      x y z
#    x 1.481440 0.000000 0.000000 
#    y 0.000000 1.476530 0.000000 
#    z 0.000000 0.000000 1.497650 
# 
# From -- ./inp_files/35071.got.cif
#   From: 2010.05.17/outbox.cif.g08.bks.cpg/sg51_18_cif.got.tgz:35071.got - 2010.06.03 11:52:47.
