data_PCOD9399567
_publ_section_title
;
Structure prediction by ZEFSAII (Michael W. Deem and Ramdas Pophale) SiO2 
 PCOD9399567
Probable space group: P M M A
;
_chemical_formula_sum "Si O2"
_cell_formula_units_Z 48
_cell_length_a 14.793207
_cell_length_b 11.372938
_cell_length_c 16.981025
_cell_angle_alpha 90.000000
_cell_angle_beta 90.000000
_cell_angle_gamma 90.000000
_cell_volume 2856.925446
_symmetry_space_group_name_H-M "P M M A"
_symmetry_group_IT_number 51
_symmetry_cell_setting 'orthorhombic'
loop_
_space_group_symop_operation_xyz
x,y,z
1/2-x,-y,z
1/2+x,-y,-z
-x,y,-z
-x,-y,-z
1/2+x,y,-z
1/2-x,y,z
x,-y,z
loop_
_atom_site_type_symbol
_atom_site_label
_atom_site_fract_x
_atom_site_fract_y
_atom_site_fract_z
Si Si1 0.850970 0.734502 0.569213
Si Si2 0.642537 0.756154 0.393033
Si Si3 0.847204 0.000000 0.618999
Si Si4 0.980419 0.357036 0.875464
Si Si5 0.853202 0.643129 0.017493
Si Si6 0.961818 0.000000 0.409124
Si Si7 0.491032 0.359658 0.302846
O O1 0.750000 0.690043 0.587493
O O2 0.875075 0.701950 0.480013
O O3 0.922307 0.693287 0.633213
O O4 0.845561 0.877023 0.571879
O O5 0.750000 0.763390 0.382628
O O6 0.596713 0.884339 0.394670
O O7 0.590801 0.680281 0.328399
O O8 0.950405 0.000000 0.648771
O O9 0.750000 0.000000 0.664129
O O10 0.980483 0.500000 0.874859
O O11 0.969998 0.317985 0.785734
O O12 0.900362 0.321608 0.935000
O O13 0.076132 0.321091 0.914406
O O14 0.750000 0.683880 0.025962
O O15 0.851350 0.500000 0.018172
O O16 0.000000 0.000000 0.500000
O O17 0.483866 0.500000 0.305063
#
# Coordination Sequence:
#
# PCOD9399567 Si02
#       7
#     8   8   4   8   8   4   8
#     4  10  20  34  50  70  93 123 165 212 255 290
#     4  11  22  34  49  70  94 127 169 210 248 286
#     4  10  18  31  54  77  92 110 152 212 269 304
#     4   8  16  28  42  64  90 117 155 193 228 279
#     4   8  13  25  46  66  84 110 146 192 240 279
#     4  12  17  31  56  75  91 112 151 212 271 299
#     4  11  22  34  46  65  99 139 169 195 231 281
#
# _framework density 16.801278
#
# number of rings (size 3 to 8) (size 9 to 14) (size 15 to 20)
#    0.000    2.167    3.333    1.750    0.000    3.333 
#    0.000    5.000    0.000    0.000    0.000    0.000 
#    0.000   10.667    0.000   21.333    0.000    6.000 
#
# Total GULP energy -267206.072301 kJ/mol
# GULP energy per Si atom -5566.793173 kJ/mol
# Density = 1.676304 g / cm^3
# Si number density = 16.801278 Si / 1000 Ang^3
#
#
#
# Elastic Constant Matrix: (Units=GPa)
#
#
# Indices 1 2 3 4 5 6 
#
# 1 116.0562 4.6187 24.1906 0.0000 0.0000 0.0000
# 2 4.6187 26.9380 9.3473 0.0000 0.0000 0.0000
# 3 24.1906 9.3473 51.5692 0.0000 0.0000 0.0000
# 4 0.0000 0.0000 0.0000 -7.8973 0.0000 0.0000
# 5 0.0000 0.0000 0.0000 0.0000 9.3584 0.0000
# 6 0.0000 0.0000 0.0000 0.0000 0.0000 14.3682
#
#
#
# Elastic Compliance Matrix: (Units=1/GPa)
#
#
# Indices 1 2 3 4 5 6 
#
# 1 0.009551 -0.000089 -0.004464 0.000000 0.000000 0.000000
# 2 -0.000089 0.039615 -0.007139 0.000000 0.000000 0.000000
# 3 -0.004464 -0.007139 0.022779 0.000000 0.000000 0.000000
# 4 0.000000 0.000000 0.000000 -0.126625 0.000000 0.000000
# 5 0.000000 0.000000 0.000000 0.000000 0.106856 0.000000
# 6 0.000000 0.000000 0.000000 0.000000 0.000000 0.069598
#
#
# Mechanical properties :
#
#
# Convention : Reuss Voigt Hill
#
# Bulk Modulus (GPa) = 20.59237 30.09740 25.34489
# Shear Modulus (GPa) = 30.98980 13.59298 22.29139
#
# Velocity S-wave (km/s) = 4.29941 2.84746 3.64643
# Velocity P-wave (km/s) = 6.07698 5.36315 5.73119
#
# Compressibility (1/GPa) = 0.04856167
#
# Stress axis : x y z
#
# Youngs Moduli (GPa) = 104.70646 25.24325 43.89926
#
# Poissons Ratio (x) = 0.00223 0.19597
# Poissons Ratio (y) = 0.00927 0.31339
# Poissons Ratio (z) = 0.46741 0.18021
#
# Static dielectric constant tensor:
#      x y z
#    x 1.617140 0.000000 0.000000 
#    y 0.000000 1.558410 0.000000 
#    z 0.000000 0.000000 1.570170 
# 
# From -- ./inp_files/24085.got.cif
#   From: 2010.05.17/outbox.cif.g08.bks.cpg/sg51_13_cif.got.tgz:24085.got - 2010.06.03 11:52:47.
