data_PCOD9399171
_publ_section_title
;
Structure prediction by ZEFSAII (Michael W. Deem and Ramdas Pophale) SiO2 
 PCOD9399171
Probable space group: P M M A
;
_chemical_formula_sum "Si O2"
_cell_formula_units_Z 52
_cell_length_a 7.844574
_cell_length_b 20.384785
_cell_length_c 15.948330
_cell_angle_alpha 90.000000
_cell_angle_beta 90.000000
_cell_angle_gamma 90.000000
_cell_volume 2550.296723
_symmetry_space_group_name_H-M "P M M A"
_symmetry_group_IT_number 51
_symmetry_cell_setting 'orthorhombic'
loop_
_space_group_symop_operation_xyz
x,y,z
1/2-x,-y,z
1/2+x,-y,-z
-x,y,-z
-x,-y,-z
1/2+x,y,-z
1/2-x,y,z
x,-y,z
loop_
_atom_site_type_symbol
_atom_site_label
_atom_site_fract_x
_atom_site_fract_y
_atom_site_fract_z
Si Si1 0.547657 0.424972 0.348764
Si Si2 0.044254 0.185616 0.276959
Si Si3 0.952178 0.769229 0.097027
Si Si4 0.952243 0.500000 0.094023
Si Si5 0.546980 0.707934 0.589274
Si Si6 0.540694 0.633092 0.174835
Si Si7 0.544643 0.925191 0.594709
O O1 0.250000 0.432707 0.662581
O O2 0.481240 0.500000 0.361325
O O3 0.521006 0.366545 0.413617
O O4 0.478948 0.386771 0.267094
O O5 0.250000 0.187091 0.279297
O O6 0.982408 0.249312 0.330866
O O7 0.984779 0.123585 0.332163
O O8 0.996103 0.186189 0.178582
O O9 0.750000 0.764974 0.095040
O O10 0.021838 0.698223 0.128313
O O11 0.000000 0.784956 0.000000
O O12 0.750000 0.500000 0.111287
O O13 0.016871 0.431663 0.127577
O O14 0.000000 0.500000 0.000000
O O15 0.500000 0.740034 0.500000
O O16 0.750000 0.705522 0.595229
O O17 0.750000 0.637353 0.176645
O O18 0.500000 0.903941 0.500000
O O19 0.750000 0.926318 0.599576
O O20 0.481587 0.000000 0.605204
#
# Coordination Sequence:
#
# PCOD9399171 Si02
#       7
#     8   8   8   4   8   8   8
#     4  10  19  35  57  75  97 134 180 229 279 333
#     4  10  21  37  57  84 116 148 184 227 273 322
#     4  11  22  36  56  80 109 145 185 230 278 329
#     4  10  18  30  46  68  95 124 163 212 269 330
#     4  11  23  37  55  79 108 140 180 228 275 330
#     4   9  17  31  51  72  96 129 170 216 270 328
#     4   9  18  34  58  89 124 157 187 222 267 322
#
# _framework density 20.389785
#
# number of rings (size 3 to 8) (size 9 to 14) (size 15 to 20)
#    0.000    2.000    2.308    1.846    0.000    1.846 
#    0.000    1.538    0.000    0.462    0.000    0.000 
#    0.000    0.000    0.000    0.000    0.000    0.000 
#
# Total GULP energy -289579.410261 kJ/mol
# GULP energy per Si atom -5568.834813 kJ/mol
# Density = 2.034338 g / cm^3
# Si number density = 20.389785 Si / 1000 Ang^3
#
#
#
# Elastic Constant Matrix: (Units=GPa)
#
#
# Indices 1 2 3 4 5 6 
#
# 1 30.0976 9.1842 1.0093 0.0000 0.0000 0.0000
# 2 9.1842 125.2367 72.2359 0.0000 0.0000 0.0000
# 3 1.0093 72.2359 179.0700 0.0000 0.0000 0.0000
# 4 0.0000 0.0000 0.0000 19.5348 0.0000 0.0000
# 5 0.0000 0.0000 0.0000 0.0000 15.5790 0.0000
# 6 0.0000 0.0000 0.0000 0.0000 0.0000 9.2048
#
#
#
# Elastic Compliance Matrix: (Units=1/GPa)
#
#
# Indices 1 2 3 4 5 6 
#
# 1 0.034141 -0.003118 0.001065 0.000000 0.000000 0.000000
# 2 -0.003118 0.010691 -0.004295 0.000000 0.000000 0.000000
# 3 0.001065 -0.004295 0.007311 0.000000 0.000000 0.000000
# 4 0.000000 0.000000 0.000000 0.051191 0.000000 0.000000
# 5 0.000000 0.000000 0.000000 0.000000 0.064189 0.000000
# 6 0.000000 0.000000 0.000000 0.000000 0.000000 0.108639
#
#
# Mechanical properties :
#
#
# Convention : Reuss Voigt Hill
#
# Bulk Modulus (GPa) = 25.35034 55.47368 40.41201
# Shear Modulus (GPa) = 16.55592 25.66205 21.10898
#
# Velocity S-wave (km/s) = 2.85260 3.55149 3.22106
# Velocity P-wave (km/s) = 4.82801 6.63951 5.80486
#
# Compressibility (1/GPa) = 0.03944721
#
# Stress axis : x y z
#
# Youngs Moduli (GPa) = 29.29024 93.53706 136.77975
#
# Poissons Ratio (x) = 0.29167 -0.14573
# Poissons Ratio (y) = 0.09134 0.58748
# Poissons Ratio (z) = -0.03121 0.40175
#
# Static dielectric constant tensor:
#      x y z
#    x 1.753570 0.000000 0.000000 
#    y 0.000000 1.715790 0.000000 
#    z 0.000000 0.000000 1.824630 
# 
# From -- ./inp_files/21547.got.cif
#   From: 2010.05.17/outbox.cif.g08.bks.cpg/sg51_11_cif.got.tgz:21547.got - 2010.06.03 11:52:47.
