data_PCOD9399277
_publ_section_title
;
Structure prediction by ZEFSAII (Michael W. Deem and Ramdas Pophale) SiO2 
 PCOD9399277
Probable space group: P M M A
;
_chemical_formula_sum "Si O2"
_cell_formula_units_Z 64
_cell_length_a 17.210839
_cell_length_b 21.796049
_cell_length_c 8.978252
_cell_angle_alpha 90.000000
_cell_angle_beta 90.000000
_cell_angle_gamma 90.000000
_cell_volume 3367.996322
_symmetry_space_group_name_H-M "P M M A"
_symmetry_group_IT_number 51
_symmetry_cell_setting 'orthorhombic'
loop_
_space_group_symop_operation_xyz
x,y,z
1/2-x,-y,z
1/2+x,-y,-z
-x,y,-z
-x,-y,-z
1/2+x,y,-z
1/2-x,y,z
x,-y,z
loop_
_atom_site_type_symbol
_atom_site_label
_atom_site_fract_x
_atom_site_fract_y
_atom_site_fract_z
Si Si1 0.339536 0.143340 0.157873
Si Si2 0.540313 0.664820 0.784360
Si Si3 0.398402 0.245151 0.727824
Si Si4 0.566479 0.876589 0.114365
Si Si5 0.335987 0.280835 0.033780
Si Si6 0.658938 0.329987 0.510939
Si Si7 0.058928 0.569687 0.641961
Si Si8 0.460976 0.930607 0.341749
O O1 0.250000 0.131781 0.193184
O O2 0.347624 0.216187 0.121672
O O3 0.396347 0.117353 0.284590
O O4 0.364346 0.111058 0.001025
O O5 0.480110 0.719465 0.749164
O O6 0.590655 0.676882 0.929852
O O7 0.606427 0.665048 0.656951
O O8 0.490565 0.603041 0.770241
O O9 0.411371 0.174477 0.764786
O O10 0.363212 0.266884 0.572654
O O11 0.341513 0.267013 0.859420
O O12 0.525726 0.928762 0.210470
O O13 0.500000 0.851339 0.000000
O O14 0.250000 0.304575 0.071331
O O15 0.750000 0.333617 0.539911
O O16 0.629088 0.385250 0.403909
O O17 0.081768 0.500000 0.673770
O O18 0.000000 0.569120 0.500000
O O19 0.500000 0.914991 0.500000
O O20 0.429547 0.000000 0.352772
#
# Coordination Sequence:
#
# PCOD9399277 Si02
#       8
#     8   8   8   8   8   8   8   8
#     4   9  19  35  55  79 103 131 171 215 256 300
#     4  10  18  30  49  72  98 128 167 207 245 295
#     4  10  18  31  50  73  99 132 165 198 246 305
#     4   9  18  33  54  76  99 131 174 212 246 295
#     4  10  19  32  51  76 105 131 160 202 252 303
#     4  10  20  31  46  73 103 129 163 208 256 301
#     4   8  16  31  49  68  92 126 167 207 244 286
#     4  10  21  36  53  75 104 138 174 210 253 307
#
# _framework density 19.002393999999999
#
# number of rings (size 3 to 8) (size 9 to 14) (size 15 to 20)
#    0.000    2.500    0.000    4.500    0.000    5.250 
#    0.000    1.250    0.000    7.875    0.000    0.000 
#    0.000    0.000    0.000    0.000    0.000    0.000 
#
# Total GULP energy -356687.331764 kJ/mol
# GULP energy per Si atom -5573.239559 kJ/mol
# Density = 1.895914 g / cm^3
# Si number density = 19.002394 Si / 1000 Ang^3
#
#
#
# Elastic Constant Matrix: (Units=GPa)
#
#
# Indices 1 2 3 4 5 6 
#
# 1 97.8446 16.5672 10.4091 0.0000 0.0000 0.0000
# 2 16.5672 39.6677 14.5765 0.0000 0.0000 0.0000
# 3 10.4091 14.5765 33.5714 0.0000 0.0000 0.0000
# 4 0.0000 0.0000 0.0000 19.2469 0.0000 0.0000
# 5 0.0000 0.0000 0.0000 0.0000 22.5956 0.0000
# 6 0.0000 0.0000 0.0000 0.0000 0.0000 15.6958
#
#
#
# Elastic Compliance Matrix: (Units=1/GPa)
#
#
# Indices 1 2 3 4 5 6 
#
# 1 0.011079 -0.004004 -0.001697 0.000000 0.000000 0.000000
# 2 -0.004004 0.031442 -0.012411 0.000000 0.000000 0.000000
# 3 -0.001697 -0.012411 0.035702 0.000000 0.000000 0.000000
# 4 0.000000 0.000000 0.000000 0.051956 0.000000 0.000000
# 5 0.000000 0.000000 0.000000 0.000000 0.044256 0.000000
# 6 0.000000 0.000000 0.000000 0.000000 0.000000 0.063711
#
#
# Mechanical properties :
#
#
# Convention : Reuss Voigt Hill
#
# Bulk Modulus (GPa) = 23.80902 28.24326 26.02614
# Shear Modulus (GPa) = 17.33891 20.14305 18.74098
#
# Velocity S-wave (km/s) = 3.02397 3.25934 3.14386
# Velocity P-wave (km/s) = 4.97486 5.39070 5.18695
#
# Compressibility (1/GPa) = 0.04200090
#
# Stress axis : x y z
#
# Youngs Moduli (GPa) = 90.26351 31.80463 28.00968
#
# Poissons Ratio (x) = 0.12733 0.04752
# Poissons Ratio (y) = 0.36137 0.34762
# Poissons Ratio (z) = 0.15315 0.39471
#
# Static dielectric constant tensor:
#      x y z
#    x 1.669530 0.000000 0.000000 
#    y 0.000000 1.670020 0.000000 
#    z 0.000000 0.000000 1.703170 
# 
# From -- ./inp_files/10070.got.cif
#   From: 2010.05.17/outbox.cif.g08.bks.cpg/sg51_6_cif.got.tgz:10070.got - 2010.06.03 11:52:47.
