data_PCOD9399511
_publ_section_title
;
Structure prediction by ZEFSAII (Michael W. Deem and Ramdas Pophale) SiO2 
 PCOD9399511
Probable space group: P M M A
;
_chemical_formula_sum "Si O2"
_cell_formula_units_Z 56
_cell_length_a 16.547473
_cell_length_b 18.220247
_cell_length_c 9.597748
_cell_angle_alpha 90.000000
_cell_angle_beta 90.000000
_cell_angle_gamma 90.000000
_cell_volume 2893.711859
_symmetry_space_group_name_H-M "P M M A"
_symmetry_group_IT_number 51
_symmetry_cell_setting 'orthorhombic'
loop_
_space_group_symop_operation_xyz
x,y,z
1/2-x,-y,z
1/2+x,-y,-z
-x,y,-z
-x,-y,-z
1/2+x,y,-z
1/2-x,y,z
x,-y,z
loop_
_atom_site_type_symbol
_atom_site_label
_atom_site_fract_x
_atom_site_fract_y
_atom_site_fract_z
Si Si1 0.158382 0.693733 0.975653
Si Si2 0.844191 0.083901 0.739024
Si Si3 0.584501 0.083753 0.440923
Si Si4 0.842605 0.692210 0.504674
Si Si5 0.882855 0.794246 0.251813
Si Si6 0.428636 0.761541 0.229230
Si Si7 0.848398 0.416134 0.273228
O O1 0.250000 0.675624 0.020608
O O2 0.159790 0.769330 0.887689
O O3 0.130313 0.633194 0.861728
O O4 0.100895 0.709199 0.104717
O O5 0.750000 0.091108 0.774848
O O6 0.855100 0.087403 0.570942
O O7 0.892228 0.155863 0.790577
O O8 0.871184 0.000000 0.778024
O O9 0.500000 0.117439 0.500000
O O10 0.614952 0.123127 0.303555
O O11 0.566791 0.000000 0.407324
O O12 0.750000 0.680406 0.551997
O O13 0.843425 0.751702 0.381029
O O14 0.894774 0.725076 0.629318
O O15 0.874078 0.621080 0.419498
O O16 0.975583 0.768966 0.235999
O O17 0.750000 0.414177 0.277075
O O18 0.874772 0.500000 0.260166
#
# Coordination Sequence:
#
# PCOD9399511 Si02
#       7
#     8   8   8   8   8   8   8
#     4  10  22  37  56  78 106 144 183 223 268 323
#     4  10  20  32  50  76 107 143 179 222 274 318
#     4  10  18  31  51  77 105 136 179 227 273 317
#     4  10  19  32  56  82 106 136 175 221 267 317
#     4  11  20  34  53  78 106 144 180 224 268 323
#     4  12  21  34  53  81 112 142 180 226 270 321
#     4   8  16  34  58  82 107 138 176 218 269 327
#
# _framework density 19.352307
#
# number of rings (size 3 to 8) (size 9 to 14) (size 15 to 20)
#    0.000    1.857    2.857    3.429    0.000    0.571 
#    0.000    1.429    0.000   19.714    0.000    0.000 
#    0.000    0.000    0.000    0.000    0.000    0.000 
#
# Total GULP energy -312192.453633 kJ/mol
# GULP energy per Si atom -5574.865243 kJ/mol
# Density = 1.930826 g / cm^3
# Si number density = 19.352307 Si / 1000 Ang^3
#
#
#
# Elastic Constant Matrix: (Units=GPa)
#
#
# Indices 1 2 3 4 5 6 
#
# 1 64.0819 20.1980 6.2256 0.0000 0.0000 0.0000
# 2 20.1980 109.8702 21.5856 0.0000 0.0000 0.0000
# 3 6.2256 21.5856 61.6448 0.0000 0.0000 0.0000
# 4 0.0000 0.0000 0.0000 21.9533 0.0000 0.0000
# 5 0.0000 0.0000 0.0000 0.0000 0.8484 0.0000
# 6 0.0000 0.0000 0.0000 0.0000 0.0000 11.6785
#
#
#
# Elastic Compliance Matrix: (Units=1/GPa)
#
#
# Indices 1 2 3 4 5 6 
#
# 1 0.016589 -0.002922 -0.000652 0.000000 0.000000 0.000000
# 2 -0.002922 0.010289 -0.003308 0.000000 0.000000 0.000000
# 3 -0.000652 -0.003308 0.017446 0.000000 0.000000 0.000000
# 4 0.000000 0.000000 0.000000 0.045551 0.000000 0.000000
# 5 0.000000 0.000000 0.000000 0.000000 1.178707 0.000000
# 6 0.000000 0.000000 0.000000 0.000000 0.000000 0.085627
#
#
# Mechanical properties :
#
#
# Convention : Reuss Voigt Hill
#
# Bulk Modulus (GPa) = 32.72160 36.84615 34.78388
# Shear Modulus (GPa) = 3.62803 19.40188 11.51495
#
# Velocity S-wave (km/s) = 1.37069 3.16976 2.44194
# Velocity P-wave (km/s) = 4.41023 5.69890 5.09547
#
# Compressibility (1/GPa) = 0.03056085
#
# Stress axis : x y z
#
# Youngs Moduli (GPa) = 60.28002 97.19544 57.31958
#
# Poissons Ratio (x) = 0.28396 0.03739
# Poissons Ratio (y) = 0.17611 0.18959
# Poissons Ratio (z) = 0.03933 0.32148
#
# Static dielectric constant tensor:
#      x y z
#    x 1.702680 0.000000 0.000000 
#    y 0.000000 1.726590 0.000000 
#    z 0.000000 0.000000 1.665300 
# 
# From -- ./inp_files/8533.got.cif
#   From: 2010.05.17/outbox.cif.g08.bks.cpg/sg51_5_cif.got.tgz:8533.got - 2010.06.03 11:52:47.
