data_PCOD9399199
_publ_section_title
;
Structure prediction by ZEFSAII (Michael W. Deem and Ramdas Pophale) SiO2 
 PCOD9399199
Probable space group: P M M A
;
_chemical_formula_sum "Si O2"
_cell_formula_units_Z 64
_cell_length_a 8.893041
_cell_length_b 19.488635
_cell_length_c 24.104616
_cell_angle_alpha 90.000000
_cell_angle_beta 90.000000
_cell_angle_gamma 90.000000
_cell_volume 4177.648859
_symmetry_space_group_name_H-M "P M M A"
_symmetry_group_IT_number 51
_symmetry_cell_setting 'orthorhombic'
loop_
_space_group_symop_operation_xyz
x,y,z
1/2-x,-y,z
1/2+x,-y,-z
-x,y,-z
-x,-y,-z
1/2+x,y,-z
1/2-x,y,z
x,-y,z
loop_
_atom_site_type_symbol
_atom_site_label
_atom_site_fract_x
_atom_site_fract_y
_atom_site_fract_z
Si Si1 0.069633 0.078108 0.110441
Si Si2 0.430350 0.339547 0.337838
Si Si3 0.930895 0.578513 0.774043
Si Si4 0.430366 0.298382 0.834589
Si Si5 0.070104 0.419850 0.560248
Si Si6 0.430432 0.922107 0.241816
Si Si7 0.069828 0.211863 0.941132
Si Si8 0.929585 0.215164 0.277114
O O1 0.250000 0.085911 0.104380
O O2 0.034501 0.085667 0.176080
O O3 0.986166 0.136290 0.076256
O O4 0.030381 0.000000 0.094270
O O5 0.250000 0.337353 0.341800
O O6 0.471694 0.388782 0.285674
O O7 0.500500 0.371559 0.392910
O O8 0.494374 0.264878 0.322062
O O9 0.750000 0.579762 0.777604
O O10 0.982023 0.500000 0.778172
O O11 0.997700 0.628646 0.820384
O O12 0.250000 0.305006 0.835179
O O13 0.478322 0.263252 0.891816
O O14 0.469394 0.248486 0.782960
O O15 0.250000 0.412436 0.558260
O O16 0.035596 0.500000 0.573328
O O17 0.000000 0.405322 0.500000
O O18 0.250000 0.915646 0.247102
O O19 0.510492 0.862145 0.275488
O O20 0.472349 0.000000 0.257705
O O21 0.250000 0.212220 0.944163
O O22 0.000000 0.230789 0.000000
O O23 0.750000 0.216911 0.283061
#
# Coordination Sequence:
#
# PCOD9399199 Si02
#       8
#     8   8   8   8   8   8   8   8
#     4   9  18  32  49  68  90 118 152 188 227 274
#     4  10  19  31  48  71 100 132 165 201 238 279
#     4   9  18  31  49  73  96 119 149 186 230 279
#     4   9  19  33  47  66  91 116 146 184 230 282
#     4  10  20  33  49  70  99 137 176 210 243 280
#     4   9  17  29  46  68  94 124 157 191 232 284
#     4  11  22  35  49  67  88 115 151 190 231 279
#     4  10  18  30  47  69  96 124 157 197 240 285
#
# _framework density 15.319621
#
# number of rings (size 3 to 8) (size 9 to 14) (size 15 to 20)
#    0.000    2.375    1.250    2.625    0.000    4.250 
#    0.000    1.250    0.000    0.375    0.000    0.000 
#    0.000    0.500    0.000    1.875    0.000    2.875 
#
# Total GULP energy -356997.952659 kJ/mol
# GULP energy per Si atom -5578.093010 kJ/mol
# Density = 1.528475 g / cm^3
# Si number density = 15.319621 Si / 1000 Ang^3
#
#
#
# Elastic Constant Matrix: (Units=GPa)
#
#
# Indices 1 2 3 4 5 6 
#
# 1 36.9130 39.9015 40.3217 0.0000 0.0000 0.0000
# 2 39.9015 115.9573 61.2240 0.0000 0.0000 0.0000
# 3 40.3217 61.2240 98.8410 0.0000 0.0000 0.0000
# 4 0.0000 0.0000 0.0000 25.6976 0.0000 0.0000
# 5 0.0000 0.0000 0.0000 0.0000 23.7379 0.0000
# 6 0.0000 0.0000 0.0000 0.0000 0.0000 27.7286
#
#
#
# Elastic Compliance Matrix: (Units=1/GPa)
#
#
# Indices 1 2 3 4 5 6 
#
# 1 0.056789 -0.010862 -0.016439 0.000000 0.000000 0.000000
# 2 -0.010862 0.014892 -0.004794 0.000000 0.000000 0.000000
# 3 -0.016439 -0.004794 0.019793 0.000000 0.000000 0.000000
# 4 0.000000 0.000000 0.000000 0.038914 0.000000 0.000000
# 5 0.000000 0.000000 0.000000 0.000000 0.042127 0.000000
# 6 0.000000 0.000000 0.000000 0.000000 0.000000 0.036064
#
#
# Mechanical properties :
#
#
# Convention : Reuss Voigt Hill
#
# Bulk Modulus (GPa) = 36.64957 59.40063 48.02510
# Shear Modulus (GPa) = 17.73920 22.78376 20.26148
#
# Velocity S-wave (km/s) = 3.40654 3.86064 3.64068
# Velocity P-wave (km/s) = 6.28076 7.66362 7.00639
#
# Compressibility (1/GPa) = 0.02728545
#
# Stress axis : x y z
#
# Youngs Moduli (GPa) = 17.60917 67.14805 50.52400
#
# Poissons Ratio (x) = 0.72935 0.83054
# Poissons Ratio (y) = 0.19127 0.24219
# Poissons Ratio (z) = 0.28947 0.32188
#
# Static dielectric constant tensor:
#      x y z
#    x 1.508580 0.000000 0.000000 
#    y 0.000000 1.504500 0.000000 
#    z 0.000000 0.000000 1.487790 
# 
# From -- ./inp_files/32407.got.cif
#   From: 2010.05.17/outbox.cif.g08.bks.cpg/sg51_17_cif.got.tgz:32407.got - 2010.06.03 11:52:47.
