data_PCOD9399481
_publ_section_title
;
Structure prediction by ZEFSAII (Michael W. Deem and Ramdas Pophale) SiO2 
 PCOD9399481
Probable space group: P M M A
;
_chemical_formula_sum "Si O2"
_cell_formula_units_Z 64
_cell_length_a 20.607212
_cell_length_b 7.592911
_cell_length_c 20.870994
_cell_angle_alpha 90.000000
_cell_angle_beta 90.000000
_cell_angle_gamma 90.000000
_cell_volume 3265.657856
_symmetry_space_group_name_H-M "P M M A"
_symmetry_group_IT_number 51
_symmetry_cell_setting 'orthorhombic'
loop_
_space_group_symop_operation_xyz
x,y,z
1/2-x,-y,z
1/2+x,-y,-z
-x,y,-z
-x,-y,-z
1/2+x,y,-z
1/2-x,y,z
x,-y,z
loop_
_atom_site_type_symbol
_atom_site_label
_atom_site_fract_x
_atom_site_fract_y
_atom_site_fract_z
Si Si1 0.070900 0.712149 0.476730
Si Si2 0.559201 0.792901 0.161083
Si Si3 0.429600 0.705376 0.982358
Si Si4 0.438213 0.708307 0.335844
Si Si5 0.823416 0.715906 0.918734
Si Si6 0.588362 0.286830 0.803151
Si Si7 0.323420 0.211246 0.584992
Si Si8 0.913865 0.213753 0.301509
O O1 0.066170 0.500000 0.473215
O O2 0.082975 0.779933 0.404657
O O3 0.127818 0.752406 0.526463
O O4 0.000000 0.776553 0.500000
O O5 0.580796 0.715287 0.093554
O O6 0.481934 0.764651 0.169082
O O7 0.589763 0.724646 0.227732
O O8 0.572105 0.000000 0.157647
O O9 0.433423 0.500000 0.001000
O O10 0.500000 0.784358 0.000000
O O11 0.370939 0.777675 0.024598
O O12 0.424275 0.500000 0.336257
O O13 0.408291 0.780224 0.269852
O O14 0.515901 0.731127 0.328768
O O15 0.750000 0.776596 0.925779
O O16 0.821931 0.500000 0.919289
O O17 0.855982 0.770023 0.851645
O O18 0.588959 0.500000 0.801357
O O19 0.250000 0.278322 0.576362
O O20 0.358297 0.275555 0.650107
O O21 0.319547 0.000000 0.590485
O O22 0.913612 0.000000 0.300346
#
# Coordination Sequence:
#
# PCOD9399481 Si02
#       8
#     8   8   8   8   8   8   8   8
#     4  10  19  32  50  77 107 133 163 207 261 308
#     4  10  19  30  48  75 101 125 159 204 253 293
#     4  10  18  31  50  73  97 126 164 204 246 290
#     4   9  17  29  49  75 101 126 160 204 248 293
#     4   9  17  30  49  71  95 124 160 200 241 288
#     4   9  16  30  50  72  97 127 163 201 242 289
#     4  10  21  36  53  73  99 136 179 215 251 302
#     4   9  18  32  49  71  98 127 164 207 249 293
#
# _framework density 19.597888999999999
#
# number of rings (size 3 to 8) (size 9 to 14) (size 15 to 20)
#    0.000    2.500    2.500    0.375    0.000    1.750 
#    0.000    1.250    0.000    4.500    0.000    0.000 
#    0.000    0.000    0.000    0.000    0.000    0.000 
#
# Total GULP energy -356958.126121 kJ/mol
# GULP energy per Si atom -5577.470721 kJ/mol
# Density = 1.955328 g / cm^3
# Si number density = 19.597889 Si / 1000 Ang^3
#
#
#
# Elastic Constant Matrix: (Units=GPa)
#
#
# Indices 1 2 3 4 5 6 
#
# 1 139.4151 -3.3991 103.8707 0.0000 0.0000 0.0000
# 2 -3.3991 37.7847 -4.5646 0.0000 0.0000 0.0000
# 3 103.8707 -4.5646 179.2629 0.0000 0.0000 0.0000
# 4 0.0000 0.0000 0.0000 -8.6113 0.0000 0.0000
# 5 0.0000 0.0000 0.0000 0.0000 22.7583 0.0000
# 6 0.0000 0.0000 0.0000 0.0000 0.0000 11.2387
#
#
#
# Elastic Compliance Matrix: (Units=1/GPa)
#
#
# Indices 1 2 3 4 5 6 
#
# 1 0.012624 0.000253 -0.007308 0.000000 0.000000 0.000000
# 2 0.000253 0.026552 0.000530 0.000000 0.000000 0.000000
# 3 -0.007308 0.000530 0.009827 0.000000 0.000000 0.000000
# 4 0.000000 0.000000 0.000000 -0.116127 0.000000 0.000000
# 5 0.000000 0.000000 0.000000 0.000000 0.043940 0.000000
# 6 0.000000 0.000000 0.000000 0.000000 0.000000 0.088978
#
#
# Mechanical properties :
#
#
# Convention : Reuss Voigt Hill
#
# Bulk Modulus (GPa) = 27.81545 60.91964 44.36755
# Shear Modulus (GPa) = 55.04785 22.44752 38.74769
#
# Velocity S-wave (km/s) = 5.30562 3.38806 4.45132
# Velocity P-wave (km/s) = 7.19422 6.81597 7.00765
#
# Compressibility (1/GPa) = 0.03595124
#
# Stress axis : x y z
#
# Youngs Moduli (GPa) = 79.21391 37.66127 101.76486
#
# Poissons Ratio (x) = -0.00952 0.74373
# Poissons Ratio (y) = -0.02002 -0.05390
# Poissons Ratio (z) = 0.57892 -0.01995
#
# Static dielectric constant tensor:
#      x y z
#    x 1.651740 0.000000 0.000000 
#    y 0.000000 1.728250 0.000000 
#    z 0.000000 0.000000 1.712510 
# 
# From -- ./inp_files/34164.got.cif
#   From: 2010.05.17/outbox.cif.g08.bks.cpg/sg51_18_cif.got.tgz:34164.got - 2010.06.03 11:52:47.
