data_PCOD9399960
_publ_section_title
;
Structure prediction by ZEFSAII (Michael W. Deem and Ramdas Pophale) SiO2 
 PCOD9399960
Probable space group: P M M A
;
_chemical_formula_sum "Si O2"
_cell_formula_units_Z 48
_cell_length_a 27.780186
_cell_length_b 13.341013
_cell_length_c 5.948351
_cell_angle_alpha 90.000000
_cell_angle_beta 90.000000
_cell_angle_gamma 90.000000
_cell_volume 2204.552999
_symmetry_space_group_name_H-M "P M M A"
_symmetry_group_IT_number 51
_symmetry_cell_setting 'orthorhombic'
loop_
_space_group_symop_operation_xyz
x,y,z
1/2-x,-y,z
1/2+x,-y,-z
-x,y,-z
-x,-y,-z
1/2+x,y,-z
1/2-x,y,z
x,-y,z
loop_
_atom_site_type_symbol
_atom_site_label
_atom_site_fract_x
_atom_site_fract_y
_atom_site_fract_z
Si Si1 0.629012 0.771203 0.172926
Si Si2 0.065628 0.114761 0.181366
Si Si3 0.695693 0.691618 0.800119
Si Si4 0.979611 0.683886 0.749894
Si Si5 0.889253 0.388227 0.533551
Si Si6 0.166399 0.887887 0.441559
O O1 0.603502 0.696308 0.345887
O O2 0.662693 0.849287 0.305298
O O3 0.590275 0.835918 0.037803
O O4 0.663820 0.703317 0.022118
O O5 0.025736 0.195027 0.252962
O O6 0.110889 0.114291 0.353604
O O7 0.049835 0.000000 0.152538
O O8 0.750000 0.658040 0.834694
O O9 0.664658 0.625845 0.626960
O O10 0.694280 0.804193 0.697699
O O11 0.925892 0.638129 0.734092
O O12 0.000000 0.652751 0.500000
O O13 0.000000 0.656762 0.000000
O O14 0.897574 0.500000 0.451100
O O15 0.184716 0.000000 0.417767
#
# Coordination Sequence:
#
# PCOD9399960 Si02
#       6
#     8   8   8   8   8   8
#     4  10  18  39  64  95 130 175 223 280 335 413
#     4  10  20  38  64  97 136 179 220 271 337 408
#     4  10  22  40  64  94 131 169 217 281 345 415
#     4  12  26  45  70 104 143 181 237 291 342 416
#     4  11  25  46  69  92 129 177 224 288 356 408
#     4   9  18  34  62  92 129 177 220 265 330 407
#
# _framework density 21.773122999999998
#
# number of rings (size 3 to 8) (size 9 to 14) (size 15 to 20)
#    0.000    1.667    5.000    1.500    0.000    6.000 
#    0.000    0.000    0.000    0.000    0.000    0.000 
#    0.000    0.000    0.000    0.000    0.000    0.000 
#
# Total GULP energy -267827.230434 kJ/mol
# GULP energy per Si atom -5579.733967 kJ/mol
# Density = 2.172357 g / cm^3
# Si number density = 21.773123 Si / 1000 Ang^3
#
#
#
# Elastic Constant Matrix: (Units=GPa)
#
#
# Indices 1 2 3 4 5 6 
#
# 1 65.5303 -12.6120 19.9799 0.0000 0.0000 0.0000
# 2 -12.6120 95.6118 4.8254 0.0000 0.0000 0.0000
# 3 19.9799 4.8254 90.9442 0.0000 0.0000 0.0000
# 4 0.0000 0.0000 0.0000 7.3371 0.0000 0.0000
# 5 0.0000 0.0000 0.0000 0.0000 -6.8098 0.0000
# 6 0.0000 0.0000 0.0000 0.0000 0.0000 4.9125
#
#
#
# Elastic Compliance Matrix: (Units=1/GPa)
#
#
# Indices 1 2 3 4 5 6 
#
# 1 0.016897 0.002423 -0.003841 0.000000 0.000000 0.000000
# 2 0.002423 0.010834 -0.001107 0.000000 0.000000 0.000000
# 3 -0.003841 -0.001107 0.011898 0.000000 0.000000 0.000000
# 4 0.000000 0.000000 0.000000 0.136293 0.000000 0.000000
# 5 0.000000 0.000000 0.000000 0.000000 -0.146848 0.000000
# 6 0.000000 0.000000 0.000000 0.000000 0.000000 0.203563
#
#
# Mechanical properties :
#
#
# Convention : Reuss Voigt Hill
#
# Bulk Modulus (GPa) = 28.91864 30.71922 29.81893
# Shear Modulus (GPa) = 20.06300 17.08084 18.57192
#
# Velocity S-wave (km/s) = 3.03884 2.80392 2.92374
# Velocity P-wave (km/s) = 5.06196 4.96206 5.01226
#
# Compressibility (1/GPa) = 0.03457977
#
# Stress axis : x y z
#
# Youngs Moduli (GPa) = 59.18054 92.29847 84.04556
#
# Poissons Ratio (x) = -0.22362 0.32280
# Poissons Ratio (y) = -0.14338 0.09305
# Poissons Ratio (z) = 0.22730 0.10219
#
# Static dielectric constant tensor:
#      x y z
#    x 1.814030 0.000000 0.000000 
#    y 0.000000 1.768840 0.000000 
#    z 0.000000 0.000000 1.838690 
# 
# From -- ./inp_files/3515.got.cif
#   From: 2010.05.17/outbox.cif.g08.bks.cpg/sg51_2_cif.got.tgz:3515.got - 2010.06.03 11:52:47.
