data_PCOD9399769
_publ_section_title
;
Structure prediction by ZEFSAII (Michael W. Deem and Ramdas Pophale) SiO2 
 PCOD9399769
Probable space group: P M M A
;
_chemical_formula_sum "Si O2"
_cell_formula_units_Z 56
_cell_length_a 14.216729
_cell_length_b 14.569148
_cell_length_c 13.054840
_cell_angle_alpha 90.000000
_cell_angle_beta 90.000000
_cell_angle_gamma 90.000000
_cell_volume 2703.991945
_symmetry_space_group_name_H-M "P M M A"
_symmetry_group_IT_number 51
_symmetry_cell_setting 'orthorhombic'
loop_
_space_group_symop_operation_xyz
x,y,z
1/2-x,-y,z
1/2+x,-y,-z
-x,y,-z
-x,-y,-z
1/2+x,y,-z
1/2-x,y,z
x,-y,z
loop_
_atom_site_type_symbol
_atom_site_label
_atom_site_fract_x
_atom_site_fract_y
_atom_site_fract_z
Si Si1 0.590309 0.600758 0.425893
Si Si2 0.135129 0.894817 0.758632
Si Si3 0.858408 0.193233 0.452591
Si Si4 0.637839 0.248485 0.834796
Si Si5 0.362611 0.252980 0.927027
Si Si6 0.015441 0.394839 0.806304
Si Si7 0.365065 0.894559 0.337099
O O1 0.500000 0.600630 0.500000
O O2 0.636660 0.500000 0.440424
O O3 0.640258 0.696536 0.450160
O O4 0.560454 0.606657 0.307021
O O5 0.250000 0.894785 0.757824
O O6 0.101816 0.848926 0.652371
O O7 0.108543 0.830793 0.853621
O O8 0.104873 0.000000 0.767224
O O9 0.750000 0.162722 0.452705
O O10 0.898416 0.154673 0.558621
O O11 0.750000 0.261201 0.823703
O O12 0.581121 0.338484 0.802266
O O13 0.608234 0.164800 0.761823
O O14 0.617482 0.232721 0.954558
O O15 0.250000 0.266757 0.916640
O O16 0.416845 0.341600 0.884891
O O17 0.001302 0.500000 0.836541
O O18 0.250000 0.894708 0.337573
O O19 0.395467 0.000000 0.334002
#
# Coordination Sequence:
#
# PCOD9399769 Si02
#       7
#     8   8   8   8   8   8   8
#     4  10  21  36  55  80 113 154 193 235 293 355
#     4   9  17  31  54  84 115 148 185 229 286 345
#     4  10  18  32  57  85 114 147 188 241 293 346
#     4  10  22  39  60  85 116 154 200 249 292 344
#     4  10  21  38  59  87 119 154 197 243 293 355
#     4  11  23  40  62  86 118 157 196 245 302 354
#     4   9  18  34  58  87 117 155 201 245 295 352
#
# _framework density 20.710121000000001
#
# number of rings (size 3 to 8) (size 9 to 14) (size 15 to 20)
#    0.000    2.143    1.429    1.714    0.000    4.286 
#    0.000    6.429    0.000    8.571    0.000    0.000 
#    0.000    0.000    0.000    0.000    0.000    0.000 
#
# Total GULP energy -312863.685539 kJ/mol
# GULP energy per Si atom -5586.851527 kJ/mol
# Density = 2.066298 g / cm^3
# Si number density = 20.710121 Si / 1000 Ang^3
#
#
#
# Elastic Constant Matrix: (Units=GPa)
#
#
# Indices 1 2 3 4 5 6 
#
# 1 51.4192 27.5967 30.4405 0.0000 0.0000 0.0000
# 2 27.5967 208.5659 95.4725 0.0000 0.0000 0.0000
# 3 30.4405 95.4725 139.6249 0.0000 0.0000 0.0000
# 4 0.0000 0.0000 0.0000 24.0321 0.0000 0.0000
# 5 0.0000 0.0000 0.0000 0.0000 20.5040 0.0000
# 6 0.0000 0.0000 0.0000 0.0000 0.0000 94.0491
#
#
#
# Elastic Compliance Matrix: (Units=1/GPa)
#
#
# Indices 1 2 3 4 5 6 
#
# 1 0.022491 -0.001065 -0.004176 0.000000 0.000000 0.000000
# 2 -0.001065 0.007030 -0.004575 0.000000 0.000000 0.000000
# 3 -0.004176 -0.004575 0.011200 0.000000 0.000000 0.000000
# 4 0.000000 0.000000 0.000000 0.041611 0.000000 0.000000
# 5 0.000000 0.000000 0.000000 0.000000 0.048771 0.000000
# 6 0.000000 0.000000 0.000000 0.000000 0.000000 0.010633
#
#
# Mechanical properties :
#
#
# Convention : Reuss Voigt Hill
#
# Bulk Modulus (GPa) = 47.41169 78.51437 62.96303
# Shear Modulus (GPa) = 29.69195 44.12374 36.90784
#
# Velocity S-wave (km/s) = 3.79052 4.62078 4.22609
# Velocity P-wave (km/s) = 6.48846 8.15244 7.36758
#
# Compressibility (1/GPa) = 0.02109185
#
# Stress axis : x y z
#
# Youngs Moduli (GPa) = 44.46170 142.25678 89.28293
#
# Poissons Ratio (x) = 0.15145 0.37280
# Poissons Ratio (y) = 0.04733 0.40843
# Poissons Ratio (z) = 0.18565 0.65076
#
# Static dielectric constant tensor:
#      x y z
#    x 1.797040 0.000000 0.000000 
#    y 0.000000 1.702230 0.000000 
#    z 0.000000 0.000000 1.714170 
# 
# From -- ./inp_files/16566.got.cif
#   From: 2010.05.17/outbox.cif.g08.bks.cpg/sg51_9_cif.got.tgz:16566.got - 2010.06.03 11:52:47.
