data_PCOD9399000
_publ_section_title
;
Structure prediction by ZEFSAII (Michael W. Deem and Ramdas Pophale) SiO2 
 PCOD9399000
Probable space group: P M M A
;
_chemical_formula_sum "Si O2"
_cell_formula_units_Z 56
_cell_length_a 9.174366
_cell_length_b 18.700549
_cell_length_c 21.012169
_cell_angle_alpha 90.000000
_cell_angle_beta 90.000000
_cell_angle_gamma 90.000000
_cell_volume 3604.967082
_symmetry_space_group_name_H-M "P M M A"
_symmetry_group_IT_number 51
_symmetry_cell_setting 'orthorhombic'
loop_
_space_group_symop_operation_xyz
x,y,z
1/2-x,-y,z
1/2+x,-y,-z
-x,y,-z
-x,-y,-z
1/2+x,y,-z
1/2-x,y,z
x,-y,z
loop_
_atom_site_type_symbol
_atom_site_label
_atom_site_fract_x
_atom_site_fract_y
_atom_site_fract_z
Si Si1 0.923978 0.416735 0.822505
Si Si2 0.423806 0.656434 0.313795
Si Si3 0.583188 0.712265 0.118358
Si Si4 0.916764 0.212300 0.257489
Si Si5 0.076096 0.082951 0.198613
Si Si6 0.423283 0.154751 0.062932
Si Si7 0.078830 0.414025 0.565775
O O1 0.750000 0.408472 0.832426
O O2 0.962073 0.500000 0.829196
O O3 0.953660 0.390134 0.750185
O O4 0.009689 0.364378 0.869884
O O5 0.250000 0.658679 0.322238
O O6 0.488312 0.735070 0.300836
O O7 0.501207 0.621593 0.374141
O O8 0.750000 0.707019 0.095865
O O9 0.585064 0.749383 0.188162
O O10 0.489096 0.766517 0.076222
O O11 0.750000 0.206851 0.279531
O O12 0.989808 0.135857 0.244999
O O13 0.250000 0.092133 0.208169
O O14 0.046030 0.107985 0.125983
O O15 0.039051 0.000000 0.206787
O O16 0.250000 0.158469 0.054482
O O17 0.500000 0.125254 0.000000
O O18 0.250000 0.396002 0.563793
O O19 0.066344 0.500000 0.571920
O O20 0.000000 0.393472 0.500000
#
# Coordination Sequence:
#
# PCOD9399000 Si02
#       7
#     8   8   8   8   8   8   8
#     4   9  17  28  43  64  88 113 142 179 224 270
#     4  10  18  29  46  66  90 121 156 191 226 267
#     4   9  17  29  44  62  84 110 142 180 220 262
#     4   9  17  29  45  66  90 116 148 185 224 265
#     4   9  18  32  48  67  93 122 148 177 218 266
#     4  10  19  31  47  65  86 114 147 180 214 258
#     4  10  20  32  45  63  91 127 164 200 236 272
#
# _framework density 15.534122
#
# number of rings (size 3 to 8) (size 9 to 14) (size 15 to 20)
#    0.000    2.571    0.000    2.571    0.000    6.857 
#    0.000    0.000    0.000    0.429    0.000    0.000 
#    0.000    0.571    0.000    2.143    0.000    3.286 
#
# Total GULP energy -312233.034645 kJ/mol
# GULP energy per Si atom -5575.589904 kJ/mol
# Density = 1.549877 g / cm^3
# Si number density = 15.534122 Si / 1000 Ang^3
#
#
#
# Elastic Constant Matrix: (Units=GPa)
#
#
# Indices 1 2 3 4 5 6 
#
# 1 69.2449 35.4247 16.6789 0.0000 0.0000 0.0000
# 2 35.4247 91.1397 0.0661 0.0000 0.0000 0.0000
# 3 16.6789 0.0661 18.6896 0.0000 0.0000 0.0000
# 4 0.0000 0.0000 0.0000 14.7254 0.0000 0.0000
# 5 0.0000 0.0000 0.0000 0.0000 25.0224 0.0000
# 6 0.0000 0.0000 0.0000 0.0000 0.0000 23.6969
#
#
#
# Elastic Compliance Matrix: (Units=1/GPa)
#
#
# Indices 1 2 3 4 5 6 
#
# 1 0.024608 -0.009549 -0.021927 0.000000 0.000000 0.000000
# 2 -0.009549 0.014678 0.008470 0.000000 0.000000 0.000000
# 3 -0.021927 0.008470 0.073044 0.000000 0.000000 0.000000
# 4 0.000000 0.000000 0.000000 0.067910 0.000000 0.000000
# 5 0.000000 0.000000 0.000000 0.000000 0.039964 0.000000
# 6 0.000000 0.000000 0.000000 0.000000 0.000000 0.042200
#
#
# Mechanical properties :
#
#
# Convention : Reuss Voigt Hill
#
# Bulk Modulus (GPa) = 15.07906 31.49042 23.28474
# Shear Modulus (GPa) = 15.12764 21.14923 18.13843
#
# Velocity S-wave (km/s) = 3.12401 3.69381 3.42080
# Velocity P-wave (km/s) = 4.76873 6.20549 5.53393
#
# Compressibility (1/GPa) = 0.06631713
#
# Stress axis : x y z
#
# Youngs Moduli (GPa) = 40.63713 68.13134 13.69043
#
# Poissons Ratio (x) = 0.65058 0.30019
# Poissons Ratio (y) = 0.38804 -0.11595
# Poissons Ratio (z) = 0.89104 -0.57705
#
# Static dielectric constant tensor:
#      x y z
#    x 1.520830 0.000000 0.000000 
#    y 0.000000 1.503460 0.000000 
#    z 0.000000 0.000000 1.498830 
# 
# From -- ./inp_files/32207.got.cif
#   From: 2010.05.17/outbox.cif.g08.bks.cpg/sg51_17_cif.got.tgz:32207.got - 2010.06.03 11:52:47.
