data_PCOD9399021
_publ_section_title
;
Structure prediction by ZEFSAII (Michael W. Deem and Ramdas Pophale) SiO2 
 PCOD9399021
Probable space group: P M M A
;
_chemical_formula_sum "Si O2"
_cell_formula_units_Z 48
_cell_length_a 17.677630
_cell_length_b 12.109168
_cell_length_c 14.252371
_cell_angle_alpha 90.000000
_cell_angle_beta 90.000000
_cell_angle_gamma 90.000000
_cell_volume 3050.882369
_symmetry_space_group_name_H-M "P M M A"
_symmetry_group_IT_number 51
_symmetry_cell_setting 'orthorhombic'
loop_
_space_group_symop_operation_xyz
x,y,z
1/2-x,-y,z
1/2+x,-y,-z
-x,y,-z
-x,-y,-z
1/2+x,y,-z
1/2-x,y,z
x,-y,z
loop_
_atom_site_type_symbol
_atom_site_label
_atom_site_fract_x
_atom_site_fract_y
_atom_site_fract_z
Si Si1 0.871027 0.125461 0.370285
Si Si2 0.043466 0.875424 0.294545
Si Si3 0.664406 0.265963 0.191399
Si Si4 0.532270 0.130714 0.103304
Si Si5 0.158863 0.500000 0.508484
Si Si6 0.913655 0.728515 0.539811
Si Si7 0.341617 0.500000 0.727623
O O1 0.833433 0.195497 0.287737
O O2 0.869919 0.191395 0.467249
O O3 0.959058 0.119498 0.338925
O O4 0.843208 0.000000 0.377413
O O5 0.028693 0.846373 0.185922
O O6 0.085022 0.786492 0.358822
O O7 0.075461 0.000000 0.301536
O O8 0.750000 0.273488 0.154118
O O9 0.605772 0.203652 0.124734
O O10 0.635583 0.387642 0.220450
O O11 0.551344 0.000000 0.113292
O O12 0.500000 0.149063 0.000000
O O13 0.250000 0.500000 0.504762
O O14 0.124875 0.609681 0.462629
O O15 0.134829 0.500000 0.618795
O O16 0.000000 0.718607 0.500000
O O17 0.250000 0.500000 0.726574
#
# Coordination Sequence:
#
# PCOD9399021 Si02
#       7
#     8   8   8   8   4   8   4
#     4   9  16  25  41  68  99 124 149 189 237 284
#     4   8  15  28  46  68  93 123 155 192 238 283
#     4  10  18  30  48  71  99 131 164 196 240 298
#     4   9  18  33  52  75 102 126 154 203 260 300
#     4  11  21  33  45  63  98 138 167 198 243 277
#     4  10  18  29  46  69  95 127 164 196 225 282
#     4   9  18  31  46  65  97 136 162 192 239 287
#
# _framework density 15.733153
#
# number of rings (size 3 to 8) (size 9 to 14) (size 15 to 20)
#    0.000    2.667    1.667    2.250    0.000    3.333 
#    0.000    0.417    0.000    2.500    0.000    3.500 
#    0.000    0.000    0.000    0.000    0.000    0.000 
#
# Total GULP energy -267405.125350 kJ/mol
# GULP energy per Si atom -5570.940111 kJ/mol
# Density = 1.569734 g / cm^3
# Si number density = 15.733153 Si / 1000 Ang^3
#
#
#
# Elastic Constant Matrix: (Units=GPa)
#
#
# Indices 1 2 3 4 5 6 
#
# 1 41.7322 41.3422 31.4986 0.0000 0.0000 0.0000
# 2 41.3422 137.4119 68.0105 0.0000 0.0000 0.0000
# 3 31.4986 68.0105 113.9869 0.0000 0.0000 0.0000
# 4 0.0000 0.0000 0.0000 12.3185 0.0000 0.0000
# 5 0.0000 0.0000 0.0000 0.0000 14.0156 0.0000
# 6 0.0000 0.0000 0.0000 0.0000 0.0000 -75.5243
#
#
#
# Elastic Compliance Matrix: (Units=1/GPa)
#
#
# Indices 1 2 3 4 5 6 
#
# 1 0.036001 -0.008383 -0.004946 0.000000 0.000000 0.000000
# 2 -0.008383 0.012279 -0.005010 0.000000 0.000000 0.000000
# 3 -0.004946 -0.005010 0.013129 0.000000 0.000000 0.000000
# 4 0.000000 0.000000 0.000000 0.081179 0.000000 0.000000
# 5 0.000000 0.000000 0.000000 0.000000 0.071349 0.000000
# 6 0.000000 0.000000 0.000000 0.000000 0.000000 -0.013241
#
#
# Mechanical properties :
#
#
# Convention : Reuss Voigt Hill
#
# Bulk Modulus (GPa) = 40.43685 63.87040 52.15362
# Shear Modulus (GPa) = 20.35688 0.31394 10.33541
#
# Velocity S-wave (km/s) = 3.60096 0.44718 2.56582
# Velocity P-wave (km/s) = 6.56100 6.39928 6.48065
#
# Compressibility (1/GPa) = 0.02472992
#
# Stress axis : x y z
#
# Youngs Moduli (GPa) = 27.77738 81.43927 76.16763
#
# Poissons Ratio (x) = 0.68271 0.37676
# Poissons Ratio (y) = 0.23286 0.38159
# Poissons Ratio (z) = 0.13740 0.40800
#
# Static dielectric constant tensor:
#      x y z
#    x 1.532790 0.000000 0.000000 
#    y 0.000000 1.537890 0.000000 
#    z 0.000000 0.000000 1.514290 
# 
# From -- ./inp_files/24071.got.cif
#   From: 2010.05.17/outbox.cif.g08.bks.cpg/sg51_13_cif.got.tgz:24071.got - 2010.06.03 11:52:47.
