data_PCOD9399513
_publ_section_title
;
Structure prediction by ZEFSAII (Michael W. Deem and Ramdas Pophale) SiO2 
 PCOD9399513
Probable space group: P M M A
;
_chemical_formula_sum "Si O2"
_cell_formula_units_Z 56
_cell_length_a 21.816053
_cell_length_b 8.640324
_cell_length_c 13.844370
_cell_angle_alpha 90.000000
_cell_angle_beta 90.000000
_cell_angle_gamma 90.000000
_cell_volume 2609.632821
_symmetry_space_group_name_H-M "P M M A"
_symmetry_group_IT_number 51
_symmetry_cell_setting 'orthorhombic'
loop_
_space_group_symop_operation_xyz
x,y,z
1/2-x,-y,z
1/2+x,-y,-z
-x,y,-z
-x,-y,-z
1/2+x,y,-z
1/2-x,y,z
x,-y,z
loop_
_atom_site_type_symbol
_atom_site_label
_atom_site_fract_x
_atom_site_fract_y
_atom_site_fract_z
Si Si1 0.859152 0.812616 0.649620
Si Si2 0.818644 0.686091 0.853488
Si Si3 0.995234 0.187795 0.608654
Si Si4 0.317078 0.683431 0.774038
Si Si5 0.043744 0.679556 0.094659
Si Si6 0.061941 0.818949 0.786514
Si Si7 0.821914 0.826603 0.438097
O O1 0.825784 0.740260 0.741721
O O2 0.930663 0.773729 0.656149
O O3 0.843950 0.759552 0.540247
O O4 0.850178 0.000000 0.651538
O O5 0.750000 0.739485 0.887778
O O6 0.817217 0.500000 0.857908
O O7 0.884083 0.730090 0.905741
O O8 0.000000 0.245720 0.500000
O O9 0.048984 0.241404 0.678116
O O10 0.997457 0.000000 0.605134
O O11 0.250000 0.742791 0.806838
O O12 0.315870 0.500000 0.778744
O O13 0.377616 0.740073 0.828745
O O14 0.324922 0.737262 0.662840
O O15 0.043999 0.500000 0.129017
O O16 0.001914 0.787132 0.161397
O O17 0.000000 0.679512 0.000000
O O18 0.074160 0.000000 0.784412
O O19 0.750000 0.844925 0.454389
O O20 0.849984 0.000000 0.426770
#
# Coordination Sequence:
#
# PCOD9399513 Si02
#       7
#     8   8   8   8   8   8   8
#     4  10  18  31  51  78 113 153 198 241 289 346
#     4  10  21  37  58  85 117 150 187 237 297 359
#     4   9  17  29  48  77 113 151 191 233 280 335
#     4  10  21  36  54  78 112 156 202 246 292 346
#     4  10  22  42  65  87 116 155 197 243 298 362
#     4  11  21  36  60  87 116 150 191 245 300 351
#     4   9  17  29  47  73 107 151 199 242 285 336
#
# _framework density 21.458957000000002
#
# number of rings (size 3 to 8) (size 9 to 14) (size 15 to 20)
#    0.000    2.143    1.429    2.143    0.000    4.857 
#    0.000    2.143    0.000    4.714    0.000    0.000 
#    0.000    0.000    0.000    0.000    0.000    0.000 
#
# Total GULP energy -311831.171110 kJ/mol
# GULP energy per Si atom -5568.413770 kJ/mol
# Density = 2.141012 g / cm^3
# Si number density = 21.458957 Si / 1000 Ang^3
#
#
#
# Elastic Constant Matrix: (Units=GPa)
#
#
# Indices 1 2 3 4 5 6 
#
# 1 199.1895 18.1232 18.1775 0.0000 0.0000 0.0000
# 2 18.1232 11.0509 0.7607 0.0000 0.0000 0.0000
# 3 18.1775 0.7607 16.0234 0.0000 0.0000 0.0000
# 4 0.0000 0.0000 0.0000 17.4399 0.0000 0.0000
# 5 0.0000 0.0000 0.0000 0.0000 18.0733 0.0000
# 6 0.0000 0.0000 0.0000 0.0000 0.0000 22.3306
#
#
#
# Elastic Compliance Matrix: (Units=1/GPa)
#
#
# Indices 1 2 3 4 5 6 
#
# 1 0.006600 -0.010342 -0.006996 0.000000 0.000000 0.000000
# 2 -0.010342 0.106992 0.006652 0.000000 0.000000 0.000000
# 3 -0.006996 0.006652 0.070029 0.000000 0.000000 0.000000
# 4 0.000000 0.000000 0.000000 0.057340 0.000000 0.000000
# 5 0.000000 0.000000 0.000000 0.000000 0.055330 0.000000
# 6 0.000000 0.000000 0.000000 0.000000 0.000000 0.044782
#
#
# Mechanical properties :
#
#
# Convention : Reuss Voigt Hill
#
# Bulk Modulus (GPa) = 6.16330 33.37631 19.76981
# Shear Modulus (GPa) = 12.00402 24.18225 18.09314
#
# Velocity S-wave (km/s) = 2.36772 3.36059 2.90686
# Velocity P-wave (km/s) = 3.21763 5.53583 4.52761
#
# Compressibility (1/GPa) = 0.16225067
#
# Stress axis : x y z
#
# Youngs Moduli (GPa) = 151.52168 9.34649 14.27971
#
# Poissons Ratio (x) = 0.09666 0.09990
# Poissons Ratio (y) = 1.56699 -0.09499
# Poissons Ratio (z) = 1.06004 -0.06218
#
# Static dielectric constant tensor:
#      x y z
#    x 1.849040 0.000000 0.000000 
#    y 0.000000 1.756920 0.000000 
#    z 0.000000 0.000000 1.863840 
# 
# From -- ./inp_files/25628.got.cif
#   From: 2010.05.17/outbox.cif.g08.bks.cpg/sg51_13_cif.got.tgz:25628.got - 2010.06.03 11:52:47.
