data_PCOD9399642
_publ_section_title
;
Structure prediction by ZEFSAII (Michael W. Deem and Ramdas Pophale) SiO2 
 PCOD9399642
Probable space group: P M M A
;
_chemical_formula_sum "Si O2"
_cell_formula_units_Z 56
_cell_length_a 8.887334
_cell_length_b 20.849984
_cell_length_c 15.595960
_cell_angle_alpha 90.000000
_cell_angle_beta 90.000000
_cell_angle_gamma 90.000000
_cell_volume 2889.943423
_symmetry_space_group_name_H-M "P M M A"
_symmetry_group_IT_number 51
_symmetry_cell_setting 'orthorhombic'
loop_
_space_group_symop_operation_xyz
x,y,z
1/2-x,-y,z
1/2+x,-y,-z
-x,y,-z
-x,-y,-z
1/2+x,y,-z
1/2-x,y,z
x,-y,z
loop_
_atom_site_type_symbol
_atom_site_label
_atom_site_fract_x
_atom_site_fract_y
_atom_site_fract_z
Si Si1 0.069116 0.830238 0.909917
Si Si2 0.069697 0.926908 0.226009
Si Si3 0.070154 0.124342 0.412985
Si Si4 0.429206 0.604813 0.413748
Si Si5 0.073600 0.738771 0.629123
Si Si6 0.931097 0.429943 0.778604
Si Si7 0.925623 0.700822 0.171984
O O1 0.250000 0.830543 0.912616
O O2 0.017460 0.757258 0.889444
O O3 0.013559 0.876503 0.834311
O O4 0.000000 0.851301 0.000000
O O5 0.250000 0.918615 0.215729
O O6 0.035688 0.914124 0.326043
O O7 0.030763 0.000000 0.203507
O O8 0.250000 0.128957 0.421623
O O9 0.000000 0.096719 0.500000
O O10 0.999499 0.194880 0.399369
O O11 0.500000 0.576641 0.500000
O O12 0.250000 0.600936 0.419558
O O13 0.483946 0.678334 0.407571
O O14 0.476207 0.575413 0.322095
O O15 0.250000 0.736028 0.604922
O O16 0.063732 0.730340 0.731998
O O17 0.750000 0.427291 0.780588
O O18 0.979587 0.500000 0.811197
O O19 0.992747 0.367462 0.826401
O O20 0.750000 0.689525 0.154164
#
# Coordination Sequence:
#
# PCOD9399642 Si02
#       7
#     8   8   8   8   8   8   8
#     4  11  23  41  66  97 125 153 192 239 294 357
#     4  10  23  43  64  88 121 160 201 245 294 349
#     4  11  22  35  55  82 115 155 200 246 294 345
#     4  10  19  30  44  67 101 141 187 238 291 343
#     4  10  18  32  52  75 106 143 189 241 292 343
#     4   9  19  34  52  76 107 146 191 235 286 348
#     4   9  19  35  57  84 114 146 186 236 287 342
#
# _framework density 19.377542999999999
#
# number of rings (size 3 to 8) (size 9 to 14) (size 15 to 20)
#    0.000    2.000    1.429    2.143    0.000    4.286 
#    0.000    0.000    0.000    0.429    0.000    0.000 
#    0.000    0.000    0.000    0.000    0.000    0.000 
#
# Total GULP energy -312699.036469 kJ/mol
# GULP energy per Si atom -5583.911366 kJ/mol
# Density = 1.933344 g / cm^3
# Si number density = 19.377543 Si / 1000 Ang^3
#
#
#
# Elastic Constant Matrix: (Units=GPa)
#
#
# Indices 1 2 3 4 5 6 
#
# 1 44.7763 35.6267 29.0544 0.0000 0.0000 0.0000
# 2 35.6267 113.7057 35.9174 0.0000 0.0000 0.0000
# 3 29.0544 35.9174 71.5359 0.0000 0.0000 0.0000
# 4 0.0000 0.0000 0.0000 -6.7090 0.0000 0.0000
# 5 0.0000 0.0000 0.0000 0.0000 23.6448 0.0000
# 6 0.0000 0.0000 0.0000 0.0000 0.0000 18.5413
#
#
#
# Elastic Compliance Matrix: (Units=1/GPa)
#
#
# Indices 1 2 3 4 5 6 
#
# 1 0.035274 -0.007757 -0.010432 0.000000 0.000000 0.000000
# 2 -0.007757 0.012158 -0.002954 0.000000 0.000000 0.000000
# 3 -0.010432 -0.002954 0.019699 0.000000 0.000000 0.000000
# 4 0.000000 0.000000 0.000000 -0.149054 0.000000 0.000000
# 5 0.000000 0.000000 0.000000 0.000000 0.042293 0.000000
# 6 0.000000 0.000000 0.000000 0.000000 0.000000 0.053934
#
#
# Mechanical properties :
#
#
# Convention : Reuss Voigt Hill
#
# Bulk Modulus (GPa) = 40.24849 47.91276 44.08063
# Shear Modulus (GPa) = 77.07547 15.72339 46.39943
#
# Velocity S-wave (km/s) = 6.31364 2.85164 4.89867
# Velocity P-wave (km/s) = 8.60030 5.96842 7.40227
#
# Compressibility (1/GPa) = 0.02484565
#
# Stress axis : x y z
#
# Youngs Moduli (GPa) = 28.34932 82.24914 50.76374
#
# Poissons Ratio (x) = 0.63801 0.52956
# Poissons Ratio (y) = 0.21991 0.14996
# Poissons Ratio (z) = 0.29574 0.24296
#
# Static dielectric constant tensor:
#      x y z
#    x 1.648160 0.000000 0.000000 
#    y 0.000000 1.671660 0.000000 
#    z 0.000000 0.000000 1.696090 
# 
# From -- ./inp_files/21762.got.cif
#   From: 2010.05.17/outbox.cif.g08.bks.cpg/sg51_11_cif.got.tgz:21762.got - 2010.06.03 11:52:47.
