data_PCOD9399755
_publ_section_title
;
Structure prediction by ZEFSAII (Michael W. Deem and Ramdas Pophale) SiO2 
 PCOD9399755
Probable space group: P M M A
;
_chemical_formula_sum "Si O2"
_cell_formula_units_Z 28
_cell_length_a 8.910688
_cell_length_b 9.590742
_cell_length_c 19.801166
_cell_angle_alpha 90.000000
_cell_angle_beta 90.000000
_cell_angle_gamma 90.000000
_cell_volume 1692.209818
_symmetry_space_group_name_H-M "P M M A"
_symmetry_group_IT_number 51
_symmetry_cell_setting 'orthorhombic'
loop_
_space_group_symop_operation_xyz
x,y,z
1/2-x,-y,z
1/2+x,-y,-z
-x,y,-z
-x,-y,-z
1/2+x,y,-z
1/2-x,y,z
x,-y,z
loop_
_atom_site_type_symbol
_atom_site_label
_atom_site_fract_x
_atom_site_fract_y
_atom_site_fract_z
Si Si1 0.929319 0.164012 0.427356
Si Si2 0.429183 0.664314 0.305010
Si Si3 0.925701 0.156277 0.189495
Si Si4 0.929185 0.000000 0.926141
O O1 0.750000 0.181504 0.429385
O O2 0.000000 0.199371 0.500000
O O3 0.999282 0.257316 0.368775
O O4 0.961330 0.000000 0.414572
O O5 0.250000 0.683396 0.305548
O O6 0.462111 0.500000 0.307490
O O7 0.497357 0.733655 0.237874
O O8 0.750000 0.186468 0.179316
O O9 0.009059 0.130357 0.118306
O O10 0.934983 0.000000 0.222064
O O11 0.750000 0.000000 0.928518
O O12 0.000000 0.000000 0.000000
#
# Coordination Sequence:
#
# PCOD9399755 Si02
#       4
#     8   8   8   4
#     4  10  21  37  57  79 103 135 178 227 277 328
#     4  11  23  36  52  77 109 145 183 222 269 324
#     4   9  19  34  54  81 108 139 179 221 264 315
#     4  10  18  32  56  86 115 142 175 220 264 310
#
# _framework density 16.546410999999999
#
# number of rings (size 3 to 8) (size 9 to 14) (size 15 to 20)
#    0.857    1.143    0.000    4.286    0.000    8.000 
#    0.000    0.000    0.000    0.857    0.000    0.000 
#    0.000    0.000    0.000    0.000    0.000    0.000 
#
# Total GULP energy -156118.607086 kJ/mol
# GULP energy per Si atom -5575.664539 kJ/mol
# Density = 1.650875 g / cm^3
# Si number density = 16.546411 Si / 1000 Ang^3
#
#
#
# Elastic Constant Matrix: (Units=GPa)
#
#
# Indices 1 2 3 4 5 6 
#
# 1 127.6146 78.0989 92.6082 0.0000 0.0000 0.0000
# 2 78.0989 84.1782 85.0249 0.0000 0.0000 0.0000
# 3 92.6082 85.0249 172.3647 0.0000 0.0000 0.0000
# 4 0.0000 0.0000 0.0000 -3.4675 0.0000 0.0000
# 5 0.0000 0.0000 0.0000 0.0000 35.4086 0.0000
# 6 0.0000 0.0000 0.0000 0.0000 0.0000 26.5036
#
#
#
# Elastic Compliance Matrix: (Units=1/GPa)
#
#
# Indices 1 2 3 4 5 6 
#
# 1 0.018876 -0.014487 -0.002995 0.000000 0.000000 0.000000
# 2 -0.014487 0.034795 -0.009380 0.000000 0.000000 0.000000
# 3 -0.002995 -0.009380 0.012038 0.000000 0.000000 0.000000
# 4 0.000000 0.000000 0.000000 -0.288395 0.000000 0.000000
# 5 0.000000 0.000000 0.000000 0.000000 0.028242 0.000000
# 6 0.000000 0.000000 0.000000 0.000000 0.000000 0.037731
#
#
# Mechanical properties :
#
#
# Convention : Reuss Voigt Hill
#
# Bulk Modulus (GPa) = 83.44751 99.51350 91.48051
# Shear Modulus (GPa) = -50.50827 20.25065 -15.12881
#
# Velocity S-wave (km/s) = -5.53096 3.50218 -3.02706
# Velocity P-wave (km/s) = 3.12302 8.75364 6.57189
#
# Compressibility (1/GPa) = 0.01198358
#
# Stress axis : x y z
#
# Youngs Moduli (GPa) = 52.97819 28.73977 83.06988
#
# Poissons Ratio (x) = 0.41636 0.24882
# Poissons Ratio (y) = 0.76750 0.77921
# Poissons Ratio (z) = 0.15868 0.26958
#
# Static dielectric constant tensor:
#      x y z
#    x 1.546570 0.000000 0.000000 
#    y 0.000000 1.543130 0.000000 
#    z 0.000000 0.000000 1.536050 
# 
# From -- ./inp_files/31051.got.cif
#   From: 2010.05.17/outbox.cif.g08.bks.cpg/sg51_16_cif.got.tgz:31051.got - 2010.06.03 11:52:47.
