data_PCOD9399653
_publ_section_title
;
Structure prediction by ZEFSAII (Michael W. Deem and Ramdas Pophale) SiO2 
 PCOD9399653
Probable space group: P M M A
;
_chemical_formula_sum "Si O2"
_cell_formula_units_Z 56
_cell_length_a 8.909934
_cell_length_b 19.564155
_cell_length_c 19.024878
_cell_angle_alpha 90.000000
_cell_angle_beta 90.000000
_cell_angle_gamma 90.000000
_cell_volume 3316.327883
_symmetry_space_group_name_H-M "P M M A"
_symmetry_group_IT_number 51
_symmetry_cell_setting 'orthorhombic'
loop_
_space_group_symop_operation_xyz
x,y,z
1/2-x,-y,z
1/2+x,-y,-z
-x,y,-z
-x,-y,-z
1/2+x,y,-z
1/2-x,y,z
x,-y,z
loop_
_atom_site_type_symbol
_atom_site_label
_atom_site_fract_x
_atom_site_fract_y
_atom_site_fract_z
Si Si1 0.430811 0.788679 0.924417
Si Si2 0.571280 0.922771 0.158771
Si Si3 0.429842 0.297091 0.790090
Si Si4 0.070317 0.341867 0.426526
Si Si5 0.429243 0.077538 0.312995
Si Si6 0.069364 0.577951 0.285334
Si Si7 0.070794 0.214700 0.647845
O O1 0.250000 0.786340 0.929213
O O2 0.472753 0.863955 0.895443
O O3 0.478389 0.735672 0.863658
O O4 0.500000 0.775160 0.000000
O O5 0.750000 0.914385 0.173538
O O6 0.485216 0.915941 0.232373
O O7 0.547587 0.000000 0.132165
O O8 0.250000 0.304330 0.791330
O O9 0.502651 0.369098 0.770484
O O10 0.464429 0.245103 0.725825
O O11 0.250000 0.338754 0.431386
O O12 0.029250 0.392402 0.362367
O O13 0.000000 0.364095 0.500000
O O14 0.005201 0.267732 0.405429
O O15 0.250000 0.084998 0.315589
O O16 0.507000 0.138417 0.355467
O O17 0.468325 0.000000 0.335679
O O18 0.250000 0.579460 0.280581
O O19 0.018562 0.500000 0.276729
O O20 0.250000 0.215201 0.639125
#
# Coordination Sequence:
#
# PCOD9399653 Si02
#       7
#     8   8   8   8   8   8   8
#     4  10  20  33  47  70  99 132 171 214 258 307
#     4   9  17  31  48  65  93 133 171 210 257 306
#     4   9  18  33  51  73 100 128 167 211 250 298
#     4  10  20  34  52  78 110 141 169 200 239 289
#     4  10  19  29  45  72 101 128 166 216 262 303
#     4   9  19  35  55  80 107 134 165 201 243 291
#     4  10  18  32  53  73  97 133 173 213 254 298
#
# _framework density 16.886147999999999
#
# number of rings (size 3 to 8) (size 9 to 14) (size 15 to 20)
#    0.000    2.429    1.429    1.286    0.000    4.000 
#    0.000    0.000    0.000    0.857    0.000    0.000 
#    0.000    0.000    0.000    0.000    0.000    0.000 
#
# Total GULP energy -312343.358512 kJ/mol
# GULP energy per Si atom -5577.559973 kJ/mol
# Density = 1.684771 g / cm^3
# Si number density = 16.886148 Si / 1000 Ang^3
#
#
#
# Elastic Constant Matrix: (Units=GPa)
#
#
# Indices 1 2 3 4 5 6 
#
# 1 27.0681 35.6709 17.6067 0.0000 0.0000 0.0000
# 2 35.6709 135.1213 38.3663 0.0000 0.0000 0.0000
# 3 17.6067 38.3663 52.8298 0.0000 0.0000 0.0000
# 4 0.0000 0.0000 0.0000 13.8942 0.0000 0.0000
# 5 0.0000 0.0000 0.0000 0.0000 28.0162 0.0000
# 6 0.0000 0.0000 0.0000 0.0000 0.0000 26.1232
#
#
#
# Elastic Compliance Matrix: (Units=1/GPa)
#
#
# Indices 1 2 3 4 5 6 
#
# 1 0.061283 -0.013075 -0.010928 0.000000 0.000000 0.000000
# 2 -0.013075 0.012113 -0.004439 0.000000 0.000000 0.000000
# 3 -0.010928 -0.004439 0.025795 0.000000 0.000000 0.000000
# 4 0.000000 0.000000 0.000000 0.071972 0.000000 0.000000
# 5 0.000000 0.000000 0.000000 0.000000 0.035694 0.000000
# 6 0.000000 0.000000 0.000000 0.000000 0.000000 0.038280
#
#
# Mechanical properties :
#
#
# Convention : Reuss Voigt Hill
#
# Bulk Modulus (GPa) = 23.63775 44.25634 33.94704
# Shear Modulus (GPa) = 15.81657 21.83175 18.82416
#
# Velocity S-wave (km/s) = 3.06381 3.59956 3.34244
# Velocity P-wave (km/s) = 5.15215 6.59859 5.91971
#
# Compressibility (1/GPa) = 0.04230522
#
# Stress axis : x y z
#
# Youngs Moduli (GPa) = 16.31770 82.55619 38.76774
#
# Poissons Ratio (x) = 1.07944 0.42367
# Poissons Ratio (y) = 0.21336 0.17209
# Poissons Ratio (z) = 0.17833 0.36648
#
# Static dielectric constant tensor:
#      x y z
#    x 1.565580 0.000000 0.000000 
#    y 0.000000 1.576600 0.000000 
#    z 0.000000 0.000000 1.548870 
# 
# From -- ./inp_files/28203.got.cif
#   From: 2010.05.17/outbox.cif.g08.bks.cpg/sg51_15_cif.got.tgz:28203.got - 2010.06.03 11:52:47.
