data_PCOD9399252
_publ_section_title
;
Structure prediction by ZEFSAII (Michael W. Deem and Ramdas Pophale) SiO2 
 PCOD9399252
Probable space group: P M M A
;
_chemical_formula_sum "Si O2"
_cell_formula_units_Z 48
_cell_length_a 14.081721
_cell_length_b 14.470365
_cell_length_c 10.757354
_cell_angle_alpha 90.000000
_cell_angle_beta 90.000000
_cell_angle_gamma 90.000000
_cell_volume 2192.000666
_symmetry_space_group_name_H-M "P M M A"
_symmetry_group_IT_number 51
_symmetry_cell_setting 'orthorhombic'
loop_
_space_group_symop_operation_xyz
x,y,z
1/2-x,-y,z
1/2+x,-y,-z
-x,y,-z
-x,-y,-z
1/2+x,y,-z
1/2-x,y,z
x,-y,z
loop_
_atom_site_type_symbol
_atom_site_label
_atom_site_fract_x
_atom_site_fract_y
_atom_site_fract_z
Si Si1 0.859137 0.699784 0.927847
Si Si2 0.866084 0.394285 0.177154
Si Si3 0.862163 0.897673 0.311229
Si Si4 0.111821 0.896490 0.982046
Si Si5 0.866513 0.289798 0.425953
Si Si6 0.866491 0.392707 0.675587
O O1 0.750000 0.667243 0.928614
O O2 0.899762 0.655350 0.803167
O O3 0.899770 0.664583 0.058836
O O4 0.856916 0.810729 0.934177
O O5 0.750000 0.391268 0.178500
O O6 0.895078 0.500000 0.161767
O O7 0.894481 0.353784 0.309887
O O8 0.750000 0.903344 0.338717
O O9 0.867949 0.876612 0.163415
O O10 0.900599 0.813383 0.392328
O O11 0.904439 0.000000 0.330782
O O12 0.148106 0.000000 0.009665
O O13 0.000000 0.899895 0.000000
O O14 0.750000 0.287162 0.427281
O O15 0.896455 0.333511 0.556077
O O16 0.750000 0.392100 0.674322
O O17 0.895233 0.500000 0.668282
#
# Coordination Sequence:
#
# PCOD9399252 Si02
#       6
#     8   8   8   8   8   8
#     4  10  18  30  48  73 100 127 159 196 243 288
#     4   9  15  23  40  67  95 121 157 200 234 275
#     4   9  16  28  48  73  98 122 155 202 248 285
#     4  10  20  33  50  72  97 126 161 201 247 295
#     4   9  15  25  42  69  99 129 161 193 237 285
#     4   9  17  28  44  70 105 136 159 193 241 288
#
# _framework density 21.897803
#
# number of rings (size 3 to 8) (size 9 to 14) (size 15 to 20)
#    0.000    2.667    1.667    1.500    0.000    5.000 
#    0.000    0.833    0.000    6.000    0.000    4.667 
#    0.000    0.000    0.000    0.000    0.000    0.000 
#
# Total GULP energy -268059.571869 kJ/mol
# GULP energy per Si atom -5584.574414 kJ/mol
# Density = 2.184796 g / cm^3
# Si number density = 21.897803 Si / 1000 Ang^3
#
#
#
# Elastic Constant Matrix: (Units=GPa)
#
#
# Indices 1 2 3 4 5 6 
#
# 1 53.8924 -7.1445 3.9614 0.0000 0.0000 0.0000
# 2 -7.1445 192.3849 105.9716 0.0000 0.0000 0.0000
# 3 3.9614 105.9716 156.4399 0.0000 0.0000 0.0000
# 4 0.0000 0.0000 0.0000 39.6352 0.0000 0.0000
# 5 0.0000 0.0000 0.0000 0.0000 52.6493 0.0000
# 6 0.0000 0.0000 0.0000 0.0000 0.0000 18.4179
#
#
#
# Elastic Compliance Matrix: (Units=1/GPa)
#
#
# Indices 1 2 3 4 5 6 
#
# 1 0.018871 0.001538 -0.001520 0.000000 0.000000 0.000000
# 2 0.001538 0.008417 -0.005741 0.000000 0.000000 0.000000
# 3 -0.001520 -0.005741 0.010319 0.000000 0.000000 0.000000
# 4 0.000000 0.000000 0.000000 0.025230 0.000000 0.000000
# 5 0.000000 0.000000 0.000000 0.000000 0.018994 0.000000
# 6 0.000000 0.000000 0.000000 0.000000 0.000000 0.054295
#
#
# Mechanical properties :
#
#
# Convention : Reuss Voigt Hill
#
# Bulk Modulus (GPa) = 38.22221 67.58824 52.90523
# Shear Modulus (GPa) = 31.99139 42.13576 37.06357
#
# Velocity S-wave (km/s) = 3.82637 4.39133 4.11855
# Velocity P-wave (km/s) = 6.08393 7.52622 6.84318
#
# Compressibility (1/GPa) = 0.02616280
#
# Stress axis : x y z
#
# Youngs Moduli (GPa) = 52.99118 118.80476 96.90466
#
# Poissons Ratio (x) = -0.18270 0.14725
# Poissons Ratio (y) = -0.08149 0.55630
# Poissons Ratio (z) = 0.08052 0.68202
#
# Static dielectric constant tensor:
#      x y z
#    x 1.868140 0.000000 0.000000 
#    y 0.000000 1.802160 0.000000 
#    z 0.000000 0.000000 1.752090 
# 
# From -- ./inp_files/9586.got.cif
#   From: 2010.05.17/outbox.cif.g08.bks.cpg/sg51_5_cif.got.tgz:9586.got - 2010.06.03 11:52:47.
