data_PCOD9399364
_publ_section_title
;
Structure prediction by ZEFSAII (Michael W. Deem and Ramdas Pophale) SiO2 
 PCOD9399364
Probable space group: P M M A
;
_chemical_formula_sum "Si O2"
_cell_formula_units_Z 48
_cell_length_a 8.589171
_cell_length_b 31.605390
_cell_length_c 9.447346
_cell_angle_alpha 90.000000
_cell_angle_beta 90.000000
_cell_angle_gamma 90.000000
_cell_volume 2564.615272
_symmetry_space_group_name_H-M "P M M A"
_symmetry_group_IT_number 51
_symmetry_cell_setting 'orthorhombic'
loop_
_space_group_symop_operation_xyz
x,y,z
1/2-x,-y,z
1/2+x,-y,-z
-x,y,-z
-x,-y,-z
1/2+x,y,-z
1/2-x,y,z
x,-y,z
loop_
_atom_site_type_symbol
_atom_site_label
_atom_site_fract_x
_atom_site_fract_y
_atom_site_fract_z
Si Si1 0.562456 0.251689 0.156137
Si Si2 0.936352 0.000000 0.159792
Si Si3 0.063035 0.588251 0.840107
Si Si4 0.562468 0.845377 0.158097
Si Si5 0.936109 0.078504 0.659156
Si Si6 0.562064 0.330276 0.342280
Si Si7 0.064282 0.500000 0.161194
O O1 0.750000 0.252827 0.151334
O O2 0.517792 0.203334 0.190892
O O3 0.508311 0.287219 0.265514
O O4 0.500000 0.261545 0.000000
O O5 0.996654 0.040920 0.244159
O O6 0.750000 0.000000 0.156569
O O7 0.000000 0.000000 0.000000
O O8 0.250000 0.585883 0.845791
O O9 0.015014 0.628781 0.748848
O O10 0.998397 0.544115 0.777788
O O11 0.000000 0.592890 0.000000
O O12 0.750000 0.848845 0.158341
O O13 0.491040 0.877825 0.269342
O O14 0.500000 0.854894 0.000000
O O15 0.750000 0.076068 0.657269
O O16 0.000000 0.074822 0.500000
O O17 0.500000 0.332897 0.500000
O O18 0.750000 0.329694 0.345056
O O19 0.250000 0.500000 0.159192
O O20 0.000000 0.500000 0.000000
#
# Coordination Sequence:
#
# PCOD9399364 Si02
#       7
#     8   4   8   8   8   8   4
#     4   9  19  36  58  84 112 144 186 231 276 326
#     4  12  25  44  67  92 120 154 196 240 287 338
#     4  10  19  33  54  79 106 136 175 220 268 320
#     4  10  20  37  60  87 118 152 191 235 281 334
#     4  12  25  42  62  88 121 157 195 237 287 340
#     4  10  22  37  53  77 109 144 181 224 272 326
#     4  10  18  30  51  78 105 134 172 216 266 318
#
# _framework density 18.716256999999999
#
# number of rings (size 3 to 8) (size 9 to 14) (size 15 to 20)
#    0.000    1.667    0.000    6.250    0.000    3.333 
#    0.000    2.083    0.000    0.000    0.000    0.000 
#    0.000    0.000    0.000    0.000    0.000    0.000 
#
# Total GULP energy -268207.056896 kJ/mol
# GULP energy per Si atom -5587.647019 kJ/mol
# Density = 1.867366 g / cm^3
# Si number density = 18.716257 Si / 1000 Ang^3
#
#
#
# Elastic Constant Matrix: (Units=GPa)
#
#
# Indices 1 2 3 4 5 6 
#
# 1 99.6070 54.3095 51.2359 0.0000 0.0000 0.0000
# 2 54.3095 153.3241 112.4849 0.0000 0.0000 0.0000
# 3 51.2359 112.4849 147.0032 0.0000 0.0000 0.0000
# 4 0.0000 0.0000 0.0000 -20.6641 0.0000 0.0000
# 5 0.0000 0.0000 0.0000 0.0000 34.7556 0.0000
# 6 0.0000 0.0000 0.0000 0.0000 0.0000 14.0657
#
#
#
# Elastic Compliance Matrix: (Units=1/GPa)
#
#
# Indices 1 2 3 4 5 6 
#
# 1 0.012762 -0.002866 -0.002255 0.000000 0.000000 0.000000
# 2 -0.002866 0.015513 -0.010871 0.000000 0.000000 0.000000
# 3 -0.002255 -0.010871 0.015907 0.000000 0.000000 0.000000
# 4 0.000000 0.000000 0.000000 -0.048393 0.000000 0.000000
# 5 0.000000 0.000000 0.000000 0.000000 0.028772 0.000000
# 6 0.000000 0.000000 0.000000 0.000000 0.000000 0.071095
#
#
# Mechanical properties :
#
#
# Convention : Reuss Voigt Hill
#
# Bulk Modulus (GPa) = 81.98534 92.88831 87.43682
# Shear Modulus (GPa) = 37.96292 17.75838 27.86065
#
# Velocity S-wave (km/s) = 4.50859 3.08364 3.86240
# Velocity P-wave (km/s) = 8.42631 7.90037 8.16758
#
# Compressibility (1/GPa) = 0.01219730
#
# Stress axis : x y z
#
# Youngs Moduli (GPa) = 78.35702 64.46137 62.86488
#
# Poissons Ratio (x) = 0.18477 0.14175
# Poissons Ratio (y) = 0.22460 0.68343
# Poissons Ratio (z) = 0.17668 0.70079
#
# Static dielectric constant tensor:
#      x y z
#    x 1.629500 0.000000 0.000000 
#    y 0.000000 1.669470 0.000000 
#    z 0.000000 0.000000 1.604250 
# 
# From -- ./inp_files/6116.got.cif
#   From: 2010.05.17/outbox.cif.g08.bks.cpg/sg51_4_cif.got.tgz:6116.got - 2010.06.03 11:52:47.
