data_PCOD9399120
_publ_section_title
;
Structure prediction by ZEFSAII (Michael W. Deem and Ramdas Pophale) SiO2 
 PCOD9399120
Probable space group: P M M A
;
_chemical_formula_sum "Si O2"
_cell_formula_units_Z 48
_cell_length_a 18.479994
_cell_length_b 7.644567
_cell_length_c 16.277359
_cell_angle_alpha 90.000000
_cell_angle_beta 90.000000
_cell_angle_gamma 90.000000
_cell_volume 2299.527773
_symmetry_space_group_name_H-M "P M M A"
_symmetry_group_IT_number 51
_symmetry_cell_setting 'orthorhombic'
loop_
_space_group_symop_operation_xyz
x,y,z
1/2-x,-y,z
1/2+x,-y,-z
-x,y,-z
-x,-y,-z
1/2+x,y,-z
1/2-x,y,z
x,-y,z
loop_
_atom_site_type_symbol
_atom_site_label
_atom_site_fract_x
_atom_site_fract_y
_atom_site_fract_z
Si Si1 0.596418 0.796134 0.328008
Si Si2 0.081292 0.291860 0.003420
Si Si3 0.333182 0.714494 0.163782
Si Si4 0.429089 0.705358 0.316960
Si Si5 0.415474 0.211279 0.495300
Si Si6 0.832773 0.211861 0.161403
O O1 0.509148 0.788059 0.319562
O O2 0.616864 0.723668 0.418285
O O3 0.632804 0.720909 0.246598
O O4 0.617272 0.000000 0.330406
O O5 0.075159 0.500000 0.017051
O O6 0.121052 0.264395 0.917420
O O7 0.128185 0.225240 0.080090
O O8 0.000000 0.219150 0.000000
O O9 0.250000 0.771348 0.167649
O O10 0.332409 0.500000 0.164268
O O11 0.380037 0.771007 0.242406
O O12 0.441573 0.500000 0.304286
O O13 0.390937 0.729542 0.405558
O O14 0.500000 0.263989 0.500000
O O15 0.412703 0.000000 0.495570
O O16 0.750000 0.270079 0.153050
O O17 0.833373 0.000000 0.163704
#
# Coordination Sequence:
#
# PCOD9399120 Si02
#       6
#     8   8   8   8   8   8
#     4   9  18  33  51  70  98 134 164 196 245 299
#     4  10  20  35  56  79 100 127 167 209 248 297
#     4   9  18  32  48  68  99 135 161 188 240 301
#     4  10  18  29  50  76  97 123 166 212 243 279
#     4   8  15  29  48  70  97 129 162 197 244 296
#     4  10  21  36  53  75 103 134 168 206 250 299
#
# _framework density 20.873850999999998
#
# number of rings (size 3 to 8) (size 9 to 14) (size 15 to 20)
#    0.000    2.667    0.000    3.000    0.000    6.333 
#    0.000    2.500    0.000    5.000    0.000    0.000 
#    0.000    0.000    0.000    0.000    0.000    0.000 
#
# Total GULP energy -267757.424458 kJ/mol
# GULP energy per Si atom -5578.279676 kJ/mol
# Density = 2.082634 g / cm^3
# Si number density = 20.873851 Si / 1000 Ang^3
#
#
#
# Elastic Constant Matrix: (Units=GPa)
#
#
# Indices 1 2 3 4 5 6 
#
# 1 92.0483 -12.7593 65.6859 0.0000 0.0000 0.0000
# 2 -12.7593 31.4347 -9.7867 0.0000 0.0000 0.0000
# 3 65.6859 -9.7867 183.1322 0.0000 0.0000 0.0000
# 4 0.0000 0.0000 0.0000 42.4812 0.0000 0.0000
# 5 0.0000 0.0000 0.0000 0.0000 -25.8766 0.0000
# 6 0.0000 0.0000 0.0000 0.0000 0.0000 -1.0938
#
#
#
# Elastic Compliance Matrix: (Units=1/GPa)
#
#
# Indices 1 2 3 4 5 6 
#
# 1 0.015216 0.004553 -0.005214 0.000000 0.000000 0.000000
# 2 0.004553 0.033712 0.000169 0.000000 0.000000 0.000000
# 3 -0.005214 0.000169 0.007340 0.000000 0.000000 0.000000
# 4 0.000000 0.000000 0.000000 0.023540 0.000000 0.000000
# 5 0.000000 0.000000 0.000000 0.000000 -0.038645 0.000000
# 6 0.000000 0.000000 0.000000 0.000000 0.000000 -0.914252
#
#
# Mechanical properties :
#
#
# Convention : Reuss Voigt Hill
#
# Bulk Modulus (GPa) = 18.08899 43.65499 30.87199
# Shear Modulus (GPa) = -5.85702 20.66720 7.40509
#
# Velocity S-wave (km/s) = -1.67690 3.15000 1.88554
# Velocity P-wave (km/s) = 2.22156 5.84715 4.42292
#
# Compressibility (1/GPa) = 0.05528226
#
# Stress axis : x y z
#
# Youngs Moduli (GPa) = 65.72068 29.66263 136.24292
#
# Poissons Ratio (x) = -0.13505 0.71042
# Poissons Ratio (y) = -0.29921 -0.02298
# Poissons Ratio (z) = 0.34269 -0.00500
#
# Static dielectric constant tensor:
#      x y z
#    x 1.712200 0.000000 0.000000 
#    y 0.000000 1.775560 0.000000 
#    z 0.000000 0.000000 1.766210 
# 
# From -- ./inp_files/24785.got.cif
#   From: 2010.05.17/outbox.cif.g08.bks.cpg/sg51_13_cif.got.tgz:24785.got - 2010.06.03 11:52:47.
