data_PCOD9399438
_publ_section_title
;
Structure prediction by ZEFSAII (Michael W. Deem and Ramdas Pophale) SiO2 
 PCOD9399438
Probable space group: P M M A
;
_chemical_formula_sum "Si O2"
_cell_formula_units_Z 64
_cell_length_a 8.806824
_cell_length_b 20.639961
_cell_length_c 20.548371
_cell_angle_alpha 90.000000
_cell_angle_beta 90.000000
_cell_angle_gamma 90.000000
_cell_volume 3735.128848
_symmetry_space_group_name_H-M "P M M A"
_symmetry_group_IT_number 51
_symmetry_cell_setting 'orthorhombic'
loop_
_space_group_symop_operation_xyz
x,y,z
1/2-x,-y,z
1/2+x,-y,-z
-x,y,-z
-x,-y,-z
1/2+x,y,-z
1/2-x,y,z
x,-y,z
loop_
_atom_site_type_symbol
_atom_site_label
_atom_site_fract_x
_atom_site_fract_y
_atom_site_fract_z
Si Si1 0.570379 0.741920 0.601635
Si Si2 0.932919 0.570900 0.288281
Si Si3 0.068772 0.119904 0.566190
Si Si4 0.570503 0.296268 0.751823
Si Si5 0.066622 0.167456 0.187002
Si Si6 0.067792 0.927909 0.708238
Si Si7 0.430804 0.606357 0.566201
Si Si8 0.933333 0.073901 0.928433
O O1 0.750000 0.738436 0.587092
O O2 0.501370 0.808811 0.577058
O O3 0.550827 0.734490 0.679612
O O4 0.483909 0.680859 0.571541
O O5 0.750000 0.573613 0.287645
O O6 0.980973 0.500000 0.263687
O O7 0.980417 0.576670 0.364459
O O8 0.993554 0.633571 0.250637
O O9 0.250000 0.124509 0.560143
O O10 0.033021 0.081249 0.632046
O O11 0.000000 0.092026 0.500000
O O12 0.750000 0.305895 0.761547
O O13 0.514419 0.241586 0.802274
O O14 0.250000 0.168825 0.186696
O O15 0.015592 0.127929 0.123274
O O16 0.012826 0.125568 0.248443
O O17 0.250000 0.921292 0.715336
O O18 0.022844 0.000000 0.729417
O O19 0.500000 0.578547 0.500000
O O20 0.250000 0.601802 0.562521
O O21 0.750000 0.075886 0.931636
O O22 0.976210 0.000000 0.908518
O O23 0.000000 0.085128 0.000000
#
# Coordination Sequence:
#
# PCOD9399438 Si02
#       8
#     8   8   8   8   8   8   8   8
#     4  10  18  31  48  66  88 114 150 195 246 300
#     4   9  19  34  49  66  92 125 158 195 244 301
#     4  11  22  34  48  64  86 116 154 202 257 309
#     4   9  18  31  50  74  97 121 157 203 245 289
#     4  10  19  34  55  79 104 133 170 209 247 290
#     4  10  22  37  51  70  95 123 160 207 256 304
#     4  10  19  30  44  63  87 115 150 192 241 297
#     4   9  18  32  51  77 111 148 179 206 239 283
#
# _framework density 17.134616999999999
#
# number of rings (size 3 to 8) (size 9 to 14) (size 15 to 20)
#    0.000    2.250    1.250    1.875    0.000    4.000 
#    0.000    1.250    0.000    0.000    0.000    0.000 
#    0.000    0.500    0.000    1.125    0.000    2.000 
#
# Total GULP energy -357065.383951 kJ/mol
# GULP energy per Si atom -5579.146624 kJ/mol
# Density = 1.709562 g / cm^3
# Si number density = 17.134617 Si / 1000 Ang^3
#
#
#
# Elastic Constant Matrix: (Units=GPa)
#
#
# Indices 1 2 3 4 5 6 
#
# 1 15.2230 21.9340 19.5113 0.0000 0.0000 0.0000
# 2 21.9340 132.0564 51.5669 0.0000 0.0000 0.0000
# 3 19.5113 51.5669 71.7870 0.0000 0.0000 0.0000
# 4 0.0000 0.0000 0.0000 31.0400 0.0000 0.0000
# 5 0.0000 0.0000 0.0000 0.0000 20.8023 0.0000
# 6 0.0000 0.0000 0.0000 0.0000 0.0000 95.7144
#
#
#
# Elastic Compliance Matrix: (Units=1/GPa)
#
#
# Indices 1 2 3 4 5 6 
#
# 1 0.107991 -0.009000 -0.022887 0.000000 0.000000 0.000000
# 2 -0.009000 0.011275 -0.005653 0.000000 0.000000 0.000000
# 3 -0.022887 -0.005653 0.024211 0.000000 0.000000 0.000000
# 4 0.000000 0.000000 0.000000 0.032216 0.000000 0.000000
# 5 0.000000 0.000000 0.000000 0.000000 0.048072 0.000000
# 6 0.000000 0.000000 0.000000 0.000000 0.000000 0.010448
#
#
# Mechanical properties :
#
#
# Convention : Reuss Voigt Hill
#
# Bulk Modulus (GPa) = 14.62022 45.01009 29.81515
# Shear Modulus (GPa) = 15.05612 37.91495 26.48553
#
# Velocity S-wave (km/s) = 2.96750 4.70911 3.93585
# Velocity P-wave (km/s) = 4.50472 7.47617 6.17194
#
# Compressibility (1/GPa) = 0.06839842
#
# Stress axis : x y z
#
# Youngs Moduli (GPa) = 9.26003 88.69365 41.30313
#
# Poissons Ratio (x) = 0.79822 0.94529
# Poissons Ratio (y) = 0.08334 0.23348
# Poissons Ratio (z) = 0.21193 0.50138
#
# Static dielectric constant tensor:
#      x y z
#    x 1.573750 0.000000 0.000000 
#    y 0.000000 1.595370 0.000000 
#    z 0.000000 0.000000 1.582210 
# 
# From -- ./inp_files/28328.got.cif
#   From: 2010.05.17/outbox.cif.g08.bks.cpg/sg51_15_cif.got.tgz:28328.got - 2010.06.03 11:52:47.
