data_PCOD9399281
_publ_section_title
;
Structure prediction by ZEFSAII (Michael W. Deem and Ramdas Pophale) SiO2 
 PCOD9399281
Probable space group: P M M A
;
_chemical_formula_sum "Si O2"
_cell_formula_units_Z 56
_cell_length_a 8.595031
_cell_length_b 15.039009
_cell_length_c 23.634447
_cell_angle_alpha 90.000000
_cell_angle_beta 90.000000
_cell_angle_gamma 90.000000
_cell_volume 3055.006311
_symmetry_space_group_name_H-M "P M M A"
_symmetry_group_IT_number 51
_symmetry_cell_setting 'orthorhombic'
loop_
_space_group_symop_operation_xyz
x,y,z
1/2-x,-y,z
1/2+x,-y,-z
-x,y,-z
-x,-y,-z
1/2+x,y,-z
1/2-x,y,z
x,-y,z
loop_
_atom_site_type_symbol
_atom_site_label
_atom_site_fract_x
_atom_site_fract_y
_atom_site_fract_z
Si Si1 0.563833 0.211934 0.834596
Si Si2 0.435990 0.835782 0.288599
Si Si3 0.063119 0.903461 0.601273
Si Si4 0.435754 0.897950 0.938435
Si Si5 0.064777 0.286286 0.439471
Si Si6 0.437228 0.595616 0.209832
Si Si7 0.431785 0.649366 0.673402
O O1 0.750000 0.215609 0.842231
O O2 0.535021 0.152868 0.777994
O O3 0.490274 0.167227 0.889072
O O4 0.508897 0.313023 0.820305
O O5 0.750000 0.715714 0.560807
O O6 0.490810 0.904410 0.335524
O O7 0.535385 0.750005 0.306328
O O8 0.250000 0.894321 0.604022
O O9 0.995535 0.814931 0.572097
O O10 0.027193 0.000000 0.574599
O O11 0.250000 0.898159 0.940735
O O12 0.489154 0.000000 0.927218
O O13 0.500000 0.872100 0.000000
O O14 0.250000 0.181820 0.295074
O O15 0.000000 0.314717 0.500000
O O16 0.005777 0.349845 0.388849
O O17 0.250000 0.599360 0.208954
O O18 0.486912 0.500000 0.184968
O O19 0.489527 0.597143 0.275270
O O20 0.250000 0.629405 0.670335
#
# Coordination Sequence:
#
# PCOD9399281 Si02
#       7
#     8   8   8   8   8   8   8
#     4   9  18  32  52  79 108 139 175 216 261 307
#     4   9  17  30  47  67  93 127 165 202 248 304
#     4  10  20  32  45  64  92 124 160 206 259 312
#     4  10  21  36  54  76 104 141 183 225 267 309
#     4  11  21  34  51  68  89 121 164 209 256 311
#     4   9  18  34  56  82 112 144 175 208 253 311
#     4  10  18  30  49  73 100 127 160 202 248 298
#
# _framework density 18.330568
#
# number of rings (size 3 to 8) (size 9 to 14) (size 15 to 20)
#    0.000    2.286    0.000    6.429    0.000    6.000 
#    0.000    2.857    0.000    0.857    0.000    0.000 
#    0.000    0.000    0.000    0.000    0.000    0.000 
#
# Total GULP energy -312031.580091 kJ/mol
# GULP energy per Si atom -5571.992502 kJ/mol
# Density = 1.828885 g / cm^3
# Si number density = 18.330568 Si / 1000 Ang^3
#
#
#
# Elastic Constant Matrix: (Units=GPa)
#
#
# Indices 1 2 3 4 5 6 
#
# 1 42.9913 4.6574 29.3680 0.0000 0.0000 0.0000
# 2 4.6574 57.5065 37.8249 0.0000 0.0000 0.0000
# 3 29.3680 37.8249 134.0233 0.0000 0.0000 0.0000
# 4 0.0000 0.0000 0.0000 21.6232 0.0000 0.0000
# 5 0.0000 0.0000 0.0000 0.0000 33.2027 0.0000
# 6 0.0000 0.0000 0.0000 0.0000 0.0000 15.8633
#
#
#
# Elastic Compliance Matrix: (Units=1/GPa)
#
#
# Indices 1 2 3 4 5 6 
#
# 1 0.027568 0.002137 -0.006644 0.000000 0.000000 0.000000
# 2 0.002137 0.021519 -0.006542 0.000000 0.000000 0.000000
# 3 -0.006644 -0.006542 0.010763 0.000000 0.000000 0.000000
# 4 0.000000 0.000000 0.000000 0.046247 0.000000 0.000000
# 5 0.000000 0.000000 0.000000 0.000000 0.030118 0.000000
# 6 0.000000 0.000000 0.000000 0.000000 0.000000 0.063039
#
#
# Mechanical properties :
#
#
# Convention : Reuss Voigt Hill
#
# Bulk Modulus (GPa) = 26.48750 42.02463 34.25607
# Shear Modulus (GPa) = 21.37352 24.98254 23.17803
#
# Velocity S-wave (km/s) = 3.41838 3.69574 3.55976
# Velocity P-wave (km/s) = 5.48286 6.41772 5.96862
#
# Compressibility (1/GPa) = 0.03775366
#
# Stress axis : x y z
#
# Youngs Moduli (GPa) = 36.27451 46.47065 92.90680
#
# Poissons Ratio (x) = -0.09933 0.61727
# Poissons Ratio (y) = -0.07753 0.60776
# Poissons Ratio (z) = 0.24101 0.30399
#
# Static dielectric constant tensor:
#      x y z
#    x 1.615980 0.000000 0.000000 
#    y 0.000000 1.878660 0.000000 
#    z 0.000000 0.000000 1.631770 
# 
# From -- ./inp_files/31959.got.cif
#   From: 2010.05.17/outbox.cif.g08.bks.cpg/sg51_16_cif.got.tgz:31959.got - 2010.06.03 11:52:47.
