data_PCOD9399945
_publ_section_title
;
Structure prediction by ZEFSAII (Michael W. Deem and Ramdas Pophale) SiO2 
 PCOD9399945
Probable space group: P M M A
;
_chemical_formula_sum "Si O2"
_cell_formula_units_Z 44
_cell_length_a 28.960065
_cell_length_b 13.116065
_cell_length_c 5.745267
_cell_angle_alpha 90.000000
_cell_angle_beta 90.000000
_cell_angle_gamma 90.000000
_cell_volume 2182.294253
_symmetry_space_group_name_H-M "P M M A"
_symmetry_group_IT_number 51
_symmetry_cell_setting 'orthorhombic'
loop_
_space_group_symop_operation_xyz
x,y,z
1/2-x,-y,z
1/2+x,-y,-z
-x,y,-z
-x,-y,-z
1/2+x,y,-z
1/2-x,y,z
x,-y,z
loop_
_atom_site_type_symbol
_atom_site_label
_atom_site_fract_x
_atom_site_fract_y
_atom_site_fract_z
Si Si1 0.155546 0.887734 0.057831
Si Si2 0.938616 0.614783 0.862281
Si Si3 0.000000 0.733874 0.500000
Si Si4 0.750000 0.305531 0.629191
Si Si5 0.350253 0.311541 0.385432
Si Si6 0.413768 0.779639 0.760661
Si Si7 0.250000 0.813615 0.869188
O O1 0.154320 0.794809 0.241109
O O2 0.202465 0.874944 0.908222
O O3 0.155358 0.000000 0.165980
O O4 0.110486 0.870618 0.897903
O O5 0.947899 0.500000 0.937605
O O6 0.888899 0.620319 0.735483
O O7 0.976526 0.659014 0.687127
O O8 0.934254 0.696497 0.064824
O O9 0.043093 0.800762 0.592292
O O10 0.700471 0.359068 0.605315
O O11 0.750000 0.259732 0.896130
O O12 0.750000 0.232586 0.394249
O O13 0.372016 0.277419 0.628719
#
# Coordination Sequence:
#
# PCOD9399945 Si02
#       7
#     8   8   4   4   8   8   4
#     4  10  20  35  55  84 118 155 196 244 293 350
#     4  10  21  37  60  87 113 144 191 246 302 358
#     4  10  21  36  59  84 114 144 185 238 311 364
#     4  10  18  36  60  84 123 162 202 237 300 346
#     4   9  20  36  56  81 118 158 193 235 296 355
#     4  10  20  36  55  82 114 151 190 241 298 361
#     4  10  19  34  58  90 118 156 203 251 294 350
#
# _framework density 20.162268000000001
#
# number of rings (size 3 to 8) (size 9 to 14) (size 15 to 20)
#    0.000    2.182    1.818    1.091    0.000    5.091 
#    0.000    1.818    0.000   14.182    0.000    0.000 
#    0.000    0.000    0.000    0.000    0.000    0.000 
#
# Total GULP energy -245077.419321 kJ/mol
# GULP energy per Si atom -5569.941348 kJ/mol
# Density = 2.011638 g / cm^3
# Si number density = 20.162268 Si / 1000 Ang^3
#
#
#
# Elastic Constant Matrix: (Units=GPa)
#
#
# Indices 1 2 3 4 5 6 
#
# 1 155.7644 11.7783 7.8645 0.0000 0.0000 0.0000
# 2 11.7783 57.8893 3.9692 0.0000 0.0000 0.0000
# 3 7.8645 3.9692 40.9588 0.0000 0.0000 0.0000
# 4 0.0000 0.0000 0.0000 -9.1833 0.0000 0.0000
# 5 0.0000 0.0000 0.0000 0.0000 41.8754 0.0000
# 6 0.0000 0.0000 0.0000 0.0000 0.0000 3.8614
#
#
#
# Elastic Compliance Matrix: (Units=1/GPa)
#
#
# Indices 1 2 3 4 5 6 
#
# 1 0.006573 -0.001259 -0.001140 0.000000 0.000000 0.000000
# 2 -0.001259 0.017631 -0.001467 0.000000 0.000000 0.000000
# 3 -0.001140 -0.001467 0.024776 0.000000 0.000000 0.000000
# 4 0.000000 0.000000 0.000000 -0.108894 0.000000 0.000000
# 5 0.000000 0.000000 0.000000 0.000000 0.023880 0.000000
# 6 0.000000 0.000000 0.000000 0.000000 0.000000 0.258971
#
#
# Mechanical properties :
#
#
# Convention : Reuss Voigt Hill
#
# Bulk Modulus (GPa) = 24.24374 33.53738 28.89056
# Shear Modulus (GPa) = 20.45675 22.71075 21.58375
#
# Velocity S-wave (km/s) = 3.18874 3.35983 3.27540
# Velocity P-wave (km/s) = 5.06042 5.63215 5.35392
#
# Compressibility (1/GPa) = 0.04124777
#
# Stress axis : x y z
#
# Youngs Moduli (GPa) = 152.14401 56.71789 40.36195
#
# Poissons Ratio (x) = 0.07142 0.04601
# Poissons Ratio (y) = 0.19157 0.05920
# Poissons Ratio (z) = 0.17344 0.08319
#
# Static dielectric constant tensor:
#      x y z
#    x 1.750930 0.000000 0.000000 
#    y 0.000000 1.651910 0.000000 
#    z 0.000000 0.000000 1.771710 
# 
# From -- ./inp_files/3946.got.cif
#   From: 2010.05.17/outbox.cif.g08.bks.cpg/sg51_2_cif.got.tgz:3946.got - 2010.06.03 11:52:47.
