data_PCOD9399709
_publ_section_title
;
Structure prediction by ZEFSAII (Michael W. Deem and Ramdas Pophale) SiO2 
 PCOD9399709
Probable space group: P M M A
;
_chemical_formula_sum "Si O2"
_cell_formula_units_Z 64
_cell_length_a 20.064323
_cell_length_b 7.996653
_cell_length_c 21.242070
_cell_angle_alpha 90.000000
_cell_angle_beta 90.000000
_cell_angle_gamma 90.000000
_cell_volume 3408.235512
_symmetry_space_group_name_H-M "P M M A"
_symmetry_group_IT_number 51
_symmetry_cell_setting 'orthorhombic'
loop_
_space_group_symop_operation_xyz
x,y,z
1/2-x,-y,z
1/2+x,-y,-z
-x,y,-z
-x,-y,-z
1/2+x,y,-z
1/2-x,y,z
x,-y,z
loop_
_atom_site_type_symbol
_atom_site_label
_atom_site_fract_x
_atom_site_fract_y
_atom_site_fract_z
Si Si1 0.460488 0.795444 0.062796
Si Si2 0.824402 0.295844 0.491754
Si Si3 0.536540 0.801807 0.688539
Si Si4 0.174909 0.699916 0.866279
Si Si5 0.675979 0.200564 0.989496
Si Si6 0.537562 0.201859 0.187296
Si Si7 0.960407 0.297917 0.437692
Si Si8 0.324448 0.298977 0.362887
O O1 0.497603 0.737938 0.125493
O O2 0.539449 0.000000 0.936071
O O3 0.500000 0.745213 0.000000
O O4 0.384414 0.738134 0.053601
O O5 0.750000 0.241646 0.473883
O O6 0.824681 0.500000 0.491837
O O7 0.884318 0.240562 0.447204
O O8 0.836725 0.244388 0.564481
O O9 0.498206 0.733372 0.749752
O O10 0.496577 0.756236 0.625465
O O11 0.613257 0.748981 0.679779
O O12 0.536761 0.000000 0.694330
O O13 0.250000 0.758021 0.849133
O O14 0.175901 0.500000 0.868892
O O15 0.160830 0.764599 0.937064
O O16 0.114988 0.753043 0.821139
O O17 0.750000 0.268315 0.976130
O O18 0.678343 0.000000 0.982577
O O19 0.534059 0.000000 0.187369
O O20 0.961151 0.500000 0.438044
O O21 0.000000 0.242076 0.500000
O O22 0.250000 0.239833 0.344448
O O23 0.322409 0.500000 0.364473
#
# Coordination Sequence:
#
# PCOD9399709 Si02
#       8
#     8   8   8   8   8   8   8   8
#     4   9  15  28  52  76  97 126 172 221 249 286
#     4   8  14  27  50  78 101 125 167 220 261 294
#     4  11  23  35  50  77 113 143 169 212 268 316
#     4  10  20  33  51  77 105 131 166 215 265 312
#     4   9  16  28  50  77 101 130 169 212 260 309
#     4  10  21  37  53  73 104 143 179 211 256 312
#     4  10  18  32  55  78 101 135 179 219 257 305
#     4   9  17  33  57  79 101 134 177 216 250 303
#
# _framework density 18.778046
#
# number of rings (size 3 to 8) (size 9 to 14) (size 15 to 20)
#    0.000    2.500    2.500    1.500    0.000    2.250 
#    0.000    2.500    0.000    4.875    0.000    1.750 
#    0.000    0.000    0.000    0.000    0.000    0.000 
#
# Total GULP energy -356850.545476 kJ/mol
# GULP energy per Si atom -5575.789773 kJ/mol
# Density = 1.873531 g / cm^3
# Si number density = 18.778046 Si / 1000 Ang^3
#
#
#
# Elastic Constant Matrix: (Units=GPa)
#
#
# Indices 1 2 3 4 5 6 
#
# 1 183.2238 11.1221 82.9386 0.0000 0.0000 0.0000
# 2 11.1221 13.5536 7.2784 0.0000 0.0000 0.0000
# 3 82.9386 7.2784 108.2734 0.0000 0.0000 0.0000
# 4 0.0000 0.0000 0.0000 23.3850 0.0000 0.0000
# 5 0.0000 0.0000 0.0000 0.0000 26.6700 0.0000
# 6 0.0000 0.0000 0.0000 0.0000 0.0000 15.4151
#
#
#
# Elastic Compliance Matrix: (Units=1/GPa)
#
#
# Indices 1 2 3 4 5 6 
#
# 1 0.008522 -0.003618 -0.006285 0.000000 0.000000 0.000000
# 2 -0.003618 0.078080 -0.002477 0.000000 0.000000 0.000000
# 3 -0.006285 -0.002477 0.014217 0.000000 0.000000 0.000000
# 4 0.000000 0.000000 0.000000 0.042762 0.000000 0.000000
# 5 0.000000 0.000000 0.000000 0.000000 0.037495 0.000000
# 6 0.000000 0.000000 0.000000 0.000000 0.000000 0.064872
#
#
# Mechanical properties :
#
#
# Convention : Reuss Voigt Hill
#
# Bulk Modulus (GPa) = 13.14774 56.41435 34.78105
# Shear Modulus (GPa) = 16.88829 26.67478 21.78154
#
# Velocity S-wave (km/s) = 3.00219 3.77308 3.40949
# Velocity P-wave (km/s) = 4.36284 7.00639 5.83626
#
# Compressibility (1/GPa) = 0.07605867
#
# Stress axis : x y z
#
# Youngs Moduli (GPa) = 117.33695 12.80731 70.33925
#
# Poissons Ratio (x) = 0.04634 0.44209
# Poissons Ratio (y) = 0.42457 0.17423
# Poissons Ratio (z) = 0.73747 0.03172
#
# Static dielectric constant tensor:
#      x y z
#    x 1.693690 0.000000 0.000000 
#    y 0.000000 1.675250 0.000000 
#    z 0.000000 0.000000 1.621510 
# 
# From -- ./inp_files/30518.got.cif
#   From: 2010.05.17/outbox.cif.g08.bks.cpg/sg51_16_cif.got.tgz:30518.got - 2010.06.03 11:52:47.
