data_PCOD9399290
_publ_section_title
;
Structure prediction by ZEFSAII (Michael W. Deem and Ramdas Pophale) SiO2 
 PCOD9399290
Probable space group: P M M A
;
_chemical_formula_sum "Si O2"
_cell_formula_units_Z 44
_cell_length_a 8.680151
_cell_length_b 28.512758
_cell_length_c 9.800568
_cell_angle_alpha 90.000000
_cell_angle_beta 90.000000
_cell_angle_gamma 90.000000
_cell_volume 2425.592017
_symmetry_space_group_name_H-M "P M M A"
_symmetry_group_IT_number 51
_symmetry_cell_setting 'orthorhombic'
loop_
_space_group_symop_operation_xyz
x,y,z
1/2-x,-y,z
1/2+x,-y,-z
-x,y,-z
-x,-y,-z
1/2+x,y,-z
1/2-x,y,z
x,-y,z
loop_
_atom_site_type_symbol
_atom_site_label
_atom_site_fract_x
_atom_site_fract_y
_atom_site_fract_z
Si Si1 0.935350 0.211352 0.349030
Si Si2 0.935143 0.680997 0.350979
Si Si3 0.433482 0.055472 0.648532
Si Si4 0.435541 0.402707 0.846869
Si Si5 0.065608 0.500000 0.154891
Si Si6 0.433682 0.132082 0.152306
O O1 0.750000 0.207699 0.351409
O O2 0.979801 0.265378 0.317317
O O3 0.000000 0.200430 0.500000
O O4 0.002926 0.176036 0.238583
O O5 0.750000 0.680120 0.357454
O O6 0.983223 0.642115 0.241980
O O7 0.000000 0.669918 0.500000
O O8 0.500000 0.068675 0.500000
O O9 0.250000 0.063235 0.648969
O O10 0.510758 0.086288 0.765226
O O11 0.462665 0.000000 0.668028
O O12 0.250000 0.405741 0.852090
O O13 0.501909 0.451298 0.785937
O O14 0.500000 0.397799 0.000000
O O15 0.250000 0.500000 0.152497
O O16 0.000000 0.500000 0.000000
O O17 0.250000 0.133566 0.147736
O O18 0.500000 0.132260 0.000000
#
# Coordination Sequence:
#
# PCOD9399290 Si02
#       6
#     8   8   8   8   4   8
#     4  10  20  38  60  83 110 144 185 226 270 325
#     4   9  20  36  56  80 108 140 177 220 268 319
#     4  10  21  39  63  89 116 149 189 230 272 323
#     4  10  19  33  52  77 105 137 175 218 265 316
#     4  10  18  30  49  74 101 136 176 216 262 314
#     4  12  25  40  58  83 115 150 186 229 279 328
#
# _framework density 18.139903
#
# number of rings (size 3 to 8) (size 9 to 14) (size 15 to 20)
#    0.000    1.818    0.000    5.727    0.000    4.364 
#    0.000    2.273    0.000    0.000    0.000    0.000 
#    0.000    0.000    0.000    0.000    0.000    0.000 
#
# Total GULP energy -245760.519386 kJ/mol
# GULP energy per Si atom -5585.466350 kJ/mol
# Density = 1.809862 g / cm^3
# Si number density = 18.139903 Si / 1000 Ang^3
#
#
#
# Elastic Constant Matrix: (Units=GPa)
#
#
# Indices 1 2 3 4 5 6 
#
# 1 105.2304 69.8421 63.9956 0.0000 0.0000 0.0000
# 2 69.8421 127.1439 103.8112 0.0000 0.0000 0.0000
# 3 63.9956 103.8112 138.2875 0.0000 0.0000 0.0000
# 4 0.0000 0.0000 0.0000 32.1260 0.0000 0.0000
# 5 0.0000 0.0000 0.0000 0.0000 33.3190 0.0000
# 6 0.0000 0.0000 0.0000 0.0000 0.0000 29.6289
#
#
#
# Elastic Compliance Matrix: (Units=1/GPa)
#
#
# Indices 1 2 3 4 5 6 
#
# 1 0.015161 -0.006716 -0.001974 0.000000 0.000000 0.000000
# 2 -0.006716 0.023295 -0.014379 0.000000 0.000000 0.000000
# 3 -0.001974 -0.014379 0.018939 0.000000 0.000000 0.000000
# 4 0.000000 0.000000 0.000000 0.031127 0.000000 0.000000
# 5 0.000000 0.000000 0.000000 0.000000 0.030013 0.000000
# 6 0.000000 0.000000 0.000000 0.000000 0.000000 0.033751
#
#
# Mechanical properties :
#
#
# Convention : Reuss Voigt Hill
#
# Bulk Modulus (GPa) = 88.84265 93.99550 91.41908
# Shear Modulus (GPa) = 24.73072 27.88231 26.30652
#
# Velocity S-wave (km/s) = 3.69634 3.92480 3.81228
# Velocity P-wave (km/s) = 8.20365 8.51283 8.35967
#
# Compressibility (1/GPa) = 0.01125586
#
# Stress axis : x y z
#
# Youngs Moduli (GPa) = 65.95740 42.92820 52.80051
#
# Poissons Ratio (x) = 0.28832 0.10425
# Poissons Ratio (y) = 0.44299 0.75922
# Poissons Ratio (z) = 0.13023 0.61727
#
# Static dielectric constant tensor:
#      x y z
#    x 1.605320 0.000000 0.000000 
#    y 0.000000 1.648690 0.000000 
#    z 0.000000 0.000000 1.581200 
# 
# From -- ./inp_files/5712.got.cif
#   From: 2010.05.17/outbox.cif.g08.bks.cpg/sg51_3_cif.got.tgz:5712.got - 2010.06.03 11:52:47.
