data_PCOD9399610
_publ_section_title
;
Structure prediction by ZEFSAII (Michael W. Deem and Ramdas Pophale) SiO2 
 PCOD9399610
Probable space group: P M M A
;
_chemical_formula_sum "Si O2"
_cell_formula_units_Z 64
_cell_length_a 8.875796
_cell_length_b 25.444462
_cell_length_c 15.231674
_cell_angle_alpha 90.000000
_cell_angle_beta 90.000000
_cell_angle_gamma 90.000000
_cell_volume 3439.919033
_symmetry_space_group_name_H-M "P M M A"
_symmetry_group_IT_number 51
_symmetry_cell_setting 'orthorhombic'
loop_
_space_group_symop_operation_xyz
x,y,z
1/2-x,-y,z
1/2+x,-y,-z
-x,y,-z
-x,-y,-z
1/2+x,y,-z
1/2-x,y,z
x,-y,z
loop_
_atom_site_type_symbol
_atom_site_label
_atom_site_fract_x
_atom_site_fract_y
_atom_site_fract_z
Si Si1 0.068458 0.771006 0.090449
Si Si2 0.572477 0.062669 0.905531
Si Si3 0.929471 0.410913 0.411823
Si Si4 0.424305 0.336768 0.163117
Si Si5 0.574486 0.698361 0.634145
Si Si6 0.930239 0.854177 0.220970
Si Si7 0.068812 0.442540 0.783703
Si Si8 0.069621 0.811251 0.591398
O O1 0.250000 0.772815 0.090123
O O2 0.018030 0.710516 0.103041
O O3 0.005381 0.805572 0.169685
O O4 0.000000 0.791702 0.000000
O O5 0.750000 0.075359 0.907756
O O6 0.494054 0.094622 0.827605
O O7 0.555218 0.000000 0.893520
O O8 0.500000 0.076107 0.000000
O O9 0.750000 0.413675 0.417426
O O10 0.977075 0.436188 0.318951
O O11 0.000000 0.434242 0.500000
O O12 0.984190 0.350592 0.405437
O O13 0.250000 0.346765 0.141946
O O14 0.430129 0.312350 0.261397
O O15 0.508865 0.391976 0.165093
O O16 0.750000 0.697370 0.606523
O O17 0.500378 0.753665 0.610239
O O18 0.750000 0.851868 0.210675
O O19 0.965014 0.847375 0.324049
O O20 0.250000 0.440983 0.785348
O O21 0.018634 0.500000 0.815473
O O22 0.250000 0.806550 0.583966
O O23 0.000000 0.830575 0.500000
#
# Coordination Sequence:
#
# PCOD9399610 Si02
#       8
#     8   8   8   8   8   8   8   8
#     4  11  22  37  57  85 118 150 183 223 276 339
#     4  10  21  38  62  91 123 160 199 239 285 336
#     4  10  19  30  44  65  94 127 166 214 268 326
#     4   9  19  34  53  76 103 136 173 217 269 325
#     4  10  18  32  51  71  99 136 179 223 271 324
#     4  11  23  38  58  86 120 157 195 237 284 333
#     4   9  19  34  51  70  93 126 169 217 271 329
#     4  11  23  36  53  78 110 150 195 237 283 331
#
# _framework density 18.605089
#
# number of rings (size 3 to 8) (size 9 to 14) (size 15 to 20)
#    0.000    1.875    1.250    3.000    0.000    4.750 
#    0.000    0.000    0.000    0.750    0.000    0.000 
#    0.000    0.000    0.000    0.000    0.000    0.000 
#
# Total GULP energy -357376.927725 kJ/mol
# GULP energy per Si atom -5584.014496 kJ/mol
# Density = 1.856274 g / cm^3
# Si number density = 18.605089 Si / 1000 Ang^3
#
#
#
# Elastic Constant Matrix: (Units=GPa)
#
#
# Indices 1 2 3 4 5 6 
#
# 1 67.3892 38.5420 37.7067 0.0000 0.0000 0.0000
# 2 38.5420 86.9157 41.5479 0.0000 0.0000 0.0000
# 3 37.7067 41.5479 88.2704 0.0000 0.0000 0.0000
# 4 0.0000 0.0000 0.0000 2.3450 0.0000 0.0000
# 5 0.0000 0.0000 0.0000 0.0000 23.4147 0.0000
# 6 0.0000 0.0000 0.0000 0.0000 0.0000 24.3939
#
#
#
# Elastic Compliance Matrix: (Units=1/GPa)
#
#
# Indices 1 2 3 4 5 6 
#
# 1 0.022290 -0.006881 -0.006283 0.000000 0.000000 0.000000
# 2 -0.006881 0.016970 -0.005048 0.000000 0.000000 0.000000
# 3 -0.006283 -0.005048 0.016389 0.000000 0.000000 0.000000
# 4 0.000000 0.000000 0.000000 0.426437 0.000000 0.000000
# 5 0.000000 0.000000 0.000000 0.000000 0.042708 0.000000
# 6 0.000000 0.000000 0.000000 0.000000 0.000000 0.040994
#
#
# Mechanical properties :
#
#
# Convention : Reuss Voigt Hill
#
# Bulk Modulus (GPa) = 52.01641 53.12981 52.57311
# Shear Modulus (GPa) = 8.21531 18.34929 13.28230
#
# Velocity S-wave (km/s) = 2.10362 3.14387 2.67480
# Velocity P-wave (km/s) = 5.82401 6.46507 6.15290
#
# Compressibility (1/GPa) = 0.01922470
#
# Stress axis : x y z
#
# Youngs Moduli (GPa) = 44.86289 58.92802 61.01710
#
# Poissons Ratio (x) = 0.40548 0.38337
# Poissons Ratio (y) = 0.30870 0.30802
# Poissons Ratio (z) = 0.28187 0.29748
#
# Static dielectric constant tensor:
#      x y z
#    x 1.622790 0.000000 0.000000 
#    y 0.000000 1.641480 0.000000 
#    z 0.000000 0.000000 1.666210 
# 
# From -- ./inp_files/22397.got.cif
#   From: 2010.05.17/outbox.cif.g08.bks.cpg/sg51_12_cif.got.tgz:22397.got - 2010.06.03 11:52:47.
