data_PCOD9399047
_publ_section_title
;
Structure prediction by ZEFSAII (Michael W. Deem and Ramdas Pophale) SiO2 
 PCOD9399047
Probable space group: P M M A
;
_chemical_formula_sum "Si O2"
_cell_formula_units_Z 64
_cell_length_a 9.171395
_cell_length_b 20.238334
_cell_length_c 20.396610
_cell_angle_alpha 90.000000
_cell_angle_beta 90.000000
_cell_angle_gamma 90.000000
_cell_volume 3785.891377
_symmetry_space_group_name_H-M "P M M A"
_symmetry_group_IT_number 51
_symmetry_cell_setting 'orthorhombic'
loop_
_space_group_symop_operation_xyz
x,y,z
1/2-x,-y,z
1/2+x,-y,-z
-x,y,-z
-x,-y,-z
1/2+x,y,-z
1/2-x,y,z
x,-y,z
loop_
_atom_site_type_symbol
_atom_site_label
_atom_site_fract_x
_atom_site_fract_y
_atom_site_fract_z
Si Si1 0.078279 0.078536 0.431784
Si Si2 0.922198 0.294071 0.435249
Si Si3 0.577753 0.175563 0.335284
Si Si4 0.575059 0.747931 0.211529
Si Si5 0.925491 0.428832 0.109703
Si Si6 0.577559 0.388884 0.759931
Si Si7 0.576732 0.573795 0.610030
Si Si8 0.075745 0.716268 0.934908
O O1 0.250000 0.091293 0.438017
O O2 0.000000 0.097020 0.500000
O O3 0.012312 0.119502 0.371810
O O4 0.056132 0.000000 0.422205
O O5 0.750000 0.299379 0.445778
O O6 0.947227 0.243706 0.375469
O O7 0.000000 0.267009 0.500000
O O8 0.989196 0.365907 0.420941
O O9 0.750000 0.160379 0.340283
O O10 0.542423 0.191130 0.259494
O O11 0.750000 0.734650 0.217045
O O12 0.487556 0.684855 0.238150
O O13 0.542049 0.752421 0.134057
O O14 0.750000 0.425945 0.114481
O O15 0.965806 0.500000 0.079774
O O16 0.971533 0.360664 0.075184
O O17 0.993634 0.425525 0.182008
O O18 0.750000 0.388196 0.773663
O O19 0.556340 0.419986 0.688529
O O20 0.750000 0.581878 0.597087
O O21 0.532855 0.500000 0.588812
O O22 0.250000 0.717317 0.943324
O O23 0.000000 0.742735 0.000000
#
# Coordination Sequence:
#
# PCOD9399047 Si02
#       8
#     8   8   8   8   8   8   8   8
#     4  10  21  36  55  82 117 153 184 211 245 292
#     4  11  23  37  53  72  94 123 162 206 254 305
#     4  10  20  35  57  81 104 134 174 214 251 296
#     4   9  18  34  52  72  99 129 164 205 249 299
#     4   9  18  31  45  61  85 120 158 197 248 311
#     4  10  18  29  47  70  93 116 149 201 258 305
#     4  10  21  35  49  66  90 119 155 204 260 313
#     4   9  18  31  47  66  94 127 160 202 251 306
#
# _framework density 16.904869999999999
#
# number of rings (size 3 to 8) (size 9 to 14) (size 15 to 20)
#    0.000    2.250    1.250    2.625    0.000    7.250 
#    0.000    0.000    0.000    0.000    0.000    0.000 
#    0.000    0.500    0.000    1.125    0.000    2.000 
#
# Total GULP energy -357012.678759 kJ/mol
# GULP energy per Si atom -5578.323106 kJ/mol
# Density = 1.686639 g / cm^3
# Si number density = 16.904870 Si / 1000 Ang^3
#
#
#
# Elastic Constant Matrix: (Units=GPa)
#
#
# Indices 1 2 3 4 5 6 
#
# 1 30.9819 36.4804 41.3544 0.0000 0.0000 0.0000
# 2 36.4804 59.1648 38.8846 0.0000 0.0000 0.0000
# 3 41.3544 38.8846 110.4233 0.0000 0.0000 0.0000
# 4 0.0000 0.0000 0.0000 -87.2074 0.0000 0.0000
# 5 0.0000 0.0000 0.0000 0.0000 27.4766 0.0000
# 6 0.0000 0.0000 0.0000 0.0000 0.0000 20.5207
#
#
#
# Elastic Compliance Matrix: (Units=1/GPa)
#
#
# Indices 1 2 3 4 5 6 
#
# 1 0.202848 -0.097774 -0.041538 0.000000 0.000000 0.000000
# 2 -0.097774 0.069120 0.012277 0.000000 0.000000 0.000000
# 3 -0.041538 0.012277 0.020289 0.000000 0.000000 0.000000
# 4 0.000000 0.000000 0.000000 -0.011467 0.000000 0.000000
# 5 0.000000 0.000000 0.000000 0.000000 0.036395 0.000000
# 6 0.000000 0.000000 0.000000 0.000000 0.000000 0.048731
#
#
# Mechanical properties :
#
#
# Convention : Reuss Voigt Hill
#
# Bulk Modulus (GPa) = 26.18689 48.22320 37.20504
# Shear Modulus (GPa) = 7.90247 -2.25199 2.82524
#
# Velocity S-wave (km/s) = 2.16444 -1.15544 1.29417
# Velocity P-wave (km/s) = 4.66592 5.17765 4.92843
#
# Compressibility (1/GPa) = 0.03818705
#
# Stress axis : x y z
#
# Youngs Moduli (GPa) = 4.92980 14.46770 49.28796
#
# Poissons Ratio (x) = 1.41457 2.04731
# Poissons Ratio (y) = 0.48201 -0.60513
# Poissons Ratio (z) = 0.20477 -0.17763
#
# Static dielectric constant tensor:
#      x y z
#    x 1.559420 0.000000 0.000000 
#    y 0.000000 1.571310 0.000000 
#    z 0.000000 0.000000 1.586410 
# 
# From -- ./inp_files/32321.got.cif
#   From: 2010.05.17/outbox.cif.g08.bks.cpg/sg51_17_cif.got.tgz:32321.got - 2010.06.03 11:52:47.
