data_PCOD9399157
_publ_section_title
;
Structure prediction by ZEFSAII (Michael W. Deem and Ramdas Pophale) SiO2 
 PCOD9399157
Probable space group: P M M A
;
_chemical_formula_sum "Si O2"
_cell_formula_units_Z 36
_cell_length_a 8.145037
_cell_length_b 16.177181
_cell_length_c 14.827445
_cell_angle_alpha 90.000000
_cell_angle_beta 90.000000
_cell_angle_gamma 90.000000
_cell_volume 1953.719575
_symmetry_space_group_name_H-M "P M M A"
_symmetry_group_IT_number 51
_symmetry_cell_setting 'orthorhombic'
loop_
_space_group_symop_operation_xyz
x,y,z
1/2-x,-y,z
1/2+x,-y,-z
-x,y,-z
-x,-y,-z
1/2+x,y,-z
1/2-x,y,z
x,-y,z
loop_
_atom_site_type_symbol
_atom_site_label
_atom_site_fract_x
_atom_site_fract_y
_atom_site_fract_z
Si Si1 0.948251 0.091895 0.395828
Si Si2 0.944242 0.178462 0.103154
Si Si3 0.051714 0.593234 0.602420
Si Si4 0.055119 0.000000 0.104664
Si Si5 0.048473 0.748472 0.717765
O O1 0.750000 0.091511 0.391867
O O2 0.005162 0.170157 0.337773
O O3 0.000000 0.101957 0.500000
O O4 0.005645 0.000000 0.365827
O O5 0.750000 0.183737 0.100269
O O6 0.006510 0.241631 0.178712
O O7 0.988004 0.086687 0.139447
O O8 0.000000 0.188500 0.000000
O O9 0.250000 0.592713 0.605434
O O10 0.994263 0.500000 0.624230
O O11 0.993009 0.665164 0.668720
O O12 0.000000 0.611838 0.500000
O O13 0.250000 0.000000 0.109549
O O14 0.000000 0.000000 0.000000
O O15 0.250000 0.748296 0.717010
#
# Coordination Sequence:
#
# PCOD9399157 Si02
#       5
#     8   8   8   4   8
#     4   9  17  29  44  62  88 120 153 185 221 270
#     4  10  19  32  49  67  92 125 163 202 241 279
#     4   9  17  31  51  75 100 124 154 194 238 286
#     4  10  18  30  46  66  91 120 157 198 241 280
#     4   9  18  30  48  70  91 124 162 191 231 287
#
# _framework density 18.426390000000001
#
# number of rings (size 3 to 8) (size 9 to 14) (size 15 to 20)
#    0.000    2.667    0.000    3.667    1.556    0.000 
#    0.000    4.444    0.000    0.667    0.000    0.000 
#    0.000    0.000    0.000    0.000    0.000    0.889 
#
# Total GULP energy -200711.046444 kJ/mol
# GULP energy per Si atom -5575.306846 kJ/mol
# Density = 1.838445 g / cm^3
# Si number density = 18.426390 Si / 1000 Ang^3
#
#
#
# Elastic Constant Matrix: (Units=GPa)
#
#
# Indices 1 2 3 4 5 6 
#
# 1 15.1723 13.2203 11.1444 0.0000 0.0000 0.0000
# 2 13.2203 142.9018 106.1252 0.0000 0.0000 0.0000
# 3 11.1444 106.1252 123.4802 0.0000 0.0000 0.0000
# 4 0.0000 0.0000 0.0000 30.6256 0.0000 0.0000
# 5 0.0000 0.0000 0.0000 0.0000 17.0025 0.0000
# 6 0.0000 0.0000 0.0000 0.0000 0.0000 8.5305
#
#
#
# Elastic Compliance Matrix: (Units=1/GPa)
#
#
# Indices 1 2 3 4 5 6 
#
# 1 0.071892 -0.005066 -0.002135 0.000000 0.000000 0.000000
# 2 -0.005066 0.019702 -0.016476 0.000000 0.000000 0.000000
# 3 -0.002135 -0.016476 0.022451 0.000000 0.000000 0.000000
# 4 0.000000 0.000000 0.000000 0.032652 0.000000 0.000000
# 5 0.000000 0.000000 0.000000 0.000000 0.058815 0.000000
# 6 0.000000 0.000000 0.000000 0.000000 0.000000 0.117226
#
#
# Mechanical properties :
#
#
# Convention : Reuss Voigt Hill
#
# Bulk Modulus (GPa) = 14.99413 60.28157 37.63785
# Shear Modulus (GPa) = 12.74464 21.30269 17.02367
#
# Velocity S-wave (km/s) = 2.63278 3.40383 3.04283
# Velocity P-wave (km/s) = 4.17097 6.94506 5.72848
#
# Compressibility (1/GPa) = 0.06669275
#
# Stress axis : x y z
#
# Youngs Moduli (GPa) = 13.90981 50.75598 44.54086
#
# Poissons Ratio (x) = 0.25711 0.09509
# Poissons Ratio (y) = 0.07046 0.73385
# Poissons Ratio (z) = 0.02969 0.83625
#
# Static dielectric constant tensor:
#      x y z
#    x 1.638680 0.000000 0.000000 
#    y 0.000000 1.607890 0.000000 
#    z 0.000000 0.000000 1.644050 
# 
# From -- ./inp_files/20326.got.cif
#   From: 2010.05.17/outbox.cif.g08.bks.cpg/sg51_11_cif.got.tgz:20326.got - 2010.06.03 11:52:47.
