data_PCOD9399616
_publ_section_title
;
Structure prediction by ZEFSAII (Michael W. Deem and Ramdas Pophale) SiO2 
 PCOD9399616
Probable space group: P M M A
;
_chemical_formula_sum "Si O2"
_cell_formula_units_Z 52
_cell_length_a 7.951056
_cell_length_b 25.079932
_cell_length_c 14.409295
_cell_angle_alpha 90.000000
_cell_angle_beta 90.000000
_cell_angle_gamma 90.000000
_cell_volume 2873.385525
_symmetry_space_group_name_H-M "P M M A"
_symmetry_group_IT_number 51
_symmetry_cell_setting 'orthorhombic'
loop_
_space_group_symop_operation_xyz
x,y,z
1/2-x,-y,z
1/2+x,-y,-z
-x,y,-z
-x,-y,-z
1/2+x,y,-z
1/2-x,y,z
x,-y,z
loop_
_atom_site_type_symbol
_atom_site_label
_atom_site_fract_x
_atom_site_fract_y
_atom_site_fract_z
Si Si1 0.050017 0.776497 0.714011
Si Si2 0.046473 0.326722 0.607994
Si Si3 0.051090 0.000000 0.609217
Si Si4 0.551944 0.882996 0.608485
Si Si5 0.046755 0.172876 0.893316
Si Si6 0.547168 0.442668 0.391003
Si Si7 0.452930 0.943546 0.890733
O O1 0.250000 0.768064 0.720848
O O2 0.979821 0.725018 0.661552
O O3 0.983776 0.785193 0.818109
O O4 0.026569 0.832098 0.659391
O O5 0.250000 0.326750 0.612870
O O6 0.987356 0.384886 0.644349
O O7 0.000000 0.322198 0.500000
O O8 0.000000 0.000000 0.500000
O O9 0.992778 0.942269 0.646146
O O10 0.250000 0.000000 0.616356
O O11 0.500000 0.881850 0.500000
O O12 0.750000 0.876982 0.613915
O O13 0.250000 0.171543 0.890007
O O14 0.984643 0.114211 0.860160
O O15 0.000000 0.181681 0.000000
O O16 0.500000 0.442574 0.500000
O O17 0.750000 0.442892 0.383810
O O18 0.485799 0.500000 0.352758
O O19 0.250000 0.943628 0.881829
O O20 0.515340 0.000000 0.850708
O O21 0.500000 0.944412 0.000000
#
# Coordination Sequence:
#
# PCOD9399616 Si02
#       7
#     8   8   4   8   8   8   8
#     4  10  20  33  46  66  92 120 153 186 227 273
#     4   9  17  28  43  63  91 122 152 186 220 260
#     4  10  18  32  52  70  89 116 149 188 232 274
#     4  11  21  34  51  70  93 119 151 189 228 271
#     4   9  18  32  48  64  85 111 143 182 225 274
#     4   8  13  22  37  58  84 116 150 181 215 255
#     4   8  13  23  40  59  76  94 120 154 199 254
#
# _framework density 18.09712
#
# number of rings (size 3 to 8) (size 9 to 14) (size 15 to 20)
#    0.000    2.769    0.000    3.462    0.000    2.462 
#    1.385    0.000    0.000    0.000    0.000    0.000 
#    0.000    0.615    0.000    0.462    0.000    1.231 
#
# Total GULP energy -289633.505026 kJ/mol
# GULP energy per Si atom -5569.875097 kJ/mol
# Density = 1.805593 g / cm^3
# Si number density = 18.097120 Si / 1000 Ang^3
#
#
#
# Elastic Constant Matrix: (Units=GPa)
#
#
# Indices 1 2 3 4 5 6 
#
# 1 19.3075 -0.5960 -3.0205 0.0000 0.0000 0.0000
# 2 -0.5960 184.3293 67.2928 0.0000 0.0000 0.0000
# 3 -3.0205 67.2928 64.9542 0.0000 0.0000 0.0000
# 4 0.0000 0.0000 0.0000 13.0039 0.0000 0.0000
# 5 0.0000 0.0000 0.0000 0.0000 9.5182 0.0000
# 6 0.0000 0.0000 0.0000 0.0000 0.0000 12.3196
#
#
#
# Elastic Compliance Matrix: (Units=1/GPa)
#
#
# Indices 1 2 3 4 5 6 
#
# 1 0.052326 -0.001157 0.003631 0.000000 0.000000 0.000000
# 2 -0.001157 0.008751 -0.009119 0.000000 0.000000 0.000000
# 3 0.003631 -0.009119 0.025012 0.000000 0.000000 0.000000
# 4 0.000000 0.000000 0.000000 0.076900 0.000000 0.000000
# 5 0.000000 0.000000 0.000000 0.000000 0.105062 0.000000
# 6 0.000000 0.000000 0.000000 0.000000 0.000000 0.081172
#
#
# Mechanical properties :
#
#
# Convention : Reuss Voigt Hill
#
# Bulk Modulus (GPa) = 13.73640 43.99374 28.86507
# Shear Modulus (GPa) = 12.92734 20.62932 16.77833
#
# Velocity S-wave (km/s) = 2.67560 3.37994 3.04818
# Velocity P-wave (km/s) = 4.14149 6.29242 5.32665
#
# Compressibility (1/GPa) = 0.07279927
#
# Stress axis : x y z
#
# Youngs Moduli (GPa) = 19.11107 114.27900 39.98081
#
# Poissons Ratio (x) = 0.13217 -0.14519
# Poissons Ratio (y) = 0.02210 0.36460
# Poissons Ratio (z) = -0.06940 1.04215
#
# Static dielectric constant tensor:
#      x y z
#    x 1.500060 0.000000 0.000000 
#    y 0.000000 1.747610 0.000000 
#    z 0.000000 0.000000 1.548600 
# 
# From -- ./inp_files/22087.got.cif
#   From: 2010.05.17/outbox.cif.g08.bks.cpg/sg51_12_cif.got.tgz:22087.got - 2010.06.03 11:52:47.
