data_PCOD9399476
_publ_section_title
;
Structure prediction by ZEFSAII (Michael W. Deem and Ramdas Pophale) SiO2 
 PCOD9399476
Probable space group: P M M A
;
_chemical_formula_sum "Si O2"
_cell_formula_units_Z 64
_cell_length_a 9.159431
_cell_length_b 20.286322
_cell_length_c 20.128353
_cell_angle_alpha 90.000000
_cell_angle_beta 90.000000
_cell_angle_gamma 90.000000
_cell_volume 3740.072753
_symmetry_space_group_name_H-M "P M M A"
_symmetry_group_IT_number 51
_symmetry_cell_setting 'orthorhombic'
loop_
_space_group_symop_operation_xyz
x,y,z
1/2-x,-y,z
1/2+x,-y,-z
-x,y,-z
-x,-y,-z
1/2+x,y,-z
1/2-x,y,z
x,-y,z
loop_
_atom_site_type_symbol
_atom_site_label
_atom_site_fract_x
_atom_site_fract_y
_atom_site_fract_z
Si Si1 0.417071 0.736415 0.066063
Si Si2 0.426023 0.315683 0.655376
Si Si3 0.421951 0.892638 0.797666
Si Si4 0.426054 0.198525 0.428138
Si Si5 0.921841 0.421085 0.569608
Si Si6 0.921305 0.265639 0.198995
Si Si7 0.418729 0.897177 0.067138
Si Si8 0.422360 0.927320 0.337572
O O1 0.250000 0.716431 0.062946
O O2 0.489575 0.713625 0.134389
O O3 0.422196 0.816775 0.066534
O O4 0.500000 0.714614 0.000000
O O5 0.250000 0.314099 0.647313
O O6 0.501810 0.258119 0.612665
O O7 0.494374 0.382818 0.627533
O O8 0.459940 0.301531 0.732545
O O9 0.250000 0.906136 0.802117
O O10 0.442227 0.813207 0.792348
O O11 0.501077 0.916343 0.864770
O O12 0.489955 0.921213 0.730818
O O13 0.500000 0.196219 0.500000
O O14 0.250000 0.206388 0.432877
O O15 0.458271 0.131394 0.387768
O O16 0.750000 0.403401 0.567511
O O17 0.932608 0.500000 0.577240
O O18 0.000000 0.403160 0.500000
O O19 0.750000 0.275766 0.186071
O O20 0.250000 0.917463 0.067039
O O21 0.500000 0.918953 0.000000
O O22 0.250000 0.921390 0.321808
O O23 0.447794 0.000000 0.366787
#
# Coordination Sequence:
#
# PCOD9399476 Si02
#       8
#     8   8   8   8   8   8   8   8
#     4   9  16  25  40  63  95 133 170 207 250 300
#     4  11  21  35  55  80 110 141 175 215 259 306
#     4  10  18  31  50  72  98 128 165 208 255 308
#     4  11  23  38  57  78 103 132 167 211 261 314
#     4  10  21  37  56  79 108 143 181 218 257 305
#     4   9  18  30  46  70 101 133 167 210 255 301
#     4   9  16  26  42  67  96 128 164 203 249 300
#     4  10  22  39  56  74  97 128 167 212 262 316
#
# _framework density 17.111965999999999
#
# number of rings (size 3 to 8) (size 9 to 14) (size 15 to 20)
#    0.000    2.125    1.250    2.625    0.000    6.250 
#    0.000    0.000    0.000    0.375    0.000    0.000 
#    0.000    0.500    0.000    1.625    0.000    2.375 
#
# Total GULP energy -357292.582514 kJ/mol
# GULP energy per Si atom -5582.696602 kJ/mol
# Density = 1.707302 g / cm^3
# Si number density = 17.111966 Si / 1000 Ang^3
#
#
#
# Elastic Constant Matrix: (Units=GPa)
#
#
# Indices 1 2 3 4 5 6 
#
# 1 95.0368 37.4237 82.1112 0.0000 0.0000 0.0000
# 2 37.4237 39.5989 39.9408 0.0000 0.0000 0.0000
# 3 82.1112 39.9408 149.5220 0.0000 0.0000 0.0000
# 4 0.0000 0.0000 0.0000 95.3046 0.0000 0.0000
# 5 0.0000 0.0000 0.0000 0.0000 34.8083 0.0000
# 6 0.0000 0.0000 0.0000 0.0000 0.0000 -45.7875
#
#
#
# Elastic Compliance Matrix: (Units=1/GPa)
#
#
# Indices 1 2 3 4 5 6 
#
# 1 0.024009 -0.012855 -0.009751 0.000000 0.000000 0.000000
# 2 -0.012855 0.041449 -0.004013 0.000000 0.000000 0.000000
# 3 -0.009751 -0.004013 0.013115 0.000000 0.000000 0.000000
# 4 0.000000 0.000000 0.000000 0.010493 0.000000 0.000000
# 5 0.000000 0.000000 0.000000 0.000000 0.028729 0.000000
# 6 0.000000 0.000000 0.000000 0.000000 0.000000 -0.021840
#
#
# Mechanical properties :
#
#
# Convention : Reuss Voigt Hill
#
# Bulk Modulus (GPa) = 39.46973 67.01213 53.24093
# Shear Modulus (GPa) = 31.71845 25.17722 28.44784
#
# Velocity S-wave (km/s) = 4.31000 3.83994 4.08174
# Velocity P-wave (km/s) = 6.91981 7.67504 7.30719
#
# Compressibility (1/GPa) = 0.02533587
#
# Stress axis : x y z
#
# Youngs Moduli (GPa) = 41.65100 24.12578 76.25099
#
# Poissons Ratio (x) = 0.31014 0.74351
# Poissons Ratio (y) = 0.53543 0.30596
# Poissons Ratio (z) = 0.40613 0.09681
#
# Static dielectric constant tensor:
#      x y z
#    x 1.572610 0.000000 0.000000 
#    y 0.000000 1.585930 0.000000 
#    z 0.000000 0.000000 1.556480 
# 
# From -- ./inp_files/28386.got.cif
#   From: 2010.05.17/outbox.cif.g08.bks.cpg/sg51_15_cif.got.tgz:28386.got - 2010.06.03 11:52:47.
