data_PCOD9399920
_publ_section_title
;
Structure prediction by ZEFSAII (Michael W. Deem and Ramdas Pophale) SiO2 
 PCOD9399920
Probable space group: P M M A
;
_chemical_formula_sum "Si O2"
_cell_formula_units_Z 64
_cell_length_a 8.540770
_cell_length_b 15.946544
_cell_length_c 24.443475
_cell_angle_alpha 90.000000
_cell_angle_beta 90.000000
_cell_angle_gamma 90.000000
_cell_volume 3329.097767
_symmetry_space_group_name_H-M "P M M A"
_symmetry_group_IT_number 51
_symmetry_cell_setting 'orthorhombic'
loop_
_space_group_symop_operation_xyz
x,y,z
1/2-x,-y,z
1/2+x,-y,-z
-x,y,-z
-x,-y,-z
1/2+x,y,-z
1/2-x,y,z
x,-y,z
loop_
_atom_site_type_symbol
_atom_site_label
_atom_site_fract_x
_atom_site_fract_y
_atom_site_fract_z
Si Si1 0.063125 0.906518 0.367664
Si Si2 0.440016 0.654173 0.749892
Si Si3 0.562637 0.247070 0.438696
Si Si4 0.441271 0.593217 0.631260
Si Si5 0.439701 0.405886 0.868887
Si Si6 0.436050 0.749762 0.061423
Si Si7 0.939193 0.093917 0.130467
Si Si8 0.938848 0.149232 0.251967
O O1 0.250000 0.901632 0.372529
O O2 0.989068 0.833342 0.403819
O O3 0.015390 0.892247 0.304681
O O4 0.011908 0.000000 0.384611
O O5 0.250000 0.649890 0.749852
O O6 0.492581 0.611743 0.693579
O O7 0.491594 0.611912 0.806338
O O8 0.481429 0.752338 0.749597
O O9 0.500000 0.243010 0.500000
O O10 0.750000 0.249340 0.439816
O O11 0.506458 0.331435 0.407778
O O12 0.250000 0.594545 0.631464
O O13 0.490641 0.500000 0.614286
O O14 0.250000 0.401954 0.869647
O O15 0.486654 0.500000 0.885289
O O16 0.502427 0.332537 0.907190
O O17 0.250000 0.747931 0.060348
O O18 0.492109 0.832170 0.093963
O O19 0.500000 0.751505 0.000000
O O20 0.750000 0.099374 0.127669
O O21 0.982390 0.108836 0.193991
O O22 0.986350 0.000000 0.113560
O O23 0.750000 0.143432 0.257688
#
# Coordination Sequence:
#
# PCOD9399920 Si02
#       8
#     8   8   8   8   8   8   8   8
#     4  11  24  40  59  86 120 156 195 242 294 349
#     4   9  15  29  57  91 122 151 188 233 285 345
#     4  11  23  40  61  85 113 153 198 246 297 349
#     4   9  17  31  55  88 120 151 190 233 280 338
#     4  10  20  37  64  94 123 156 196 245 299 356
#     4  12  26  43  63  85 117 159 203 254 302 356
#     4  10  21  39  64  92 123 158 198 245 296 356
#     4  10  18  34  62  92 122 157 195 235 286 349
#
# _framework density 19.224429000000001
#
# number of rings (size 3 to 8) (size 9 to 14) (size 15 to 20)
#    0.000    1.750    2.500    2.625    0.000    5.000 
#    0.000    0.000    0.000    1.125    0.000    0.000 
#    0.000    0.000    0.000    0.000    0.000    0.000 
#
# Total GULP energy -357556.983187 kJ/mol
# GULP energy per Si atom -5586.827862 kJ/mol
# Density = 1.918067 g / cm^3
# Si number density = 19.224429 Si / 1000 Ang^3
#
#
#
# Elastic Constant Matrix: (Units=GPa)
#
#
# Indices 1 2 3 4 5 6 
#
# 1 34.3070 44.8564 35.1185 0.0000 0.0000 0.0000
# 2 44.8564 198.7626 94.0889 0.0000 0.0000 0.0000
# 3 35.1185 94.0889 152.7075 0.0000 0.0000 0.0000
# 4 0.0000 0.0000 0.0000 -20.0979 0.0000 0.0000
# 5 0.0000 0.0000 0.0000 0.0000 26.2609 0.0000
# 6 0.0000 0.0000 0.0000 0.0000 0.0000 -9.7798
#
#
#
# Elastic Compliance Matrix: (Units=1/GPa)
#
#
# Indices 1 2 3 4 5 6 
#
# 1 0.044640 -0.007362 -0.005730 0.000000 0.000000 0.000000
# 2 -0.007362 0.008317 -0.003431 0.000000 0.000000 0.000000
# 3 -0.005730 -0.003431 0.009980 0.000000 0.000000 0.000000
# 4 0.000000 0.000000 0.000000 -0.049756 0.000000 0.000000
# 5 0.000000 0.000000 0.000000 0.000000 0.038079 0.000000
# 6 0.000000 0.000000 0.000000 0.000000 0.000000 -0.102252
#
#
# Mechanical properties :
#
#
# Convention : Reuss Voigt Hill
#
# Bulk Modulus (GPa) = 33.45523 81.54497 57.50010
# Shear Modulus (GPa) = -626.41451 13.39085 -306.51183
#
# Velocity S-wave (km/s) = -18.07070 2.64209 -12.64060
# Velocity P-wave (km/s) = 20.44408 7.19840 13.53040
#
# Compressibility (1/GPa) = 0.02989070
#
# Stress axis : x y z
#
# Youngs Moduli (GPa) = 22.40156 120.23851 100.19671
#
# Poissons Ratio (x) = 0.88517 0.57413
# Poissons Ratio (y) = 0.16492 0.34380
# Poissons Ratio (z) = 0.12836 0.41257
#
# Static dielectric constant tensor:
#      x y z
#    x 1.657290 0.000000 0.000000 
#    y 0.000000 1.669820 0.000000 
#    z 0.000000 0.000000 1.638440 
# 
# From -- ./inp_files/34927.got.cif
#   From: 2010.05.17/outbox.cif.g08.bks.cpg/sg51_18_cif.got.tgz:34927.got - 2010.06.03 11:52:47.
