data_PCOD9399606
_publ_section_title
;
Structure prediction by ZEFSAII (Michael W. Deem and Ramdas Pophale) SiO2 
 PCOD9399606
Probable space group: P M M A
;
_chemical_formula_sum "Si O2"
_cell_formula_units_Z 64
_cell_length_a 17.675142
_cell_length_b 15.152754
_cell_length_c 12.704202
_cell_angle_alpha 90.000000
_cell_angle_beta 90.000000
_cell_angle_gamma 90.000000
_cell_volume 3402.529308
_symmetry_space_group_name_H-M "P M M A"
_symmetry_group_IT_number 51
_symmetry_cell_setting 'orthorhombic'
loop_
_space_group_symop_operation_xyz
x,y,z
1/2-x,-y,z
1/2+x,-y,-z
-x,y,-z
-x,-y,-z
1/2+x,y,-z
1/2-x,y,z
x,-y,z
loop_
_atom_site_type_symbol
_atom_site_label
_atom_site_fract_x
_atom_site_fract_y
_atom_site_fract_z
Si Si1 0.831082 0.602201 0.909593
Si Si2 0.061170 0.792972 0.323319
Si Si3 0.089322 0.097332 0.703398
Si Si4 0.958450 0.604493 0.740909
Si Si5 0.568017 0.335233 0.084318
Si Si6 0.163281 0.103760 0.483888
Si Si7 0.839831 0.156449 0.087709
Si Si8 0.840197 0.102777 0.845583
O O1 0.750000 0.649206 0.905469
O O2 0.821134 0.500000 0.888475
O O3 0.889982 0.628126 0.820812
O O4 0.869322 0.609234 0.022761
O O5 0.050255 0.687335 0.337392
O O6 0.103738 0.837125 0.421406
O O7 0.111077 0.828918 0.223671
O O8 0.978407 0.833526 0.304933
O O9 0.147410 0.112569 0.607978
O O10 0.132017 0.098970 0.814504
O O11 0.055282 0.000000 0.687206
O O12 0.954390 0.500000 0.710002
O O13 0.033114 0.620544 0.812279
O O14 0.609545 0.243421 0.101323
O O15 0.500000 0.324093 0.000000
O O16 0.250000 0.127548 0.458580
O O17 0.153105 0.000000 0.456563
O O18 0.750000 0.173044 0.096231
O O19 0.853321 0.118697 0.970373
O O20 0.750000 0.114264 0.826107
O O21 0.859005 0.000000 0.820811
#
# Coordination Sequence:
#
# PCOD9399606 Si02
#       8
#     8   8   8   8   8   8   8   8
#     4   9  17  29  48  75 106 145 194 244 289 334
#     4  12  22  37  60  89 116 149 198 243 293 343
#     4  11  23  39  60  87 118 152 192 239 283 340
#     4  10  21  36  54  78 114 150 188 241 300 349
#     4  10  18  32  50  75 109 150 199 238 283 329
#     4  10  22  41  65  90 116 148 188 237 292 345
#     4  11  22  35  54  83 120 163 198 231 278 342
#     4  10  21  35  53  83 126 168 199 233 285 350
#
# _framework density 18.809536999999999
#
# number of rings (size 3 to 8) (size 9 to 14) (size 15 to 20)
#    0.000    1.625    1.250    4.875    0.000    6.750 
#    0.000    1.250    0.000    1.500    0.000    0.000 
#    0.000    0.000    0.000    0.000    0.000    0.000 
#
# Total GULP energy -356781.145138 kJ/mol
# GULP energy per Si atom -5574.705393 kJ/mol
# Density = 1.876673 g / cm^3
# Si number density = 18.809537 Si / 1000 Ang^3
#
#
#
# Elastic Constant Matrix: (Units=GPa)
#
#
# Indices 1 2 3 4 5 6 
#
# 1 38.4879 3.9217 -5.0944 0.0000 0.0000 0.0000
# 2 3.9217 99.8057 9.3204 0.0000 0.0000 0.0000
# 3 -5.0944 9.3204 54.7615 0.0000 0.0000 0.0000
# 4 0.0000 0.0000 0.0000 -15.9020 0.0000 0.0000
# 5 0.0000 0.0000 0.0000 0.0000 13.1345 0.0000
# 6 0.0000 0.0000 0.0000 0.0000 0.0000 22.5114
#
#
#
# Elastic Compliance Matrix: (Units=1/GPa)
#
#
# Indices 1 2 3 4 5 6 
#
# 1 0.026469 -0.001290 0.002682 0.000000 0.000000 0.000000
# 2 -0.001290 0.010244 -0.001864 0.000000 0.000000 0.000000
# 3 0.002682 -0.001864 0.018828 0.000000 0.000000 0.000000
# 4 0.000000 0.000000 0.000000 -0.062885 0.000000 0.000000
# 5 0.000000 0.000000 0.000000 0.000000 0.076135 0.000000
# 6 0.000000 0.000000 0.000000 0.000000 0.000000 0.044422
#
#
# Mechanical properties :
#
#
# Convention : Reuss Voigt Hill
#
# Bulk Modulus (GPa) = 18.31624 23.26116 20.78870
# Shear Modulus (GPa) = 37.77711 16.27597 27.02654
#
# Velocity S-wave (km/s) = 4.48638 2.94480 3.79470
# Velocity P-wave (km/s) = 6.04944 4.89448 5.50235
#
# Compressibility (1/GPa) = 0.05459637
#
# Stress axis : x y z
#
# Youngs Moduli (GPa) = 37.78053 97.61612 53.11322
#
# Poissons Ratio (x) = 0.12597 -0.14245
# Poissons Ratio (y) = 0.04876 0.09898
# Poissons Ratio (z) = -0.10133 0.18192
#
# Static dielectric constant tensor:
#      x y z
#    x 1.571740 0.000000 0.000000 
#    y 0.000000 1.732550 0.000000 
#    z 0.000000 0.000000 1.666010 
# 
# From -- ./inp_files/17608.got.cif
#   From: 2010.05.17/outbox.cif.g08.bks.cpg/sg51_9_cif.got.tgz:17608.got - 2010.06.03 11:52:47.
