data_PCOD9399403
_publ_section_title
;
Structure prediction by ZEFSAII (Michael W. Deem and Ramdas Pophale) SiO2 
 PCOD9399403
Probable space group: P M M A
;
_chemical_formula_sum "Si O2"
_cell_formula_units_Z 44
_cell_length_a 15.598027
_cell_length_b 13.053155
_cell_length_c 11.300587
_cell_angle_alpha 90.000000
_cell_angle_beta 90.000000
_cell_angle_gamma 90.000000
_cell_volume 2300.838660
_symmetry_space_group_name_H-M "P M M A"
_symmetry_group_IT_number 51
_symmetry_cell_setting 'orthorhombic'
loop_
_space_group_symop_operation_xyz
x,y,z
1/2-x,-y,z
1/2+x,-y,-z
-x,y,-z
-x,-y,-z
1/2+x,y,-z
1/2-x,y,z
x,-y,z
loop_
_atom_site_type_symbol
_atom_site_label
_atom_site_fract_x
_atom_site_fract_y
_atom_site_fract_z
Si Si1 0.102983 0.796172 0.258408
Si Si2 0.250000 0.127124 0.085206
Si Si3 0.250000 0.379068 0.630969
Si Si4 0.594566 0.619111 0.554685
Si Si5 0.250000 0.805521 0.818025
Si Si6 0.430446 0.880429 0.727539
Si Si7 0.653482 0.881656 0.499915
O O1 0.168652 0.829816 0.158128
O O2 0.111907 0.689348 0.330021
O O3 0.122105 0.872684 0.367472
O O4 0.005865 0.813681 0.217289
O O5 0.250000 0.000000 0.077745
O O6 0.250000 0.183981 0.959133
O O7 0.250000 0.500000 0.666854
O O8 0.166590 0.363712 0.546659
O O9 0.250000 0.302005 0.743913
O O10 0.500000 0.636569 0.500000
O O11 0.599897 0.500000 0.588598
O O12 0.336614 0.863246 0.780050
O O13 0.416623 0.843537 0.592269
O O14 0.453913 0.000000 0.735401
O O15 0.750000 0.838397 0.489074
O O16 0.660842 0.000000 0.467758
#
# Coordination Sequence:
#
# PCOD9399403 Si02
#       7
#     8   4   4   8   4   8   8
#     4  12  22  37  59  86 120 159 194 238 301 363
#     4  12  27  43  59  82 119 166 210 254 297 346
#     4  10  21  39  65  92 117 152 200 250 301 360
#     4  10  21  38  63  96 127 152 186 240 306 371
#     4  12  24  42  60  80 114 162 212 260 306 340
#     4  11  22  36  58  86 116 154 201 248 297 362
#     4  10  18  30  52  82 114 145 178 227 295 363
#
# _framework density 19.123460999999999
#
# number of rings (size 3 to 8) (size 9 to 14) (size 15 to 20)
#    0.000    1.091    1.818    6.818    0.000    2.182 
#    0.000    2.727    0.000    0.000    0.000    6.364 
#    0.000    0.000    0.000    0.000    0.000    0.000 
#
# Total GULP energy -245467.244994 kJ/mol
# GULP energy per Si atom -5578.801023 kJ/mol
# Density = 1.907994 g / cm^3
# Si number density = 19.123461 Si / 1000 Ang^3
#
#
#
# Elastic Constant Matrix: (Units=GPa)
#
#
# Indices 1 2 3 4 5 6 
#
# 1 136.1958 39.6523 50.3176 0.0000 0.0000 0.0000
# 2 39.6523 151.1579 39.6411 0.0000 0.0000 0.0000
# 3 50.3176 39.6411 117.9847 0.0000 0.0000 0.0000
# 4 0.0000 0.0000 0.0000 4.8308 0.0000 0.0000
# 5 0.0000 0.0000 0.0000 0.0000 -18.1026 0.0000
# 6 0.0000 0.0000 0.0000 0.0000 0.0000 28.0897
#
#
#
# Elastic Compliance Matrix: (Units=1/GPa)
#
#
# Indices 1 2 3 4 5 6 
#
# 1 0.009010 -0.001487 -0.003343 0.000000 0.000000 0.000000
# 2 -0.001487 0.007500 -0.001886 0.000000 0.000000 0.000000
# 3 -0.003343 -0.001886 0.010535 0.000000 0.000000 0.000000
# 4 0.000000 0.000000 0.000000 0.207006 0.000000 0.000000
# 5 0.000000 0.000000 0.000000 0.000000 -0.055241 0.000000
# 6 0.000000 0.000000 0.000000 0.000000 0.000000 0.035600
#
#
# Mechanical properties :
#
#
# Convention : Reuss Voigt Hill
#
# Bulk Modulus (GPa) = 73.45428 73.84006 73.64717
# Shear Modulus (GPa) = 21.51643 21.34541 21.43092
#
# Velocity S-wave (km/s) = 3.35794 3.34457 3.35126
# Velocity P-wave (km/s) = 7.31630 7.32195 7.31913
#
# Compressibility (1/GPa) = 0.01361391
#
# Stress axis : x y z
#
# Youngs Moduli (GPa) = 110.98296 133.32966 94.92123
#
# Poissons Ratio (x) = 0.19825 0.31733
# Poissons Ratio (y) = 0.16502 0.17901
# Poissons Ratio (z) = 0.37103 0.25144
#
# Static dielectric constant tensor:
#      x y z
#    x 1.752570 0.000000 0.000000 
#    y 0.000000 1.726200 0.000000 
#    z 0.000000 0.000000 1.664130 
# 
# From -- ./inp_files/16367.got.cif
#   From: 2010.05.17/outbox.cif.g08.bks.cpg/sg51_9_cif.got.tgz:16367.got - 2010.06.03 11:52:47.
