data_PCOD9399857
_publ_section_title
;
Structure prediction by ZEFSAII (Michael W. Deem and Ramdas Pophale) SiO2 
 PCOD9399857
Probable space group: P M M A
;
_chemical_formula_sum "Si O2"
_cell_formula_units_Z 56
_cell_length_a 15.834009
_cell_length_b 8.719967
_cell_length_c 21.907195
_cell_angle_alpha 90.000000
_cell_angle_beta 90.000000
_cell_angle_gamma 90.000000
_cell_volume 3024.771016
_symmetry_space_group_name_H-M "P M M A"
_symmetry_group_IT_number 51
_symmetry_cell_setting 'orthorhombic'
loop_
_space_group_symop_operation_xyz
x,y,z
1/2-x,-y,z
1/2+x,-y,-z
-x,y,-z
-x,-y,-z
1/2+x,y,-z
1/2-x,y,z
x,-y,z
loop_
_atom_site_type_symbol
_atom_site_label
_atom_site_fract_x
_atom_site_fract_y
_atom_site_fract_z
Si Si1 0.653459 0.315080 0.427038
Si Si2 0.846630 0.684917 0.569179
Si Si3 0.998431 0.816320 0.648531
Si Si4 0.843665 0.186951 0.131825
Si Si5 0.898866 0.181962 0.997045
Si Si6 0.845036 0.682967 0.868998
Si Si7 0.003643 0.814571 0.210717
O O1 0.750000 0.270404 0.411467
O O2 0.648476 0.500000 0.423456
O O3 0.638478 0.273312 0.498129
O O4 0.582648 0.243449 0.384500
O O5 0.750000 0.729020 0.584749
O O6 0.851813 0.500000 0.572874
O O7 0.916952 0.756459 0.612164
O O8 0.995850 0.764864 0.718999
O O9 0.998673 0.000000 0.647469
O O10 0.750000 0.235876 0.150914
O O11 0.919188 0.238566 0.175496
O O12 0.845332 0.000000 0.132032
O O13 0.861269 0.232977 0.061863
O O14 0.862944 0.267864 0.938613
O O15 0.881554 0.000000 0.989743
O O16 0.000000 0.200736 0.000000
O O17 0.750000 0.731661 0.852290
O O18 0.850426 0.500000 0.864242
O O19 0.915340 0.757042 0.826047
O O20 0.003879 0.000000 0.209286
#
# Coordination Sequence:
#
# PCOD9399857 Si02
#       7
#     8   8   8   8   8   8   8
#     4   9  19  37  60  84 111 147 189 227 268 328
#     4   9  19  37  60  83 109 146 189 230 273 328
#     4  11  23  35  54  84 116 148 183 230 289 334
#     4   9  17  32  56  81 103 135 181 224 262 316
#     4  10  18  33  60  86 108 138 178 223 274 331
#     4  11  24  39  56  81 112 145 182 229 284 330
#     4  10  22  40  56  76 109 149 189 227 267 323
#
# _framework density 18.513798999999999
#
# number of rings (size 3 to 8) (size 9 to 14) (size 15 to 20)
#    0.000    2.143    1.429    2.571    0.000    7.143 
#    0.000    5.714    0.000    0.429    0.000    0.000 
#    0.000    0.000    0.000    0.000    0.000    0.000 
#
# Total GULP energy -312695.758479 kJ/mol
# GULP energy per Si atom -5583.852830 kJ/mol
# Density = 1.847166 g / cm^3
# Si number density = 18.513799 Si / 1000 Ang^3
#
#
#
# Elastic Constant Matrix: (Units=GPa)
#
#
# Indices 1 2 3 4 5 6 
#
# 1 175.2836 34.9870 114.9149 0.0000 0.0000 0.0000
# 2 34.9870 13.0563 31.5782 0.0000 0.0000 0.0000
# 3 114.9149 31.5782 149.3179 0.0000 0.0000 0.0000
# 4 0.0000 0.0000 0.0000 1236.2651 0.0000 0.0000
# 5 0.0000 0.0000 0.0000 0.0000 -5.9972 0.0000
# 6 0.0000 0.0000 0.0000 0.0000 0.0000 16.7948
#
#
#
# Elastic Compliance Matrix: (Units=1/GPa)
#
#
# Indices 1 2 3 4 5 6 
#
# 1 0.014504 -0.024297 -0.006024 0.000000 0.000000 0.000000
# 2 -0.024297 0.197491 -0.023067 0.000000 0.000000 0.000000
# 3 -0.006024 -0.023067 0.016211 0.000000 0.000000 0.000000
# 4 0.000000 0.000000 0.000000 0.000809 0.000000 0.000000
# 5 0.000000 0.000000 0.000000 0.000000 -0.166745 0.000000
# 6 0.000000 0.000000 0.000000 0.000000 0.000000 0.059542
#
#
# Mechanical properties :
#
#
# Convention : Reuss Voigt Hill
#
# Bulk Modulus (GPa) = 8.23518 77.84646 43.04082
# Shear Modulus (GPa) = 18.58288 259.82439 139.20364
#
# Velocity S-wave (km/s) = 3.17161 11.85941 8.68057
# Velocity P-wave (km/s) = 4.22728 15.15475 11.12512
#
# Compressibility (1/GPa) = 0.12143033
#
# Stress axis : x y z
#
# Youngs Moduli (GPa) = 68.94663 5.06353 61.68519
#
# Poissons Ratio (x) = 0.12303 0.37158
# Poissons Ratio (y) = 1.67520 1.42289
# Poissons Ratio (z) = 0.41532 0.11680
#
# Static dielectric constant tensor:
#      x y z
#    x 1.631490 0.000000 0.000000 
#    y 0.000000 1.628770 0.000000 
#    z 0.000000 0.000000 1.614100 
# 
# From -- ./inp_files/33453.got.cif
#   From: 2010.05.17/outbox.cif.g08.bks.cpg/sg51_17_cif.got.tgz:33453.got - 2010.06.03 11:52:47.
