data_PCOD9399262
_publ_section_title
;
Structure prediction by ZEFSAII (Michael W. Deem and Ramdas Pophale) SiO2 
 PCOD9399262
Probable space group: P M M A
;
_chemical_formula_sum "Si O2"
_cell_formula_units_Z 64
_cell_length_a 26.052749
_cell_length_b 8.897394
_cell_length_c 17.623204
_cell_angle_alpha 90.000000
_cell_angle_beta 90.000000
_cell_angle_gamma 90.000000
_cell_volume 4085.086402
_symmetry_space_group_name_H-M "P M M A"
_symmetry_group_IT_number 51
_symmetry_cell_setting 'orthorhombic'
loop_
_space_group_symop_operation_xyz
x,y,z
1/2-x,-y,z
1/2+x,-y,-z
-x,y,-z
-x,-y,-z
1/2+x,y,-z
1/2-x,y,z
x,-y,z
loop_
_atom_site_type_symbol
_atom_site_label
_atom_site_fract_x
_atom_site_fract_y
_atom_site_fract_z
Si Si1 0.562296 0.326504 0.494306
Si Si2 0.897783 0.318955 0.820279
Si Si3 0.309466 0.820474 0.082236
Si Si4 0.056296 0.681709 0.339383
Si Si5 0.097788 0.318405 0.812052
Si Si6 0.442708 0.821599 0.661708
Si Si7 0.809169 0.319259 0.080777
Si Si8 0.999472 0.317189 0.912852
O O1 0.500000 0.323535 0.500000
O O2 0.577442 0.500000 0.482224
O O3 0.578932 0.275568 0.578310
O O4 0.576646 0.230484 0.421191
O O5 0.893665 0.500000 0.825714
O O6 0.847741 0.245390 0.855768
O O7 0.909178 0.280321 0.732859
O O8 0.947775 0.272141 0.869192
O O9 0.250000 0.778635 0.096777
O O10 0.313048 0.000000 0.080083
O O11 0.323203 0.754306 0.999592
O O12 0.049040 0.500000 0.340594
O O13 0.000269 0.754465 0.329719
O O14 0.095975 0.500000 0.804378
O O15 0.090381 0.245462 0.730191
O O16 0.150269 0.276910 0.854711
O O17 0.049736 0.272368 0.865435
O O18 0.444774 0.000000 0.665839
O O19 0.750000 0.279332 0.098419
O O20 0.811921 0.500000 0.071801
O O21 0.999828 0.500000 0.914318
O O22 0.000000 0.265122 0.000000
#
# Coordination Sequence:
#
# PCOD9399262 Si02
#       8
#     8   8   8   8   8   8   8   8
#     4   8  15  28  46  64  88 123 160 191 229 278
#     4  10  18  30  49  70  93 121 160 199 231 276
#     4  10  21  35  49  67  95 128 158 193 241 286
#     4   9  17  31  48  67  92 125 159 193 235 281
#     4  10  18  31  49  67  95 127 155 193 239 282
#     4  11  20  28  42  67  99 128 158 191 226 276
#     4   9  18  33  54  75  90 115 162 209 241 272
#     4   9  16  26  43  66  90 120 153 183 227 281
#
# _framework density 15.666741999999999
#
# number of rings (size 3 to 8) (size 9 to 14) (size 15 to 20)
#    0.000    2.500    1.250    3.000    0.000    6.000 
#    0.000    0.000    0.000    1.500    0.000    0.875 
#    0.000    3.000    0.000    0.000    0.000    0.000 
#
# Total GULP energy -356790.341141 kJ/mol
# GULP energy per Si atom -5574.849080 kJ/mol
# Density = 1.563108 g / cm^3
# Si number density = 15.666742 Si / 1000 Ang^3
#
#
#
# Elastic Constant Matrix: (Units=GPa)
#
#
# Indices 1 2 3 4 5 6 
#
# 1 68.4777 29.2433 70.4211 0.0000 0.0000 0.0000
# 2 29.2433 28.0272 47.3704 0.0000 0.0000 0.0000
# 3 70.4211 47.3704 171.4951 0.0000 0.0000 0.0000
# 4 0.0000 0.0000 0.0000 1.3798 0.0000 0.0000
# 5 0.0000 0.0000 0.0000 0.0000 18.8958 0.0000
# 6 0.0000 0.0000 0.0000 0.0000 0.0000 13.1969
#
#
#
# Elastic Compliance Matrix: (Units=1/GPa)
#
#
# Indices 1 2 3 4 5 6 
#
# 1 0.030171 -0.019771 -0.006928 0.000000 0.000000 0.000000
# 2 -0.019771 0.079878 -0.013946 0.000000 0.000000 0.000000
# 3 -0.006928 -0.013946 0.012528 0.000000 0.000000 0.000000
# 4 0.000000 0.000000 0.000000 0.724724 0.000000 0.000000
# 5 0.000000 0.000000 0.000000 0.000000 0.052922 0.000000
# 6 0.000000 0.000000 0.000000 0.000000 0.000000 0.075776
#
#
# Mechanical properties :
#
#
# Convention : Reuss Voigt Hill
#
# Bulk Modulus (GPa) = 24.21969 62.45218 43.33594
# Shear Modulus (GPa) = 4.66832 14.75885 9.71358
#
# Velocity S-wave (km/s) = 1.72807 3.07261 2.49271
# Velocity P-wave (km/s) = 4.41299 7.24827 6.00049
#
# Compressibility (1/GPa) = 0.04128872
#
# Stress axis : x y z
#
# Youngs Moduli (GPa) = 33.14441 12.51907 79.82120
#
# Poissons Ratio (x) = 0.24751 0.55301
# Poissons Ratio (y) = 0.65528 1.11315
# Poissons Ratio (z) = 0.22963 0.17459
#
# Static dielectric constant tensor:
#      x y z
#    x 1.502720 0.000000 0.000000 
#    y 0.000000 1.519190 0.000000 
#    z 0.000000 0.000000 1.536300 
# 
# From -- ./inp_files/30872.got.cif
#   From: 2010.05.17/outbox.cif.g08.bks.cpg/sg51_16_cif.got.tgz:30872.got - 2010.06.03 11:52:47.
