data_PCOD9399853
_publ_section_title
;
Structure prediction by ZEFSAII (Michael W. Deem and Ramdas Pophale) SiO2 
 PCOD9399853
Probable space group: P M M A
;
_chemical_formula_sum "Si O2"
_cell_formula_units_Z 64
_cell_length_a 16.495881
_cell_length_b 15.052563
_cell_length_c 12.652241
_cell_angle_alpha 90.000000
_cell_angle_beta 90.000000
_cell_angle_gamma 90.000000
_cell_volume 3141.618345
_symmetry_space_group_name_H-M "P M M A"
_symmetry_group_IT_number 51
_symmetry_cell_setting 'orthorhombic'
loop_
_space_group_symop_operation_xyz
x,y,z
1/2-x,-y,z
1/2+x,-y,-z
-x,y,-z
-x,-y,-z
1/2+x,y,-z
1/2-x,y,z
x,-y,z
loop_
_atom_site_type_symbol
_atom_site_label
_atom_site_fract_x
_atom_site_fract_y
_atom_site_fract_z
Si Si1 0.917103 0.654200 0.732011
Si Si2 0.155650 0.166537 0.201104
Si Si3 0.654177 0.903016 0.566469
Si Si4 0.152930 0.406491 0.059175
Si Si5 0.155321 0.730268 0.892917
Si Si6 0.902509 0.708985 0.505711
Si Si7 0.105349 0.394660 0.703845
Si Si8 0.904716 0.901423 0.022935
O O1 0.907368 0.753680 0.778633
O O2 0.870906 0.598155 0.819360
O O3 0.878542 0.662124 0.615855
O O4 0.008471 0.619670 0.720153
O O5 0.250000 0.199351 0.201047
O O6 0.146296 0.106698 0.305934
O O7 0.138778 0.121757 0.088614
O O8 0.750000 0.902728 0.544220
O O9 0.620319 0.813045 0.513752
O O10 0.620801 0.000000 0.534086
O O11 0.250000 0.404149 0.049772
O O12 0.123621 0.500000 0.012400
O O13 0.120757 0.323530 0.993601
O O14 0.250000 0.747830 0.909566
O O15 0.145303 0.663249 0.796212
O O16 0.113616 0.825528 0.891586
O O17 0.871507 0.653396 0.406068
O O18 0.000000 0.705549 0.500000
O O19 0.123680 0.500000 0.705667
O O20 0.879855 0.000000 0.057200
O O21 0.000000 0.901279 0.000000
#
# Coordination Sequence:
#
# PCOD9399853 Si02
#       8
#     8   8   8   8   8   8   8   8
#     4  10  19  35  59  89 121 147 187 249 305 349
#     4  10  18  33  59  89 123 159 189 229 293 362
#     4   9  18  33  57  90 120 147 187 239 297 360
#     4  10  20  34  55  85 118 150 184 235 303 356
#     4  11  24  41  59  83 119 158 199 245 289 346
#     4   9  21  38  58  85 117 153 196 247 301 349
#     4  11  24  41  61  82 112 162 213 247 290 357
#     4  11  23  38  59  89 122 155 194 239 289 351
#
# _framework density 20.371666999999999
#
# number of rings (size 3 to 8) (size 9 to 14) (size 15 to 20)
#    0.000    1.875    1.250    2.625    0.000    6.250 
#    0.000    1.875    0.000    0.000    0.000    0.000 
#    0.000    0.000    0.000    0.000    0.000    0.000 
#
# Total GULP energy -357013.521753 kJ/mol
# GULP energy per Si atom -5578.336277 kJ/mol
# Density = 2.032530 g / cm^3
# Si number density = 20.371667 Si / 1000 Ang^3
#
#
#
# Elastic Constant Matrix: (Units=GPa)
#
#
# Indices 1 2 3 4 5 6 
#
# 1 17.3187 16.2473 3.6420 0.0000 0.0000 0.0000
# 2 16.2473 156.4934 41.2989 0.0000 0.0000 0.0000
# 3 3.6420 41.2989 84.8170 0.0000 0.0000 0.0000
# 4 0.0000 0.0000 0.0000 17.3660 0.0000 0.0000
# 5 0.0000 0.0000 0.0000 0.0000 15.1990 0.0000
# 6 0.0000 0.0000 0.0000 0.0000 0.0000 20.2216
#
#
#
# Elastic Compliance Matrix: (Units=1/GPa)
#
#
# Indices 1 2 3 4 5 6 
#
# 1 0.063995 -0.006792 0.000559 0.000000 0.000000 0.000000
# 2 -0.006792 0.008053 -0.003630 0.000000 0.000000 0.000000
# 3 0.000559 -0.003630 0.013533 0.000000 0.000000 0.000000
# 4 0.000000 0.000000 0.000000 0.057584 0.000000 0.000000
# 5 0.000000 0.000000 0.000000 0.000000 0.065794 0.000000
# 6 0.000000 0.000000 0.000000 0.000000 0.000000 0.049452
#
#
# Mechanical properties :
#
#
# Convention : Reuss Voigt Hill
#
# Bulk Modulus (GPa) = 15.18436 42.33394 28.75915
# Shear Modulus (GPa) = 16.66182 23.72005 20.19093
#
# Velocity S-wave (km/s) = 2.86298 3.41598 3.15163
# Velocity P-wave (km/s) = 4.28938 6.03195 5.23370
#
# Compressibility (1/GPa) = 0.06585724
#
# Stress axis : x y z
#
# Youngs Moduli (GPa) = 15.62622 124.17752 73.89144
#
# Poissons Ratio (x) = 0.84336 -0.04130
# Poissons Ratio (y) = 0.10613 0.26819
# Poissons Ratio (z) = -0.00873 0.45070
#
# Static dielectric constant tensor:
#      x y z
#    x 1.710740 0.000000 0.000000 
#    y 0.000000 1.768450 0.000000 
#    z 0.000000 0.000000 1.737010 
# 
# From -- ./inp_files/17604.got.cif
#   From: 2010.05.17/outbox.cif.g08.bks.cpg/sg51_9_cif.got.tgz:17604.got - 2010.06.03 11:52:47.
