data_PCOD9399570
_publ_section_title
;
Structure prediction by ZEFSAII (Michael W. Deem and Ramdas Pophale) SiO2 
 PCOD9399570
Probable space group: P M M A
;
_chemical_formula_sum "Si O2"
_cell_formula_units_Z 64
_cell_length_a 29.280983
_cell_length_b 7.442895
_cell_length_c 13.186436
_cell_angle_alpha 90.000000
_cell_angle_beta 90.000000
_cell_angle_gamma 90.000000
_cell_volume 2873.789648
_symmetry_space_group_name_H-M "P M M A"
_symmetry_group_IT_number 51
_symmetry_cell_setting 'orthorhombic'
loop_
_space_group_symop_operation_xyz
x,y,z
1/2-x,-y,z
1/2+x,-y,-z
-x,y,-z
-x,-y,-z
1/2+x,y,-z
1/2-x,y,z
x,-y,z
loop_
_atom_site_type_symbol
_atom_site_label
_atom_site_fract_x
_atom_site_fract_y
_atom_site_fract_z
Si Si1 0.562882 0.216698 0.746262
Si Si2 0.517142 0.784711 0.109289
Si Si3 0.301072 0.280091 0.997802
Si Si4 0.363510 0.707391 0.614838
Si Si5 0.552058 0.782557 0.517895
Si Si6 0.303107 0.719320 0.429491
Si Si7 0.122635 0.715607 0.839773
Si Si8 0.163549 0.289063 0.211223
O O1 0.517498 0.280934 0.803496
O O2 0.566130 0.279416 0.630133
O O3 0.609271 0.269161 0.802512
O O4 0.561119 0.000000 0.742667
O O5 0.570109 0.749982 0.131082
O O6 0.512054 0.000000 0.107524
O O7 0.500000 0.716814 0.000000
O O8 0.250000 0.228380 0.965922
O O9 0.302472 0.500000 0.999076
O O10 0.341097 0.219110 0.922795
O O11 0.311117 0.217168 0.112347
O O12 0.349056 0.500000 0.626452
O O13 0.413965 0.713002 0.567136
O O14 0.331260 0.785880 0.526862
O O15 0.365585 0.786369 0.727334
O O16 0.500000 0.729977 0.500000
O O17 0.554345 0.000000 0.514507
O O18 0.250000 0.764551 0.436984
O O19 0.306978 0.500000 0.429181
O O20 0.322730 0.784748 0.321512
O O21 0.126946 0.500000 0.836145
O O22 0.174905 0.500000 0.215387
#
# Coordination Sequence:
#
# PCOD9399570 Si02
#       8
#     8   8   8   8   8   8   8   8
#     4  10  20  33  51  76 106 138 174 217 267 318
#     4  10  21  37  56  78 105 142 183 219 261 317
#     4   9  18  33  54  80 107 136 173 217 266 319
#     4  10  20  34  51  76 107 137 174 217 261 309
#     4  10  20  34  52  73 100 138 178 214 259 313
#     4   9  17  30  50  76 104 135 174 218 262 309
#     4  10  21  35  53  79 110 141 175 219 267 314
#     4  10  18  31  54  80 105 136 175 219 265 312
#
# _framework density 22.270247000000001
#
# number of rings (size 3 to 8) (size 9 to 14) (size 15 to 20)
#    0.000    2.250    1.250    1.875    0.000    4.500 
#    0.000    2.500    0.000    3.750    0.000    1.750 
#    0.000    0.000    0.000    0.000    0.000    0.000 
#
# Total GULP energy -357630.123854 kJ/mol
# GULP energy per Si atom -5587.970685 kJ/mol
# Density = 2.221956 g / cm^3
# Si number density = 22.270247 Si / 1000 Ang^3
#
#
#
# Elastic Constant Matrix: (Units=GPa)
#
#
# Indices 1 2 3 4 5 6 
#
# 1 150.0238 -13.5679 79.2831 0.0000 0.0000 0.0000
# 2 -13.5679 67.5511 7.2140 0.0000 0.0000 0.0000
# 3 79.2831 7.2140 172.7274 0.0000 0.0000 0.0000
# 4 0.0000 0.0000 0.0000 15.3747 0.0000 0.0000
# 5 0.0000 0.0000 0.0000 0.0000 37.1728 0.0000
# 6 0.0000 0.0000 0.0000 0.0000 0.0000 29.1999
#
#
#
# Elastic Compliance Matrix: (Units=1/GPa)
#
#
# Indices 1 2 3 4 5 6 
#
# 1 0.009141 0.002294 -0.004292 0.000000 0.000000 0.000000
# 2 0.002294 0.015446 -0.001698 0.000000 0.000000 0.000000
# 3 -0.004292 -0.001698 0.007830 0.000000 0.000000 0.000000
# 4 0.000000 0.000000 0.000000 0.065042 0.000000 0.000000
# 5 0.000000 0.000000 0.000000 0.000000 0.026901 0.000000
# 6 0.000000 0.000000 0.000000 0.000000 0.000000 0.034247
#
#
# Mechanical properties :
#
#
# Convention : Reuss Voigt Hill
#
# Bulk Modulus (GPa) = 39.95818 59.57341 49.76579
# Shear Modulus (GPa) = 28.67955 37.50768 33.09361
#
# Velocity S-wave (km/s) = 3.59248 4.10836 3.85905
# Velocity P-wave (km/s) = 5.93205 7.02233 6.50009
#
# Compressibility (1/GPa) = 0.02502617
#
# Stress axis : x y z
#
# Youngs Moduli (GPa) = 109.39570 64.74249 127.70897
#
# Poissons Ratio (x) = -0.14854 0.54808
# Poissons Ratio (y) = -0.25099 0.21688
# Poissons Ratio (z) = 0.46949 0.10995
#
# Static dielectric constant tensor:
#      x y z
#    x 1.767860 0.000000 0.000000 
#    y 0.000000 1.863290 0.000000 
#    z 0.000000 0.000000 1.814120 
# 
# From -- ./inp_files/19498.got.cif
#   From: 2010.05.17/outbox.cif.g08.bks.cpg/sg51_10_cif.got.tgz:19498.got - 2010.06.03 11:52:47.
