data_PCOD9399118
_publ_section_title
;
Structure prediction by ZEFSAII (Michael W. Deem and Ramdas Pophale) SiO2 
 PCOD9399118
Probable space group: P M M A
;
_chemical_formula_sum "Si O2"
_cell_formula_units_Z 64
_cell_length_a 18.759693
_cell_length_b 14.042609
_cell_length_c 14.086685
_cell_angle_alpha 90.000000
_cell_angle_beta 90.000000
_cell_angle_gamma 90.000000
_cell_volume 3710.926339
_symmetry_space_group_name_H-M "P M M A"
_symmetry_group_IT_number 51
_symmetry_cell_setting 'orthorhombic'
loop_
_space_group_symop_operation_xyz
x,y,z
1/2-x,-y,z
1/2+x,-y,-z
-x,y,-z
-x,-y,-z
1/2+x,y,-z
1/2-x,y,z
x,-y,z
loop_
_atom_site_type_symbol
_atom_site_label
_atom_site_fract_x
_atom_site_fract_y
_atom_site_fract_z
Si Si1 0.165452 0.385509 0.320033
Si Si2 0.570960 0.253041 0.545318
Si Si3 0.834416 0.224260 0.031077
Si Si4 0.888125 0.108697 0.205795
Si Si5 0.828502 0.886191 0.840629
Si Si6 0.663288 0.608309 0.898216
Si Si7 0.834219 0.888878 0.418498
Si Si8 0.542789 0.889917 0.707739
O O1 0.250000 0.364502 0.330771
O O2 0.157120 0.500000 0.331800
O O3 0.119071 0.326621 0.395069
O O4 0.144396 0.364011 0.210059
O O5 0.500000 0.299332 0.500000
O O6 0.620349 0.190066 0.474704
O O7 0.538031 0.175906 0.617362
O O8 0.750000 0.234933 0.049420
O O9 0.869082 0.184783 0.126012
O O10 0.843035 0.147690 0.946804
O O11 0.861513 0.320558 0.980507
O O12 0.847652 0.123222 0.305720
O O13 0.971506 0.114376 0.230537
O O14 0.871686 0.000000 0.173445
O O15 0.750000 0.848867 0.813384
O O16 0.889534 0.857434 0.768660
O O17 0.826605 0.000000 0.839023
O O18 0.750000 0.610054 0.899867
O O19 0.640359 0.500000 0.914657
O O20 0.750000 0.879420 0.439404
O O21 0.854978 0.000000 0.440596
O O22 0.553060 0.000000 0.679611
#
# Coordination Sequence:
#
# PCOD9399118 Si02
#       8
#     8   8   8   8   8   8   8   8
#     4   9  19  37  60  84 108 134 170 220 274 327
#     4  12  22  34  55  79 107 140 179 221 276 325
#     4  10  18  29  50  76 102 134 175 220 260 305
#     4  10  20  34  50  71 105 149 187 215 253 304
#     4   9  18  31  47  72 103 131 165 213 265 312
#     4   8  15  30  53  80 106 131 163 208 265 322
#     4  10  21  36  54  77 106 144 190 230 260 305
#     4  10  21  35  51  73 108 146 177 216 265 318
#
# _framework density 17.246368
#
# number of rings (size 3 to 8) (size 9 to 14) (size 15 to 20)
#    0.000    2.250    1.250    3.000    0.000    4.500 
#    0.000    3.125    0.000    1.500    0.000    4.375 
#    0.000    0.000    0.000    0.000    0.000    0.000 
#
# Total GULP energy -356849.720452 kJ/mol
# GULP energy per Si atom -5575.776882 kJ/mol
# Density = 1.720711 g / cm^3
# Si number density = 17.246368 Si / 1000 Ang^3
#
#
#
# Elastic Constant Matrix: (Units=GPa)
#
#
# Indices 1 2 3 4 5 6 
#
# 1 42.0123 29.3840 33.0199 0.0000 0.0000 0.0000
# 2 29.3840 94.1003 57.9721 0.0000 0.0000 0.0000
# 3 33.0199 57.9721 88.1824 0.0000 0.0000 0.0000
# 4 0.0000 0.0000 0.0000 24.4796 0.0000 0.0000
# 5 0.0000 0.0000 0.0000 0.0000 22.4935 0.0000
# 6 0.0000 0.0000 0.0000 0.0000 0.0000 16.5621
#
#
#
# Elastic Compliance Matrix: (Units=1/GPa)
#
#
# Indices 1 2 3 4 5 6 
#
# 1 0.034970 -0.004795 -0.009943 0.000000 0.000000 0.000000
# 2 -0.004795 0.018518 -0.010379 0.000000 0.000000 0.000000
# 3 -0.009943 -0.010379 0.021886 0.000000 0.000000 0.000000
# 4 0.000000 0.000000 0.000000 0.040850 0.000000 0.000000
# 5 0.000000 0.000000 0.000000 0.000000 0.044457 0.000000
# 6 0.000000 0.000000 0.000000 0.000000 0.000000 0.060379
#
#
# Mechanical properties :
#
#
# Convention : Reuss Voigt Hill
#
# Bulk Modulus (GPa) = 39.77269 51.67189 45.72229
# Shear Modulus (GPa) = 17.87795 19.63496 18.75646
#
# Velocity S-wave (km/s) = 3.22315 3.37782 3.30139
# Velocity P-wave (km/s) = 6.07973 6.72599 6.41101
#
# Compressibility (1/GPa) = 0.02514288
#
# Stress axis : x y z
#
# Youngs Moduli (GPa) = 28.59555 54.00124 45.69089
#
# Poissons Ratio (x) = 0.25892 0.45429
# Poissons Ratio (y) = 0.13711 0.47421
# Poissons Ratio (z) = 0.28432 0.56046
#
# Static dielectric constant tensor:
#      x y z
#    x 1.598320 0.000000 0.000000 
#    y 0.000000 1.604240 0.000000 
#    z 0.000000 0.000000 1.576330 
# 
# From -- ./inp_files/17584.got.cif
#   From: 2010.05.17/outbox.cif.g08.bks.cpg/sg51_9_cif.got.tgz:17584.got - 2010.06.03 11:52:47.
