data_PCOD9399506
_publ_section_title
;
Structure prediction by ZEFSAII (Michael W. Deem and Ramdas Pophale) SiO2 
 PCOD9399506
Probable space group: P M M A
;
_chemical_formula_sum "Si O2"
_cell_formula_units_Z 48
_cell_length_a 18.366544
_cell_length_b 17.676788
_cell_length_c 8.994988
_cell_angle_alpha 90.000000
_cell_angle_beta 90.000000
_cell_angle_gamma 90.000000
_cell_volume 2920.326338
_symmetry_space_group_name_H-M "P M M A"
_symmetry_group_IT_number 51
_symmetry_cell_setting 'orthorhombic'
loop_
_space_group_symop_operation_xyz
x,y,z
1/2-x,-y,z
1/2+x,-y,-z
-x,y,-z
-x,-y,-z
1/2+x,y,-z
1/2-x,y,z
x,-y,z
loop_
_atom_site_type_symbol
_atom_site_label
_atom_site_fract_x
_atom_site_fract_y
_atom_site_fract_z
Si Si1 0.044650 0.087809 0.346492
Si Si2 0.965624 0.792382 0.161793
Si Si3 0.419729 0.585201 0.071512
Si Si4 0.166052 0.267019 0.984109
Si Si5 0.951834 0.669561 0.637313
Si Si6 0.335021 0.212557 0.327479
O O1 0.118662 0.136737 0.355815
O O2 0.000000 0.094146 0.500000
O O3 0.994162 0.128214 0.223236
O O4 0.058441 0.000000 0.315028
O O5 0.880580 0.781213 0.132980
O O6 0.997794 0.729779 0.273127
O O7 0.000000 0.778178 0.000000
O O8 0.391888 0.500000 0.051855
O O9 0.428654 0.606215 0.245099
O O10 0.500000 0.589439 0.000000
O O11 0.370126 0.650170 0.999442
O O12 0.250000 0.272048 0.944217
O O13 0.160627 0.230561 0.149803
O O14 0.880306 0.718998 0.596285
O O15 0.000000 0.642419 0.500000
O O16 0.250000 0.208789 0.367963
#
# Coordination Sequence:
#
# PCOD9399506 Si02
#       6
#     8   8   8   8   8   8
#     4  10  21  35  52  75 103 134 167 205 252 309
#     4  11  16  33  53  74  98 128 172 212 244 294
#     4  10  18  32  53  74 100 135 173 210 250 298
#     4  10  18  31  51  77 103 127 166 216 259 293
#     4  10  18  31  51  75 105 134 170 211 248 300
#     4   9  17  31  51  75  99 129 170 211 250 297
#
# _framework density 16.436518
#
# number of rings (size 3 to 8) (size 9 to 14) (size 15 to 20)
#    0.000    2.000    6.667    2.000    0.000    1.333 
#    0.000    3.333    0.000    1.500    0.000    0.000 
#    0.000    0.000    0.000    0.000    0.000    0.000 
#
# Total GULP energy -267501.679371 kJ/mol
# GULP energy per Si atom -5572.951654 kJ/mol
# Density = 1.639911 g / cm^3
# Si number density = 16.436518 Si / 1000 Ang^3
#
#
#
# Elastic Constant Matrix: (Units=GPa)
#
#
# Indices 1 2 3 4 5 6 
#
# 1 133.0327 35.6974 15.0962 0.0000 0.0000 0.0000
# 2 35.6974 82.8191 5.2628 0.0000 0.0000 0.0000
# 3 15.0962 5.2628 24.2097 0.0000 0.0000 0.0000
# 4 0.0000 0.0000 0.0000 12.9315 0.0000 0.0000
# 5 0.0000 0.0000 0.0000 0.0000 19.3787 0.0000
# 6 0.0000 0.0000 0.0000 0.0000 0.0000 15.0621
#
#
#
# Elastic Compliance Matrix: (Units=1/GPa)
#
#
# Indices 1 2 3 4 5 6 
#
# 1 0.009029 -0.003583 -0.004851 0.000000 0.000000 0.000000
# 2 -0.003583 0.013666 -0.000736 0.000000 0.000000 0.000000
# 3 -0.004851 -0.000736 0.044491 0.000000 0.000000 0.000000
# 4 0.000000 0.000000 0.000000 0.077330 0.000000 0.000000
# 5 0.000000 0.000000 0.000000 0.000000 0.051603 0.000000
# 6 0.000000 0.000000 0.000000 0.000000 0.000000 0.066392
#
#
# Mechanical properties :
#
#
# Convention : Reuss Voigt Hill
#
# Bulk Modulus (GPa) = 20.47332 39.13046 29.80189
# Shear Modulus (GPa) = 16.82742 21.74148 19.28445
#
# Velocity S-wave (km/s) = 3.20313 3.64091 3.42902
# Velocity P-wave (km/s) = 5.11499 6.44467 5.81794
#
# Compressibility (1/GPa) = 0.04884405
#
# Stress axis : x y z
#
# Youngs Moduli (GPa) = 110.75400 73.17493 22.47653
#
# Poissons Ratio (x) = 0.26222 0.10904
# Poissons Ratio (y) = 0.39689 0.01655
# Poissons Ratio (z) = 0.53728 0.05387
#
# Static dielectric constant tensor:
#      x y z
#    x 1.568290 0.000000 0.000000 
#    y 0.000000 1.552630 0.000000 
#    z 0.000000 0.000000 1.560930 
# 
# From -- ./inp_files/9809.got.cif
#   From: 2010.05.17/outbox.cif.g08.bks.cpg/sg51_5_cif.got.tgz:9809.got - 2010.06.03 11:52:47.
