data_PCOD9399842
_publ_section_title
;
Structure prediction by ZEFSAII (Michael W. Deem and Ramdas Pophale) SiO2 
 PCOD9399842
Probable space group: P M M A
;
_chemical_formula_sum "Si O2"
_cell_formula_units_Z 56
_cell_length_a 15.421175
_cell_length_b 7.716704
_cell_length_c 22.534468
_cell_angle_alpha 90.000000
_cell_angle_beta 90.000000
_cell_angle_gamma 90.000000
_cell_volume 2681.616177
_symmetry_space_group_name_H-M "P M M A"
_symmetry_group_IT_number 51
_symmetry_cell_setting 'orthorhombic'
loop_
_space_group_symop_operation_xyz
x,y,z
1/2-x,-y,z
1/2+x,-y,-z
-x,y,-z
-x,-y,-z
1/2+x,y,-z
1/2-x,y,z
x,-y,z
loop_
_atom_site_type_symbol
_atom_site_label
_atom_site_fract_x
_atom_site_fract_y
_atom_site_fract_z
Si Si1 0.844115 0.711305 0.111416
Si Si2 0.942097 0.287676 0.556646
Si Si3 0.565994 0.290476 0.337238
Si Si4 0.020973 0.703584 0.793104
Si Si5 0.846197 0.797644 0.852407
Si Si6 0.100161 0.291974 0.015289
Si Si7 0.750000 0.299761 0.529969
Si Si8 0.750000 0.797756 0.394747
O O1 0.750000 0.754251 0.136554
O O2 0.850938 0.500000 0.108056
O O3 0.920195 0.776918 0.153605
O O4 0.850795 0.770377 0.043449
O O5 0.939668 0.500000 0.555793
O O6 0.842636 0.225580 0.551168
O O7 0.000000 0.235293 0.500000
O O8 0.994330 0.231879 0.615010
O O9 0.561460 0.500000 0.336667
O O10 0.543879 0.224253 0.271428
O O11 0.662526 0.244525 0.358844
O O12 0.042719 0.500000 0.790211
O O13 0.921723 0.717981 0.812720
O O14 0.750000 0.723499 0.843470
O O15 0.870578 0.780746 0.921895
O O16 0.844214 0.000000 0.837922
O O17 0.110526 0.500000 0.020690
O O18 0.000000 0.257597 0.000000
O O19 0.750000 0.500000 0.549700
O O20 0.750000 0.296299 0.458302
O O21 0.750000 0.000000 0.408655
#
# Coordination Sequence:
#
# PCOD9399842 Si02
#       8
#     8   8   8   8   8   8   4   4
#     4   9  17  30  51  81 112 139 173 226 288 340
#     4   9  16  30  56  87 114 143 183 237 293 333
#     4  10  21  38  60  87 116 152 194 237 289 343
#     4  10  21  38  60  84 111 146 193 240 282 337
#     4  11  24  40  58  80 112 154 196 236 289 348
#     4  10  18  33  58  84 111 141 183 239 295 340
#     4  10  18  34  60  84 116 154 191 238 291 346
#     4  12  24  36  56  88 122 154 191 230 279 346
#
# _framework density 20.882926999999999
#
# number of rings (size 3 to 8) (size 9 to 14) (size 15 to 20)
#    0.000    2.000    2.857    1.500    1.000    2.571 
#    1.286    1.429    0.000    0.000    0.000    0.000 
#    0.000    0.000    0.000    0.000    0.000    0.000 
#
# Total GULP energy -312672.667701 kJ/mol
# GULP energy per Si atom -5583.440495 kJ/mol
# Density = 2.083540 g / cm^3
# Si number density = 20.882927 Si / 1000 Ang^3
#
#
#
# Elastic Constant Matrix: (Units=GPa)
#
#
# Indices 1 2 3 4 5 6 
#
# 1 145.8223 2.3862 74.3099 0.0000 0.0000 0.0000
# 2 2.3862 27.7746 -4.0822 0.0000 0.0000 0.0000
# 3 74.3099 -4.0822 117.8431 0.0000 0.0000 0.0000
# 4 0.0000 0.0000 0.0000 -44.2495 0.0000 0.0000
# 5 0.0000 0.0000 0.0000 0.0000 9.7281 0.0000
# 6 0.0000 0.0000 0.0000 0.0000 0.0000 -849.1811
#
#
#
# Elastic Compliance Matrix: (Units=1/GPa)
#
#
# Indices 1 2 3 4 5 6 
#
# 1 0.010196 -0.001830 -0.006493 0.000000 0.000000 0.000000
# 2 -0.001830 0.036517 0.002419 0.000000 0.000000 0.000000
# 3 -0.006493 0.002419 0.012664 0.000000 0.000000 0.000000
# 4 0.000000 0.000000 0.000000 -0.022599 0.000000 0.000000
# 5 0.000000 0.000000 0.000000 0.000000 0.102795 0.000000
# 6 0.000000 0.000000 0.000000 0.000000 0.000000 -0.001178
#
#
# Mechanical properties :
#
#
# Convention : Reuss Voigt Hill
#
# Bulk Modulus (GPa) = 21.02214 48.51865 34.77039
# Shear Modulus (GPa) = 30.10948 -162.15210 -66.02131
#
# Velocity S-wave (km/s) = 3.80125 -8.82138 -5.62882
# Velocity P-wave (km/s) = 5.41798 8.97059 5.05554
#
# Compressibility (1/GPa) = 0.04756891
#
# Stress axis : x y z
#
# Youngs Moduli (GPa) = 98.07325 27.38456 78.96322
#
# Poissons Ratio (x) = 0.05012 0.51272
# Poissons Ratio (y) = 0.17951 -0.19102
# Poissons Ratio (z) = 0.63680 -0.06625
#
# Static dielectric constant tensor:
#      x y z
#    x 1.760800 0.000000 0.000000 
#    y 0.000000 1.779720 0.000000 
#    z 0.000000 0.000000 1.725330 
# 
# From -- ./inp_files/33528.got.cif
#   From: 2010.05.17/outbox.cif.g08.bks.cpg/sg51_17_cif.got.tgz:33528.got - 2010.06.03 11:52:47.
