data_PCOD9399176
_publ_section_title
;
Structure prediction by ZEFSAII (Michael W. Deem and Ramdas Pophale) SiO2 
 PCOD9399176
Probable space group: P M M A
;
_chemical_formula_sum "Si O2"
_cell_formula_units_Z 48
_cell_length_a 7.485367
_cell_length_b 25.171539
_cell_length_c 14.009637
_cell_angle_alpha 90.000000
_cell_angle_beta 90.000000
_cell_angle_gamma 90.000000
_cell_volume 2639.670689
_symmetry_space_group_name_H-M "P M M A"
_symmetry_group_IT_number 51
_symmetry_cell_setting 'orthorhombic'
loop_
_space_group_symop_operation_xyz
x,y,z
1/2-x,-y,z
1/2+x,-y,-z
-x,y,-z
-x,-y,-z
1/2+x,y,-z
1/2-x,y,z
x,-y,z
loop_
_atom_site_type_symbol
_atom_site_label
_atom_site_fract_x
_atom_site_fract_y
_atom_site_fract_z
Si Si1 0.468647 0.110336 0.798947
Si Si2 0.464110 0.000000 0.887302
Si Si3 0.037166 0.219132 0.891603
Si Si4 0.531261 0.724728 0.297775
Si Si5 0.964354 0.384581 0.386952
Si Si6 0.536207 0.500000 0.386449
Si Si7 0.037058 0.833576 0.608810
O O1 0.250000 0.109042 0.800204
O O2 0.531768 0.053963 0.838130
O O3 0.526823 0.159651 0.865641
O O4 0.525875 0.126380 0.691683
O O5 0.250000 0.000000 0.875618
O O6 0.500000 0.000000 0.000000
O O7 0.250000 0.217239 0.880905
O O8 0.973869 0.258948 0.808928
O O9 0.000000 0.233817 0.000000
O O10 0.750000 0.723391 0.300080
O O11 0.467520 0.667718 0.333758
O O12 0.473470 0.773952 0.365066
O O13 0.750000 0.385502 0.375496
O O14 0.032400 0.442488 0.352734
O O15 0.000000 0.379510 0.500000
O O16 0.750000 0.500000 0.372155
O O17 0.500000 0.500000 0.500000
O O18 0.250000 0.831821 0.619196
O O19 0.000000 0.848008 0.500000
#
# Coordination Sequence:
#
# PCOD9399176 Si02
#       7
#     8   4   8   8   8   4   8
#     4   8  16  29  44  60  81 106 129 151 190 240
#     4  10  18  30  47  64  80 102 129 160 195 234
#     4   9  16  28  43  59  78 101 126 157 194 232
#     4   8  15  26  40  56  78 105 130 154 190 233
#     4   9  15  24  37  55  78 104 129 156 187 223
#     4   8  14  22  34  52  75 100 128 156 185 220
#     4   9  16  28  43  59  79 106 134 159 186 223
#
# _framework density 18.184087000000002
#
# number of rings (size 3 to 8) (size 9 to 14) (size 15 to 20)
#    0.000    3.333    0.000    3.000    0.000    0.000 
#    0.000    5.417    0.000    0.000    0.000    0.583 
#    0.000    0.000    0.000    0.000    0.000    0.000 
#
# Total GULP energy -267403.576880 kJ/mol
# GULP energy per Si atom -5570.907852 kJ/mol
# Density = 1.814270 g / cm^3
# Si number density = 18.184087 Si / 1000 Ang^3
#
#
#
# Elastic Constant Matrix: (Units=GPa)
#
#
# Indices 1 2 3 4 5 6 
#
# 1 48.8563 9.0757 -3.2266 0.0000 0.0000 0.0000
# 2 9.0757 191.2019 85.4544 0.0000 0.0000 0.0000
# 3 -3.2266 85.4544 122.5177 0.0000 0.0000 0.0000
# 4 0.0000 0.0000 0.0000 20.7065 0.0000 0.0000
# 5 0.0000 0.0000 0.0000 0.0000 19.9116 0.0000
# 6 0.0000 0.0000 0.0000 0.0000 0.0000 3.0362
#
#
#
# Elastic Compliance Matrix: (Units=1/GPa)
#
#
# Indices 1 2 3 4 5 6 
#
# 1 0.020922 -0.001801 0.001807 0.000000 0.000000 0.000000
# 2 -0.001801 0.007754 -0.005456 0.000000 0.000000 0.000000
# 3 0.001807 -0.005456 0.012015 0.000000 0.000000 0.000000
# 4 0.000000 0.000000 0.000000 0.048294 0.000000 0.000000
# 5 0.000000 0.000000 0.000000 0.000000 0.050222 0.000000
# 6 0.000000 0.000000 0.000000 0.000000 0.000000 0.329357
#
#
# Mechanical properties :
#
#
# Convention : Reuss Voigt Hill
#
# Bulk Modulus (GPa) = 33.56601 60.57588 47.07095
# Shear Modulus (GPa) = 10.21673 26.81568 18.51621
#
# Velocity S-wave (km/s) = 2.37291 3.84432 3.19449
# Velocity P-wave (km/s) = 5.09967 7.28629 6.28875
#
# Compressibility (1/GPa) = 0.02979204
#
# Stress axis : x y z
#
# Youngs Moduli (GPa) = 47.79653 128.96831 83.22999
#
# Poissons Ratio (x) = 0.23223 -0.15039
# Poissons Ratio (y) = 0.08607 0.45407
# Poissons Ratio (z) = -0.08637 0.70360
#
# Static dielectric constant tensor:
#      x y z
#    x 1.694240 0.000000 0.000000 
#    y 0.000000 1.649670 0.000000 
#    z 0.000000 0.000000 1.610710 
# 
# From -- ./inp_files/15664.got.cif
#   From: 2010.05.17/outbox.cif.g08.bks.cpg/sg51_8_cif.got.tgz:15664.got - 2010.06.03 11:52:47.
