data_PCOD9399989
_publ_section_title
;
Structure prediction by ZEFSAII (Michael W. Deem and Ramdas Pophale) SiO2 
 PCOD9399989
Probable space group: P M M A
;
_chemical_formula_sum "Si O2"
_cell_formula_units_Z 56
_cell_length_a 9.390007
_cell_length_b 13.614220
_cell_length_c 29.543034
_cell_angle_alpha 90.000000
_cell_angle_beta 90.000000
_cell_angle_gamma 90.000000
_cell_volume 3776.711187
_symmetry_space_group_name_H-M "P M M A"
_symmetry_group_IT_number 51
_symmetry_cell_setting 'orthorhombic'
loop_
_space_group_symop_operation_xyz
x,y,z
1/2-x,-y,z
1/2+x,-y,-z
-x,y,-z
-x,-y,-z
1/2+x,y,-z
1/2-x,y,z
x,-y,z
loop_
_atom_site_type_symbol
_atom_site_label
_atom_site_fract_x
_atom_site_fract_y
_atom_site_fract_z
Si Si1 0.581485 0.294452 0.318510
Si Si2 0.915868 0.619418 0.144298
Si Si3 0.581660 0.386366 0.416651
Si Si4 0.084419 0.618746 0.233306
Si Si5 0.416997 0.380948 0.956083
Si Si6 0.918017 0.796002 0.543632
Si Si7 0.417845 0.113612 0.358478
O O1 0.750000 0.287927 0.310264
O O2 0.560467 0.361333 0.363458
O O3 0.501524 0.339382 0.275701
O O4 0.514363 0.189260 0.330978
O O5 0.750000 0.647510 0.150496
O O6 0.918401 0.500000 0.143965
O O7 0.964679 0.651719 0.094097
O O8 0.012047 0.651359 0.186190
O O9 0.750000 0.370267 0.426321
O O10 0.547697 0.500000 0.425533
O O11 0.486444 0.309750 0.444184
O O12 0.250000 0.647026 0.235258
O O13 0.076992 0.500000 0.234877
O O14 0.250000 0.358501 0.960174
O O15 0.429748 0.500000 0.956181
O O16 0.500000 0.343734 0.000000
O O17 0.750000 0.787252 0.534963
O O18 0.938572 0.861918 0.588353
O O19 0.000000 0.835553 0.500000
O O20 0.250000 0.131632 0.348891
O O21 0.449541 0.000000 0.349531
#
# Coordination Sequence:
#
# PCOD9399989 Si02
#       7
#     8   8   8   8   8   8   8
#     4  10  19  31  48  68  88 110 138 172 209 251
#     4   8  14  24  35  48  70 101 137 176 216 254
#     4   9  18  32  48  65  86 113 143 172 202 238
#     4  10  19  28  40  60  85 113 144 177 213 253
#     4   8  13  20  30  44  63  91 129 173 217 255
#     4  10  20  33  49  69  91 114 139 167 201 240
#     4   9  19  36  54  70  89 111 135 167 206 246
#
# _framework density 14.827716000000001
#
# number of rings (size 3 to 8) (size 9 to 14) (size 15 to 20)
#    0.000    2.857    0.000    2.571    0.000    4.286 
#    0.000    2.857    0.000    0.000    0.000    0.000 
#    0.000    0.000    0.000    0.000    0.000    0.714 
#
# Total GULP energy -312006.000467 kJ/mol
# GULP energy per Si atom -5571.535723 kJ/mol
# Density = 1.479397 g / cm^3
# Si number density = 14.827716 Si / 1000 Ang^3
#
#
#
# Elastic Constant Matrix: (Units=GPa)
#
#
# Indices 1 2 3 4 5 6 
#
# 1 70.3348 12.2628 52.4207 0.0000 0.0000 0.0000
# 2 12.2628 24.5198 -3.0756 0.0000 0.0000 0.0000
# 3 52.4207 -3.0756 88.4657 0.0000 0.0000 0.0000
# 4 0.0000 0.0000 0.0000 6.6229 0.0000 0.0000
# 5 0.0000 0.0000 0.0000 0.0000 29.7332 0.0000
# 6 0.0000 0.0000 0.0000 0.0000 0.0000 15.6247
#
#
#
# Elastic Compliance Matrix: (Units=1/GPa)
#
#
# Indices 1 2 3 4 5 6 
#
# 1 0.032107 -0.018524 -0.019669 0.000000 0.000000 0.000000
# 2 -0.018524 0.051650 0.012772 0.000000 0.000000 0.000000
# 3 -0.019669 0.012772 0.023403 0.000000 0.000000 0.000000
# 4 0.000000 0.000000 0.000000 0.150990 0.000000 0.000000
# 5 0.000000 0.000000 0.000000 0.000000 0.033632 0.000000
# 6 0.000000 0.000000 0.000000 0.000000 0.000000 0.064001
#
#
# Mechanical properties :
#
#
# Convention : Reuss Voigt Hill
#
# Bulk Modulus (GPa) = 17.75656 34.05958 25.90807
# Shear Modulus (GPa) = 11.75370 18.51033 15.13202
#
# Velocity S-wave (km/s) = 2.81852 3.53705 3.19803
# Velocity P-wave (km/s) = 4.75324 6.30087 5.58096
#
# Compressibility (1/GPa) = 0.05631721
#
# Stress axis : x y z
#
# Youngs Moduli (GPa) = 31.14606 19.36121 42.72992
#
# Poissons Ratio (x) = 0.35865 0.84046
# Poissons Ratio (y) = 0.57696 -0.54576
# Poissons Ratio (z) = 0.61261 -0.24729
#
# Static dielectric constant tensor:
#      x y z
#    x 1.492110 0.000000 0.000000 
#    y 0.000000 1.458890 0.000000 
#    z 0.000000 0.000000 1.503330 
# 
# From -- ./inp_files/37450.got.cif
#   From: 2010.05.17/outbox.cif.g08.bks.cpg/sg51_19_cif.got.tgz:37450.got - 2010.06.03 11:52:47.
