data_PCOD9399553
_publ_section_title
;
Structure prediction by ZEFSAII (Michael W. Deem and Ramdas Pophale) SiO2 
 PCOD9399553
Probable space group: P M M A
;
_chemical_formula_sum "Si O2"
_cell_formula_units_Z 48
_cell_length_a 20.805296
_cell_length_b 7.417994
_cell_length_c 13.948407
_cell_angle_alpha 90.000000
_cell_angle_beta 90.000000
_cell_angle_gamma 90.000000
_cell_volume 2152.707321
_symmetry_space_group_name_H-M "P M M A"
_symmetry_group_IT_number 51
_symmetry_cell_setting 'orthorhombic'
loop_
_space_group_symop_operation_xyz
x,y,z
1/2-x,-y,z
1/2+x,-y,-z
-x,y,-z
-x,-y,-z
1/2+x,y,-z
1/2-x,y,z
x,-y,z
loop_
_atom_site_type_symbol
_atom_site_label
_atom_site_fract_x
_atom_site_fract_y
_atom_site_fract_z
Si Si1 0.677727 0.210512 0.908028
Si Si2 0.250000 0.280082 0.449209
Si Si3 0.250000 0.279633 0.670407
Si Si4 0.436331 0.706900 0.952200
Si Si5 0.363505 0.717847 0.308887
Si Si6 0.886403 0.720655 0.250891
Si Si7 0.000174 0.280061 0.389778
O O1 0.750000 0.283484 0.922717
O O2 0.659447 0.227034 0.796330
O O3 0.678807 0.000000 0.932757
O O4 0.622129 0.293718 0.972908
O O5 0.250000 0.500000 0.450073
O O6 0.250000 0.222344 0.559267
O O7 0.187382 0.223221 0.389414
O O8 0.250000 0.500000 0.669835
O O9 0.314752 0.220835 0.723120
O O10 0.454349 0.500000 0.928686
O O11 0.411695 0.784707 0.852017
O O12 0.500000 0.789484 0.000000
O O13 0.363645 0.500000 0.309344
O O14 0.435072 0.778106 0.335704
O O15 0.884850 0.500000 0.249367
O O16 0.936913 0.774822 0.332418
O O17 0.000673 0.500000 0.390429
O O18 0.000000 0.221611 0.500000
#
# Coordination Sequence:
#
# PCOD9399553 Si02
#       7
#     8   4   4   8   8   8   8
#     4  11  24  39  55  79 110 147 189 234 282 332
#     4   9  16  26  44  73 104 134 171 213 260 319
#     4   9  16  26  41  69 108 138 165 207 264 323
#     4  10  21  37  58  83 110 142 184 232 280 334
#     4  10  18  31  53  79 107 140 178 223 273 323
#     4   9  17  28  44  71 106 140 170 209 263 319
#     4   9  16  27  47  77 112 143 171 211 264 318
#
# _framework density 22.297505000000001
#
# number of rings (size 3 to 8) (size 9 to 14) (size 15 to 20)
#    0.000    2.333    0.833    2.500    1.167    8.000 
#    0.000    0.000    0.000    0.500    0.000    4.667 
#    0.000    0.000    0.000    0.000    0.000    0.000 
#
# Total GULP energy -268336.056489 kJ/mol
# GULP energy per Si atom -5590.334510 kJ/mol
# Density = 2.224675 g / cm^3
# Si number density = 22.297505 Si / 1000 Ang^3
#
#
#
# Elastic Constant Matrix: (Units=GPa)
#
#
# Indices 1 2 3 4 5 6 
#
# 1 227.7207 0.9955 106.8943 0.0000 0.0000 0.0000
# 2 0.9955 72.1309 -4.5854 0.0000 0.0000 0.0000
# 3 106.8943 -4.5854 179.4658 0.0000 0.0000 0.0000
# 4 0.0000 0.0000 0.0000 -242.9910 0.0000 0.0000
# 5 0.0000 0.0000 0.0000 0.0000 41.3848 0.0000
# 6 0.0000 0.0000 0.0000 0.0000 0.0000 -10.3867
#
#
#
# Elastic Compliance Matrix: (Units=1/GPa)
#
#
# Indices 1 2 3 4 5 6 
#
# 1 0.006103 -0.000316 -0.003643 0.000000 0.000000 0.000000
# 2 -0.000316 0.013903 0.000543 0.000000 0.000000 0.000000
# 3 -0.003643 0.000543 0.007756 0.000000 0.000000 0.000000
# 4 0.000000 0.000000 0.000000 -0.004115 0.000000 0.000000
# 5 0.000000 0.000000 0.000000 0.000000 0.024163 0.000000
# 6 0.000000 0.000000 0.000000 0.000000 0.000000 -0.096277
#
#
# Mechanical properties :
#
#
# Convention : Reuss Voigt Hill
#
# Bulk Modulus (GPa) = 47.77794 76.21404 61.99599
# Shear Modulus (GPa) = -144.25860 -17.33104 -80.79482
#
# Velocity S-wave (km/s) = -8.05218 -2.79097 -6.02608
# Velocity P-wave (km/s) = 8.06078 4.88556 4.53362
#
# Compressibility (1/GPa) = 0.02093016
#
# Stress axis : x y z
#
# Youngs Moduli (GPa) = 163.85901 71.92907 128.93468
#
# Poissons Ratio (x) = 0.02272 0.46972
# Poissons Ratio (y) = 0.05175 -0.07005
# Poissons Ratio (z) = 0.59695 -0.03908
#
# Static dielectric constant tensor:
#      x y z
#    x 1.790550 0.000000 0.000000 
#    y 0.000000 1.846150 0.000000 
#    z 0.000000 0.000000 1.756000 
# 
# From -- ./inp_files/24906.got.cif
#   From: 2010.05.17/outbox.cif.g08.bks.cpg/sg51_13_cif.got.tgz:24906.got - 2010.06.03 11:52:47.
