data_PCOD9399080
_publ_section_title
;
Structure prediction by ZEFSAII (Michael W. Deem and Ramdas Pophale) SiO2 
 PCOD9399080
Probable space group: P M M A
;
_chemical_formula_sum "Si O2"
_cell_formula_units_Z 48
_cell_length_a 16.079305
_cell_length_b 17.312692
_cell_length_c 9.380422
_cell_angle_alpha 90.000000
_cell_angle_beta 90.000000
_cell_angle_gamma 90.000000
_cell_volume 2611.284871
_symmetry_space_group_name_H-M "P M M A"
_symmetry_group_IT_number 51
_symmetry_cell_setting 'orthorhombic'
loop_
_space_group_symop_operation_xyz
x,y,z
1/2-x,-y,z
1/2+x,-y,-z
-x,y,-z
-x,-y,-z
1/2+x,y,-z
1/2-x,y,z
x,-y,z
loop_
_atom_site_type_symbol
_atom_site_label
_atom_site_fract_x
_atom_site_fract_y
_atom_site_fract_z
Si Si1 0.846893 0.230377 0.494922
Si Si2 0.925038 0.731963 0.795868
Si Si3 0.399748 0.414341 0.022181
Si Si4 0.351421 0.085968 0.697815
Si Si5 0.879903 0.692175 0.217082
Si Si6 0.843286 0.834096 0.025190
O O1 0.750000 0.218504 0.529946
O O2 0.895491 0.249790 0.637555
O O3 0.878161 0.153882 0.409975
O O4 0.854643 0.299439 0.380064
O O5 0.022656 0.714042 0.795727
O O6 0.883758 0.654716 0.865302
O O7 0.900509 0.803858 0.897355
O O8 0.371669 0.500000 0.063237
O O9 0.365139 0.386004 0.869612
O O10 0.500000 0.417107 0.000000
O O11 0.250000 0.089014 0.699957
O O12 0.376626 0.103262 0.861829
O O13 0.376891 0.000000 0.654314
O O14 0.836122 0.759804 0.128699
O O15 0.750000 0.854831 0.974435
#
# Coordination Sequence:
#
# PCOD9399080 Si02
#       6
#     8   8   8   8   8   8
#     4  10  19  31  49  69  93 125 157 192 231 277
#     4  10  18  29  48  73  97 119 150 194 237 274
#     4   8  15  29  49  71  92 117 154 195 230 268
#     4   8  15  29  48  68  90 121 160 194 226 271
#     4   9  17  30  49  69  91 123 159 188 222 275
#     4   9  16  28  48  69  90 118 152 190 228 272
#
# _framework density 18.381755999999999
#
# number of rings (size 3 to 8) (size 9 to 14) (size 15 to 20)
#    0.000    3.000    0.000    4.000    0.000    0.000 
#    0.000    1.667    0.000   43.000    0.000    0.000 
#    0.000    0.000    0.000    0.000    0.000    0.000 
#
# Total GULP energy -267204.358066 kJ/mol
# GULP energy per Si atom -5566.757460 kJ/mol
# Density = 1.833992 g / cm^3
# Si number density = 18.381756 Si / 1000 Ang^3
#
#
#
# Elastic Constant Matrix: (Units=GPa)
#
#
# Indices 1 2 3 4 5 6 
#
# 1 38.5811 4.2295 11.3357 0.0000 0.0000 0.0000
# 2 4.2295 97.1724 34.8946 0.0000 0.0000 0.0000
# 3 11.3357 34.8946 100.4989 0.0000 0.0000 0.0000
# 4 0.0000 0.0000 0.0000 19.0446 0.0000 0.0000
# 5 0.0000 0.0000 0.0000 0.0000 -119.4021 0.0000
# 6 0.0000 0.0000 0.0000 0.0000 0.0000 27.2991
#
#
#
# Elastic Compliance Matrix: (Units=1/GPa)
#
#
# Indices 1 2 3 4 5 6 
#
# 1 0.026809 -0.000093 -0.002992 0.000000 0.000000 0.000000
# 2 -0.000093 0.011757 -0.004072 0.000000 0.000000 0.000000
# 3 -0.002992 -0.004072 0.011702 0.000000 0.000000 0.000000
# 4 0.000000 0.000000 0.000000 0.052508 0.000000 0.000000
# 5 0.000000 0.000000 0.000000 0.000000 -0.008375 0.000000
# 6 0.000000 0.000000 0.000000 0.000000 0.000000 0.036631
#
#
# Mechanical properties :
#
#
# Convention : Reuss Voigt Hill
#
# Bulk Modulus (GPa) = 27.81237 37.46354 32.63796
# Shear Modulus (GPa) = 31.78055 -2.22549 14.77753
#
# Velocity S-wave (km/s) = 4.16254 -1.10151 2.83843
# Velocity P-wave (km/s) = 6.18592 4.33674 5.34195
#
# Compressibility (1/GPa) = 0.03595523
#
# Stress axis : x y z
#
# Youngs Moduli (GPa) = 37.30148 85.05422 85.45845
#
# Poissons Ratio (x) = 0.00787 0.25567
# Poissons Ratio (y) = 0.00345 0.34797
# Poissons Ratio (z) = 0.11160 0.34633
#
# Static dielectric constant tensor:
#      x y z
#    x 1.823580 0.000000 0.000000 
#    y 0.000000 1.661790 0.000000 
#    z 0.000000 0.000000 1.636370 
# 
# From -- ./inp_files/9808.got.cif
#   From: 2010.05.17/outbox.cif.g08.bks.cpg/sg51_5_cif.got.tgz:9808.got - 2010.06.03 11:52:47.
