data_PCOD9399309
_publ_section_title
;
Structure prediction by ZEFSAII (Michael W. Deem and Ramdas Pophale) SiO2 
 PCOD9399309
Probable space group: P M M A
;
_chemical_formula_sum "Si O2"
_cell_formula_units_Z 36
_cell_length_a 8.790744
_cell_length_b 15.792080
_cell_length_c 14.647292
_cell_angle_alpha 90.000000
_cell_angle_beta 90.000000
_cell_angle_gamma 90.000000
_cell_volume 2033.397605
_symmetry_space_group_name_H-M "P M M A"
_symmetry_group_IT_number 51
_symmetry_cell_setting 'orthorhombic'
loop_
_space_group_symop_operation_xyz
x,y,z
1/2-x,-y,z
1/2+x,-y,-z
-x,y,-z
-x,-y,-z
1/2+x,y,-z
1/2-x,y,z
x,-y,z
loop_
_atom_site_type_symbol
_atom_site_label
_atom_site_fract_x
_atom_site_fract_y
_atom_site_fract_z
Si Si1 0.432727 0.403546 0.897895
Si Si2 0.430968 0.325701 0.399914
Si Si3 0.568779 0.752754 0.785245
Si Si4 0.568141 0.500000 0.397509
Si Si5 0.568149 0.097940 0.099448
O O1 0.250000 0.395475 0.900897
O O2 0.468289 0.500000 0.866053
O O3 0.501069 0.329322 0.836410
O O4 0.500000 0.395281 0.000000
O O5 0.500000 0.308819 0.500000
O O6 0.250000 0.338199 0.409847
O O7 0.460677 0.255998 0.322976
O O8 0.504185 0.412227 0.360402
O O9 0.750000 0.752832 0.798892
O O10 0.497391 0.836285 0.828485
O O11 0.750000 0.500000 0.397267
O O12 0.500000 0.500000 0.500000
O O13 0.750000 0.105002 0.095339
O O14 0.528492 0.000000 0.119986
O O15 0.500000 0.118399 0.000000
#
# Coordination Sequence:
#
# PCOD9399309 Si02
#       5
#     8   8   8   4   8
#     4  10  21  36  53  75 106 145 185 223 266 318
#     4  10  21  36  53  76 106 143 184 229 277 321
#     4  11  23  36  55  81 110 144 181 225 274 326
#     4  10  18  30  50  72  99 136 179 226 272 316
#     4  10  21  38  61  87 114 143 177 221 272 326
#
# _framework density 17.704359
#
# number of rings (size 3 to 8) (size 9 to 14) (size 15 to 20)
#    0.000    1.778    0.000    5.667    1.556    6.222 
#    0.000    0.000    0.000    0.667    0.000    0.000 
#    0.000    0.000    0.000    0.000    0.000    0.000 
#
# Total GULP energy -201047.321865 kJ/mol
# GULP energy per Si atom -5584.647830 kJ/mol
# Density = 1.766406 g / cm^3
# Si number density = 17.704359 Si / 1000 Ang^3
#
#
#
# Elastic Constant Matrix: (Units=GPa)
#
#
# Indices 1 2 3 4 5 6 
#
# 1 95.0692 58.2703 60.9827 0.0000 0.0000 0.0000
# 2 58.2703 100.1647 80.7545 0.0000 0.0000 0.0000
# 3 60.9827 80.7545 110.0645 0.0000 0.0000 0.0000
# 4 0.0000 0.0000 0.0000 1373.7041 0.0000 0.0000
# 5 0.0000 0.0000 0.0000 0.0000 25.7124 0.0000
# 6 0.0000 0.0000 0.0000 0.0000 0.0000 26.5639
#
#
#
# Elastic Compliance Matrix: (Units=1/GPa)
#
#
# Indices 1 2 3 4 5 6 
#
# 1 0.017603 -0.005820 -0.005483 0.000000 0.000000 0.000000
# 2 -0.005820 0.026365 -0.016120 0.000000 0.000000 0.000000
# 3 -0.005483 -0.016120 0.023951 0.000000 0.000000 0.000000
# 4 0.000000 0.000000 0.000000 0.000728 0.000000 0.000000
# 5 0.000000 0.000000 0.000000 0.000000 0.038892 0.000000
# 6 0.000000 0.000000 0.000000 0.000000 0.000000 0.037645
#
#
# Mechanical properties :
#
#
# Convention : Reuss Voigt Hill
#
# Bulk Modulus (GPa) = 76.49040 78.36815 77.42928
# Shear Modulus (GPa) = 24.46350 292.21548 158.33949
#
# Velocity S-wave (km/s) = 3.72126 12.86123 9.46728
# Velocity P-wave (km/s) = 7.85887 16.27603 12.78028
#
# Compressibility (1/GPa) = 0.01307354
#
# Stress axis : x y z
#
# Youngs Moduli (GPa) = 56.80868 37.92896 41.75276
#
# Poissons Ratio (x) = 0.22074 0.22894
# Poissons Ratio (y) = 0.33062 0.67304
# Poissons Ratio (z) = 0.31149 0.61140
#
# Static dielectric constant tensor:
#      x y z
#    x 1.588960 0.000000 0.000000 
#    y 0.000000 1.608690 0.000000 
#    z 0.000000 0.000000 1.580150 
# 
# From -- ./inp_files/20314.got.cif
#   From: 2010.05.17/outbox.cif.g08.bks.cpg/sg51_11_cif.got.tgz:20314.got - 2010.06.03 11:52:47.
