data_PCOD9399893
_publ_section_title
;
Structure prediction by ZEFSAII (Michael W. Deem and Ramdas Pophale) SiO2 
 PCOD9399893
Probable space group: P M M A
;
_chemical_formula_sum "Si O2"
_cell_formula_units_Z 48
_cell_length_a 15.403427
_cell_length_b 7.917758
_cell_length_c 19.548264
_cell_angle_alpha 90.000000
_cell_angle_beta 90.000000
_cell_angle_gamma 90.000000
_cell_volume 2384.118150
_symmetry_space_group_name_H-M "P M M A"
_symmetry_group_IT_number 51
_symmetry_cell_setting 'orthorhombic'
loop_
_space_group_symop_operation_xyz
x,y,z
1/2-x,-y,z
1/2+x,-y,-z
-x,y,-z
-x,-y,-z
1/2+x,y,-z
1/2-x,y,z
x,-y,z
loop_
_atom_site_type_symbol
_atom_site_label
_atom_site_fract_x
_atom_site_fract_y
_atom_site_fract_z
Si Si1 0.346354 0.293789 0.645271
Si Si2 0.004611 0.695175 0.743858
Si Si3 0.495877 0.199592 0.101284
Si Si4 0.850764 0.206714 0.003745
Si Si5 0.846592 0.802674 0.654490
Si Si6 0.603894 0.698805 0.504776
O O1 0.250000 0.252135 0.668658
O O2 0.354556 0.500000 0.642020
O O3 0.418700 0.229276 0.697198
O O4 0.359884 0.235709 0.567215
O O5 0.025907 0.500000 0.755726
O O6 0.993192 0.772666 0.818198
O O7 0.919073 0.708786 0.697748
O O8 0.586092 0.261368 0.066604
O O9 0.496262 0.000000 0.088406
O O10 0.409174 0.261775 0.061839
O O11 0.750000 0.264764 0.005150
O O12 0.846256 0.000000 0.003903
O O13 0.750000 0.739690 0.669179
O O14 0.863871 0.784946 0.573607
O O15 0.851697 0.000000 0.672655
O O16 0.500000 0.711492 0.500000
O O17 0.626620 0.500000 0.510971
#
# Coordination Sequence:
#
# PCOD9399893 Si02
#       6
#     8   8   8   8   8   8
#     4   9  18  33  53  76 104 141 182 221 266 325
#     4  11  22  37  55  78 111 147 183 222 270 325
#     4   9  18  33  54  81 108 137 177 219 261 312
#     4   8  15  31  56  81 106 139 176 213 258 317
#     4  11  24  39  55  78 108 143 184 231 280 325
#     4  10  18  34  59  82 103 136 183 229 276 328
#
# _framework density 20.133230999999999
#
# number of rings (size 3 to 8) (size 9 to 14) (size 15 to 20)
#    0.000    2.333    1.667    2.500    0.000    3.667 
#    0.000    3.333    0.000    3.500    0.000    0.000 
#    0.000    0.000    0.000    0.000    0.000    0.000 
#
# Total GULP energy -267782.474527 kJ/mol
# GULP energy per Si atom -5578.801553 kJ/mol
# Density = 2.008741 g / cm^3
# Si number density = 20.133231 Si / 1000 Ang^3
#
#
#
# Elastic Constant Matrix: (Units=GPa)
#
#
# Indices 1 2 3 4 5 6 
#
# 1 153.2305 3.5519 67.9079 0.0000 0.0000 0.0000
# 2 3.5519 13.8506 -4.6674 0.0000 0.0000 0.0000
# 3 67.9079 -4.6674 124.0558 0.0000 0.0000 0.0000
# 4 0.0000 0.0000 0.0000 30.3668 0.0000 0.0000
# 5 0.0000 0.0000 0.0000 0.0000 -29.3843 0.0000
# 6 0.0000 0.0000 0.0000 0.0000 0.0000 -42.0780
#
#
#
# Elastic Compliance Matrix: (Units=1/GPa)
#
#
# Indices 1 2 3 4 5 6 
#
# 1 0.008824 -0.003940 -0.004978 0.000000 0.000000 0.000000
# 2 -0.003940 0.074886 0.004974 0.000000 0.000000 0.000000
# 3 -0.004978 0.004974 0.010973 0.000000 0.000000 0.000000
# 4 0.000000 0.000000 0.000000 0.032931 0.000000 0.000000
# 5 0.000000 0.000000 0.000000 0.000000 -0.034032 0.000000
# 6 0.000000 0.000000 0.000000 0.000000 0.000000 -0.023765
#
#
# Mechanical properties :
#
#
# Convention : Reuss Voigt Hill
#
# Bulk Modulus (GPa) = 11.52156 47.19131 29.35644
# Shear Modulus (GPa) = 46.88850 6.73720 26.81285
#
# Velocity S-wave (km/s) = 4.83111 1.83128 3.65330
# Velocity P-wave (km/s) = 6.07080 5.28789 5.69282
#
# Compressibility (1/GPa) = 0.08679381
#
# Stress axis : x y z
#
# Youngs Moduli (GPa) = 113.33071 13.35371 91.13131
#
# Poissons Ratio (x) = 0.05262 0.45368
# Poissons Ratio (y) = 0.44657 -0.45333
# Poissons Ratio (z) = 0.56420 -0.06643
#
# Static dielectric constant tensor:
#      x y z
#    x 1.719300 0.000000 0.000000 
#    y 0.000000 1.747990 0.000000 
#    z 0.000000 0.000000 1.684730 
# 
# From -- ./inp_files/29431.got.cif
#   From: 2010.05.17/outbox.cif.g08.bks.cpg/sg51_15_cif.got.tgz:29431.got - 2010.06.03 11:52:47.
