data_PCOD9399160
_publ_section_title
;
Structure prediction by ZEFSAII (Michael W. Deem and Ramdas Pophale) SiO2 
 PCOD9399160
Probable space group: P M M A
;
_chemical_formula_sum "Si O2"
_cell_formula_units_Z 52
_cell_length_a 8.657646
_cell_length_b 14.279990
_cell_length_c 24.688922
_cell_angle_alpha 90.000000
_cell_angle_beta 90.000000
_cell_angle_gamma 90.000000
_cell_volume 3052.318543
_symmetry_space_group_name_H-M "P M M A"
_symmetry_group_IT_number 51
_symmetry_cell_setting 'orthorhombic'
loop_
_space_group_symop_operation_xyz
x,y,z
1/2-x,-y,z
1/2+x,-y,-z
-x,y,-z
-x,-y,-z
1/2+x,y,-z
1/2-x,y,z
x,-y,z
loop_
_atom_site_type_symbol
_atom_site_label
_atom_site_fract_x
_atom_site_fract_y
_atom_site_fract_z
Si Si1 0.436058 0.606708 0.439820
Si Si2 0.437167 0.726307 0.338831
Si Si3 0.068366 0.806939 0.940190
Si Si4 0.437751 0.891798 0.260182
Si Si5 0.566621 0.000000 0.939216
Si Si6 0.428440 0.610744 0.757591
Si Si7 0.430982 0.750926 0.164297
O O1 0.500000 0.621355 0.500000
O O2 0.250000 0.606657 0.441894
O O3 0.482993 0.500000 0.422404
O O4 0.481769 0.689735 0.398493
O O5 0.250000 0.721168 0.335077
O O6 0.480765 0.827418 0.312460
O O7 0.513886 0.651270 0.299108
O O8 0.250000 0.816660 0.946535
O O9 0.021032 0.739205 0.892008
O O10 0.997644 0.903923 0.916878
O O11 0.000000 0.788235 0.000000
O O12 0.250000 0.894013 0.259006
O O13 0.483956 0.834190 0.205794
O O14 0.491254 0.000000 0.261389
O O15 0.250000 0.000000 0.060994
O O16 0.500000 0.000000 0.000000
O O17 0.250000 0.639220 0.767249
O O18 0.437382 0.500000 0.758543
O O19 0.538713 0.658194 0.801370
O O20 0.250000 0.765644 0.152932
#
# Coordination Sequence:
#
# PCOD9399160 Si02
#       7
#     8   8   8   8   4   8   8
#     4   9  17  28  43  66  95 126 160 200 246 295
#     4   9  17  30  49  71  96 127 164 201 242 291
#     4  11  21  34  50  71  99 130 165 204 249 299
#     4   8  15  28  47  71  95 122 158 199 240 283
#     4  10  18  30  46  66  92 124 162 198 237 286
#     4  10  20  33  50  73 100 128 159 200 247 294
#     4  10  20  33  51  74  98 129 164 201 245 293
#
# _framework density 17.036228999999999
#
# number of rings (size 3 to 8) (size 9 to 14) (size 15 to 20)
#    0.000    2.462    0.000    5.308    1.077    2.462 
#    0.000    1.538    0.000    5.077    0.000    0.000 
#    0.000    0.000    0.000    0.000    0.000    0.000 
#
# Total GULP energy -289509.404606 kJ/mol
# GULP energy per Si atom -5567.488550 kJ/mol
# Density = 1.699745 g / cm^3
# Si number density = 17.036229 Si / 1000 Ang^3
#
#
#
# Elastic Constant Matrix: (Units=GPa)
#
#
# Indices 1 2 3 4 5 6 
#
# 1 55.5097 16.9778 24.1127 0.0000 0.0000 0.0000
# 2 16.9778 73.8347 40.2382 0.0000 0.0000 0.0000
# 3 24.1127 40.2382 96.5806 0.0000 0.0000 0.0000
# 4 0.0000 0.0000 0.0000 12.6564 0.0000 0.0000
# 5 0.0000 0.0000 0.0000 0.0000 25.2120 0.0000
# 6 0.0000 0.0000 0.0000 0.0000 0.0000 18.7355
#
#
#
# Elastic Compliance Matrix: (Units=1/GPa)
#
#
# Indices 1 2 3 4 5 6 
#
# 1 0.020556 -0.002497 -0.004092 0.000000 0.000000 0.000000
# 2 -0.002497 0.017825 -0.006803 0.000000 0.000000 0.000000
# 3 -0.004092 -0.006803 0.014210 0.000000 0.000000 0.000000
# 4 0.000000 0.000000 0.000000 0.079012 0.000000 0.000000
# 5 0.000000 0.000000 0.000000 0.000000 0.039664 0.000000
# 6 0.000000 0.000000 0.000000 0.000000 0.000000 0.053375
#
#
# Mechanical properties :
#
#
# Convention : Reuss Voigt Hill
#
# Bulk Modulus (GPa) = 38.74797 43.17582 40.96190
# Shear Modulus (GPa) = 19.22871 20.96051 20.09461
#
# Velocity S-wave (km/s) = 3.36325 3.51144 3.43814
# Velocity P-wave (km/s) = 6.15433 6.46829 6.31326
#
# Compressibility (1/GPa) = 0.02580780
#
# Stress axis : x y z
#
# Youngs Moduli (GPa) = 48.64767 56.09942 70.37262
#
# Poissons Ratio (x) = 0.14006 0.28796
# Poissons Ratio (y) = 0.12146 0.47876
# Poissons Ratio (z) = 0.19906 0.38166
#
# Static dielectric constant tensor:
#      x y z
#    x 1.579710 0.000000 0.000000 
#    y 0.000000 1.626190 0.000000 
#    z 0.000000 0.000000 1.584870 
# 
# From -- ./inp_files/34697.got.cif
#   From: 2010.05.17/outbox.cif.g08.bks.cpg/sg51_18_cif.got.tgz:34697.got - 2010.06.03 11:52:47.
