data_PCOD9399296
_publ_section_title
;
Structure prediction by ZEFSAII (Michael W. Deem and Ramdas Pophale) SiO2 
 PCOD9399296
Probable space group: P M M A
;
_chemical_formula_sum "Si O2"
_cell_formula_units_Z 64
_cell_length_a 17.914560
_cell_length_b 15.289734
_cell_length_c 11.798222
_cell_angle_alpha 90.000000
_cell_angle_beta 90.000000
_cell_angle_gamma 90.000000
_cell_volume 3231.637504
_symmetry_space_group_name_H-M "P M M A"
_symmetry_group_IT_number 51
_symmetry_cell_setting 'orthorhombic'
loop_
_space_group_symop_operation_xyz
x,y,z
1/2-x,-y,z
1/2+x,-y,-z
-x,y,-z
-x,-y,-z
1/2+x,y,-z
1/2-x,y,z
x,-y,z
loop_
_atom_site_type_symbol
_atom_site_label
_atom_site_fract_x
_atom_site_fract_y
_atom_site_fract_z
Si Si1 0.957501 0.213744 0.319623
Si Si2 0.165149 0.900141 0.564676
Si Si3 0.090510 0.092813 0.340351
Si Si4 0.924993 0.400192 0.043467
Si Si5 0.664965 0.657675 0.851292
Si Si6 0.066024 0.102284 0.907969
Si Si7 0.334332 0.863215 0.115046
Si Si8 0.508819 0.401244 0.728862
O O1 0.887131 0.174308 0.384685
O O2 0.945996 0.174297 0.190887
O O3 0.978307 0.315503 0.334355
O O4 0.031160 0.166190 0.362709
O O5 0.250000 0.887495 0.600273
O O6 0.157749 0.897025 0.428259
O O7 0.142918 0.000000 0.598009
O O8 0.115157 0.092823 0.210510
O O9 0.053641 0.000000 0.365997
O O10 0.925497 0.500000 0.998684
O O11 0.944111 0.405180 0.174134
O O12 0.853205 0.361422 0.984002
O O13 0.000000 0.351929 0.000000
O O14 0.750000 0.627932 0.821713
O O15 0.662996 0.762012 0.846575
O O16 0.592304 0.620068 0.782251
O O17 0.068809 0.000000 0.867844
O O18 0.137022 0.122974 0.987575
O O19 0.000000 0.108739 0.000000
O O20 0.250000 0.894393 0.124148
O O21 0.512920 0.500000 0.679598
#
# Coordination Sequence:
#
# PCOD9399296 Si02
#       8
#     8   8   8   8   8   8   8   8
#     4  12  22  38  63  89 119 158 205 247 295 359
#     4  10  23  42  65  93 121 150 193 252 309 354
#     4  11  21  38  63  89 117 153 197 247 296 352
#     4   8  15  28  47  70  99 141 192 239 285 336
#     4  10  18  30  49  77 112 153 199 249 301 350
#     4  11  21  34  53  80 120 164 198 231 279 350
#     4  11  22  34  52  84 124 164 200 238 288 351
#     4  10  20  35  55  80 112 152 198 251 304 354
#
# _framework density 19.804200999999999
#
# number of rings (size 3 to 8) (size 9 to 14) (size 15 to 20)
#    0.000    1.625    2.500    4.125    0.000    5.000 
#    0.000    0.625    0.000    2.625    0.000    0.000 
#    0.000    0.000    0.000    0.000    0.000    0.000 
#
# Total GULP energy -356282.818662 kJ/mol
# GULP energy per Si atom -5566.919042 kJ/mol
# Density = 1.975913 g / cm^3
# Si number density = 19.804201 Si / 1000 Ang^3
#
#
#
# Elastic Constant Matrix: (Units=GPa)
#
#
# Indices 1 2 3 4 5 6 
#
# 1 95.0769 43.1725 16.1117 0.0000 0.0000 0.0000
# 2 43.1725 137.4270 13.0061 0.0000 0.0000 0.0000
# 3 16.1117 13.0061 42.0738 0.0000 0.0000 0.0000
# 4 0.0000 0.0000 0.0000 46.4417 0.0000 0.0000
# 5 0.0000 0.0000 0.0000 0.0000 26.2843 0.0000
# 6 0.0000 0.0000 0.0000 0.0000 0.0000 19.5319
#
#
#
# Elastic Compliance Matrix: (Units=1/GPa)
#
#
# Indices 1 2 3 4 5 6 
#
# 1 0.012825 -0.003672 -0.003776 0.000000 0.000000 0.000000
# 2 -0.003672 0.008547 -0.001236 0.000000 0.000000 0.000000
# 3 -0.003776 -0.001236 0.025596 0.000000 0.000000 0.000000
# 4 0.000000 0.000000 0.000000 0.021532 0.000000 0.000000
# 5 0.000000 0.000000 0.000000 0.000000 0.038046 0.000000
# 6 0.000000 0.000000 0.000000 0.000000 0.000000 0.051198
#
#
# Mechanical properties :
#
#
# Convention : Reuss Voigt Hill
#
# Bulk Modulus (GPa) = 33.78369 46.57316 40.17843
# Shear Modulus (GPa) = 27.03016 31.93738 29.48377
#
# Velocity S-wave (km/s) = 3.69842 4.02015 3.86264
# Velocity P-wave (km/s) = 5.94421 6.71689 6.34233
#
# Compressibility (1/GPa) = 0.02960008
#
# Stress axis : x y z
#
# Youngs Moduli (GPa) = 77.97338 117.00023 39.06876
#
# Poissons Ratio (x) = 0.42957 0.14753
# Poissons Ratio (y) = 0.28628 0.04829
# Poissons Ratio (z) = 0.29444 0.14463
#
# Static dielectric constant tensor:
#      x y z
#    x 1.733120 0.000000 0.000000 
#    y 0.000000 1.774280 0.000000 
#    z 0.000000 0.000000 1.746480 
# 
# From -- ./inp_files/17626.got.cif
#   From: 2010.05.17/outbox.cif.g08.bks.cpg/sg51_9_cif.got.tgz:17626.got - 2010.06.03 11:52:47.
