data_PCOD9399671
_publ_section_title
;
Structure prediction by ZEFSAII (Michael W. Deem and Ramdas Pophale) SiO2 
 PCOD9399671
Probable space group: P M M A
;
_chemical_formula_sum "Si O2"
_cell_formula_units_Z 44
_cell_length_a 8.508025
_cell_length_b 18.522718
_cell_length_c 14.747668
_cell_angle_alpha 90.000000
_cell_angle_beta 90.000000
_cell_angle_gamma 90.000000
_cell_volume 2324.110776
_symmetry_space_group_name_H-M "P M M A"
_symmetry_group_IT_number 51
_symmetry_cell_setting 'orthorhombic'
loop_
_space_group_symop_operation_xyz
x,y,z
1/2-x,-y,z
1/2+x,-y,-z
-x,y,-z
-x,-y,-z
1/2+x,y,-z
1/2-x,y,z
x,-y,z
loop_
_atom_site_type_symbol
_atom_site_label
_atom_site_fract_x
_atom_site_fract_y
_atom_site_fract_z
Si Si1 0.560083 0.718987 0.898337
Si Si2 0.436791 0.812431 0.596906
Si Si3 0.941774 0.580593 0.785858
Si Si4 0.939741 0.000000 0.897519
Si Si5 0.561622 0.648700 0.596865
Si Si6 0.440079 0.859582 0.215799
O O1 0.750000 0.718855 0.899319
O O2 0.506011 0.643923 0.853215
O O3 0.510556 0.786486 0.836199
O O4 0.500000 0.727007 0.000000
O O5 0.500000 0.839219 0.500000
O O6 0.250000 0.808924 0.593664
O O7 0.502676 0.730880 0.608637
O O8 0.493216 0.857787 0.683017
O O9 0.750000 0.580672 0.787348
O O10 0.995040 0.500000 0.809328
O O11 0.988374 0.602250 0.683610
O O12 0.989777 0.928649 0.842805
O O13 0.750000 0.000000 0.900358
O O14 0.000000 0.000000 0.000000
O O15 0.500000 0.621856 0.500000
O O16 0.750000 0.650399 0.594545
O O17 0.250000 0.859394 0.221353
#
# Coordination Sequence:
#
# PCOD9399671 Si02
#       6
#     8   8   8   4   8   8
#     4  10  20  35  55  77 105 140 183 228 272 326
#     4  11  21  34  57  86 114 147 185 228 272 328
#     4   9  18  33  52  74 105 146 183 222 275 329
#     4  10  22  38  61  88 121 152 185 230 280 332
#     4  10  18  32  53  78 109 144 182 226 273 329
#     4  10  20  38  59  84 114 149 184 224 275 326
#
# _framework density 18.931971999999998
#
# number of rings (size 3 to 8) (size 9 to 14) (size 15 to 20)
#    0.000    2.000    1.818    3.818    0.000    2.182 
#    0.000    0.455    0.000    3.818    0.000    0.000 
#    0.000    0.000    0.000    0.000    0.000    0.000 
#
# Total GULP energy -245703.059156 kJ/mol
# GULP energy per Si atom -5584.160435 kJ/mol
# Density = 1.888888 g / cm^3
# Si number density = 18.931972 Si / 1000 Ang^3
#
#
#
# Elastic Constant Matrix: (Units=GPa)
#
#
# Indices 1 2 3 4 5 6 
#
# 1 35.6528 24.7168 28.7189 0.0000 0.0000 0.0000
# 2 24.7168 121.2016 81.9897 0.0000 0.0000 0.0000
# 3 28.7189 81.9897 166.0568 0.0000 0.0000 0.0000
# 4 0.0000 0.0000 0.0000 20.7662 0.0000 0.0000
# 5 0.0000 0.0000 0.0000 0.0000 35.6933 0.0000
# 6 0.0000 0.0000 0.0000 0.0000 0.0000 2.8582
#
#
#
# Elastic Compliance Matrix: (Units=1/GPa)
#
#
# Indices 1 2 3 4 5 6 
#
# 1 0.034118 -0.004454 -0.003702 0.000000 0.000000 0.000000
# 2 -0.004454 0.012970 -0.005634 0.000000 0.000000 0.000000
# 3 -0.003702 -0.005634 0.009444 0.000000 0.000000 0.000000
# 4 0.000000 0.000000 0.000000 0.048155 0.000000 0.000000
# 5 0.000000 0.000000 0.000000 0.000000 0.028016 0.000000
# 6 0.000000 0.000000 0.000000 0.000000 0.000000 0.349876
#
#
# Mechanical properties :
#
#
# Convention : Reuss Voigt Hill
#
# Bulk Modulus (GPa) = 34.53795 65.97356 50.25575
# Shear Modulus (GPa) = 9.61894 24.36257 16.99075
#
# Velocity S-wave (km/s) = 2.25651 3.59116 2.99902
# Velocity P-wave (km/s) = 5.00718 7.21932 6.21251
#
# Compressibility (1/GPa) = 0.02895366
#
# Stress axis : x y z
#
# Youngs Moduli (GPa) = 29.31046 77.10135 105.88994
#
# Poissons Ratio (x) = 0.34338 0.39195
# Poissons Ratio (y) = 0.13054 0.59654
# Poissons Ratio (z) = 0.10849 0.43436
#
# Static dielectric constant tensor:
#      x y z
#    x 1.643020 0.000000 0.000000 
#    y 0.000000 1.654230 0.000000 
#    z 0.000000 0.000000 1.638210 
# 
# From -- ./inp_files/20919.got.cif
#   From: 2010.05.17/outbox.cif.g08.bks.cpg/sg51_11_cif.got.tgz:20919.got - 2010.06.03 11:52:47.
