data_PCOD9399823
_publ_section_title
;
Structure prediction by ZEFSAII (Michael W. Deem and Ramdas Pophale) SiO2 
 PCOD9399823
Probable space group: P M M A
;
_chemical_formula_sum "Si O2"
_cell_formula_units_Z 40
_cell_length_a 7.754810
_cell_length_b 12.377079
_cell_length_c 20.982499
_cell_angle_alpha 90.000000
_cell_angle_beta 90.000000
_cell_angle_gamma 90.000000
_cell_volume 2013.940037
_symmetry_space_group_name_H-M "P M M A"
_symmetry_group_IT_number 51
_symmetry_cell_setting 'orthorhombic'
loop_
_space_group_symop_operation_xyz
x,y,z
1/2-x,-y,z
1/2+x,-y,-z
-x,y,-z
-x,-y,-z
1/2+x,y,-z
1/2-x,y,z
x,-y,z
loop_
_atom_site_type_symbol
_atom_site_label
_atom_site_fract_x
_atom_site_fract_y
_atom_site_fract_z
Si Si1 0.457219 0.123190 0.428026
Si Si2 0.945083 0.500000 0.137038
Si Si3 0.052143 0.500000 0.278669
Si Si4 0.961830 0.736664 0.691139
Si Si5 0.044432 0.722663 0.072960
Si Si6 0.460787 0.876186 0.185977
O O1 0.500000 0.156838 0.500000
O O2 0.250000 0.118975 0.422680
O O3 0.518684 0.203595 0.373149
O O4 0.522151 0.000000 0.418892
O O5 0.750000 0.500000 0.160200
O O6 0.054399 0.500000 0.201663
O O7 0.975949 0.606538 0.095505
O O8 0.250000 0.500000 0.301394
O O9 0.975839 0.613703 0.301526
O O10 0.750000 0.734565 0.691912
O O11 0.013866 0.807096 0.752483
O O12 0.250000 0.717084 0.078655
O O13 0.982530 0.813808 0.122326
O O14 0.000000 0.745181 0.000000
O O15 0.250000 0.877833 0.185964
O O16 0.518779 0.000000 0.188832
#
# Coordination Sequence:
#
# PCOD9399823 Si02
#       6
#     8   4   4   8   8   8
#     4   9  17  30  50  76 105 138 174 213 255 303
#     4  12  23  37  56  79 106 137 175 219 267 318
#     4  10  18  33  56  81 103 133 173 219 268 312
#     4   9  16  29  52  79 104 132 174 219 257 304
#     4  11  22  37  56  79 107 138 175 219 266 315
#     4   9  17  30  52  80 105 133 173 218 261 309
#
# _framework density 19.861563
#
# number of rings (size 3 to 8) (size 9 to 14) (size 15 to 20)
#    0.000    2.200    2.000    2.400    0.000    2.800 
#    0.000    1.500    0.000    1.800    0.000    0.000 
#    0.000    0.000    0.000    0.000    0.000    0.000 
#
# Total GULP energy -223349.227653 kJ/mol
# GULP energy per Si atom -5583.730691 kJ/mol
# Density = 1.981636 g / cm^3
# Si number density = 19.861563 Si / 1000 Ang^3
#
#
#
# Elastic Constant Matrix: (Units=GPa)
#
#
# Indices 1 2 3 4 5 6 
#
# 1 34.7558 7.2722 -5.3687 0.0000 0.0000 0.0000
# 2 7.2722 207.0616 124.9564 0.0000 0.0000 0.0000
# 3 -5.3687 124.9564 183.1909 0.0000 0.0000 0.0000
# 4 0.0000 0.0000 0.0000 32.7643 0.0000 0.0000
# 5 0.0000 0.0000 0.0000 0.0000 21.8034 0.0000
# 6 0.0000 0.0000 0.0000 0.0000 0.0000 -4.3220
#
#
#
# Elastic Compliance Matrix: (Units=1/GPa)
#
#
# Indices 1 2 3 4 5 6 
#
# 1 0.029747 -0.002670 0.002693 0.000000 0.000000 0.000000
# 2 -0.002670 0.008448 -0.005841 0.000000 0.000000 0.000000
# 3 0.002693 -0.005841 0.009522 0.000000 0.000000 0.000000
# 4 0.000000 0.000000 0.000000 0.030521 0.000000 0.000000
# 5 0.000000 0.000000 0.000000 0.000000 0.045864 0.000000
# 6 0.000000 0.000000 0.000000 0.000000 0.000000 -0.231374
#
#
# Mechanical properties :
#
#
# Convention : Reuss Voigt Hill
#
# Bulk Modulus (GPa) = 27.71527 75.41424 51.56476
# Shear Modulus (GPa) = -59.80119 29.92572 -14.93774
#
# Velocity S-wave (km/s) = -5.49312 3.88585 -2.74541
# Velocity P-wave (km/s) = 5.12328 7.62794 3.99609
#
# Compressibility (1/GPa) = 0.03608119
#
# Stress axis : x y z
#
# Youngs Moduli (GPa) = 33.61710 118.37192 105.02328
#
# Poissons Ratio (x) = 0.31603 -0.28282
# Poissons Ratio (y) = 0.08975 0.61341
# Poissons Ratio (z) = -0.09053 0.69137
#
# Static dielectric constant tensor:
#      x y z
#    x 1.735580 0.000000 0.000000 
#    y 0.000000 1.685060 0.000000 
#    z 0.000000 0.000000 2.090230 
# 
# From -- ./inp_files/31435.got.cif
#   From: 2010.05.17/outbox.cif.g08.bks.cpg/sg51_16_cif.got.tgz:31435.got - 2010.06.03 11:52:47.
