data_PCOD9399225
_publ_section_title
;
Structure prediction by ZEFSAII (Michael W. Deem and Ramdas Pophale) SiO2 
 PCOD9399225
Probable space group: P M M A
;
_chemical_formula_sum "Si O2"
_cell_formula_units_Z 64
_cell_length_a 13.836213
_cell_length_b 14.630132
_cell_length_c 17.908017
_cell_angle_alpha 90.000000
_cell_angle_beta 90.000000
_cell_angle_gamma 90.000000
_cell_volume 3625.041490
_symmetry_space_group_name_H-M "P M M A"
_symmetry_group_IT_number 51
_symmetry_cell_setting 'orthorhombic'
loop_
_space_group_symop_operation_xyz
x,y,z
1/2-x,-y,z
1/2+x,-y,-z
-x,y,-z
-x,-y,-z
1/2+x,y,-z
1/2-x,y,z
x,-y,z
loop_
_atom_site_type_symbol
_atom_site_label
_atom_site_fract_x
_atom_site_fract_y
_atom_site_fract_z
Si Si1 0.864211 0.600857 0.455919
Si Si2 0.136569 0.604484 0.364919
Si Si3 0.633271 0.899375 0.099903
Si Si4 0.541887 0.282891 0.330922
Si Si5 0.866423 0.707271 0.042517
Si Si6 0.361182 0.392844 0.109224
Si Si7 0.944534 0.393173 0.187656
Si Si8 0.135727 0.893843 0.722697
O O1 0.750000 0.603182 0.441195
O O2 0.901492 0.500000 0.433480
O O3 0.875422 0.608433 0.544950
O O4 0.913807 0.677595 0.406973
O O5 0.250000 0.615895 0.348152
O O6 0.109545 0.500000 0.341308
O O7 0.068658 0.683124 0.332808
O O8 0.750000 0.901776 0.091757
O O9 0.597648 0.810373 0.056625
O O10 0.615800 0.886491 0.188413
O O11 0.596434 0.000000 0.077609
O O12 0.586922 0.335863 0.259548
O O13 0.568155 0.177618 0.319724
O O14 0.750000 0.709312 0.042749
O O15 0.897490 0.644993 0.112039
O O16 0.893029 0.665390 0.962634
O O17 0.250000 0.370771 0.129660
O O18 0.363306 0.500000 0.087601
O O19 0.440228 0.381645 0.173429
O O20 0.923358 0.500000 0.197227
O O21 0.250000 0.872119 0.711437
O O22 0.121427 0.000000 0.701866
#
# Coordination Sequence:
#
# PCOD9399225 Si02
#       8
#     8   8   8   8   8   8   8   8
#     4   9  18  32  50  75 108 139 164 197 248 309
#     4   9  19  35  52  72 103 144 181 206 236 290
#     4   8  14  27  47  69  93 121 155 197 246 300
#     4  12  20  30  52  78 100 129 169 214 253 294
#     4  10  18  30  48  68  92 125 161 197 243 299
#     4   9  19  35  50  62  86 131 175 202 233 286
#     4  11  22  31  43  70 102 127 156 201 249 291
#     4   9  18  33  51  73 104 136 164 201 257 322
#
# _framework density 17.654971
#
# number of rings (size 3 to 8) (size 9 to 14) (size 15 to 20)
#    0.000    2.375    1.250    4.125    0.000    3.750 
#    0.000    1.250    0.000    4.125    0.000    1.750 
#    0.000    0.000    0.000    0.000    0.000    0.125 
#
# Total GULP energy -357003.844421 kJ/mol
# GULP energy per Si atom -5578.185069 kJ/mol
# Density = 1.761479 g / cm^3
# Si number density = 17.654971 Si / 1000 Ang^3
#
#
#
# Elastic Constant Matrix: (Units=GPa)
#
#
# Indices 1 2 3 4 5 6 
#
# 1 51.9980 39.2746 14.6490 0.0000 0.0000 0.0000
# 2 39.2746 105.9109 26.6913 0.0000 0.0000 0.0000
# 3 14.6490 26.6913 25.8144 0.0000 0.0000 0.0000
# 4 0.0000 0.0000 0.0000 16.6822 0.0000 0.0000
# 5 0.0000 0.0000 0.0000 0.0000 18.0138 0.0000
# 6 0.0000 0.0000 0.0000 0.0000 0.0000 22.8939
#
#
#
# Elastic Compliance Matrix: (Units=1/GPa)
#
#
# Indices 1 2 3 4 5 6 
#
# 1 0.027585 -0.008499 -0.006866 0.000000 0.000000 0.000000
# 2 -0.008499 0.015388 -0.011088 0.000000 0.000000 0.000000
# 3 -0.006866 -0.011088 0.054099 0.000000 0.000000 0.000000
# 4 0.000000 0.000000 0.000000 0.059944 0.000000 0.000000
# 5 0.000000 0.000000 0.000000 0.000000 0.055513 0.000000
# 6 0.000000 0.000000 0.000000 0.000000 0.000000 0.043680
#
#
# Mechanical properties :
#
#
# Convention : Reuss Voigt Hill
#
# Bulk Modulus (GPa) = 22.64179 38.32812 30.48495
# Shear Modulus (GPa) = 15.43992 18.39188 16.91590
#
# Velocity S-wave (km/s) = 2.96047 3.23110 3.09874
# Velocity P-wave (km/s) = 4.95361 5.97300 5.48703
#
# Compressibility (1/GPa) = 0.04416613
#
# Stress axis : x y z
#
# Youngs Moduli (GPa) = 36.25133 64.98672 18.48476
#
# Poissons Ratio (x) = 0.55232 0.12692
# Poissons Ratio (y) = 0.30810 0.20495
# Poissons Ratio (z) = 0.24891 0.72054
#
# Static dielectric constant tensor:
#      x y z
#    x 1.643660 0.000000 0.000000 
#    y 0.000000 1.594630 0.000000 
#    z 0.000000 0.000000 1.601630 
# 
# From -- ./inp_files/29997.got.cif
#   From: 2010.05.17/outbox.cif.g08.bks.cpg/sg51_15_cif.got.tgz:29997.got - 2010.06.03 11:52:47.
