data_PCOD9399644
_publ_section_title
;
Structure prediction by ZEFSAII (Michael W. Deem and Ramdas Pophale) SiO2 
 PCOD9399644
Probable space group: P M M A
;
_chemical_formula_sum "Si O2"
_cell_formula_units_Z 64
_cell_length_a 8.528527
_cell_length_b 32.615968
_cell_length_c 14.758962
_cell_angle_alpha 90.000000
_cell_angle_beta 90.000000
_cell_angle_gamma 90.000000
_cell_volume 4105.443840
_symmetry_space_group_name_H-M "P M M A"
_symmetry_group_IT_number 51
_symmetry_cell_setting 'orthorhombic'
loop_
_space_group_symop_operation_xyz
x,y,z
1/2-x,-y,z
1/2+x,-y,-z
-x,y,-z
-x,-y,-z
1/2+x,y,-z
1/2-x,y,z
x,-y,z
loop_
_atom_site_type_symbol
_atom_site_label
_atom_site_fract_x
_atom_site_fract_y
_atom_site_fract_z
Si Si1 0.439431 0.124837 0.101613
Si Si2 0.058772 0.954563 0.212160
Si Si3 0.563280 0.174160 0.403003
Si Si4 0.061708 0.204504 0.217446
Si Si5 0.439359 0.455852 0.103562
Si Si6 0.436775 0.280716 0.896795
Si Si7 0.061353 0.632912 0.103565
Si Si8 0.437972 0.918725 0.403332
O O1 0.250000 0.124476 0.100416
O O2 0.493986 0.082530 0.148126
O O3 0.488159 0.163729 0.162058
O O4 0.500000 0.128712 0.000000
O O5 0.250000 0.954310 0.210327
O O6 0.012974 0.944529 0.315649
O O7 0.006020 0.000000 0.185217
O O8 0.500000 0.189066 0.500000
O O9 0.750000 0.172298 0.405462
O O10 0.505448 0.200525 0.318277
O O11 0.497465 0.127880 0.391217
O O12 0.250000 0.204809 0.221427
O O13 0.002466 0.244067 0.163819
O O14 0.250000 0.455673 0.101307
O O15 0.489653 0.500000 0.143945
O O16 0.486033 0.411562 0.143963
O O17 0.500000 0.455967 0.000000
O O18 0.250000 0.279223 0.900152
O O19 0.491182 0.325015 0.858934
O O20 0.500000 0.276694 0.000000
O O21 0.250000 0.635982 0.103438
O O22 0.000000 0.631869 0.000000
O O23 0.500000 0.934035 0.500000
O O24 0.250000 0.917743 0.406283
#
# Coordination Sequence:
#
# PCOD9399644 Si02
#       8
#     8   8   8   8   8   8   8   8
#     4  10  21  36  53  72  93 119 151 187 226 266
#     4   9  18  34  53  71  95 126 153 180 222 271
#     4  11  21  34  54  78 101 124 148 179 218 266
#     4  11  21  36  54  73  95 120 152 190 230 275
#     4   8  13  20  31  48  70  99 140 188 235 279
#     4  11  21  32  45  65  91 123 159 197 239 282
#     4   9  15  24  37  53  77 111 148 191 238 280
#     4  10  18  32  52  75  99 125 151 179 218 263
#
# _framework density 15.589058
#
# number of rings (size 3 to 8) (size 9 to 14) (size 15 to 20)
#    0.000    2.125    1.250    5.250    0.000    3.000 
#    0.000    0.000    0.000    2.625    0.000    0.000 
#    0.000    0.000    0.000    0.000    0.000    0.625 
#
# Total GULP energy -356773.266626 kJ/mol
# GULP energy per Si atom -5574.582291 kJ/mol
# Density = 1.555358 g / cm^3
# Si number density = 15.589058 Si / 1000 Ang^3
#
#
#
# Elastic Constant Matrix: (Units=GPa)
#
#
# Indices 1 2 3 4 5 6 
#
# 1 53.9354 24.9309 20.9504 0.0000 0.0000 0.0000
# 2 24.9309 136.7606 52.4666 0.0000 0.0000 0.0000
# 3 20.9504 52.4666 79.7164 0.0000 0.0000 0.0000
# 4 0.0000 0.0000 0.0000 -14.1140 0.0000 0.0000
# 5 0.0000 0.0000 0.0000 0.0000 21.7461 0.0000
# 6 0.0000 0.0000 0.0000 0.0000 0.0000 62.8545
#
#
#
# Elastic Compliance Matrix: (Units=1/GPa)
#
#
# Indices 1 2 3 4 5 6 
#
# 1 0.021180 -0.002308 -0.004047 0.000000 0.000000 0.000000
# 2 -0.002308 0.010034 -0.005997 0.000000 0.000000 0.000000
# 3 -0.004047 -0.005997 0.017555 0.000000 0.000000 0.000000
# 4 0.000000 0.000000 0.000000 -0.070852 0.000000 0.000000
# 5 0.000000 0.000000 0.000000 0.000000 0.045985 0.000000
# 6 0.000000 0.000000 0.000000 0.000000 0.000000 0.015910
#
#
# Mechanical properties :
#
#
# Convention : Reuss Voigt Hill
#
# Bulk Modulus (GPa) = 41.55667 51.90090 46.72878
# Shear Modulus (GPa) = 68.92971 25.56830 47.24901
#
# Velocity S-wave (km/s) = 6.65678 4.05426 5.51134
# Velocity P-wave (km/s) = 9.26278 7.43515 8.39883
#
# Compressibility (1/GPa) = 0.02406353
#
# Stress axis : x y z
#
# Youngs Moduli (GPa) = 47.21496 99.66544 56.96335
#
# Poissons Ratio (x) = 0.23007 0.23053
# Poissons Ratio (y) = 0.10899 0.34161
# Poissons Ratio (z) = 0.19108 0.59770
#
# Static dielectric constant tensor:
#      x y z
#    x 1.523730 0.000000 0.000000 
#    y 0.000000 1.564720 0.000000 
#    z 0.000000 0.000000 1.491510 
# 
# From -- ./inp_files/22602.got.cif
#   From: 2010.05.17/outbox.cif.g08.bks.cpg/sg51_12_cif.got.tgz:22602.got - 2010.06.03 11:52:47.
