data_PCOD9399848
_publ_section_title
;
Structure prediction by ZEFSAII (Michael W. Deem and Ramdas Pophale) SiO2 
 PCOD9399848
Probable space group: P M M A
;
_chemical_formula_sum "Si O2"
_cell_formula_units_Z 56
_cell_length_a 15.812051
_cell_length_b 7.723816
_cell_length_c 21.936227
_cell_angle_alpha 90.000000
_cell_angle_beta 90.000000
_cell_angle_gamma 90.000000
_cell_volume 2679.057639
_symmetry_space_group_name_H-M "P M M A"
_symmetry_group_IT_number 51
_symmetry_cell_setting 'orthorhombic'
loop_
_space_group_symop_operation_xyz
x,y,z
1/2-x,-y,z
1/2+x,-y,-z
-x,y,-z
-x,-y,-z
1/2+x,y,-z
1/2-x,y,z
x,-y,z
loop_
_atom_site_type_symbol
_atom_site_label
_atom_site_fract_x
_atom_site_fract_y
_atom_site_fract_z
Si Si1 0.486866 0.702876 0.848304
Si Si2 0.901319 0.290600 0.498206
Si Si3 0.656389 0.711889 0.631303
Si Si4 0.845494 0.204306 0.917344
Si Si5 0.996771 0.702753 0.713326
Si Si6 0.346204 0.290165 0.941798
Si Si7 0.843142 0.203064 0.364638
O O1 0.464728 0.500000 0.842061
O O2 0.579236 0.715811 0.878335
O O3 0.488877 0.779301 0.780360
O O4 0.416347 0.775446 0.894492
O O5 0.897177 0.500000 0.495514
O O6 0.859525 0.233856 0.561469
O O7 0.859313 0.223786 0.436694
O O8 0.000000 0.241328 0.500000
O O9 0.750000 0.762936 0.651450
O O10 0.652994 0.500000 0.630430
O O11 0.581721 0.776144 0.674867
O O12 0.750000 0.271885 0.905494
O O13 0.845271 0.000000 0.904969
O O14 0.863007 0.231254 0.989131
O O15 0.976353 0.500000 0.722408
O O16 0.080502 0.713837 0.672474
O O17 0.250000 0.238255 0.925660
O O18 0.348865 0.500000 0.943068
O O19 0.750000 0.273512 0.349778
O O20 0.844459 0.000000 0.350142
#
# Coordination Sequence:
#
# PCOD9399848 Si02
#       7
#     8   8   8   8   8   8   8
#     4  10  21  35  56  83 110 143 183 226 276 325
#     4  10  18  33  59  84 106 136 179 229 280 329
#     4   9  17  31  53  80 107 135 173 223 274 324
#     4  10  21  36  55  81 112 146 183 221 266 323
#     4  10  21  38  57  80 109 144 186 228 269 322
#     4   9  18  34  55  80 110 140 176 226 279 327
#     4  11  24  39  55  79 112 148 185 226 276 329
#
# _framework density 20.902873
#
# number of rings (size 3 to 8) (size 9 to 14) (size 15 to 20)
#    0.000    2.143    1.429    1.714    0.000    6.857 
#    0.000    2.857    0.000    2.143    0.000    0.000 
#    0.000    0.000    0.000    0.000    0.000    0.000 
#
# Total GULP energy -312752.871277 kJ/mol
# GULP energy per Si atom -5584.872701 kJ/mol
# Density = 2.085530 g / cm^3
# Si number density = 20.902873 Si / 1000 Ang^3
#
#
#
# Elastic Constant Matrix: (Units=GPa)
#
#
# Indices 1 2 3 4 5 6 
#
# 1 115.2608 -12.3563 42.3103 0.0000 0.0000 0.0000
# 2 -12.3563 28.0227 -10.9072 0.0000 0.0000 0.0000
# 3 42.3103 -10.9072 82.4032 0.0000 0.0000 0.0000
# 4 0.0000 0.0000 0.0000 317.6294 0.0000 0.0000
# 5 0.0000 0.0000 0.0000 0.0000 -5.5658 0.0000
# 6 0.0000 0.0000 0.0000 0.0000 0.0000 -14.7392
#
#
#
# Elastic Compliance Matrix: (Units=1/GPa)
#
#
# Indices 1 2 3 4 5 6 
#
# 1 0.010891 0.002768 -0.005226 0.000000 0.000000 0.000000
# 2 0.002768 0.038327 0.003652 0.000000 0.000000 0.000000
# 3 -0.005226 0.003652 0.015302 0.000000 0.000000 0.000000
# 4 0.000000 0.000000 0.000000 0.003148 0.000000 0.000000
# 5 0.000000 0.000000 0.000000 0.000000 -0.179669 0.000000
# 6 0.000000 0.000000 0.000000 0.000000 0.000000 -0.067846
#
#
# Mechanical properties :
#
#
# Convention : Reuss Voigt Hill
#
# Bulk Modulus (GPa) = 14.94561 29.30893 22.12727
# Shear Modulus (GPa) = -31.26331 73.24087 20.98878
#
# Velocity S-wave (km/s) = -3.87155 5.92577 3.17221
# Velocity P-wave (km/s) = 3.58046 7.80202 4.90163
#
# Compressibility (1/GPa) = 0.06690926
#
# Stress axis : x y z
#
# Youngs Moduli (GPa) = 91.81911 26.09097 65.35126
#
# Poissons Ratio (x) = -0.07223 0.34150
# Poissons Ratio (y) = -0.25419 -0.23865
# Poissons Ratio (z) = 0.47981 -0.09528
#
# Static dielectric constant tensor:
#      x y z
#    x 1.741580 0.000000 0.000000 
#    y 0.000000 1.781060 0.000000 
#    z 0.000000 0.000000 1.720590 
# 
# From -- ./inp_files/33356.got.cif
#   From: 2010.05.17/outbox.cif.g08.bks.cpg/sg51_17_cif.got.tgz:33356.got - 2010.06.03 11:52:47.
