data_PCOD9399946
_publ_section_title
;
Structure prediction by ZEFSAII (Michael W. Deem and Ramdas Pophale) SiO2 
 PCOD9399946
Probable space group: P M M A
;
_chemical_formula_sum "Si O2"
_cell_formula_units_Z 44
_cell_length_a 14.620729
_cell_length_b 17.111791
_cell_length_c 7.649928
_cell_angle_alpha 90.000000
_cell_angle_beta 90.000000
_cell_angle_gamma 90.000000
_cell_volume 1913.911457
_symmetry_space_group_name_H-M "P M M A"
_symmetry_group_IT_number 51
_symmetry_cell_setting 'orthorhombic'
loop_
_space_group_symop_operation_xyz
x,y,z
1/2-x,-y,z
1/2+x,-y,-z
-x,y,-z
-x,-y,-z
1/2+x,y,-z
1/2-x,y,z
x,-y,z
loop_
_atom_site_type_symbol
_atom_site_label
_atom_site_fract_x
_atom_site_fract_y
_atom_site_fract_z
Si Si1 0.390733 0.246282 0.471380
Si Si2 0.144622 0.582871 0.886154
Si Si3 0.353295 0.751560 0.872675
Si Si4 0.646619 0.915809 0.724588
Si Si5 0.109490 0.584167 0.474529
Si Si6 0.500000 0.873752 0.000000
O O1 0.500000 0.243913 0.500000
O O2 0.348464 0.248987 0.663372
O O3 0.362886 0.166564 0.376225
O O4 0.367128 0.331888 0.389298
O O5 0.250000 0.582829 0.943230
O O6 0.102108 0.500000 0.940652
O O7 0.107888 0.667657 0.935905
O O8 0.145220 0.583222 0.673874
O O9 0.250000 0.762529 0.941123
O O10 0.423775 0.818544 0.915393
O O11 0.750000 0.914796 0.802411
O O12 0.561613 0.917118 0.857651
O O13 0.641740 0.000000 0.624979
O O14 0.135584 0.500000 0.392275
O O15 0.000000 0.584034 0.500000
#
# Coordination Sequence:
#
# PCOD9399946 Si02
#       6
#     8   8   8   8   8   4
#     4  10  18  36  61  90 122 153 193 244 295 344
#     4   8  14  26  46  74 107 144 189 236 280 333
#     4  10  20  35  59  87 116 155 198 240 291 348
#     4  11  25  44  65  89 117 152 194 244 303 359
#     4   8  14  24  46  80 115 148 184 228 281 339
#     4  12  23  42  61  84 116 154 195 244 292 360
#
# _framework density 22.989568999999999
#
# number of rings (size 3 to 8) (size 9 to 14) (size 15 to 20)
#    0.000    2.364    1.818    1.364    0.000    1.091 
#    0.000    0.455    0.000    4.364    0.000    0.000 
#    0.000    0.000    0.000    0.000    0.000    0.000 
#
# Total GULP energy -245062.859702 kJ/mol
# GULP energy per Si atom -5569.610448 kJ/mol
# Density = 2.293724 g / cm^3
# Si number density = 22.989569 Si / 1000 Ang^3
#
#
#
# Elastic Constant Matrix: (Units=GPa)
#
#
# Indices 1 2 3 4 5 6 
#
# 1 133.2541 40.9430 4.1183 0.0000 0.0000 0.0000
# 2 40.9430 259.8781 35.8559 0.0000 0.0000 0.0000
# 3 4.1183 35.8559 24.5963 0.0000 0.0000 0.0000
# 4 0.0000 0.0000 0.0000 44.5932 0.0000 0.0000
# 5 0.0000 0.0000 0.0000 0.0000 25.3271 0.0000
# 6 0.0000 0.0000 0.0000 0.0000 0.0000 7.4363
#
#
#
# Elastic Compliance Matrix: (Units=1/GPa)
#
#
# Indices 1 2 3 4 5 6 
#
# 1 0.007894 -0.001328 0.000615 0.000000 0.000000 0.000000
# 2 -0.001328 0.005040 -0.007125 0.000000 0.000000 0.000000
# 3 0.000615 -0.007125 0.050941 0.000000 0.000000 0.000000
# 4 0.000000 0.000000 0.000000 0.022425 0.000000 0.000000
# 5 0.000000 0.000000 0.000000 0.000000 0.039483 0.000000
# 6 0.000000 0.000000 0.000000 0.000000 0.000000 0.134475
#
#
# Mechanical properties :
#
#
# Convention : Reuss Voigt Hill
#
# Bulk Modulus (GPa) = 20.74819 64.39589 42.57204
# Shear Modulus (GPa) = 17.12324 37.92542 27.52433
#
# Velocity S-wave (km/s) = 2.73211 4.06603 3.46389
# Velocity P-wave (km/s) = 4.35858 7.07921 5.87845
#
# Compressibility (1/GPa) = 0.04819697
#
# Stress axis : x y z
#
# Youngs Moduli (GPa) = 126.68442 198.39934 19.63071
#
# Poissons Ratio (x) = 0.26357 -0.01207
# Poissons Ratio (y) = 0.16830 0.13987
# Poissons Ratio (z) = -0.07790 1.41365
#
# Static dielectric constant tensor:
#      x y z
#    x 1.803130 0.000000 0.000000 
#    y 0.000000 1.966730 0.000000 
#    z 0.000000 0.000000 1.870050 
# 
# From -- ./inp_files/8161.got.cif
#   From: 2010.05.17/outbox.cif.g08.bks.cpg/sg51_5_cif.got.tgz:8161.got - 2010.06.03 11:52:47.
