data_PCOD9399166
_publ_section_title
;
Structure prediction by ZEFSAII (Michael W. Deem and Ramdas Pophale) SiO2 
 PCOD9399166
Probable space group: P M M A
;
_chemical_formula_sum "Si O2"
_cell_formula_units_Z 44
_cell_length_a 8.698165
_cell_length_b 14.329780
_cell_length_c 19.443617
_cell_angle_alpha 90.000000
_cell_angle_beta 90.000000
_cell_angle_gamma 90.000000
_cell_volume 2423.506687
_symmetry_space_group_name_H-M "P M M A"
_symmetry_group_IT_number 51
_symmetry_cell_setting 'orthorhombic'
loop_
_space_group_symop_operation_xyz
x,y,z
1/2-x,-y,z
1/2+x,-y,-z
-x,y,-z
-x,-y,-z
1/2+x,y,-z
1/2-x,y,z
x,-y,z
loop_
_atom_site_type_symbol
_atom_site_label
_atom_site_fract_x
_atom_site_fract_y
_atom_site_fract_z
Si Si1 0.564489 0.894331 0.804042
Si Si2 0.934199 0.724202 0.704487
Si Si3 0.064790 0.393026 0.165094
Si Si4 0.433978 0.000000 0.422602
Si Si5 0.932398 0.195545 0.423584
Si Si6 0.567066 0.775088 0.076219
O O1 0.750000 0.891988 0.808803
O O2 0.521375 0.817213 0.747457
O O3 0.495871 0.858192 0.875656
O O4 0.517610 0.000000 0.787385
O O5 0.750000 0.726133 0.693158
O O6 0.970355 0.640520 0.757069
O O7 0.018425 0.727257 0.631717
O O8 0.250000 0.384620 0.157329
O O9 0.020460 0.500000 0.153526
O O10 0.988035 0.320442 0.113039
O O11 0.500000 0.000000 0.500000
O O12 0.496341 0.902054 0.395261
O O13 0.250000 0.000000 0.420927
O O14 0.750000 0.186121 0.428926
O O15 0.000000 0.211542 0.500000
O O16 0.750000 0.777847 0.074154
O O17 0.500000 0.780676 0.000000
#
# Coordination Sequence:
#
# PCOD9399166 Si02
#       6
#     8   8   8   4   8   8
#     4   9  19  36  56  78 106 144 184 220 263 315
#     4   9  18  33  54  80 107 138 174 216 265 319
#     4   9  19  38  62  84 107 137 173 214 266 326
#     4  10  18  30  46  66  96 132 171 212 257 306
#     4  11  21  33  49  73 104 140 179 221 265 312
#     4  11  22  36  55  80 111 144 178 221 265 312
#
# _framework density 18.15551
#
# number of rings (size 3 to 8) (size 9 to 14) (size 15 to 20)
#    0.000    2.182    0.000    6.273    1.273    4.364 
#    0.000    0.000    0.000    0.545    0.000    0.000 
#    0.000    0.000    0.000    0.000    0.000    0.000 
#
# Total GULP energy -245537.920663 kJ/mol
# GULP energy per Si atom -5580.407288 kJ/mol
# Density = 1.811419 g / cm^3
# Si number density = 18.155510 Si / 1000 Ang^3
#
#
#
# Elastic Constant Matrix: (Units=GPa)
#
#
# Indices 1 2 3 4 5 6 
#
# 1 57.5995 1.6398 17.9821 0.0000 0.0000 0.0000
# 2 1.6398 44.7416 -7.5686 0.0000 0.0000 0.0000
# 3 17.9821 -7.5686 81.4394 0.0000 0.0000 0.0000
# 4 0.0000 0.0000 0.0000 16.3721 0.0000 0.0000
# 5 0.0000 0.0000 0.0000 0.0000 29.5464 0.0000
# 6 0.0000 0.0000 0.0000 0.0000 0.0000 19.4467
#
#
#
# Elastic Compliance Matrix: (Units=1/GPa)
#
#
# Indices 1 2 3 4 5 6 
#
# 1 0.018734 -0.001408 -0.004267 0.000000 0.000000 0.000000
# 2 -0.001408 0.022813 0.002431 0.000000 0.000000 0.000000
# 3 -0.004267 0.002431 0.013447 0.000000 0.000000 0.000000
# 4 0.000000 0.000000 0.000000 0.061080 0.000000 0.000000
# 5 0.000000 0.000000 0.000000 0.000000 0.033845 0.000000
# 6 0.000000 0.000000 0.000000 0.000000 0.000000 0.051423
#
#
# Mechanical properties :
#
#
# Convention : Reuss Voigt Hill
#
# Bulk Modulus (GPa) = 20.61640 23.09855 21.85748
# Shear Modulus (GPa) = 22.32151 24.52152 23.42152
#
# Velocity S-wave (km/s) = 3.51017 3.67909 3.59562
# Velocity P-wave (km/s) = 5.27338 5.54958 5.41324
#
# Compressibility (1/GPa) = 0.04850507
#
# Stress axis : x y z
#
# Youngs Moduli (GPa) = 53.38006 43.83374 74.36464
#
# Poissons Ratio (x) = 0.06174 0.31734
# Poissons Ratio (y) = 0.07518 -0.18079
# Poissons Ratio (z) = 0.22779 -0.10657
#
# Static dielectric constant tensor:
#      x y z
#    x 1.607840 0.000000 0.000000 
#    y 0.000000 1.638180 0.000000 
#    z 0.000000 0.000000 1.612160 
# 
# From -- ./inp_files/27399.got.cif
#   From: 2010.05.17/outbox.cif.g08.bks.cpg/sg51_14_cif.got.tgz:27399.got - 2010.06.03 11:52:47.
