data_PCOD9399741
_publ_section_title
;
Structure prediction by ZEFSAII (Michael W. Deem and Ramdas Pophale) SiO2 
 PCOD9399741
Probable space group: P M M A
;
_chemical_formula_sum "Si O2"
_cell_formula_units_Z 64
_cell_length_a 17.142477
_cell_length_b 20.685819
_cell_length_c 9.849158
_cell_angle_alpha 90.000000
_cell_angle_beta 90.000000
_cell_angle_gamma 90.000000
_cell_volume 3492.572259
_symmetry_space_group_name_H-M "P M M A"
_symmetry_group_IT_number 51
_symmetry_cell_setting 'orthorhombic'
loop_
_space_group_symop_operation_xyz
x,y,z
1/2-x,-y,z
1/2+x,-y,-z
-x,y,-z
-x,-y,-z
1/2+x,y,-z
1/2-x,y,z
x,-y,z
loop_
_atom_site_type_symbol
_atom_site_label
_atom_site_fract_x
_atom_site_fract_y
_atom_site_fract_z
Si Si1 0.843724 0.829536 0.833133
Si Si2 0.576508 0.798482 0.091295
Si Si3 0.843781 0.926550 0.594207
Si Si4 0.343451 0.665720 0.810832
Si Si5 0.907891 0.306915 0.469569
Si Si6 0.155477 0.427370 0.050629
Si Si7 0.157319 0.685156 0.244077
Si Si8 0.925401 0.837160 0.400478
O O1 0.750000 0.828920 0.829227
O O2 0.870091 0.881278 0.720458
O O3 0.872308 0.757209 0.791637
O O4 0.870677 0.840185 0.987613
O O5 0.619563 0.730455 0.122580
O O6 0.560313 0.831260 0.238487
O O7 0.500000 0.787324 0.000000
O O8 0.750000 0.927073 0.597100
O O9 0.871282 0.894703 0.453338
O O10 0.872233 0.000000 0.608340
O O11 0.250000 0.675100 0.800402
O O12 0.382461 0.656854 0.665206
O O13 0.358608 0.603948 0.904373
O O14 0.861580 0.328461 0.600894
O O15 0.887755 0.231751 0.440760
O O16 0.000000 0.310733 0.500000
O O17 0.250000 0.430149 0.067453
O O18 0.125463 0.500000 0.067575
O O19 0.124723 0.373119 0.154215
O O20 0.250000 0.687521 0.220935
O O21 0.000000 0.842302 0.500000
#
# Coordination Sequence:
#
# PCOD9399741 Si02
#       8
#     8   8   8   8   8   8   8   8
#     4  10  19  34  56  83 111 141 183 232 280 333
#     4  11  22  33  56  84 114 145 185 239 284 335
#     4  10  21  37  58  82 111 148 183 223 281 340
#     4  10  20  34  54  82 112 144 185 232 286 336
#     4  10  21  33  54  82 111 143 184 235 280 328
#     4   9  18  33  54  80 109 142 182 227 276 334
#     4  10  18  32  56  81 107 140 182 230 279 328
#     4  10  21  36  54  79 110 145 188 228 275 328
#
# _framework density 18.324601999999999
#
# number of rings (size 3 to 8) (size 9 to 14) (size 15 to 20)
#    0.000    2.000    2.500    1.500    3.500    2.750 
#    0.000    1.250    0.000   10.125    0.000    0.000 
#    0.000    0.000    0.000    0.000    0.000    0.000 
#
# Total GULP energy -356800.653076 kJ/mol
# GULP energy per Si atom -5575.010204 kJ/mol
# Density = 1.828289 g / cm^3
# Si number density = 18.324602 Si / 1000 Ang^3
#
#
#
# Elastic Constant Matrix: (Units=GPa)
#
#
# Indices 1 2 3 4 5 6 
#
# 1 23.2787 30.9460 25.4352 0.0000 0.0000 0.0000
# 2 30.9460 119.0403 69.6869 0.0000 0.0000 0.0000
# 3 25.4352 69.6869 155.8027 0.0000 0.0000 0.0000
# 4 0.0000 0.0000 0.0000 17.1515 0.0000 0.0000
# 5 0.0000 0.0000 0.0000 0.0000 32.3955 0.0000
# 6 0.0000 0.0000 0.0000 0.0000 0.0000 5.6699
#
#
#
# Elastic Compliance Matrix: (Units=1/GPa)
#
#
# Indices 1 2 3 4 5 6 
#
# 1 0.067714 -0.015080 -0.004309 0.000000 0.000000 0.000000
# 2 -0.015080 0.014739 -0.004130 0.000000 0.000000 0.000000
# 3 -0.004309 -0.004130 0.008969 0.000000 0.000000 0.000000
# 4 0.000000 0.000000 0.000000 0.058304 0.000000 0.000000
# 5 0.000000 0.000000 0.000000 0.000000 0.030868 0.000000
# 6 0.000000 0.000000 0.000000 0.000000 0.000000 0.176372
#
#
# Mechanical properties :
#
#
# Convention : Reuss Voigt Hill
#
# Bulk Modulus (GPa) = 22.53183 61.13976 41.83580
# Shear Modulus (GPa) = 11.93888 22.51361 17.22625
#
# Velocity S-wave (km/s) = 2.55526 3.50894 3.06937
# Velocity P-wave (km/s) = 4.58568 7.06075 5.95326
#
# Compressibility (1/GPa) = 0.04438166
#
# Stress axis : x y z
#
# Youngs Moduli (GPa) = 14.76807 67.84815 111.49102
#
# Poissons Ratio (x) = 1.02317 0.48046
# Poissons Ratio (y) = 0.22271 0.46051
# Poissons Ratio (z) = 0.06364 0.28024
#
# Static dielectric constant tensor:
#      x y z
#    x 1.671450 0.000000 0.000000 
#    y 0.000000 1.629520 0.000000 
#    z 0.000000 0.000000 1.653700 
# 
# From -- ./inp_files/10034.got.cif
#   From: 2010.05.17/outbox.cif.g08.bks.cpg/sg51_6_cif.got.tgz:10034.got - 2010.06.03 11:52:47.
