data_PCOD9399690
_publ_section_title
;
Structure prediction by ZEFSAII (Michael W. Deem and Ramdas Pophale) SiO2 
 PCOD9399690
Probable space group: P M M A
;
_chemical_formula_sum "Si O2"
_cell_formula_units_Z 64
_cell_length_a 19.531996
_cell_length_b 8.074652
_cell_length_c 19.947007
_cell_angle_alpha 90.000000
_cell_angle_beta 90.000000
_cell_angle_gamma 90.000000
_cell_volume 3145.923670
_symmetry_space_group_name_H-M "P M M A"
_symmetry_group_IT_number 51
_symmetry_cell_setting 'orthorhombic'
loop_
_space_group_symop_operation_xyz
x,y,z
1/2-x,-y,z
1/2+x,-y,-z
-x,y,-z
-x,-y,-z
1/2+x,y,-z
1/2-x,y,z
x,-y,z
loop_
_atom_site_type_symbol
_atom_site_label
_atom_site_fract_x
_atom_site_fract_y
_atom_site_fract_z
Si Si1 0.594674 0.193822 0.854060
Si Si2 0.909050 0.302155 0.586552
Si Si3 0.828494 0.297114 0.455113
Si Si4 0.672032 0.693964 0.982877
Si Si5 0.171778 0.806508 0.869763
Si Si6 0.170714 0.200591 0.280314
Si Si7 0.448046 0.297393 0.640220
Si Si8 0.542006 0.693270 0.206885
O O1 0.621195 0.275812 0.921767
O O2 0.635145 0.257839 0.788450
O O3 0.515031 0.218353 0.837976
O O4 0.610062 0.000000 0.860520
O O5 0.913824 0.500000 0.577748
O O6 0.866191 0.239550 0.523111
O O7 0.869127 0.266046 0.655152
O O8 0.986814 0.241709 0.596247
O O9 0.750000 0.241280 0.451344
O O10 0.827149 0.500000 0.456193
O O11 0.876898 0.246638 0.393495
O O12 0.750000 0.742010 0.962778
O O13 0.672221 0.500000 0.999367
O O14 0.654721 0.787047 0.051504
O O15 0.250000 0.746081 0.861260
O O16 0.116348 0.713995 0.825335
O O17 0.169577 0.000000 0.852251
O O18 0.250000 0.250459 0.282193
O O19 0.167430 0.000000 0.281738
O O20 0.448483 0.500000 0.641020
O O21 0.457641 0.242217 0.716792
O O22 0.523327 0.500000 0.208903
#
# Coordination Sequence:
#
# PCOD9399690 Si02
#       8
#     8   8   8   8   8   8   8   8
#     4  11  22  37  57  81 115 155 193 232 280 342
#     4  10  18  32  54  80 108 142 185 232 281 334
#     4   9  17  29  49  80 112 143 184 234 286 339
#     4  10  21  38  61  89 119 150 188 237 288 337
#     4  10  22  41  63  86 114 150 191 234 283 342
#     4  10  21  35  52  77 111 150 187 225 275 334
#     4   9  18  32  51  77 112 148 183 231 289 341
#     4  11  22  37  58  85 115 149 192 241 290 338
#
# _framework density 20.343788
#
# number of rings (size 3 to 8) (size 9 to 14) (size 15 to 20)
#    0.000    2.000    1.250    2.625    0.000    5.750 
#    0.000    3.750    0.000    3.000    0.000    1.750 
#    0.000    0.000    0.000    0.000    0.000    0.000 
#
# Total GULP energy -357502.951033 kJ/mol
# GULP energy per Si atom -5585.983610 kJ/mol
# Density = 2.029748 g / cm^3
# Si number density = 20.343788 Si / 1000 Ang^3
#
#
#
# Elastic Constant Matrix: (Units=GPa)
#
#
# Indices 1 2 3 4 5 6 
#
# 1 125.4011 -2.7679 40.2210 0.0000 0.0000 0.0000
# 2 -2.7679 16.3222 -0.4139 0.0000 0.0000 0.0000
# 3 40.2210 -0.4139 38.6548 0.0000 0.0000 0.0000
# 4 0.0000 0.0000 0.0000 3.1714 0.0000 0.0000
# 5 0.0000 0.0000 0.0000 0.0000 35.5163 0.0000
# 6 0.0000 0.0000 0.0000 0.0000 0.0000 17.1674
#
#
#
# Elastic Compliance Matrix: (Units=1/GPa)
#
#
# Indices 1 2 3 4 5 6 
#
# 1 0.012017 0.001721 -0.012485 0.000000 0.000000 0.000000
# 2 0.001721 0.061529 -0.001132 0.000000 0.000000 0.000000
# 3 -0.012485 -0.001132 0.038849 0.000000 0.000000 0.000000
# 4 0.000000 0.000000 0.000000 0.315322 0.000000 0.000000
# 5 0.000000 0.000000 0.000000 0.000000 0.028156 0.000000
# 6 0.000000 0.000000 0.000000 0.000000 0.000000 0.058250
#
#
# Mechanical properties :
#
#
# Convention : Reuss Voigt Hill
#
# Bulk Modulus (GPa) = 11.28632 28.27294 19.77963
# Shear Modulus (GPa) = 8.81135 20.72694 14.76915
#
# Velocity S-wave (km/s) = 2.08342 3.19538 2.69732
# Velocity P-wave (km/s) = 3.36858 5.24802 4.40959
#
# Compressibility (1/GPa) = 0.08860288
#
# Stress axis : x y z
#
# Youngs Moduli (GPa) = 83.21573 16.25243 25.74059
#
# Poissons Ratio (x) = -0.02797 0.32138
# Poissons Ratio (y) = -0.14323 0.02914
# Poissons Ratio (z) = 1.03898 0.01840
#
# Static dielectric constant tensor:
#      x y z
#    x 1.710330 0.000000 0.000000 
#    y 0.000000 1.714240 0.000000 
#    z 0.000000 0.000000 1.689750 
# 
# From -- ./inp_files/33981.got.cif
#   From: 2010.05.17/outbox.cif.g08.bks.cpg/sg51_17_cif.got.tgz:33981.got - 2010.06.03 11:52:47.
