data_PCOD9399340
_publ_section_title
;
Structure prediction by ZEFSAII (Michael W. Deem and Ramdas Pophale) SiO2 
 PCOD9399340
Probable space group: P M M A
;
_chemical_formula_sum "Si O2"
_cell_formula_units_Z 58
_cell_length_a 28.392501
_cell_length_b 12.023245
_cell_length_c 7.582275
_cell_angle_alpha 90.000000
_cell_angle_beta 90.000000
_cell_angle_gamma 90.000000
_cell_volume 2588.361184
_symmetry_space_group_name_H-M "P M M A"
_symmetry_group_IT_number 51
_symmetry_cell_setting 'orthorhombic'
loop_
_space_group_symop_operation_xyz
x,y,z
1/2-x,-y,z
1/2+x,-y,-z
-x,y,-z
-x,-y,-z
1/2+x,y,-z
1/2-x,y,z
x,-y,z
loop_
_atom_site_type_symbol
_atom_site_label
_atom_site_fract_x
_atom_site_fract_y
_atom_site_fract_z
Si Si1 0.371358 0.694487 0.430184
Si Si2 0.517913 0.125720 0.293514
Si Si3 0.325955 0.847317 0.985692
Si Si4 0.304527 0.619151 0.131307
Si Si5 0.542351 0.375697 0.355474
Si Si6 0.696031 0.877130 0.412681
Si Si7 0.083823 0.120655 0.188589
Si Si8 0.750000 0.000000 0.847141
O O1 0.337645 0.626848 0.301149
O O2 0.407170 0.626701 0.548570
O O3 0.338294 0.780041 0.533337
O O4 0.402546 0.776093 0.308884
O O5 0.500000 0.125365 0.500000
O O6 0.540559 0.249910 0.268506
O O7 0.471844 0.125862 0.169067
O O8 0.540640 0.000000 0.270860
O O9 0.319170 0.716795 0.002794
O O10 0.380315 0.874271 0.024948
O O11 0.291918 0.904186 0.129917
O O12 0.307426 0.884666 0.797985
O O13 0.250000 0.632531 0.182281
O O14 0.310102 0.500000 0.043877
O O15 0.500000 0.374198 0.500000
O O16 0.537881 0.500000 0.265398
O O17 0.750000 0.855428 0.464877
O O18 0.684474 0.000000 0.484547
O O19 0.092621 0.000000 0.275242
#
# Coordination Sequence:
#
# PCOD9399340 Si02
#       8
#     8   8   8   8   8   8   8   2
#     4  11  21  32  53  83 113 148 187 234 286 343
#     4   9  16  29  49  76 110 137 177 229 286 342
#     4  11  20  35  58  81 113 152 194 234 284 336
#     4  10  21  37  54  79 113 148 189 239 284 333
#     4  10  19  34  53  79 109 145 185 231 289 351
#     4  11  21  37  55  84 122 160 193 233 286 350
#     4  10  18  30  50  82 109 141 184 234 283 336
#     4  12  16  36  58  82 110 154 194 240 286 332
#
# _framework density 22.408000999999999
#
# number of rings (size 3 to 8) (size 9 to 14) (size 15 to 20)
#    0.000    1.655    5.517    1.241    0.000    0.552 
#    0.000    1.379    0.000    4.138    0.000    3.862 
#    0.000    0.000    0.000    0.000    0.000    0.000 
#
# Total GULP energy -322954.793949 kJ/mol
# GULP energy per Si atom -5568.186103 kJ/mol
# Density = 2.235700 g / cm^3
# Si number density = 22.408001 Si / 1000 Ang^3
#
#
#
# Elastic Constant Matrix: (Units=GPa)
#
#
# Indices 1 2 3 4 5 6 
#
# 1 63.1394 32.1938 30.1081 0.0000 0.0000 0.0000
# 2 32.1938 205.8041 17.5501 0.0000 0.0000 0.0000
# 3 30.1081 17.5501 29.8905 0.0000 0.0000 0.0000
# 4 0.0000 0.0000 0.0000 -124.2322 0.0000 0.0000
# 5 0.0000 0.0000 0.0000 0.0000 26.0385 0.0000
# 6 0.0000 0.0000 0.0000 0.0000 0.0000 28.5474
#
#
#
# Elastic Compliance Matrix: (Units=1/GPa)
#
#
# Indices 1 2 3 4 5 6 
#
# 1 0.031512 -0.002340 -0.030367 0.000000 0.000000 0.000000
# 2 -0.002340 0.005289 -0.000749 0.000000 0.000000 0.000000
# 3 -0.030367 -0.000749 0.064483 0.000000 0.000000 0.000000
# 4 0.000000 0.000000 0.000000 -0.008049 0.000000 0.000000
# 5 0.000000 0.000000 0.000000 0.000000 0.038405 0.000000
# 6 0.000000 0.000000 0.000000 0.000000 0.000000 0.035029
#
#
# Mechanical properties :
#
#
# Convention : Reuss Voigt Hill
#
# Bulk Modulus (GPa) = 29.09292 50.94867 40.02079
# Shear Modulus (GPa) = 20.40513 0.66955 10.53734
#
# Velocity S-wave (km/s) = 3.02092 0.54722 2.17088
# Velocity P-wave (km/s) = 5.01791 4.81513 4.91756
#
# Compressibility (1/GPa) = 0.03437263
#
# Stress axis : x y z
#
# Youngs Moduli (GPa) = 31.73439 189.07782 15.50796
#
# Poissons Ratio (x) = 0.44240 0.47093
# Poissons Ratio (y) = 0.07425 0.01161
# Poissons Ratio (z) = 0.96368 0.14153
#
# Static dielectric constant tensor:
#      x y z
#    x 1.832120 0.000000 0.000000 
#    y 0.000000 1.754970 0.000000 
#    z 0.000000 0.000000 1.889290 
# 
# From -- ./inp_files/13131.got.cif
#   From: 2010.05.17/outbox.cif.g08.bks.cpg/sg51_7_cif.got.tgz:13131.got - 2010.06.03 11:52:47.
