data_PCOD9399087
_publ_section_title
;
Structure prediction by ZEFSAII (Michael W. Deem and Ramdas Pophale) SiO2 
 PCOD9399087
Probable space group: P M M A
;
_chemical_formula_sum "Si O2"
_cell_formula_units_Z 56
_cell_length_a 18.731035
_cell_length_b 17.580113
_cell_length_c 9.675674
_cell_angle_alpha 90.000000
_cell_angle_beta 90.000000
_cell_angle_gamma 90.000000
_cell_volume 3186.138607
_symmetry_space_group_name_H-M "P M M A"
_symmetry_group_IT_number 51
_symmetry_cell_setting 'orthorhombic'
loop_
_space_group_symop_operation_xyz
x,y,z
1/2-x,-y,z
1/2+x,-y,-z
-x,y,-z
-x,-y,-z
1/2+x,y,-z
1/2-x,y,z
x,-y,z
loop_
_atom_site_type_symbol
_atom_site_label
_atom_site_fract_x
_atom_site_fract_y
_atom_site_fract_z
Si Si1 0.464383 0.413490 0.631573
Si Si2 0.073393 0.089462 0.585870
Si Si3 0.917501 0.248010 0.862492
Si Si4 0.577745 0.199615 0.161562
Si Si5 0.167157 0.796512 0.411145
Si Si6 0.934803 0.416585 0.892447
Si Si7 0.668496 0.687941 0.331488
O O1 0.500000 0.372923 0.500000
O O2 0.445672 0.500000 0.592883
O O3 0.525847 0.415799 0.745342
O O4 0.391900 0.375477 0.681008
O O5 0.068669 0.127014 0.738524
O O6 0.132120 0.134710 0.497088
O O7 0.000000 0.100394 0.500000
O O8 0.087956 0.000000 0.595481
O O9 0.874860 0.220325 0.729474
O O10 0.896271 0.334986 0.902661
O O11 0.002447 0.245485 0.827892
O O12 0.909307 0.194365 0.997397
O O13 0.642694 0.246923 0.226521
O O14 0.250000 0.811437 0.382318
O O15 0.163152 0.724528 0.515358
O O16 0.898307 0.500000 0.909270
O O17 0.000000 0.414794 0.000000
O O18 0.750000 0.664401 0.307280
#
# Coordination Sequence:
#
# PCOD9399087 Si02
#       7
#     8   8   8   8   8   8   8
#     4  10  19  30  47  72  99 136 180 226 279 327
#     4  10  20  37  60  85 111 143 180 221 272 331
#     4  11  18  34  55  81 113 145 187 234 274 321
#     4  10  20  33  55  83 108 142 182 227 273 323
#     4  10  22  36  56  82 107 144 183 222 277 336
#     4  10  18  29  48  76 107 142 188 232 272 317
#     4  10  20  33  50  75 103 138 182 225 275 331
#
# _framework density 17.576132999999999
#
# number of rings (size 3 to 8) (size 9 to 14) (size 15 to 20)
#    0.000    1.857    4.286    0.857    0.000    1.143 
#    0.000    2.143    0.000    1.286    0.000    0.000 
#    0.000    0.000    0.000    0.000    0.000    0.000 
#
# Total GULP energy -311962.553737 kJ/mol
# GULP energy per Si atom -5570.759888 kJ/mol
# Density = 1.753613 g / cm^3
# Si number density = 17.576133 Si / 1000 Ang^3
#
#
#
# Elastic Constant Matrix: (Units=GPa)
#
#
# Indices 1 2 3 4 5 6 
#
# 1 39.5676 -1.6545 2.8603 0.0000 0.0000 0.0000
# 2 -1.6545 79.5188 11.5043 0.0000 0.0000 0.0000
# 3 2.8603 11.5043 98.1758 0.0000 0.0000 0.0000
# 4 0.0000 0.0000 0.0000 18.9130 0.0000 0.0000
# 5 0.0000 0.0000 0.0000 0.0000 12.1864 0.0000
# 6 0.0000 0.0000 0.0000 0.0000 0.0000 15.5086
#
#
#
# Elastic Compliance Matrix: (Units=1/GPa)
#
#
# Indices 1 2 3 4 5 6 
#
# 1 0.025359 0.000645 -0.000814 0.000000 0.000000 0.000000
# 2 0.000645 0.012809 -0.001520 0.000000 0.000000 0.000000
# 3 -0.000814 -0.001520 0.010388 0.000000 0.000000 0.000000
# 4 0.000000 0.000000 0.000000 0.052874 0.000000 0.000000
# 5 0.000000 0.000000 0.000000 0.000000 0.082059 0.000000
# 6 0.000000 0.000000 0.000000 0.000000 0.000000 0.064480
#
#
# Mechanical properties :
#
#
# Convention : Reuss Voigt Hill
#
# Bulk Modulus (GPa) = 22.13464 26.96474 24.54969
# Shear Modulus (GPa) = 18.76842 22.95842 20.86342
#
# Velocity S-wave (km/s) = 3.27132 3.61810 3.44907
# Velocity P-wave (km/s) = 5.18552 5.72967 5.46437
#
# Compressibility (1/GPa) = 0.04517805
#
# Stress axis : x y z
#
# Youngs Moduli (GPa) = 39.43364 78.07046 96.26836
#
# Poissons Ratio (x) = -0.05039 0.07841
# Poissons Ratio (y) = -0.02545 0.14631
# Poissons Ratio (z) = 0.03212 0.11865
#
# Static dielectric constant tensor:
#      x y z
#    x 1.589630 0.000000 0.000000 
#    y 0.000000 1.635730 0.000000 
#    z 0.000000 0.000000 2.146200 
# 
# From -- ./inp_files/11149.got.cif
#   From: 2010.05.17/outbox.cif.g08.bks.cpg/sg51_6_cif.got.tgz:11149.got - 2010.06.03 11:52:47.
