data_PCOD9399975
_publ_section_title
;
Structure prediction by ZEFSAII (Michael W. Deem and Ramdas Pophale) SiO2 
 PCOD9399975
Probable space group: P M M A
;
_chemical_formula_sum "Si O2"
_cell_formula_units_Z 52
_cell_length_a 9.547456
_cell_length_b 12.846965
_cell_length_c 30.666621
_cell_angle_alpha 90.000000
_cell_angle_beta 90.000000
_cell_angle_gamma 90.000000
_cell_volume 3761.439946
_symmetry_space_group_name_H-M "P M M A"
_symmetry_group_IT_number 51
_symmetry_cell_setting 'orthorhombic'
loop_
_space_group_symop_operation_xyz
x,y,z
1/2-x,-y,z
1/2+x,-y,-z
-x,y,-z
-x,-y,-z
1/2+x,y,-z
1/2-x,y,z
x,-y,z
loop_
_atom_site_type_symbol
_atom_site_label
_atom_site_fract_x
_atom_site_fract_y
_atom_site_fract_z
Si Si1 0.588655 0.126968 0.042297
Si Si2 0.583467 0.621220 0.543688
Si Si3 0.087817 0.873455 0.125535
Si Si4 0.416069 0.000000 0.455150
Si Si5 0.917096 0.805178 0.607993
Si Si6 0.911755 0.126373 0.776298
Si Si7 0.085192 0.874165 0.691995
O O1 0.750000 0.160073 0.039873
O O2 0.512860 0.161545 0.086760
O O3 0.588383 0.000000 0.042513
O O4 0.500000 0.159197 0.000000
O O5 0.500000 0.650256 0.500000
O O6 0.750000 0.631206 0.535379
O O7 0.553456 0.500000 0.553390
O O8 0.549356 0.697994 0.583245
O O9 0.250000 0.844282 0.117462
O O10 0.048626 0.839975 0.174634
O O11 0.084441 0.000000 0.125435
O O12 0.500000 0.000000 0.500000
O O13 0.447048 0.898773 0.425865
O O14 0.250000 0.000000 0.464569
O O15 0.750000 0.808490 0.617532
O O16 0.004680 0.823667 0.651502
O O17 0.750000 0.156961 0.768115
O O18 0.013185 0.159042 0.737417
O O19 0.913724 0.000000 0.776755
O O20 0.250000 0.850960 0.691550
O O21 0.069317 0.000000 0.688292
#
# Coordination Sequence:
#
# PCOD9399975 Si02
#       7
#     8   8   8   4   8   8   8
#     4   9  15  20  26  36  51  72  98 133 177 221
#     4   9  18  32  49  67  84 103 128 157 188 221
#     4   8  13  21  31  42  55  74 103 136 172 216
#     4  10  20  30  42  60  80 104 128 150 179 218
#     4  10  19  31  45  60  81 107 130 152 183 227
#     4   8  14  24  37  49  64  89 116 143 178 223
#     4  10  19  28  39  57  78  99 124 155 187 220
#
# _framework density 13.824491999999999
#
# number of rings (size 3 to 8) (size 9 to 14) (size 15 to 20)
#    0.000    2.923    0.769    2.308    0.000    4.308 
#    0.000    3.077    0.000    0.000    0.000    0.000 
#    0.000    0.000    0.000    0.000    0.000    0.000 
#
# Total GULP energy -289530.095823 kJ/mol
# GULP energy per Si atom -5567.886458 kJ/mol
# Density = 1.379303 g / cm^3
# Si number density = 13.824492 Si / 1000 Ang^3
#
#
#
# Elastic Constant Matrix: (Units=GPa)
#
#
# Indices 1 2 3 4 5 6 
#
# 1 91.7061 24.1385 98.1085 0.0000 0.0000 0.0000
# 2 24.1385 24.0835 29.7527 0.0000 0.0000 0.0000
# 3 98.1085 29.7527 154.3744 0.0000 0.0000 0.0000
# 4 0.0000 0.0000 0.0000 6.5626 0.0000 0.0000
# 5 0.0000 0.0000 0.0000 0.0000 30.1057 0.0000
# 6 0.0000 0.0000 0.0000 0.0000 0.0000 6.7656
#
#
#
# Elastic Compliance Matrix: (Units=1/GPa)
#
#
# Indices 1 2 3 4 5 6 
#
# 1 0.035887 -0.010229 -0.020836 0.000000 0.000000 0.000000
# 2 -0.010229 0.057413 -0.004565 0.000000 0.000000 0.000000
# 3 -0.020836 -0.004565 0.020599 0.000000 0.000000 0.000000
# 4 0.000000 0.000000 0.000000 0.152379 0.000000 0.000000
# 5 0.000000 0.000000 0.000000 0.000000 0.033216 0.000000
# 6 0.000000 0.000000 0.000000 0.000000 0.000000 0.147807
#
#
# Mechanical properties :
#
#
# Convention : Reuss Voigt Hill
#
# Bulk Modulus (GPa) = 23.45140 63.79592 43.62366
# Shear Modulus (GPa) = 9.38484 16.56439 12.97462
#
# Velocity S-wave (km/s) = 2.60831 3.46525 3.06686
# Velocity P-wave (km/s) = 5.10603 7.89036 6.64565
#
# Compressibility (1/GPa) = 0.04264137
#
# Stress axis : x y z
#
# Youngs Moduli (GPa) = 27.86529 17.41754 48.54591
#
# Poissons Ratio (x) = 0.17816 1.01148
# Poissons Ratio (y) = 0.28502 0.22161
# Poissons Ratio (z) = 0.58059 0.07951
#
# Static dielectric constant tensor:
#      x y z
#    x 1.459790 0.000000 0.000000 
#    y 0.000000 1.427250 0.000000 
#    z 0.000000 0.000000 1.454200 
# 
# From -- ./inp_files/37321.got.cif
#   From: 2010.05.17/outbox.cif.g08.bks.cpg/sg51_19_cif.got.tgz:37321.got - 2010.06.03 11:52:47.
