data_PCOD9399161
_publ_section_title
;
Structure prediction by ZEFSAII (Michael W. Deem and Ramdas Pophale) SiO2 
 PCOD9399161
Probable space group: P M M A
;
_chemical_formula_sum "Si O2"
_cell_formula_units_Z 52
_cell_length_a 8.744287
_cell_length_b 13.960036
_cell_length_c 24.306242
_cell_angle_alpha 90.000000
_cell_angle_beta 90.000000
_cell_angle_gamma 90.000000
_cell_volume 2967.076604
_symmetry_space_group_name_H-M "P M M A"
_symmetry_group_IT_number 51
_symmetry_cell_setting 'orthorhombic'
loop_
_space_group_symop_operation_xyz
x,y,z
1/2-x,-y,z
1/2+x,-y,-z
-x,y,-z
-x,-y,-z
1/2+x,y,-z
1/2-x,y,z
x,-y,z
loop_
_atom_site_type_symbol
_atom_site_label
_atom_site_fract_x
_atom_site_fract_y
_atom_site_fract_z
Si Si1 0.069804 0.786295 0.662115
Si Si2 0.434573 0.108567 0.770901
Si Si3 0.570589 0.714549 0.837112
Si Si4 0.566235 0.500000 0.438031
Si Si5 0.430504 0.390173 0.275505
Si Si6 0.931561 0.298933 0.560944
Si Si7 0.567280 0.610737 0.059326
O O1 0.250000 0.794553 0.651156
O O2 0.023232 0.864417 0.707826
O O3 0.032388 0.686570 0.692981
O O4 0.980310 0.781227 0.604770
O O5 0.250000 0.115688 0.773861
O O6 0.504704 0.187694 0.811247
O O7 0.480119 0.000000 0.783795
O O8 0.750000 0.726472 0.847546
O O9 0.553029 0.635040 0.788959
O O10 0.489592 0.678141 0.891856
O O11 0.750000 0.500000 0.437147
O O12 0.500000 0.500000 0.500000
O O13 0.500633 0.600207 0.416467
O O14 0.250000 0.375596 0.289740
O O15 0.470582 0.500000 0.286568
O O16 0.750000 0.308179 0.556839
O O17 0.000000 0.282900 0.500000
O O18 0.750000 0.612926 0.056636
O O19 0.518935 0.500000 0.070132
O O20 0.500000 0.638111 0.000000
#
# Coordination Sequence:
#
# PCOD9399161 Si02
#       7
#     8   8   8   4   8   8   8
#     4  10  20  33  50  74 100 128 166 210 255 307
#     4   9  19  37  59  80 103 133 170 215 267 319
#     4  10  19  32  52  78 107 139 176 219 263 310
#     4  10  18  30  46  66  92 126 168 204 237 282
#     4   9  18  31  46  67  99 136 170 205 249 300
#     4  11  21  34  50  69  97 132 168 207 250 301
#     4  10  20  33  51  77 111 151 190 224 257 300
#
# _framework density 17.525669000000001
#
# number of rings (size 3 to 8) (size 9 to 14) (size 15 to 20)
#    0.000    2.154    0.000    4.846    1.077    3.385 
#    0.000    0.000    0.000    0.923    0.000    0.000 
#    0.000    0.000    0.000    0.000    0.000    0.000 
#
# Total GULP energy -290170.699213 kJ/mol
# GULP energy per Si atom -5580.205754 kJ/mol
# Density = 1.748578 g / cm^3
# Si number density = 17.525669 Si / 1000 Ang^3
#
#
#
# Elastic Constant Matrix: (Units=GPa)
#
#
# Indices 1 2 3 4 5 6 
#
# 1 79.4355 18.3464 42.1332 0.0000 0.0000 0.0000
# 2 18.3464 62.3924 30.6904 0.0000 0.0000 0.0000
# 3 42.1332 30.6904 106.5964 0.0000 0.0000 0.0000
# 4 0.0000 0.0000 0.0000 19.2248 0.0000 0.0000
# 5 0.0000 0.0000 0.0000 0.0000 30.5889 0.0000
# 6 0.0000 0.0000 0.0000 0.0000 0.0000 18.2582
#
#
#
# Elastic Compliance Matrix: (Units=1/GPa)
#
#
# Indices 1 2 3 4 5 6 
#
# 1 0.016113 -0.001870 -0.005831 0.000000 0.000000 0.000000
# 2 -0.001870 0.018889 -0.004699 0.000000 0.000000 0.000000
# 3 -0.005831 -0.004699 0.013039 0.000000 0.000000 0.000000
# 4 0.000000 0.000000 0.000000 0.052016 0.000000 0.000000
# 5 0.000000 0.000000 0.000000 0.000000 0.032692 0.000000
# 6 0.000000 0.000000 0.000000 0.000000 0.000000 0.054770
#
#
# Mechanical properties :
#
#
# Convention : Reuss Voigt Hill
#
# Bulk Modulus (GPa) = 43.02670 47.86271 45.44470
# Shear Modulus (GPa) = 22.72051 24.09799 23.40925
#
# Velocity S-wave (km/s) = 3.60448 3.71214 3.65870
# Velocity P-wave (km/s) = 6.47511 6.76333 6.62079
#
# Compressibility (1/GPa) = 0.02324138
#
# Stress axis : x y z
#
# Youngs Moduli (GPa) = 62.06054 52.94085 76.69469
#
# Poissons Ratio (x) = 0.09900 0.44717
# Poissons Ratio (y) = 0.11606 0.36040
# Poissons Ratio (z) = 0.36184 0.24878
#
# Static dielectric constant tensor:
#      x y z
#    x 1.598020 0.000000 0.000000 
#    y 0.000000 1.595180 0.000000 
#    z 0.000000 0.000000 1.531870 
# 
# From -- ./inp_files/34699.got.cif
#   From: 2010.05.17/outbox.cif.g08.bks.cpg/sg51_18_cif.got.tgz:34699.got - 2010.06.03 11:52:47.
