data_PCOD9399706
_publ_section_title
;
Structure prediction by ZEFSAII (Michael W. Deem and Ramdas Pophale) SiO2 
 PCOD9399706
Probable space group: P M M A
;
_chemical_formula_sum "Si O2"
_cell_formula_units_Z 38
_cell_length_a 7.748104
_cell_length_b 12.316801
_cell_length_c 19.883179
_cell_angle_alpha 90.000000
_cell_angle_beta 90.000000
_cell_angle_gamma 90.000000
_cell_volume 1897.488657
_symmetry_space_group_name_H-M "P M M A"
_symmetry_group_IT_number 51
_symmetry_cell_setting 'orthorhombic'
loop_
_space_group_symop_operation_xyz
x,y,z
1/2-x,-y,z
1/2+x,-y,-z
-x,y,-z
-x,-y,-z
1/2+x,y,-z
1/2-x,y,z
x,-y,z
loop_
_atom_site_type_symbol
_atom_site_label
_atom_site_fract_x
_atom_site_fract_y
_atom_site_fract_z
Si Si1 0.456283 0.500000 0.420697
Si Si2 0.951483 0.877645 0.300357
Si Si3 0.956712 0.736718 0.578722
Si Si4 0.940712 0.672610 0.781495
Si Si5 0.750000 0.500000 0.244100
Si Si6 0.043875 0.372762 0.925514
O O1 0.250000 0.500000 0.412963
O O2 0.500000 0.500000 0.500000
O O3 0.521712 0.382927 0.396262
O O4 0.750000 0.879112 0.282366
O O5 0.968506 0.831417 0.375973
O O6 0.041081 0.788218 0.254283
O O7 0.019635 0.000000 0.295464
O O8 0.750000 0.737399 0.585534
O O9 0.000000 0.746656 0.500000
O O10 0.750000 0.628727 0.765011
O O11 0.096675 0.594070 0.760345
O O12 0.958040 0.683986 0.862194
O O13 0.250000 0.370654 0.916438
O O14 0.989755 0.500000 0.922641
O O15 0.000000 0.332112 0.000000
#
# Coordination Sequence:
#
# PCOD9399706 Si02
#       6
#     4   8   8   8   2   8
#     4   8  16  31  52  80 115 147 179 231 296 369
#     4  11  25  45  64  86 121 167 218 272 320 371
#     4  10  20  37  61  90 121 156 204 255 320 386
#     4  12  23  40  65  93 132 171 211 261 319 384
#     4  12  22  42  60  98 134 166 210 258 316 398
#     4  10  18  32  54  89 132 168 207 255 313 382
#
# _framework density 20.026468999999999
#
# number of rings (size 3 to 8) (size 9 to 14) (size 15 to 20)
#    0.000    1.474    3.158    2.211    0.000    4.632 
#    0.000    2.105    0.000    0.632    0.000    0.000 
#    0.000    0.000    0.000    0.000    0.000    0.000 
#
# Total GULP energy -211785.305372 kJ/mol
# GULP energy per Si atom -5573.297510 kJ/mol
# Density = 1.998089 g / cm^3
# Si number density = 20.026469 Si / 1000 Ang^3
#
#
#
# Elastic Constant Matrix: (Units=GPa)
#
#
# Indices 1 2 3 4 5 6 
#
# 1 122.5479 43.4674 18.4955 0.0000 0.0000 0.0000
# 2 43.4674 149.3870 51.4881 0.0000 0.0000 0.0000
# 3 18.4955 51.4881 114.8101 0.0000 0.0000 0.0000
# 4 0.0000 0.0000 0.0000 8.1278 0.0000 0.0000
# 5 0.0000 0.0000 0.0000 0.0000 22.0930 0.0000
# 6 0.0000 0.0000 0.0000 0.0000 0.0000 3.8014
#
#
#
# Elastic Compliance Matrix: (Units=1/GPa)
#
#
# Indices 1 2 3 4 5 6 
#
# 1 0.009110 -0.002537 -0.000330 0.000000 0.000000 0.000000
# 2 -0.002537 0.008624 -0.003459 0.000000 0.000000 0.000000
# 3 -0.000330 -0.003459 0.010314 0.000000 0.000000 0.000000
# 4 0.000000 0.000000 0.000000 0.123035 0.000000 0.000000
# 5 0.000000 0.000000 0.000000 0.000000 0.045263 0.000000
# 6 0.000000 0.000000 0.000000 0.000000 0.000000 0.263062
#
#
# Mechanical properties :
#
#
# Convention : Reuss Voigt Hill
#
# Bulk Modulus (GPa) = 64.94818 68.18302 66.56560
# Shear Modulus (GPa) = 10.47795 25.02403 17.75099
#
# Velocity S-wave (km/s) = 2.28985 3.53873 2.98044
# Velocity P-wave (km/s) = 6.28433 7.12862 6.71975
#
# Compressibility (1/GPa) = 0.01539689
#
# Stress axis : x y z
#
# Youngs Moduli (GPa) = 109.77285 115.94978 96.95173
#
# Poissons Ratio (x) = 0.29417 0.03197
# Poissons Ratio (y) = 0.27849 0.33536
# Poissons Ratio (z) = 0.03620 0.40107
#
# Static dielectric constant tensor:
#      x y z
#    x 1.730700 0.000000 0.000000 
#    y 0.000000 1.692730 0.000000 
#    z 0.000000 0.000000 1.747050 
# 
# From -- ./inp_files/27064.got.cif
#   From: 2010.05.17/outbox.cif.g08.bks.cpg/sg51_14_cif.got.tgz:27064.got - 2010.06.03 11:52:47.
