data_PCOD9399135
_publ_section_title
;
Structure prediction by ZEFSAII (Michael W. Deem and Ramdas Pophale) SiO2 
 PCOD9399135
Probable space group: P M M A
;
_chemical_formula_sum "Si O2"
_cell_formula_units_Z 40
_cell_length_a 20.844888
_cell_length_b 8.957776
_cell_length_c 11.631738
_cell_angle_alpha 90.000000
_cell_angle_beta 90.000000
_cell_angle_gamma 90.000000
_cell_volume 2171.922756
_symmetry_space_group_name_H-M "P M M A"
_symmetry_group_IT_number 51
_symmetry_cell_setting 'orthorhombic'
loop_
_space_group_symop_operation_xyz
x,y,z
1/2-x,-y,z
1/2+x,-y,-z
-x,y,-z
-x,-y,-z
1/2+x,y,-z
1/2-x,y,z
x,-y,z
loop_
_atom_site_type_symbol
_atom_site_label
_atom_site_fract_x
_atom_site_fract_y
_atom_site_fract_z
Si Si1 0.250000 0.178167 0.839432
Si Si2 0.871583 0.672813 0.284000
Si Si3 0.323529 0.838715 0.519672
Si Si4 0.993217 0.680398 0.635527
Si Si5 0.133911 0.827670 0.264358
Si Si6 0.250000 0.818442 0.108669
O O1 0.315760 0.241347 0.783823
O O2 0.250000 0.000000 0.826903
O O3 0.250000 0.216741 0.974461
O O4 0.868547 0.500000 0.252457
O O5 0.854749 0.699421 0.418228
O O6 0.945236 0.725437 0.286507
O O7 0.250000 0.841112 0.555459
O O8 0.327292 0.830603 0.383880
O O9 0.353017 0.000000 0.554594
O O10 0.992079 0.500000 0.632032
O O11 0.000000 0.730926 0.500000
O O12 0.930149 0.740853 0.699271
O O13 0.184111 0.766888 0.170294
O O14 0.117364 0.000000 0.234694
O O15 0.250000 0.000000 0.122233
#
# Coordination Sequence:
#
# PCOD9399135 Si02
#       6
#     4   8   8   8   8   4
#     4  11  23  40  61  80 106 143 190 239 280 325
#     4  11  22  36  55  79 114 150 183 224 271 330
#     4  10  18  29  51  84 115 140 174 224 277 329
#     4  10  21  36  52  80 121 155 180 215 274 337
#     4  10  19  34  58  85 113 144 183 227 274 330
#     4   9  20  40  61  82 108 143 186 239 286 319
#
# _framework density 18.416861000000001
#
# number of rings (size 3 to 8) (size 9 to 14) (size 15 to 20)
#    0.000    1.800    4.000    0.900    0.000    2.000 
#    0.000    3.500    0.000    6.000    0.000    0.000 
#    0.000    0.000    0.000    0.000    0.000    0.000 
#
# Total GULP energy -222700.235769 kJ/mol
# GULP energy per Si atom -5567.505894 kJ/mol
# Density = 1.837494 g / cm^3
# Si number density = 18.416861 Si / 1000 Ang^3
#
#
#
# Elastic Constant Matrix: (Units=GPa)
#
#
# Indices 1 2 3 4 5 6 
#
# 1 163.3048 41.9064 62.9503 0.0000 0.0000 0.0000
# 2 41.9064 23.9021 23.4046 0.0000 0.0000 0.0000
# 3 62.9503 23.4046 94.3694 0.0000 0.0000 0.0000
# 4 0.0000 0.0000 0.0000 8.3669 0.0000 0.0000
# 5 0.0000 0.0000 0.0000 0.0000 15.2136 0.0000
# 6 0.0000 0.0000 0.0000 0.0000 0.0000 22.6069
#
#
#
# Elastic Compliance Matrix: (Units=1/GPa)
#
#
# Indices 1 2 3 4 5 6 
#
# 1 0.012032 -0.017482 -0.003691 0.000000 0.000000 0.000000
# 2 -0.017482 0.080656 -0.008342 0.000000 0.000000 0.000000
# 3 -0.003691 -0.008342 0.015127 0.000000 0.000000 0.000000
# 4 0.000000 0.000000 0.000000 0.119519 0.000000 0.000000
# 5 0.000000 0.000000 0.000000 0.000000 0.065731 0.000000
# 6 0.000000 0.000000 0.000000 0.000000 0.000000 0.044234
#
#
# Mechanical properties :
#
#
# Convention : Reuss Voigt Hill
#
# Bulk Modulus (GPa) = 20.49746 59.78877 40.14312
# Shear Modulus (GPa) = 12.11858 19.45848 15.78853
#
# Velocity S-wave (km/s) = 2.56796 3.25400 2.93112
# Velocity P-wave (km/s) = 4.46615 6.83027 5.77058
#
# Compressibility (1/GPa) = 0.04878653
#
# Stress axis : x y z
#
# Youngs Moduli (GPa) = 83.11018 12.39839 66.10508
#
# Poissons Ratio (x) = 0.21675 0.24397
# Poissons Ratio (y) = 1.45291 0.55145
# Poissons Ratio (z) = 0.30673 0.10343
#
# Static dielectric constant tensor:
#      x y z
#    x 1.682300 0.000000 0.000000 
#    y 0.000000 1.658570 0.000000 
#    z 0.000000 0.000000 1.626800 
# 
# From -- ./inp_files/17999.got.cif
#   From: 2010.05.17/outbox.cif.g08.bks.cpg/sg51_9_cif.got.tgz:17999.got - 2010.06.03 11:52:47.
