data_PCOD9399630
_publ_section_title
;
Structure prediction by ZEFSAII (Michael W. Deem and Ramdas Pophale) SiO2 
 PCOD9399630
Probable space group: P M M A
;
_chemical_formula_sum "Si O2"
_cell_formula_units_Z 64
_cell_length_a 9.194993
_cell_length_b 20.247114
_cell_length_c 20.123047
_cell_angle_alpha 90.000000
_cell_angle_beta 90.000000
_cell_angle_gamma 90.000000
_cell_volume 3746.349345
_symmetry_space_group_name_H-M "P M M A"
_symmetry_group_IT_number 51
_symmetry_cell_setting 'orthorhombic'
loop_
_space_group_symop_operation_xyz
x,y,z
1/2-x,-y,z
1/2+x,-y,-z
-x,y,-z
-x,-y,-z
1/2+x,y,-z
1/2-x,y,z
x,-y,z
loop_
_atom_site_type_symbol
_atom_site_label
_atom_site_fract_x
_atom_site_fract_y
_atom_site_fract_z
Si Si1 0.416244 0.738386 0.065927
Si Si2 0.423221 0.316765 0.657899
Si Si3 0.421035 0.896012 0.797217
Si Si4 0.423426 0.184740 0.571195
Si Si5 0.922066 0.421930 0.569568
Si Si6 0.920174 0.263545 0.198882
Si Si7 0.418640 0.899333 0.067210
Si Si8 0.421314 0.924869 0.339463
O O1 0.250000 0.717517 0.063213
O O2 0.490950 0.716562 0.134038
O O3 0.419333 0.818867 0.066241
O O4 0.500000 0.716805 0.000000
O O5 0.250000 0.330417 0.657857
O O6 0.446296 0.252493 0.611816
O O7 0.509684 0.377377 0.626879
O O8 0.467416 0.297499 0.732706
O O9 0.250000 0.913255 0.795475
O O10 0.431535 0.815962 0.793615
O O11 0.495191 0.918144 0.866077
O O12 0.506718 0.921849 0.733414
O O13 0.500000 0.188829 0.500000
O O14 0.250000 0.174619 0.564359
O O15 0.494520 0.125868 0.613562
O O16 0.750000 0.410199 0.563463
O O17 0.945442 0.500000 0.581505
O O18 0.000000 0.404895 0.500000
O O19 0.750000 0.277864 0.188327
O O20 0.250000 0.920011 0.068607
O O21 0.500000 0.920843 0.000000
O O22 0.250000 0.907967 0.335241
O O23 0.433579 0.000000 0.364518
#
# Coordination Sequence:
#
# PCOD9399630 Si02
#       8
#     8   8   8   8   8   8   8   8
#     4   9  16  25  39  63  95 134 172 208 252 301
#     4  10  20  35  55  81 110 140 175 214 260 308
#     4  10  18  32  52  73  99 131 167 211 260 312
#     4  11  23  40  59  82 106 133 168 211 262 316
#     4  10  21  36  54  78 108 144 183 219 257 304
#     4   9  17  30  47  71 102 133 167 211 256 305
#     4   9  16  26  42  68  98 130 167 207 252 305
#     4  11  24  40  57  77 100 130 170 215 263 318
#
# _framework density 17.083297000000002
#
# number of rings (size 3 to 8) (size 9 to 14) (size 15 to 20)
#    0.000    2.125    1.250    2.625    0.000    8.000 
#    0.000    0.000    0.000    0.375    0.000    0.000 
#    0.000    0.500    0.000    1.625    0.000    2.375 
#
# Total GULP energy -357378.886937 kJ/mol
# GULP energy per Si atom -5584.045108 kJ/mol
# Density = 1.704441 g / cm^3
# Si number density = 17.083297 Si / 1000 Ang^3
#
#
#
# Elastic Constant Matrix: (Units=GPa)
#
#
# Indices 1 2 3 4 5 6 
#
# 1 121.9280 48.5694 89.7941 0.0000 0.0000 0.0000
# 2 48.5694 49.1861 50.9748 0.0000 0.0000 0.0000
# 3 89.7941 50.9748 166.6562 0.0000 0.0000 0.0000
# 4 0.0000 0.0000 0.0000 57.9151 0.0000 0.0000
# 5 0.0000 0.0000 0.0000 0.0000 38.0191 0.0000
# 6 0.0000 0.0000 0.0000 0.0000 0.0000 12.7606
#
#
#
# Elastic Compliance Matrix: (Units=1/GPa)
#
#
# Indices 1 2 3 4 5 6 
#
# 1 0.016587 -0.010420 -0.005750 0.000000 0.000000 0.000000
# 2 -0.010420 0.036313 -0.005493 0.000000 0.000000 0.000000
# 3 -0.005750 -0.005493 0.010778 0.000000 0.000000 0.000000
# 4 0.000000 0.000000 0.000000 0.017267 0.000000 0.000000
# 5 0.000000 0.000000 0.000000 0.000000 0.026303 0.000000
# 6 0.000000 0.000000 0.000000 0.000000 0.000000 0.078366
#
#
# Mechanical properties :
#
#
# Convention : Reuss Voigt Hill
#
# Bulk Modulus (GPa) = 49.13273 79.60522 64.36897
# Shear Modulus (GPa) = 21.21142 31.63441 26.42292
#
# Velocity S-wave (km/s) = 3.52752 4.30789 3.93709
# Velocity P-wave (km/s) = 6.73902 8.45242 7.64388
#
# Compressibility (1/GPa) = 0.02035303
#
# Stress axis : x y z
#
# Youngs Moduli (GPa) = 60.28921 27.53872 92.77827
#
# Poissons Ratio (x) = 0.28695 0.53346
# Poissons Ratio (y) = 0.62820 0.50960
# Poissons Ratio (z) = 0.34665 0.15126
#
# Static dielectric constant tensor:
#      x y z
#    x 1.569660 0.000000 0.000000 
#    y 0.000000 1.570300 0.000000 
#    z 0.000000 0.000000 1.560470 
# 
# From -- ./inp_files/28387.got.cif
#   From: 2010.05.17/outbox.cif.g08.bks.cpg/sg51_15_cif.got.tgz:28387.got - 2010.06.03 11:52:47.
