data_PCOD9399287
_publ_section_title
;
Structure prediction by ZEFSAII (Michael W. Deem and Ramdas Pophale) SiO2 
 PCOD9399287
Probable space group: P M M A
;
_chemical_formula_sum "Si O2"
_cell_formula_units_Z 64
_cell_length_a 24.738690
_cell_length_b 7.321630
_cell_length_c 15.071454
_cell_angle_alpha 90.000000
_cell_angle_beta 90.000000
_cell_angle_gamma 90.000000
_cell_volume 2729.855310
_symmetry_space_group_name_H-M "P M M A"
_symmetry_group_IT_number 51
_symmetry_cell_setting 'orthorhombic'
loop_
_space_group_symop_operation_xyz
x,y,z
1/2-x,-y,z
1/2+x,-y,-z
-x,y,-z
-x,-y,-z
1/2+x,y,-z
1/2-x,y,z
x,-y,z
loop_
_atom_site_type_symbol
_atom_site_label
_atom_site_fract_x
_atom_site_fract_y
_atom_site_fract_z
Si Si1 0.346273 0.720395 0.063054
Si Si2 0.996198 0.723453 0.286699
Si Si3 0.688405 0.723126 0.476400
Si Si4 0.125317 0.277898 0.697688
Si Si5 0.188894 0.277322 0.868641
Si Si6 0.101953 0.705345 0.381435
Si Si7 0.192046 0.211181 0.252490
Si Si8 0.530320 0.722334 0.910530
O O1 0.345279 0.500000 0.061485
O O2 0.311310 0.778345 0.146746
O O3 0.407533 0.778573 0.081479
O O4 0.326312 0.783350 0.967323
O O5 0.998426 0.500000 0.287176
O O6 0.936508 0.779221 0.316803
O O7 0.045236 0.787039 0.349643
O O8 0.006165 0.779393 0.184296
O O9 0.750000 0.783835 0.492697
O O10 0.689533 0.500000 0.481310
O O11 0.666471 0.775490 0.379651
O O12 0.642788 0.786231 0.546045
O O13 0.124816 0.500000 0.698119
O O14 0.147370 0.218384 0.793183
O O15 0.250000 0.223645 0.846381
O O16 0.187590 0.500000 0.869600
O O17 0.089458 0.500000 0.413411
O O18 0.139848 0.696488 0.294299
O O19 0.250000 0.286958 0.282979
O O20 0.189522 0.000000 0.278566
O O21 0.528578 0.500000 0.910449
O O22 0.500000 0.781601 0.000000
#
# Coordination Sequence:
#
# PCOD9399287 Si02
#       8
#     8   8   8   8   8   8   8   8
#     4  10  18  30  49  74 101 131 167 206 246 292
#     4   9  16  26  41  66  96 127 162 200 245 290
#     4   9  17  28  44  68  99 135 166 197 249 306
#     4   9  16  26  41  67 104 134 158 201 254 297
#     4   9  16  25  40  66  99 133 167 201 242 294
#     4  10  19  33  52  74 100 129 166 207 248 298
#     4  11  23  36  50  71 100 133 167 206 254 302
#     4   9  15  24  41  67  98 129 162 200 240 284
#
# _framework density 23.444465999999998
#
# number of rings (size 3 to 8) (size 9 to 14) (size 15 to 20)
#    0.000    2.500    1.250    2.250    0.000    7.000 
#    0.000    2.500    0.000    0.375    0.000    2.625 
#    0.000    4.000    0.000    0.000    0.000    0.000 
#
# Total GULP energy -357681.292950 kJ/mol
# GULP energy per Si atom -5588.770202 kJ/mol
# Density = 2.339111 g / cm^3
# Si number density = 23.444466 Si / 1000 Ang^3
#
#
#
# Elastic Constant Matrix: (Units=GPa)
#
#
# Indices 1 2 3 4 5 6 
#
# 1 129.6895 -1.2575 23.4066 0.0000 0.0000 0.0000
# 2 -1.2575 93.9388 -5.3037 0.0000 0.0000 0.0000
# 3 23.4066 -5.3037 88.4238 0.0000 0.0000 0.0000
# 4 0.0000 0.0000 0.0000-1199.8050 0.0000 0.0000
# 5 0.0000 0.0000 0.0000 0.0000 45.8430 0.0000
# 6 0.0000 0.0000 0.0000 0.0000 0.0000 -18.7992
#
#
#
# Elastic Compliance Matrix: (Units=1/GPa)
#
#
# Indices 1 2 3 4 5 6 
#
# 1 0.008098 -0.000013 -0.002144 0.000000 0.000000 0.000000
# 2 -0.000013 0.010681 0.000644 0.000000 0.000000 0.000000
# 3 -0.002144 0.000644 0.011915 0.000000 0.000000 0.000000
# 4 0.000000 0.000000 0.000000 -0.000833 0.000000 0.000000
# 5 0.000000 0.000000 0.000000 0.000000 0.021814 0.000000
# 6 0.000000 0.000000 0.000000 0.000000 0.000000 -0.053194
#
#
# Mechanical properties :
#
#
# Convention : Reuss Voigt Hill
#
# Bulk Modulus (GPa) = 36.14205 38.41589 37.27897
# Shear Modulus (GPa) = 466.00777 -214.87180 125.56798
#
# Velocity S-wave (km/s) = 14.11391 -9.58386 7.32639
# Velocity P-wave (km/s) = 16.76463 10.29785 9.35433
#
# Compressibility (1/GPa) = 0.02766861
#
# Stress axis : x y z
#
# Youngs Moduli (GPa) = 123.49327 93.62047 83.92494
#
# Poissons Ratio (x) = 0.00119 0.17996
# Poissons Ratio (y) = 0.00156 -0.05405
# Poissons Ratio (z) = 0.26480 -0.06029
#
# Static dielectric constant tensor:
#      x y z
#    x 1.843990 0.000000 0.000000 
#    y 0.000000 2.000010 0.000000 
#    z 0.000000 0.000000 1.850180 
# 
# From -- ./inp_files/26307.got.cif
#   From: 2010.05.17/outbox.cif.g08.bks.cpg/sg51_14_cif.got.tgz:26307.got - 2010.06.03 11:52:47.
