data_PCOD9399301
_publ_section_title
;
Structure prediction by ZEFSAII (Michael W. Deem and Ramdas Pophale) SiO2 
 PCOD9399301
Probable space group: P M M A
;
_chemical_formula_sum "Si O2"
_cell_formula_units_Z 64
_cell_length_a 8.860949
_cell_length_b 14.736888
_cell_length_c 31.863610
_cell_angle_alpha 90.000000
_cell_angle_beta 90.000000
_cell_angle_gamma 90.000000
_cell_volume 4160.839826
_symmetry_space_group_name_H-M "P M M A"
_symmetry_group_IT_number 51
_symmetry_cell_setting 'orthorhombic'
loop_
_space_group_symop_operation_xyz
x,y,z
1/2-x,-y,z
1/2+x,-y,-z
-x,y,-z
-x,-y,-z
1/2+x,y,-z
1/2-x,y,z
x,-y,z
loop_
_atom_site_type_symbol
_atom_site_label
_atom_site_fract_x
_atom_site_fract_y
_atom_site_fract_z
Si Si1 0.568150 0.894141 0.792289
Si Si2 0.069580 0.106353 0.631375
Si Si3 0.566724 0.600556 0.161961
Si Si4 0.931733 0.105627 0.044595
Si Si5 0.432901 0.790963 0.871849
Si Si6 0.923691 0.889687 0.543199
Si Si7 0.931598 0.603504 0.260180
Si Si8 0.430712 0.215614 0.291639
O O1 0.750000 0.888426 0.795993
O O2 0.494189 0.849514 0.833084
O O3 0.523265 0.839665 0.750399
O O4 0.526869 0.000000 0.788698
O O5 0.250000 0.112044 0.632497
O O6 0.010618 0.135709 0.585573
O O7 0.998616 0.165922 0.668069
O O8 0.026802 0.000000 0.637298
O O9 0.750000 0.599058 0.160703
O O10 0.514168 0.500000 0.148939
O O11 0.516887 0.686998 0.135271
O O12 0.526175 0.614451 0.210918
O O13 0.750000 0.109583 0.042004
O O14 0.981106 0.165958 0.083998
O O15 0.974085 0.000000 0.051897
O O16 0.000000 0.133835 0.000000
O O17 0.250000 0.793330 0.870507
O O18 0.750000 0.860943 0.545277
O O19 0.000000 0.858107 0.500000
O O20 0.925957 0.000000 0.541972
O O21 0.750000 0.612869 0.262814
O O22 0.970070 0.500000 0.272300
O O23 0.009865 0.682264 0.286270
O O24 0.250000 0.214458 0.294049
#
# Coordination Sequence:
#
# PCOD9399301 Si02
#       8
#     8   8   8   8   8   8   8   8
#     4  10  21  33  43  61  92 126 154 182 223 272
#     4  10  20  32  46  65  91 127 169 206 241 283
#     4   8  14  26  46  70  92 113 141 181 227 270
#     4   9  18  31  46  66  89 114 145 182 224 268
#     4  10  18  30  50  71  89 111 149 192 223 261
#     4   9  16  27  44  65  90 121 159 203 247 288
#     4   9  17  31  50  69  90 118 154 194 233 276
#     4  11  21  32  46  65  94 128 159 192 233 283
#
# _framework density 15.381511
#
# number of rings (size 3 to 8) (size 9 to 14) (size 15 to 20)
#    0.000    2.500    1.250    2.625    0.000    4.750 
#    0.000    1.250    0.000    0.750    0.000    0.000 
#    0.000    0.500    0.000    1.875    0.000    2.875 
#
# Total GULP energy -356800.637523 kJ/mol
# GULP energy per Si atom -5575.009961 kJ/mol
# Density = 1.534650 g / cm^3
# Si number density = 15.381511 Si / 1000 Ang^3
#
#
#
# Elastic Constant Matrix: (Units=GPa)
#
#
# Indices 1 2 3 4 5 6 
#
# 1 30.1962 35.0159 41.3836 0.0000 0.0000 0.0000
# 2 35.0159 112.1339 78.9997 0.0000 0.0000 0.0000
# 3 41.3836 78.9997 141.5207 0.0000 0.0000 0.0000
# 4 0.0000 0.0000 0.0000 7.4094 0.0000 0.0000
# 5 0.0000 0.0000 0.0000 0.0000 25.8391 0.0000
# 6 0.0000 0.0000 0.0000 0.0000 0.0000 16.6059
#
#
#
# Elastic Compliance Matrix: (Units=1/GPa)
#
#
# Indices 1 2 3 4 5 6 
#
# 1 0.062468 -0.010940 -0.012160 0.000000 0.000000 0.000000
# 2 -0.010940 0.016614 -0.006075 0.000000 0.000000 0.000000
# 3 -0.012160 -0.006075 0.014013 0.000000 0.000000 0.000000
# 4 0.000000 0.000000 0.000000 0.134963 0.000000 0.000000
# 5 0.000000 0.000000 0.000000 0.000000 0.038701 0.000000
# 6 0.000000 0.000000 0.000000 0.000000 0.000000 0.060220
#
#
# Mechanical properties :
#
#
# Convention : Reuss Voigt Hill
#
# Bulk Modulus (GPa) = 28.78117 66.07214 47.42665
# Shear Modulus (GPa) = 12.59726 18.53432 15.56579
#
# Velocity S-wave (km/s) = 2.86490 3.47504 3.18462
# Velocity P-wave (km/s) = 5.44938 7.69090 6.66505
#
# Compressibility (1/GPa) = 0.03474494
#
# Stress axis : x y z
#
# Youngs Moduli (GPa) = 16.00821 60.18912 71.36053
#
# Poissons Ratio (x) = 0.65846 0.86775
# Poissons Ratio (y) = 0.17513 0.43354
# Poissons Ratio (z) = 0.19466 0.36567
#
# Static dielectric constant tensor:
#      x y z
#    x 1.514150 0.000000 0.000000 
#    y 0.000000 1.510570 0.000000 
#    z 0.000000 0.000000 1.488870 
# 
# From -- ./inp_files/37568.got.cif
#   From: 2010.05.17/outbox.cif.g08.bks.cpg/sg51_19_cif.got.tgz:37568.got - 2010.06.03 11:52:47.
