data_PCOD9399032
_publ_section_title
;
Structure prediction by ZEFSAII (Michael W. Deem and Ramdas Pophale) SiO2 
 PCOD9399032
Probable space group: P M M A
;
_chemical_formula_sum "Si O2"
_cell_formula_units_Z 52
_cell_length_a 8.420078
_cell_length_b 21.853189
_cell_length_c 14.700286
_cell_angle_alpha 90.000000
_cell_angle_beta 90.000000
_cell_angle_gamma 90.000000
_cell_volume 2704.934298
_symmetry_space_group_name_H-M "P M M A"
_symmetry_group_IT_number 51
_symmetry_cell_setting 'orthorhombic'
loop_
_space_group_symop_operation_xyz
x,y,z
1/2-x,-y,z
1/2+x,-y,-z
-x,y,-z
-x,-y,-z
1/2+x,y,-z
1/2-x,y,z
x,-y,z
loop_
_atom_site_type_symbol
_atom_site_label
_atom_site_fract_x
_atom_site_fract_y
_atom_site_fract_z
Si Si1 0.927645 0.606479 0.594307
Si Si2 0.941770 0.929114 0.397951
Si Si3 0.440389 0.500000 0.898150
Si Si4 0.941503 0.259566 0.104169
Si Si5 0.058765 0.382008 0.206423
Si Si6 0.064909 0.170573 0.745520
Si Si7 0.929146 0.753299 0.594251
O O1 0.750000 0.581187 0.600217
O O2 0.006963 0.600741 0.692915
O O3 0.919787 0.680351 0.586869
O O4 0.000000 0.583535 0.500000
O O5 0.750000 0.924247 0.399581
O O6 0.000943 0.885789 0.315320
O O7 0.000000 0.913553 0.500000
O O8 0.985189 0.000000 0.381533
O O9 0.250000 0.500000 0.891820
O O10 0.511488 0.560788 0.853942
O O11 0.500000 0.500000 0.000000
O O12 0.750000 0.259254 0.104252
O O13 0.999143 0.198953 0.160099
O O14 0.997113 0.319723 0.159932
O O15 0.000000 0.261316 0.000000
O O16 0.250000 0.375380 0.214631
O O17 0.250000 0.156939 0.761016
O O18 0.042432 0.226422 0.675020
O O19 0.750000 0.775998 0.610229
O O20 0.000000 0.776592 0.500000
#
# Coordination Sequence:
#
# PCOD9399032 Si02
#       7
#     8   8   4   8   8   8   8
#     4   9  19  33  53  80 112 146 180 216 262 319
#     4   9  18  33  52  77 111 149 187 226 270 325
#     4  12  26  44  65  90 113 146 189 236 286 336
#     4  11  23  38  57  81 110 143 182 232 287 342
#     4  11  22  41  63  87 116 149 186 230 281 333
#     4  10  20  33  51  77 106 142 185 228 276 330
#     4  10  18  29  46  74 108 143 176 215 262 314
#
# _framework density 19.224128
#
# number of rings (size 3 to 8) (size 9 to 14) (size 15 to 20)
#    0.000    1.846    1.538    3.000    0.000    4.308 
#    0.000    0.385    0.000    0.462    0.000    0.000 
#    0.000    0.000    0.000    0.000    0.000    0.154 
#
# Total GULP energy -289809.422335 kJ/mol
# GULP energy per Si atom -5573.258122 kJ/mol
# Density = 1.918037 g / cm^3
# Si number density = 19.224128 Si / 1000 Ang^3
#
#
#
# Elastic Constant Matrix: (Units=GPa)
#
#
# Indices 1 2 3 4 5 6 
#
# 1 30.2799 12.5059 19.2820 0.0000 0.0000 0.0000
# 2 12.5059 95.0574 57.5454 0.0000 0.0000 0.0000
# 3 19.2820 57.5454 185.1322 0.0000 0.0000 0.0000
# 4 0.0000 0.0000 0.0000 1248.8672 0.0000 0.0000
# 5 0.0000 0.0000 0.0000 0.0000 21.9014 0.0000
# 6 0.0000 0.0000 0.0000 0.0000 0.0000 12.0962
#
#
#
# Elastic Compliance Matrix: (Units=1/GPa)
#
#
# Indices 1 2 3 4 5 6 
#
# 1 0.036072 -0.003044 -0.002811 0.000000 0.000000 0.000000
# 2 -0.003044 0.013215 -0.003791 0.000000 0.000000 0.000000
# 3 -0.002811 -0.003791 0.006873 0.000000 0.000000 0.000000
# 4 0.000000 0.000000 0.000000 0.000801 0.000000 0.000000
# 5 0.000000 0.000000 0.000000 0.000000 0.045659 0.000000
# 6 0.000000 0.000000 0.000000 0.000000 0.000000 0.082670
#
#
# Mechanical properties :
#
#
# Convention : Reuss Voigt Hill
#
# Bulk Modulus (GPa) = 27.12315 54.34846 40.73581
# Shear Modulus (GPa) = 23.05516 271.31540 147.18528
#
# Velocity S-wave (km/s) = 3.46682 11.89282 8.75951
# Velocity P-wave (km/s) = 5.49224 14.72813 11.11491
#
# Compressibility (1/GPa) = 0.03686888
#
# Stress axis : x y z
#
# Youngs Moduli (GPa) = 27.72205 75.67021 145.50590
#
# Poissons Ratio (x) = 0.23035 0.40899
# Poissons Ratio (y) = 0.08439 0.55157
# Poissons Ratio (z) = 0.07792 0.28684
#
# Static dielectric constant tensor:
#      x y z
#    x 1.635680 0.000000 0.000000 
#    y 0.000000 1.695100 0.000000 
#    z 0.000000 0.000000 1.668440 
# 
# From -- ./inp_files/21509.got.cif
#   From: 2010.05.17/outbox.cif.g08.bks.cpg/sg51_11_cif.got.tgz:21509.got - 2010.06.03 11:52:47.
