data_PCOD9399659
_publ_section_title
;
Structure prediction by ZEFSAII (Michael W. Deem and Ramdas Pophale) SiO2 
 PCOD9399659
Probable space group: P M M A
;
_chemical_formula_sum "Si O2"
_cell_formula_units_Z 40
_cell_length_a 8.689055
_cell_length_b 13.397395
_cell_length_c 19.546938
_cell_angle_alpha 90.000000
_cell_angle_beta 90.000000
_cell_angle_gamma 90.000000
_cell_volume 2275.472775
_symmetry_space_group_name_H-M "P M M A"
_symmetry_group_IT_number 51
_symmetry_cell_setting 'orthorhombic'
loop_
_space_group_symop_operation_xyz
x,y,z
1/2-x,-y,z
1/2+x,-y,-z
-x,y,-z
-x,-y,-z
1/2+x,y,-z
1/2-x,y,z
x,-y,z
loop_
_atom_site_type_symbol
_atom_site_label
_atom_site_fract_x
_atom_site_fract_y
_atom_site_fract_z
Si Si1 0.565865 0.500000 0.577536
Si Si2 0.935290 0.885279 0.665944
Si Si3 0.566672 0.292897 0.423278
Si Si4 0.935254 0.500000 0.076848
Si Si5 0.564823 0.887114 0.826023
Si Si6 0.065556 0.282266 0.923123
O O1 0.750000 0.500000 0.576421
O O2 0.500000 0.500000 0.500000
O O3 0.503436 0.395835 0.607199
O O4 0.750000 0.875471 0.658813
O O5 0.973583 0.871245 0.746118
O O6 0.017176 0.802522 0.620537
O O7 0.975200 0.000000 0.647479
O O8 0.500000 0.281571 0.500000
O O9 0.750000 0.302352 0.427020
O O10 0.750000 0.500000 0.074668
O O11 0.982399 0.392104 0.105605
O O12 0.000000 0.500000 0.000000
O O13 0.750000 0.882842 0.831327
O O14 0.493257 0.804967 0.874782
O O15 0.516498 0.000000 0.844551
O O16 0.250000 0.279244 0.927074
O O17 0.000000 0.272182 0.000000
#
# Coordination Sequence:
#
# PCOD9399659 Si02
#       6
#     4   8   8   4   8   8
#     4  10  18  32  53  76 105 138 172 210 256 306
#     4   9  19  37  57  75 100 136 175 215 260 308
#     4  11  21  34  54  80 108 137 172 213 257 306
#     4   8  16  30  47  70  99 130 162 200 248 294
#     4   9  19  36  55  74 100 134 170 209 254 303
#     4  10  19  32  52  76 102 132 168 210 253 301
#
# _framework density 17.578762999999999
#
# number of rings (size 3 to 8) (size 9 to 14) (size 15 to 20)
#    0.000    2.400    0.000    5.700    0.000    3.200 
#    0.000    3.000    0.000    4.800    0.000    0.000 
#    0.000    0.000    0.000    0.000    0.000    0.000 
#
# Total GULP energy -223004.833393 kJ/mol
# GULP energy per Si atom -5575.120835 kJ/mol
# Density = 1.753875 g / cm^3
# Si number density = 17.578763 Si / 1000 Ang^3
#
#
#
# Elastic Constant Matrix: (Units=GPa)
#
#
# Indices 1 2 3 4 5 6 
#
# 1 84.7160 73.5426 39.1482 0.0000 0.0000 0.0000
# 2 73.5426 203.6220 86.4947 0.0000 0.0000 0.0000
# 3 39.1482 86.4947 56.2943 0.0000 0.0000 0.0000
# 4 0.0000 0.0000 0.0000 -77.9293 0.0000 0.0000
# 5 0.0000 0.0000 0.0000 0.0000 25.9081 0.0000
# 6 0.0000 0.0000 0.0000 0.0000 0.0000 31.1045
#
#
#
# Elastic Compliance Matrix: (Units=1/GPa)
#
#
# Indices 1 2 3 4 5 6 
#
# 1 0.018196 -0.003446 -0.007360 0.000000 0.000000 0.000000
# 2 -0.003446 0.014792 -0.020331 0.000000 0.000000 0.000000
# 3 -0.007360 -0.020331 0.054120 0.000000 0.000000 0.000000
# 4 0.000000 0.000000 0.000000 -0.012832 0.000000 0.000000
# 5 0.000000 0.000000 0.000000 0.000000 0.038598 0.000000
# 6 0.000000 0.000000 0.000000 0.000000 0.000000 0.032150
#
#
# Mechanical properties :
#
#
# Convention : Reuss Voigt Hill
#
# Bulk Modulus (GPa) = 40.26579 82.55592 61.41085
# Shear Modulus (GPa) = 23.19379 5.51312 14.35345
#
# Velocity S-wave (km/s) = 3.63632 1.77286 2.86059
# Velocity P-wave (km/s) = 6.37072 7.15934 6.77651
#
# Compressibility (1/GPa) = 0.02483498
#
# Stress axis : x y z
#
# Youngs Moduli (GPa) = 54.95563 67.60557 18.47751
#
# Poissons Ratio (x) = 0.23295 0.13599
# Poissons Ratio (y) = 0.18936 0.37566
# Poissons Ratio (z) = 0.40447 1.37448
#
# Static dielectric constant tensor:
#      x y z
#    x 1.592360 0.000000 0.000000 
#    y 0.000000 1.634180 0.000000 
#    z 0.000000 0.000000 1.563200 
# 
# From -- ./inp_files/31391.got.cif
#   From: 2010.05.17/outbox.cif.g08.bks.cpg/sg51_16_cif.got.tgz:31391.got - 2010.06.03 11:52:47.
