data_PCOD9399011
_publ_section_title
;
Structure prediction by ZEFSAII (Michael W. Deem and Ramdas Pophale) SiO2 
 PCOD9399011
Probable space group: P M M A
;
_chemical_formula_sum "Si O2"
_cell_formula_units_Z 64
_cell_length_a 23.738840
_cell_length_b 9.294978
_cell_length_c 17.014048
_cell_angle_alpha 90.000000
_cell_angle_beta 90.000000
_cell_angle_gamma 90.000000
_cell_volume 3754.183644
_symmetry_space_group_name_H-M "P M M A"
_symmetry_group_IT_number 51
_symmetry_cell_setting 'orthorhombic'
loop_
_space_group_symop_operation_xyz
x,y,z
1/2-x,-y,z
1/2+x,-y,-z
-x,y,-z
-x,-y,-z
1/2+x,y,-z
1/2-x,y,z
x,-y,z
loop_
_atom_site_type_symbol
_atom_site_label
_atom_site_fract_x
_atom_site_fract_y
_atom_site_fract_z
Si Si1 0.985200 0.672701 0.588249
Si Si2 0.814337 0.666434 0.786764
Si Si3 0.185790 0.828113 0.944315
Si Si4 0.395991 0.331714 0.061911
Si Si5 0.484233 0.833868 0.160220
Si Si6 0.601118 0.164289 0.689704
Si Si7 0.311864 0.330238 0.778607
Si Si8 0.933317 0.670987 0.268767
O O1 0.978582 0.500000 0.589006
O O2 0.929393 0.745851 0.622190
O O3 0.000000 0.717741 0.500000
O O4 0.034303 0.709302 0.651008
O O5 0.750000 0.705194 0.804190
O O6 0.816432 0.500000 0.761276
O O7 0.852712 0.675889 0.864376
O O8 0.841903 0.764744 0.720539
O O9 0.250000 0.796990 0.974417
O O10 0.184238 0.765714 0.856455
O O11 0.178377 0.000000 0.945643
O O12 0.137027 0.750443 0.993377
O O13 0.405824 0.500000 0.043760
O O14 0.452774 0.253040 0.091255
O O15 0.440827 0.832584 0.234430
O O16 0.538888 0.755512 0.195789
O O17 0.494815 0.000000 0.138879
O O18 0.608705 0.000000 0.666310
O O19 0.250000 0.305998 0.742308
O O20 0.314416 0.500000 0.801060
O O21 0.366839 0.301251 0.727032
O O22 0.942334 0.500000 0.255812
#
# Coordination Sequence:
#
# PCOD9399011 Si02
#       8
#     8   8   8   8   8   8   8   8
#     4   9  17  30  50  74  98 123 150 184 228 278
#     4   9  17  28  43  64  90 123 161 195 228 270
#     4  10  20  32  46  66  93 124 159 201 246 288
#     4  10  18  29  46  67  93 125 162 203 243 282
#     4   9  17  29  45  67  95 125 156 192 237 283
#     4   9  17  28  43  65  93 123 154 189 227 269
#     4   9  18  33  52  71  91 118 154 196 239 282
#     4   9  17  31  51  73  95 121 155 192 232 282
#
# _framework density 17.047647000000001
#
# number of rings (size 3 to 8) (size 9 to 14) (size 15 to 20)
#    0.000    2.750    0.000    1.875    0.000    5.750 
#    0.000    0.625    0.000    4.500    0.000    3.500 
#    0.000    0.000    0.000    0.000    0.000    0.000 
#
# Total GULP energy -356696.573020 kJ/mol
# GULP energy per Si atom -5573.383953 kJ/mol
# Density = 1.700885 g / cm^3
# Si number density = 17.047647 Si / 1000 Ang^3
#
#
#
# Elastic Constant Matrix: (Units=GPa)
#
#
# Indices 1 2 3 4 5 6 
#
# 1 78.9606 30.5064 11.7122 0.0000 0.0000 0.0000
# 2 30.5064 51.0998 20.3131 0.0000 0.0000 0.0000
# 3 11.7122 20.3131 31.0667 0.0000 0.0000 0.0000
# 4 0.0000 0.0000 0.0000 13.3213 0.0000 0.0000
# 5 0.0000 0.0000 0.0000 0.0000 19.8502 0.0000
# 6 0.0000 0.0000 0.0000 0.0000 0.0000 10.7317
#
#
#
# Elastic Compliance Matrix: (Units=1/GPa)
#
#
# Indices 1 2 3 4 5 6 
#
# 1 0.016463 -0.009947 0.000297 0.000000 0.000000 0.000000
# 2 -0.009947 0.032452 -0.017469 0.000000 0.000000 0.000000
# 3 0.000297 -0.017469 0.043499 0.000000 0.000000 0.000000
# 4 0.000000 0.000000 0.000000 0.075068 0.000000 0.000000
# 5 0.000000 0.000000 0.000000 0.000000 0.050377 0.000000
# 6 0.000000 0.000000 0.000000 0.000000 0.000000 0.093182
#
#
# Mechanical properties :
#
#
# Convention : Reuss Voigt Hill
#
# Bulk Modulus (GPa) = 26.19375 31.79892 28.99634
# Shear Modulus (GPa) = 13.22740 15.35369 14.29054
#
# Velocity S-wave (km/s) = 2.78853 3.00431 2.89843
# Velocity P-wave (km/s) = 5.07605 5.54328 5.31480
#
# Compressibility (1/GPa) = 0.03817704
#
# Stress axis : x y z
#
# Youngs Moduli (GPa) = 60.74095 30.81493 22.98908
#
# Poissons Ratio (x) = 0.30650 -0.00683
# Poissons Ratio (y) = 0.60417 0.40159
# Poissons Ratio (z) = -0.01804 0.53830
#
# Static dielectric constant tensor:
#      x y z
#    x 1.595720 0.000000 0.000000 
#    y 0.000000 1.572760 0.000000 
#    z 0.000000 0.000000 1.550730 
# 
# From -- ./inp_files/30793.got.cif
#   From: 2010.05.17/outbox.cif.g08.bks.cpg/sg51_16_cif.got.tgz:30793.got - 2010.06.03 11:52:47.
