data_PCOD9399347
_publ_section_title
;
Structure prediction by ZEFSAII (Michael W. Deem and Ramdas Pophale) SiO2 
 PCOD9399347
Probable space group: P M M A
;
_chemical_formula_sum "Si O2"
_cell_formula_units_Z 64
_cell_length_a 7.788071
_cell_length_b 16.725927
_cell_length_c 23.162204
_cell_angle_alpha 90.000000
_cell_angle_beta 90.000000
_cell_angle_gamma 90.000000
_cell_volume 3017.171394
_symmetry_space_group_name_H-M "P M M A"
_symmetry_group_IT_number 51
_symmetry_cell_setting 'orthorhombic'
loop_
_space_group_symop_operation_xyz
x,y,z
1/2-x,-y,z
1/2+x,-y,-z
-x,y,-z
-x,-y,-z
1/2+x,y,-z
1/2-x,y,z
x,-y,z
loop_
_atom_site_type_symbol
_atom_site_label
_atom_site_fract_x
_atom_site_fract_y
_atom_site_fract_z
Si Si1 0.048501 0.084454 0.907541
Si Si2 0.043830 0.768178 0.436058
Si Si3 0.044663 0.257782 0.938279
Si Si4 0.445786 0.116844 0.221342
Si Si5 0.540024 0.910635 0.648849
Si Si6 0.447414 0.408028 0.274115
Si Si7 0.040598 0.410399 0.407807
Si Si8 0.054204 0.716833 0.813193
O O1 0.250000 0.083905 0.921945
O O2 0.974180 0.166705 0.932558
O O3 0.033692 0.088828 0.837793
O O4 0.970885 0.000000 0.926778
O O5 0.250000 0.763617 0.429266
O O6 0.982395 0.833814 0.388920
O O7 0.979954 0.675344 0.432385
O O8 0.000000 0.797910 0.500000
O O9 0.250000 0.254091 0.937537
O O10 0.991551 0.299213 0.878363
O O11 0.000000 0.293385 0.000000
O O12 0.250000 0.088596 0.219050
O O13 0.517602 0.095358 0.284201
O O14 0.449082 0.212423 0.215852
O O15 0.750000 0.907343 0.649580
O O16 0.492749 0.000000 0.627045
O O17 0.250000 0.379387 0.273862
O O18 0.449220 0.500000 0.257251
O O19 0.506146 0.404286 0.340201
O O20 0.549047 0.357524 0.228419
O O21 0.250000 0.412150 0.412162
O O22 0.982643 0.500000 0.428352
O O23 0.250000 0.746882 0.817316
#
# Coordination Sequence:
#
# PCOD9399347 Si02
#       8
#     8   8   8   8   8   8   8   8
#     4   9  18  32  47  67 100 132 153 188 251 312
#     4  10  20  34  51  70  95 129 167 205 245 289
#     4   9  19  33  47  65  90 126 169 206 240 282
#     4  10  18  30  51  75  95 120 163 209 245 291
#     4   9  18  32  50  71  95 125 163 209 257 300
#     4   9  17  31  54  82 105 126 159 198 234 284
#     4   8  15  30  52  76 102 131 160 193 239 294
#     4  10  20  33  49  72 104 135 159 192 248 305
#
# _framework density 21.211922000000001
#
# number of rings (size 3 to 8) (size 9 to 14) (size 15 to 20)
#    0.000    2.750    0.000    3.375    0.000    6.250 
#    0.000    3.125    0.000    2.625    0.000    0.000 
#    0.000    0.000    0.000    0.000    0.000    0.000 
#
# Total GULP energy -356664.180110 kJ/mol
# GULP energy per Si atom -5572.877814 kJ/mol
# Density = 2.116364 g / cm^3
# Si number density = 21.211922 Si / 1000 Ang^3
#
#
#
# Elastic Constant Matrix: (Units=GPa)
#
#
# Indices 1 2 3 4 5 6 
#
# 1 30.0052 5.3773 1.4190 0.0000 0.0000 0.0000
# 2 5.3773 72.4772 48.0627 0.0000 0.0000 0.0000
# 3 1.4190 48.0627 94.9138 0.0000 0.0000 0.0000
# 4 0.0000 0.0000 0.0000 -17.3711 0.0000 0.0000
# 5 0.0000 0.0000 0.0000 0.0000 17.9474 0.0000
# 6 0.0000 0.0000 0.0000 0.0000 0.0000 80.1289
#
#
#
# Elastic Compliance Matrix: (Units=1/GPa)
#
#
# Indices 1 2 3 4 5 6 
#
# 1 0.033860 -0.003277 0.001153 0.000000 0.000000 0.000000
# 2 -0.003277 0.021090 -0.010631 0.000000 0.000000 0.000000
# 3 0.001153 -0.010631 0.015902 0.000000 0.000000 0.000000
# 4 0.000000 0.000000 0.000000 -0.057567 0.000000 0.000000
# 5 0.000000 0.000000 0.000000 0.000000 0.055718 0.000000
# 6 0.000000 0.000000 0.000000 0.000000 0.000000 0.012480
#
#
# Mechanical properties :
#
#
# Convention : Reuss Voigt Hill
#
# Bulk Modulus (GPa) = 22.05390 34.12380 28.08885
# Shear Modulus (GPa) = 40.94752 25.64352 33.29552
#
# Velocity S-wave (km/s) = 4.39840 3.48073 3.96619
# Velocity P-wave (km/s) = 6.01781 5.68119 5.85192
#
# Compressibility (1/GPa) = 0.04534345
#
# Stress axis : x y z
#
# Youngs Moduli (GPa) = 29.53308 47.41522 62.88568
#
# Poissons Ratio (x) = 0.15537 -0.07252
# Poissons Ratio (y) = 0.09678 0.66852
# Poissons Ratio (z) = -0.03406 0.50406
#
# Static dielectric constant tensor:
#      x y z
#    x 1.805860 0.000000 0.000000 
#    y 0.000000 1.800080 0.000000 
#    z 0.000000 0.000000 1.764240 
# 
# From -- ./inp_files/32425.got.cif
#   From: 2010.05.17/outbox.cif.g08.bks.cpg/sg51_17_cif.got.tgz:32425.got - 2010.06.03 11:52:47.
