data_PCOD9399665
_publ_section_title
;
Structure prediction by ZEFSAII (Michael W. Deem and Ramdas Pophale) SiO2 
 PCOD9399665
Probable space group: P M M A
;
_chemical_formula_sum "Si O2"
_cell_formula_units_Z 44
_cell_length_a 8.968321
_cell_length_b 17.634616
_cell_length_c 14.854390
_cell_angle_alpha 90.000000
_cell_angle_beta 90.000000
_cell_angle_gamma 90.000000
_cell_volume 2349.264812
_symmetry_space_group_name_H-M "P M M A"
_symmetry_group_IT_number 51
_symmetry_cell_setting 'orthorhombic'
loop_
_space_group_symop_operation_xyz
x,y,z
1/2-x,-y,z
1/2+x,-y,-z
-x,y,-z
-x,-y,-z
1/2+x,y,-z
1/2-x,y,z
x,-y,z
loop_
_atom_site_type_symbol
_atom_site_label
_atom_site_fract_x
_atom_site_fract_y
_atom_site_fract_z
Si Si1 0.078591 0.092477 0.907999
Si Si2 0.069625 0.500000 0.598660
Si Si3 0.428876 0.790560 0.597556
Si Si4 0.428927 0.410199 0.905768
Si Si5 0.568808 0.646566 0.285037
Si Si6 0.575009 0.090792 0.721242
O O1 0.250000 0.117688 0.903954
O O2 0.991435 0.114848 0.818013
O O3 0.078783 0.000000 0.909875
O O4 0.000000 0.117877 0.000000
O O5 0.250000 0.500000 0.591559
O O6 0.024624 0.425656 0.654821
O O7 0.000000 0.500000 0.500000
O O8 0.500000 0.779172 0.500000
O O9 0.250000 0.790442 0.590571
O O10 0.476620 0.722984 0.664851
O O11 0.486675 0.867499 0.642643
O O12 0.250000 0.403626 0.912043
O O13 0.462367 0.500000 0.892078
O O14 0.481781 0.365133 0.817572
O O15 0.500000 0.386091 0.000000
O O16 0.750000 0.646178 0.282167
O O17 0.750000 0.108726 0.716414
O O18 0.558312 0.000000 0.714691
#
# Coordination Sequence:
#
# PCOD9399665 Si02
#       6
#     8   4   8   8   8   8
#     4   9  16  28  50  81 114 145 177 217 268 326
#     4  10  18  32  53  78 106 140 181 222 263 312
#     4  11  23  39  58  80 108 143 183 230 287 344
#     4   9  16  30  53  80 110 145 183 221 261 311
#     4   9  18  34  56  79 108 147 183 217 266 327
#     4  10  21  38  59  82 108 142 187 236 286 341
#
# _framework density 18.729263
#
# number of rings (size 3 to 8) (size 9 to 14) (size 15 to 20)
#    0.000    2.364    0.909    2.182    0.000    3.636 
#    0.000    4.545    0.000    2.182    0.000    0.000 
#    0.000    0.000    0.000    0.000    0.000    0.000 
#
# Total GULP energy -245569.734014 kJ/mol
# GULP energy per Si atom -5581.130319 kJ/mol
# Density = 1.868663 g / cm^3
# Si number density = 18.729263 Si / 1000 Ang^3
#
#
#
# Elastic Constant Matrix: (Units=GPa)
#
#
# Indices 1 2 3 4 5 6 
#
# 1 65.9402 34.0280 54.6963 0.0000 0.0000 0.0000
# 2 34.0280 33.9056 45.0788 0.0000 0.0000 0.0000
# 3 54.6963 45.0788 183.4796 0.0000 0.0000 0.0000
# 4 0.0000 0.0000 0.0000 24.2529 0.0000 0.0000
# 5 0.0000 0.0000 0.0000 0.0000 39.5109 0.0000
# 6 0.0000 0.0000 0.0000 0.0000 0.0000 7.5429
#
#
#
# Elastic Compliance Matrix: (Units=1/GPa)
#
#
# Indices 1 2 3 4 5 6 
#
# 1 0.032190 -0.029031 -0.002463 0.000000 0.000000 0.000000
# 2 -0.029031 0.069983 -0.008540 0.000000 0.000000 0.000000
# 3 -0.002463 -0.008540 0.008283 0.000000 0.000000 0.000000
# 4 0.000000 0.000000 0.000000 0.041232 0.000000 0.000000
# 5 0.000000 0.000000 0.000000 0.000000 0.025309 0.000000
# 6 0.000000 0.000000 0.000000 0.000000 0.000000 0.132575
#
#
# Mechanical properties :
#
#
# Convention : Reuss Voigt Hill
#
# Bulk Modulus (GPa) = 32.90810 61.21463 47.06136
# Shear Modulus (GPa) = 12.50723 24.22950 18.36837
#
# Velocity S-wave (km/s) = 2.58697 3.60067 3.13506
# Velocity P-wave (km/s) = 5.15090 7.07399 6.18761
#
# Compressibility (1/GPa) = 0.03038765
#
# Stress axis : x y z
#
# Youngs Moduli (GPa) = 31.06584 14.28918 120.73353
#
# Poissons Ratio (x) = 0.41482 0.29742
# Poissons Ratio (y) = 0.90186 1.03104
# Poissons Ratio (z) = 0.07653 0.12203
#
# Static dielectric constant tensor:
#      x y z
#    x 1.630610 0.000000 0.000000 
#    y 0.000000 1.660410 0.000000 
#    z 0.000000 0.000000 1.626850 
# 
# From -- ./inp_files/20885.got.cif
#   From: 2010.05.17/outbox.cif.g08.bks.cpg/sg51_11_cif.got.tgz:20885.got - 2010.06.03 11:52:47.
