data_PCOD9399714
_publ_section_title
;
Structure prediction by ZEFSAII (Michael W. Deem and Ramdas Pophale) SiO2 
 PCOD9399714
Probable space group: P M M A
;
_chemical_formula_sum "Si O2"
_cell_formula_units_Z 64
_cell_length_a 8.205526
_cell_length_b 20.617584
_cell_length_c 20.872336
_cell_angle_alpha 90.000000
_cell_angle_beta 90.000000
_cell_angle_gamma 90.000000
_cell_volume 3531.142597
_symmetry_space_group_name_H-M "P M M A"
_symmetry_group_IT_number 51
_symmetry_cell_setting 'orthorhombic'
loop_
_space_group_symop_operation_xyz
x,y,z
1/2-x,-y,z
1/2+x,-y,-z
-x,y,-z
-x,-y,-z
1/2+x,y,-z
1/2-x,y,z
x,-y,z
loop_
_atom_site_type_symbol
_atom_site_label
_atom_site_fract_x
_atom_site_fract_y
_atom_site_fract_z
Si Si1 0.050911 0.928154 0.292925
Si Si2 0.939151 0.890117 0.568521
Si Si3 0.447956 0.710848 0.255613
Si Si4 0.444561 0.927430 0.926942
Si Si5 0.055710 0.393623 0.568678
Si Si6 0.055114 0.430010 0.291446
Si Si7 0.446485 0.831663 0.182252
Si Si8 0.944008 0.751527 0.396089
O O1 0.250000 0.924136 0.294763
O O2 0.988535 0.917280 0.365177
O O3 0.995066 0.874768 0.242608
O O4 0.006796 0.000000 0.270831
O O5 0.750000 0.905387 0.570329
O O6 0.000000 0.913505 0.500000
O O7 0.966439 0.812787 0.573882
O O8 0.250000 0.709962 0.257769
O O9 0.506756 0.636189 0.258251
O O10 0.498659 0.757770 0.197382
O O11 0.507696 0.743430 0.321714
O O12 0.250000 0.928990 0.925362
O O13 0.501109 0.869813 0.880863
O O14 0.505236 0.000000 0.907006
O O15 0.500000 0.917439 0.000000
O O16 0.250000 0.399434 0.573867
O O17 0.011125 0.317224 0.572529
O O18 0.000000 0.419598 0.500000
O O19 0.979826 0.423822 0.632591
O O20 0.250000 0.430373 0.282886
O O21 0.990201 0.500000 0.269246
O O22 0.250000 0.831692 0.182788
O O23 0.750000 0.761009 0.402101
#
# Coordination Sequence:
#
# PCOD9399714 Si02
#       8
#     8   8   8   8   8   8   8   8
#     4   9  18  32  49  68  91 122 160 199 246 301
#     4  11  21  33  47  64  86 116 156 203 257 309
#     4   9  17  31  51  74  98 126 162 201 243 292
#     4  10  21  36  54  80 114 149 180 210 244 287
#     4  10  20  31  44  63  85 114 151 194 245 304
#     4   9  18  32  49  68  93 124 156 196 245 297
#     4  10  18  32  55  79 102 135 172 208 247 290
#     4  10  19  31  47  67  89 115 150 197 252 303
#
# _framework density 18.124445000000001
#
# number of rings (size 3 to 8) (size 9 to 14) (size 15 to 20)
#    0.000    2.250    1.250    2.250    0.000    5.000 
#    0.000    0.000    0.000    1.875    0.000    0.000 
#    0.000    0.500    0.000    0.875    0.000    1.250 
#
# Total GULP energy -357010.562949 kJ/mol
# GULP energy per Si atom -5578.290046 kJ/mol
# Density = 1.808319 g / cm^3
# Si number density = 18.124445 Si / 1000 Ang^3
#
#
#
# Elastic Constant Matrix: (Units=GPa)
#
#
# Indices 1 2 3 4 5 6 
#
# 1 4.2104 7.8729 6.6132 0.0000 0.0000 0.0000
# 2 7.8729 117.9378 57.3872 0.0000 0.0000 0.0000
# 3 6.6132 57.3872 83.1377 0.0000 0.0000 0.0000
# 4 0.0000 0.0000 0.0000 260.3975 0.0000 0.0000
# 5 0.0000 0.0000 0.0000 0.0000 21.4632 0.0000
# 6 0.0000 0.0000 0.0000 0.0000 0.0000 7.3279
#
#
#
# Elastic Compliance Matrix: (Units=1/GPa)
#
#
# Indices 1 2 3 4 5 6 
#
# 1 0.282115 -0.011915 -0.014216 0.000000 0.000000 0.000000
# 2 -0.011915 0.013270 -0.008212 0.000000 0.000000 0.000000
# 3 -0.014216 -0.008212 0.018828 0.000000 0.000000 0.000000
# 4 0.000000 0.000000 0.000000 0.003840 0.000000 0.000000
# 5 0.000000 0.000000 0.000000 0.000000 0.046591 0.000000
# 6 0.000000 0.000000 0.000000 0.000000 0.000000 0.136465
#
#
# Mechanical properties :
#
#
# Convention : Reuss Voigt Hill
#
# Bulk Modulus (GPa) = 4.07289 38.78142 21.42716
# Shear Modulus (GPa) = 7.67295 66.73188 37.20242
#
# Velocity S-wave (km/s) = 2.05977 6.07443 4.53549
# Velocity P-wave (km/s) = 2.81229 8.40488 6.26701
#
# Compressibility (1/GPa) = 0.24552564
#
# Stress axis : x y z
#
# Youngs Moduli (GPa) = 3.54465 75.35514 53.11279
#
# Poissons Ratio (x) = 0.89786 0.75508
# Poissons Ratio (y) = 0.04223 0.43618
# Poissons Ratio (z) = 0.05039 0.61885
#
# Static dielectric constant tensor:
#      x y z
#    x 1.630390 0.000000 0.000000 
#    y 0.000000 1.677030 0.000000 
#    z 0.000000 0.000000 1.606840 
# 
# From -- ./inp_files/28457.got.cif
#   From: 2010.05.17/outbox.cif.g08.bks.cpg/sg51_15_cif.got.tgz:28457.got - 2010.06.03 11:52:47.
