data_PCOD9399141
_publ_section_title
;
Structure prediction by ZEFSAII (Michael W. Deem and Ramdas Pophale) SiO2 
 PCOD9399141
Probable space group: P M M A
;
_chemical_formula_sum "Si O2"
_cell_formula_units_Z 64
_cell_length_a 14.440032
_cell_length_b 17.576182
_cell_length_c 14.985107
_cell_angle_alpha 90.000000
_cell_angle_beta 90.000000
_cell_angle_gamma 90.000000
_cell_volume 3803.229605
_symmetry_space_group_name_H-M "P M M A"
_symmetry_group_IT_number 51
_symmetry_cell_setting 'orthorhombic'
loop_
_space_group_symop_operation_xyz
x,y,z
1/2-x,-y,z
1/2+x,-y,-z
-x,y,-z
-x,-y,-z
1/2+x,y,-z
1/2-x,y,z
x,-y,z
loop_
_atom_site_type_symbol
_atom_site_label
_atom_site_fract_x
_atom_site_fract_y
_atom_site_fract_z
Si Si1 0.139430 0.084470 0.712846
Si Si2 0.645293 0.412602 0.297692
Si Si3 0.361461 0.913138 0.319847
Si Si4 0.481167 0.354857 0.861219
Si Si5 0.063251 0.709005 0.577839
Si Si6 0.358743 0.589835 0.021122
Si Si7 0.139989 0.131178 0.517520
Si Si8 0.004572 0.207353 0.247155
O O1 0.250000 0.096128 0.717578
O O2 0.111328 0.088897 0.608137
O O3 0.084829 0.152541 0.758945
O O4 0.118336 0.000000 0.746910
O O5 0.750000 0.401922 0.261909
O O6 0.636586 0.500000 0.326530
O O7 0.569898 0.394838 0.221868
O O8 0.628548 0.353417 0.377444
O O9 0.250000 0.905763 0.317103
O O10 0.394089 0.898463 0.422313
O O11 0.409969 0.850018 0.258841
O O12 0.385148 0.000000 0.295511
O O13 0.576109 0.394212 0.893540
O O14 0.504147 0.269050 0.830981
O O15 0.407944 0.363006 0.942102
O O16 0.114394 0.780979 0.533263
O O17 0.005756 0.745161 0.660355
O O18 0.000000 0.675195 0.500000
O O19 0.250000 0.607536 0.032782
O O20 0.366032 0.500000 0.998344
O O21 0.250000 0.122579 0.513807
#
# Coordination Sequence:
#
# PCOD9399141 Si02
#       8
#     8   8   8   8   8   8   8   8
#     4   9  17  28  43  66  96 130 171 220 268 305
#     4  10  20  33  51  73  99 136 179 219 257 302
#     4  10  19  30  45  66  93 131 177 219 257 296
#     4  10  20  34  55  81 111 136 160 197 249 309
#     4  10  18  30  44  65  95 132 180 222 264 301
#     4  10  20  36  61  89 112 131 154 192 247 311
#     4   9  16  27  43  62  89 125 170 222 269 305
#     4  10  20  31  46  70 101 137 169 205 253 301
#
# _framework density 16.827802999999999
#
# number of rings (size 3 to 8) (size 9 to 14) (size 15 to 20)
#    0.000    2.250    1.250    3.000    0.000    6.750 
#    0.000    1.875    0.000    0.000    0.000   14.000 
#    0.000   12.000    0.000    0.000    0.000    0.000 
#
# Total GULP energy -356689.430651 kJ/mol
# GULP energy per Si atom -5573.272354 kJ/mol
# Density = 1.678950 g / cm^3
# Si number density = 16.827803 Si / 1000 Ang^3
#
#
#
# Elastic Constant Matrix: (Units=GPa)
#
#
# Indices 1 2 3 4 5 6 
#
# 1 72.8370 40.8316 17.4843 0.0000 0.0000 0.0000
# 2 40.8316 106.3232 35.9319 0.0000 0.0000 0.0000
# 3 17.4843 35.9319 34.8294 0.0000 0.0000 0.0000
# 4 0.0000 0.0000 0.0000 34.7813 0.0000 0.0000
# 5 0.0000 0.0000 0.0000 0.0000 18.3139 0.0000
# 6 0.0000 0.0000 0.0000 0.0000 0.0000 26.9572
#
#
#
# Elastic Compliance Matrix: (Units=1/GPa)
#
#
# Indices 1 2 3 4 5 6 
#
# 1 0.017681 -0.005819 -0.002872 0.000000 0.000000 0.000000
# 2 -0.005819 0.016355 -0.013951 0.000000 0.000000 0.000000
# 3 -0.002872 -0.013951 0.044546 0.000000 0.000000 0.000000
# 4 0.000000 0.000000 0.000000 0.028751 0.000000 0.000000
# 5 0.000000 0.000000 0.000000 0.000000 0.054603 0.000000
# 6 0.000000 0.000000 0.000000 0.000000 0.000000 0.037096
#
#
# Mechanical properties :
#
#
# Convention : Reuss Voigt Hill
#
# Bulk Modulus (GPa) = 30.03344 44.72057 37.37701
# Shear Modulus (GPa) = 19.57582 23.99327 21.78454
#
# Velocity S-wave (km/s) = 3.41442 3.78009 3.60190
# Velocity P-wave (km/s) = 5.78192 6.75908 6.28951
#
# Compressibility (1/GPa) = 0.03329622
#
# Stress axis : x y z
#
# Youngs Moduli (GPa) = 56.55766 61.14352 22.44864
#
# Poissons Ratio (x) = 0.35582 0.06448
# Poissons Ratio (y) = 0.32913 0.31319
# Poissons Ratio (z) = 0.16245 0.85303
#
# Static dielectric constant tensor:
#      x y z
#    x 1.595510 0.000000 0.000000 
#    y 0.000000 1.569010 0.000000 
#    z 0.000000 0.000000 1.605080 
# 
# From -- ./inp_files/24443.got.cif
#   From: 2010.05.17/outbox.cif.g08.bks.cpg/sg51_13_cif.got.tgz:24443.got - 2010.06.03 11:52:47.
