data_PCOD9399751
_publ_section_title
;
Structure prediction by ZEFSAII (Michael W. Deem and Ramdas Pophale) SiO2 
 PCOD9399751
Probable space group: P M M A
;
_chemical_formula_sum "Si O2"
_cell_formula_units_Z 48
_cell_length_a 14.834165
_cell_length_b 11.896407
_cell_length_c 14.818015
_cell_angle_alpha 90.000000
_cell_angle_beta 90.000000
_cell_angle_gamma 90.000000
_cell_volume 2614.983478
_symmetry_space_group_name_H-M "P M M A"
_symmetry_group_IT_number 51
_symmetry_cell_setting 'orthorhombic'
loop_
_space_group_symop_operation_xyz
x,y,z
1/2-x,-y,z
1/2+x,-y,-z
-x,y,-z
-x,-y,-z
1/2+x,y,-z
1/2-x,y,z
x,-y,z
loop_
_atom_site_type_symbol
_atom_site_label
_atom_site_fract_x
_atom_site_fract_y
_atom_site_fract_z
Si Si1 0.750000 0.862915 0.859488
Si Si2 0.103752 0.250145 0.012305
Si Si3 0.858478 0.500000 0.028907
Si Si4 0.360132 0.500000 0.760009
Si Si5 0.855022 0.877283 0.163764
Si Si6 0.250000 0.865562 0.349768
Si Si7 0.107996 0.870255 0.502056
Si Si8 0.142685 0.266921 0.678232
O O1 0.662437 0.812013 0.911225
O O2 0.750000 0.826691 0.754139
O O3 0.750000 0.000000 0.867412
O O4 0.110376 0.384932 0.018190
O O5 0.143588 0.210904 0.916770
O O6 0.000000 0.216298 0.000000
O O7 0.750000 0.500000 0.028117
O O8 0.887750 0.500000 0.134567
O O9 0.250000 0.500000 0.760874
O O10 0.391997 0.610928 0.707132
O O11 0.750000 0.892780 0.184484
O O12 0.898470 0.823740 0.252238
O O13 0.892487 0.000000 0.138910
O O14 0.161677 0.838353 0.410544
O O15 0.250000 0.000000 0.341639
O O16 0.131620 0.780955 0.578895
O O17 0.000000 0.871264 0.500000
O O18 0.136299 0.000000 0.524613
O O19 0.250000 0.273932 0.693580
#
# Coordination Sequence:
#
# PCOD9399751 Si02
#       8
#     4   8   4   4   8   4   8   8
#     4  11  24  43  62  85 126 177 211 245 310 377
#     4  12  24  38  61  90 120 159 210 258 302 363
#     4  11  19  41  65  81 116 160 202 253 310 368
#     4   9  18  31  56  86 111 146 184 224 302 365
#     4  10  19  32  53  84 117 147 184 237 300 358
#     4   9  20  40  60  79 118 168 202 237 296 367
#     4  10  20  35  59  89 116 150 199 245 292 358
#     4  10  18  32  56  84 113 144 181 237 295 350
#
# _framework density 18.355756
#
# number of rings (size 3 to 8) (size 9 to 14) (size 15 to 20)
#    0.000    1.667    4.167    1.250    0.000    3.333 
#    0.000    2.083    0.000    2.000    0.000    0.000 
#    0.000    0.000    0.000    0.000    0.000    0.000 
#
# Total GULP energy -267319.929964 kJ/mol
# GULP energy per Si atom -5569.165208 kJ/mol
# Density = 1.831398 g / cm^3
# Si number density = 18.355756 Si / 1000 Ang^3
#
#
#
# Elastic Constant Matrix: (Units=GPa)
#
#
# Indices 1 2 3 4 5 6 
#
# 1 81.6473 20.2801 32.7896 0.0000 0.0000 0.0000
# 2 20.2801 96.8923 33.2903 0.0000 0.0000 0.0000
# 3 32.7896 33.2903 123.7444 0.0000 0.0000 0.0000
# 4 0.0000 0.0000 0.0000 11.5158 0.0000 0.0000
# 5 0.0000 0.0000 0.0000 0.0000 -8.9955 0.0000
# 6 0.0000 0.0000 0.0000 0.0000 0.0000 5.9194
#
#
#
# Elastic Compliance Matrix: (Units=1/GPa)
#
#
# Indices 1 2 3 4 5 6 
#
# 1 0.013993 -0.001823 -0.003217 0.000000 0.000000 0.000000
# 2 -0.001823 0.011609 -0.002640 0.000000 0.000000 0.000000
# 3 -0.003217 -0.002640 0.009644 0.000000 0.000000 0.000000
# 4 0.000000 0.000000 0.000000 0.086837 0.000000 0.000000
# 5 0.000000 0.000000 0.000000 0.000000 -0.111167 0.000000
# 6 0.000000 0.000000 0.000000 0.000000 0.000000 0.168936
#
#
# Mechanical properties :
#
#
# Convention : Reuss Voigt Hill
#
# Bulk Modulus (GPa) = 50.28982 52.77821 51.53402
# Shear Modulus (GPa) = 24.77194 16.08289 20.42742
#
# Velocity S-wave (km/s) = 3.67760 2.96324 3.33958
# Velocity P-wave (km/s) = 6.74461 6.36578 6.55793
#
# Compressibility (1/GPa) = 0.01988474
#
# Stress axis : x y z
#
# Youngs Moduli (GPa) = 71.46559 86.13666 103.69227
#
# Poissons Ratio (x) = 0.15706 0.33360
# Poissons Ratio (y) = 0.13031 0.27376
# Poissons Ratio (z) = 0.22992 0.22741
#
# Static dielectric constant tensor:
#      x y z
#    x 1.614110 0.000000 0.000000 
#    y 0.000000 1.691980 0.000000 
#    z 0.000000 0.000000 1.620730 
# 
# From -- ./inp_files/24117.got.cif
#   From: 2010.05.17/outbox.cif.g08.bks.cpg/sg51_13_cif.got.tgz:24117.got - 2010.06.03 11:52:47.
