data_PCOD9399142
_publ_section_title
;
Structure prediction by ZEFSAII (Michael W. Deem and Ramdas Pophale) SiO2 
 PCOD9399142
Probable space group: P M M A
;
_chemical_formula_sum "Si O2"
_cell_formula_units_Z 40
_cell_length_a 8.659416
_cell_length_b 15.967194
_cell_length_c 20.439555
_cell_angle_alpha 90.000000
_cell_angle_beta 90.000000
_cell_angle_gamma 90.000000
_cell_volume 2826.107268
_symmetry_space_group_name_H-M "P M M A"
_symmetry_group_IT_number 51
_symmetry_cell_setting 'orthorhombic'
loop_
_space_group_symop_operation_xyz
x,y,z
1/2-x,-y,z
1/2+x,-y,-z
-x,y,-z
-x,-y,-z
1/2+x,y,-z
1/2-x,y,z
x,-y,z
loop_
_atom_site_type_symbol
_atom_site_label
_atom_site_fract_x
_atom_site_fract_y
_atom_site_fract_z
Si Si1 0.065267 0.000000 0.074064
Si Si2 0.935775 0.500000 0.927102
Si Si3 0.065670 0.825253 0.926166
Si Si4 0.929800 0.601667 0.568111
Si Si5 0.061391 0.597484 0.289092
Si Si6 0.562740 0.332350 0.848667
O O1 0.001837 0.912651 0.101658
O O2 0.250000 0.000000 0.073395
O O3 0.000000 0.000000 0.000000
O O4 0.750000 0.500000 0.929594
O O5 0.981732 0.583816 0.888483
O O6 0.000000 0.500000 0.000000
O O7 0.250000 0.830533 0.930196
O O8 0.012234 0.747756 0.882283
O O9 0.000000 0.813804 0.000000
O O10 0.750000 0.623075 0.566914
O O11 0.941819 0.500000 0.568377
O O12 0.994092 0.627142 0.639300
O O13 0.000000 0.632081 0.500000
O O14 0.250000 0.596910 0.291078
O O15 0.015885 0.500000 0.279176
O O16 0.016520 0.652003 0.226654
O O17 0.750000 0.324845 0.851449
#
# Coordination Sequence:
#
# PCOD9399142 Si02
#       6
#     4   4   8   8   8   8
#     4  10  18  32  52  70  84 102 129 166 211 258
#     4  10  20  30  42  56  75 104 142 182 215 242
#     4  11  21  33  47  65  86 108 135 171 214 259
#     4   8  13  21  35  54  74  99 132 170 207 244
#     4   8  13  24  41  57  76 106 143 176 208 246
#     4  10  18  30  45  61  80 109 145 180 213 249
#
# _framework density 14.153744
#
# number of rings (size 3 to 8) (size 9 to 14) (size 15 to 20)
#    0.000    2.600    1.000    5.700    0.000    2.400 
#    0.000    1.000    0.000    1.200    0.000    0.000 
#    0.000    0.000    0.000    0.900    0.000   10.800 
#
# Total GULP energy -222753.300433 kJ/mol
# GULP energy per Si atom -5568.832511 kJ/mol
# Density = 1.412153 g / cm^3
# Si number density = 14.153744 Si / 1000 Ang^3
#
#
#
# Elastic Constant Matrix: (Units=GPa)
#
#
# Indices 1 2 3 4 5 6 
#
# 1 53.9506 36.2329 37.1318 0.0000 0.0000 0.0000
# 2 36.2329 100.8540 56.2032 0.0000 0.0000 0.0000
# 3 37.1318 56.2032 128.1475 0.0000 0.0000 0.0000
# 4 0.0000 0.0000 0.0000 4.2499 0.0000 0.0000
# 5 0.0000 0.0000 0.0000 0.0000 17.8674 0.0000
# 6 0.0000 0.0000 0.0000 0.0000 0.0000 18.3151
#
#
#
# Elastic Compliance Matrix: (Units=1/GPa)
#
#
# Indices 1 2 3 4 5 6 
#
# 1 0.026337 -0.006894 -0.004608 0.000000 0.000000 0.000000
# 2 -0.006894 0.014927 -0.004549 0.000000 0.000000 0.000000
# 3 -0.004608 -0.004549 0.011134 0.000000 0.000000 0.000000
# 4 0.000000 0.000000 0.000000 0.235300 0.000000 0.000000
# 5 0.000000 0.000000 0.000000 0.000000 0.055968 0.000000
# 6 0.000000 0.000000 0.000000 0.000000 0.000000 0.054600
#
#
# Mechanical properties :
#
#
# Convention : Reuss Voigt Hill
#
# Bulk Modulus (GPa) = 49.27091 60.23196 54.75143
# Shear Modulus (GPa) = 11.43818 18.31210 14.87514
#
# Velocity S-wave (km/s) = 2.84586 3.60084 3.24538
# Velocity P-wave (km/s) = 6.75909 7.74183 7.26709
#
# Compressibility (1/GPa) = 0.02029595
#
# Stress axis : x y z
#
# Youngs Moduli (GPa) = 37.96978 66.99169 89.81640
#
# Poissons Ratio (x) = 0.46184 0.41385
# Poissons Ratio (y) = 0.26176 0.40859
# Poissons Ratio (z) = 0.17495 0.30476
#
# Static dielectric constant tensor:
#      x y z
#    x 1.483610 0.000000 0.000000 
#    y 0.000000 1.457830 0.000000 
#    z 0.000000 0.000000 1.493030 
# 
# From -- ./inp_files/27790.got.cif
#   From: 2010.05.17/outbox.cif.g08.bks.cpg/sg51_14_cif.got.tgz:27790.got - 2010.06.03 11:52:47.
