data_PCOD9399002
_publ_section_title
;
Structure prediction by ZEFSAII (Michael W. Deem and Ramdas Pophale) SiO2 
 PCOD9399002
Probable space group: P M M A
;
_chemical_formula_sum "Si O2"
_cell_formula_units_Z 64
_cell_length_a 18.712853
_cell_length_b 7.327218
_cell_length_c 19.682453
_cell_angle_alpha 90.000000
_cell_angle_beta 90.000000
_cell_angle_gamma 90.000000
_cell_volume 2698.723196
_symmetry_space_group_name_H-M "P M M A"
_symmetry_group_IT_number 51
_symmetry_cell_setting 'orthorhombic'
loop_
_space_group_symop_operation_xyz
x,y,z
1/2-x,-y,z
1/2+x,-y,-z
-x,y,-z
-x,-y,-z
1/2+x,y,-z
1/2-x,y,z
x,-y,z
loop_
_atom_site_type_symbol
_atom_site_label
_atom_site_fract_x
_atom_site_fract_y
_atom_site_fract_z
Si Si1 0.170320 0.718934 0.468001
Si Si2 0.667954 0.212535 0.680212
Si Si3 0.933203 0.296771 0.798438
Si Si4 0.330396 0.722039 0.087816
Si Si5 0.933446 0.276645 0.282227
Si Si6 0.667409 0.277847 0.166198
Si Si7 0.574502 0.720228 0.037382
Si Si8 0.050086 0.278328 0.563239
O O1 0.250000 0.792981 0.467834
O O2 0.172874 0.500000 0.468182
O O3 0.136592 0.768634 0.395455
O O4 0.127217 0.772718 0.533613
O O5 0.750000 0.279729 0.678709
O O6 0.621412 0.309735 0.735881
O O7 0.669205 0.000000 0.697771
O O8 0.954321 0.500000 0.822660
O O9 0.888381 0.209435 0.858425
O O10 0.003064 0.211670 0.766756
O O11 0.250000 0.786307 0.099804
O O12 0.328533 0.500000 0.094552
O O13 0.361295 0.763264 0.014381
O O14 0.935748 0.500000 0.284743
O O15 0.861228 0.228519 0.241747
O O16 0.951379 0.215631 0.358886
O O17 0.750000 0.219553 0.153851
O O18 0.668273 0.500000 0.162620
O O19 0.607266 0.219863 0.110224
O O20 0.566909 0.500000 0.041783
O O21 0.500000 0.781958 0.000000
O O22 0.041907 0.500000 0.565413
O O23 0.000000 0.218258 0.500000
#
# Coordination Sequence:
#
# PCOD9399002 Si02
#       8
#     8   8   8   8   8   8   8   8
#     4   9  17  29  46  66  86 113 151 189 226 276
#     4  10  20  32  46  66  93 123 152 187 235 285
#     4  10  18  29  46  66  90 122 159 194 228 272
#     4   9  16  24  36  57  83 112 150 192 225 257
#     4   9  17  27  41  63  89 118 154 194 235 281
#     4   9  16  25  37  56  88 128 160 190 240 298
#     4   9  15  23  35  52  81 122 161 191 225 276
#     4   9  16  26  41  61  84 110 142 184 231 273
#
# _framework density 23.714919999999999
#
# number of rings (size 3 to 8) (size 9 to 14) (size 15 to 20)
#    0.000    2.750    0.000    2.625    0.000    8.250 
#    0.000    2.500    0.000    3.375    0.000    0.000 
#    0.000    5.000    0.000    1.250    0.000    1.000 
#
# Total GULP energy -357070.181939 kJ/mol
# GULP energy per Si atom -5579.221593 kJ/mol
# Density = 2.366094 g / cm^3
# Si number density = 23.714920 Si / 1000 Ang^3
#
#
#
# Elastic Constant Matrix: (Units=GPa)
#
#
# Indices 1 2 3 4 5 6 
#
# 1 93.6551 0.5070 73.0610 0.0000 0.0000 0.0000
# 2 0.5070 93.1986 2.3563 0.0000 0.0000 0.0000
# 3 73.0610 2.3563 179.4245 0.0000 0.0000 0.0000
# 4 0.0000 0.0000 0.0000 -13.5988 0.0000 0.0000
# 5 0.0000 0.0000 0.0000 0.0000 36.2884 0.0000
# 6 0.0000 0.0000 0.0000 0.0000 0.0000 -21.1045
#
#
#
# Elastic Compliance Matrix: (Units=1/GPa)
#
#
# Indices 1 2 3 4 5 6 
#
# 1 0.015649 0.000076 -0.006373 0.000000 0.000000 0.000000
# 2 0.000076 0.010734 -0.000172 0.000000 0.000000 0.000000
# 3 -0.006373 -0.000172 0.008171 0.000000 0.000000 0.000000
# 4 0.000000 0.000000 0.000000 -0.073536 0.000000 0.000000
# 5 0.000000 0.000000 0.000000 0.000000 0.027557 0.000000
# 6 0.000000 0.000000 0.000000 0.000000 0.000000 -0.047383
#
#
# Mechanical properties :
#
#
# Convention : Reuss Voigt Hill
#
# Bulk Modulus (GPa) = 46.26380 57.56964 51.91672
# Shear Modulus (GPa) = -129.31322 19.67395 -54.81964
#
# Velocity S-wave (km/s) = -7.39233 2.88341 -4.81314
# Velocity P-wave (km/s) = 7.30147 5.95095 2.99146
#
# Compressibility (1/GPa) = 0.02161517
#
# Stress axis : x y z
#
# Youngs Moduli (GPa) = 63.90273 93.16447 122.38782
#
# Poissons Ratio (x) = -0.00708 0.77999
# Poissons Ratio (y) = -0.00486 0.02104
# Poissons Ratio (z) = 0.40726 0.01602
#
# Static dielectric constant tensor:
#      x y z
#    x 1.907440 0.000000 0.000000 
#    y 0.000000 2.126330 0.000000 
#    z 0.000000 0.000000 1.890660 
# 
# From -- ./inp_files/30512.got.cif
#   From: 2010.05.17/outbox.cif.g08.bks.cpg/sg51_16_cif.got.tgz:30512.got - 2010.06.03 11:52:47.
