data_PCOD9399001
_publ_section_title
;
Structure prediction by ZEFSAII (Michael W. Deem and Ramdas Pophale) SiO2 
 PCOD9399001
Probable space group: P M M A
;
_chemical_formula_sum "Si O2"
_cell_formula_units_Z 64
_cell_length_a 8.949655
_cell_length_b 14.582821
_cell_length_c 32.182771
_cell_angle_alpha 90.000000
_cell_angle_beta 90.000000
_cell_angle_gamma 90.000000
_cell_volume 4200.212606
_symmetry_space_group_name_H-M "P M M A"
_symmetry_group_IT_number 51
_symmetry_cell_setting 'orthorhombic'
loop_
_space_group_symop_operation_xyz
x,y,z
1/2-x,-y,z
1/2+x,-y,-z
-x,y,-z
-x,-y,-z
1/2+x,y,-z
1/2-x,y,z
x,-y,z
loop_
_atom_site_type_symbol
_atom_site_label
_atom_site_fract_x
_atom_site_fract_y
_atom_site_fract_z
Si Si1 0.572129 0.105044 0.249760
Si Si2 0.932574 0.393952 0.633338
Si Si3 0.430160 0.720118 0.286195
Si Si4 0.570505 0.607764 0.797344
Si Si5 0.929690 0.606497 0.043735
Si Si6 0.922527 0.388408 0.542173
Si Si7 0.571819 0.105295 0.841388
Si Si8 0.929402 0.716957 0.125822
O O1 0.750000 0.116592 0.245136
O O2 0.505575 0.181742 0.279717
O O3 0.494909 0.117575 0.204837
O O4 0.542976 0.000000 0.263029
O O5 0.750000 0.394331 0.632074
O O6 0.977770 0.500000 0.639947
O O7 0.977571 0.330957 0.671713
O O8 0.984421 0.362025 0.587571
O O9 0.250000 0.730122 0.286882
O O10 0.467242 0.657573 0.246037
O O11 0.750000 0.615774 0.802850
O O12 0.533060 0.500000 0.795882
O O13 0.490210 0.658104 0.835365
O O14 0.750000 0.609595 0.040424
O O15 0.972943 0.500000 0.051034
O O16 0.974341 0.667635 0.082981
O O17 0.000000 0.635711 0.000000
O O18 0.750000 0.360995 0.540316
O O19 0.927418 0.500000 0.542313
O O20 0.000000 0.356590 0.500000
O O21 0.750000 0.118654 0.839695
O O22 0.497149 0.181782 0.869916
O O23 0.541564 0.000000 0.853985
O O24 0.750000 0.720582 0.127816
#
# Coordination Sequence:
#
# PCOD9399001 Si02
#       8
#     8   8   8   8   8   8   8   8
#     4  10  20  33  48  66  90 120 152 189 235 280
#     4   8  14  25  41  61  87 121 156 188 225 269
#     4  10  18  29  46  66  90 121 157 193 225 266
#     4  10  20  31  44  66  95 127 161 192 222 262
#     4   9  19  35  53  74  99 127 157 189 227 270
#     4   8  13  22  37  56  79 110 149 190 228 264
#     4  10  20  34  52  73  95 120 155 196 233 273
#     4  11  21  33  51  74 100 126 154 191 235 279
#
# _framework density 15.237323
#
# number of rings (size 3 to 8) (size 9 to 14) (size 15 to 20)
#    0.000    2.500    1.250    2.625    0.000    4.750 
#    0.000    1.875    0.000    2.250    0.000    0.000 
#    0.000    0.500    0.000    1.125    0.000    2.000 
#
# Total GULP energy -356750.843453 kJ/mol
# GULP energy per Si atom -5574.231929 kJ/mol
# Density = 1.520264 g / cm^3
# Si number density = 15.237323 Si / 1000 Ang^3
#
#
#
# Elastic Constant Matrix: (Units=GPa)
#
#
# Indices 1 2 3 4 5 6 
#
# 1 30.6040 39.0454 44.6673 0.0000 0.0000 0.0000
# 2 39.0454 102.4998 77.0328 0.0000 0.0000 0.0000
# 3 44.6673 77.0328 148.8770 0.0000 0.0000 0.0000
# 4 0.0000 0.0000 0.0000 9.4815 0.0000 0.0000
# 5 0.0000 0.0000 0.0000 0.0000 21.3468 0.0000
# 6 0.0000 0.0000 0.0000 0.0000 0.0000 21.8384
#
#
#
# Elastic Compliance Matrix: (Units=1/GPa)
#
#
# Indices 1 2 3 4 5 6 
#
# 1 0.076047 -0.019343 -0.012808 0.000000 0.000000 0.000000
# 2 -0.019343 0.020884 -0.005002 0.000000 0.000000 0.000000
# 3 -0.012808 -0.005002 0.013148 0.000000 0.000000 0.000000
# 4 0.000000 0.000000 0.000000 0.105469 0.000000 0.000000
# 5 0.000000 0.000000 0.000000 0.000000 0.046846 0.000000
# 6 0.000000 0.000000 0.000000 0.000000 0.000000 0.045791
#
#
# Mechanical properties :
#
#
# Convention : Reuss Voigt Hill
#
# Bulk Modulus (GPa) = 27.95432 67.05241 47.50336
# Shear Modulus (GPa) = 12.67699 18.61569 15.64634
#
# Velocity S-wave (km/s) = 2.88752 3.49910 3.20792
# Velocity P-wave (km/s) = 5.43165 7.77340 6.70554
#
# Compressibility (1/GPa) = 0.03577265
#
# Stress axis : x y z
#
# Youngs Moduli (GPa) = 13.14972 47.88325 76.05733
#
# Poissons Ratio (x) = 0.92622 0.97411
# Poissons Ratio (y) = 0.25436 0.38047
# Poissons Ratio (z) = 0.16842 0.23953
#
# Static dielectric constant tensor:
#      x y z
#    x 1.513990 0.000000 0.000000 
#    y 0.000000 1.500640 0.000000 
#    z 0.000000 0.000000 1.500490 
# 
# From -- ./inp_files/37667.got.cif
#   From: 2010.05.17/outbox.cif.g08.bks.cpg/sg51_19_cif.got.tgz:37667.got - 2010.06.03 11:52:47.
