data_PCOD9399981
_publ_section_title
;
Structure prediction by ZEFSAII (Michael W. Deem and Ramdas Pophale) SiO2 
 PCOD9399981
Probable space group: P M M A
;
_chemical_formula_sum "Si O2"
_cell_formula_units_Z 64
_cell_length_a 8.844868
_cell_length_b 27.131220
_cell_length_c 18.907571
_cell_angle_alpha 90.000000
_cell_angle_beta 90.000000
_cell_angle_gamma 90.000000
_cell_volume 4537.288755
_symmetry_space_group_name_H-M "P M M A"
_symmetry_group_IT_number 51
_symmetry_cell_setting 'orthorhombic'
loop_
_space_group_symop_operation_xyz
x,y,z
1/2-x,-y,z
1/2+x,-y,-z
-x,y,-z
-x,-y,-z
1/2+x,y,-z
1/2-x,y,z
x,-y,z
loop_
_atom_site_type_symbol
_atom_site_label
_atom_site_fract_x
_atom_site_fract_y
_atom_site_fract_z
Si Si1 0.067007 0.845203 0.576423
Si Si2 0.923242 0.099576 0.206001
Si Si3 0.070137 0.851508 0.076854
Si Si4 0.429677 0.251621 0.152775
Si Si5 0.568794 0.554117 0.920839
Si Si6 0.569666 0.345664 0.078899
Si Si7 0.934478 0.945785 0.348447
Si Si8 0.923742 0.206172 0.283791
O O1 0.250000 0.845400 0.574070
O O2 0.017130 0.899567 0.603851
O O3 0.023414 0.805662 0.636812
O O4 0.000000 0.835053 0.500000
O O5 0.750000 0.086416 0.188729
O O6 0.982631 0.063284 0.266968
O O7 0.920861 0.152344 0.246423
O O8 0.014115 0.108944 0.134608
O O9 0.250000 0.852992 0.072264
O O10 0.027618 0.797145 0.107124
O O11 0.000000 0.858859 0.000000
O O12 0.250000 0.258666 0.146306
O O13 0.516355 0.298742 0.123240
O O14 0.475496 0.239780 0.233419
O O15 0.750000 0.559823 0.924943
O O16 0.536602 0.500000 0.888580
O O17 0.495036 0.603180 0.889177
O O18 0.500000 0.552458 0.000000
O O19 0.750000 0.348064 0.073703
O O20 0.500000 0.340539 0.000000
O O21 0.750000 0.944291 0.347160
O O22 0.981543 0.000000 0.373127
O O23 0.750000 0.224047 0.284816
#
# Coordination Sequence:
#
# PCOD9399981 Si02
#       8
#     8   8   8   8   8   8   8   8
#     4   9  17  28  43  63  86 109 132 158 185 219
#     4   8  14  26  43  58  73  96 125 155 186 225
#     4  10  19  28  40  57  76  97 121 154 194 235
#     4  10  19  29  41  58  78 100 128 162 201 242
#     4   9  16  26  39  53  71  98 134 175 214 249
#     4  11  20  28  39  55  78 106 136 173 212 247
#     4   8  14  26  44  63  81 103 129 154 185 226
#     4   8  15  28  42  56  76 103 131 156 187 228
#
# _framework density 14.10534
#
# number of rings (size 3 to 8) (size 9 to 14) (size 15 to 20)
#    0.000    2.875    0.000    4.875    0.000    4.000 
#    0.000    1.875    0.000    1.500    0.000    0.000 
#    0.000    0.000    0.000    0.000    0.000    0.625 
#
# Total GULP energy -356306.944744 kJ/mol
# GULP energy per Si atom -5567.296012 kJ/mol
# Density = 1.407324 g / cm^3
# Si number density = 14.105340 Si / 1000 Ang^3
#
#
#
# Elastic Constant Matrix: (Units=GPa)
#
#
# Indices 1 2 3 4 5 6 
#
# 1 39.1939 13.9492 20.1286 0.0000 0.0000 0.0000
# 2 13.9492 36.4625 15.5666 0.0000 0.0000 0.0000
# 3 20.1286 15.5666 88.0536 0.0000 0.0000 0.0000
# 4 0.0000 0.0000 0.0000 8.7913 0.0000 0.0000
# 5 0.0000 0.0000 0.0000 0.0000 20.8761 0.0000
# 6 0.0000 0.0000 0.0000 0.0000 0.0000 8.9695
#
#
#
# Elastic Compliance Matrix: (Units=1/GPa)
#
#
# Indices 1 2 3 4 5 6 
#
# 1 0.031858 -0.009820 -0.005547 0.000000 0.000000 0.000000
# 2 -0.009820 0.032691 -0.003535 0.000000 0.000000 0.000000
# 3 -0.005547 -0.003535 0.013249 0.000000 0.000000 0.000000
# 4 0.000000 0.000000 0.000000 0.113749 0.000000 0.000000
# 5 0.000000 0.000000 0.000000 0.000000 0.047902 0.000000
# 6 0.000000 0.000000 0.000000 0.000000 0.000000 0.111489
#
#
# Mechanical properties :
#
#
# Convention : Reuss Voigt Hill
#
# Bulk Modulus (GPa) = 25.00209 29.22209 27.11209
# Shear Modulus (GPa) = 12.43560 15.33173 13.88367
#
# Velocity S-wave (km/s) = 2.97244 3.30046 3.14073
# Velocity P-wave (km/s) = 5.43546 5.94021 5.69343
#
# Compressibility (1/GPa) = 0.03999666
#
# Stress axis : x y z
#
# Youngs Moduli (GPa) = 31.38973 30.58936 75.47456
#
# Poissons Ratio (x) = 0.30038 0.41862
# Poissons Ratio (y) = 0.30824 0.26677
# Poissons Ratio (z) = 0.17410 0.10812
#
# Static dielectric constant tensor:
#      x y z
#    x 1.473920 0.000000 0.000000 
#    y 0.000000 1.483310 0.000000 
#    z 0.000000 0.000000 1.456060 
# 
# From -- ./inp_files/28666.got.cif
#   From: 2010.05.17/outbox.cif.g08.bks.cpg/sg51_15_cif.got.tgz:28666.got - 2010.06.03 11:52:47.
