data_PCOD9399710
_publ_section_title
;
Structure prediction by ZEFSAII (Michael W. Deem and Ramdas Pophale) SiO2 
 PCOD9399710
Probable space group: P M M A
;
_chemical_formula_sum "Si O2"
_cell_formula_units_Z 64
_cell_length_a 20.302605
_cell_length_b 7.824085
_cell_length_c 21.528526
_cell_angle_alpha 90.000000
_cell_angle_beta 90.000000
_cell_angle_gamma 90.000000
_cell_volume 3419.791441
_symmetry_space_group_name_H-M "P M M A"
_symmetry_group_IT_number 51
_symmetry_cell_setting 'orthorhombic'
loop_
_space_group_symop_operation_xyz
x,y,z
1/2-x,-y,z
1/2+x,-y,-z
-x,y,-z
-x,-y,-z
1/2+x,y,-z
1/2-x,y,z
x,-y,z
loop_
_atom_site_type_symbol
_atom_site_label
_atom_site_fract_x
_atom_site_fract_y
_atom_site_fract_z
Si Si1 0.823521 0.206215 0.515369
Si Si2 0.462000 0.296569 0.682840
Si Si3 0.540429 0.203581 0.940834
Si Si4 0.677593 0.791631 0.983637
Si Si5 0.676349 0.793310 0.371147
Si Si6 0.461875 0.700427 0.818810
Si Si7 0.676513 0.206459 0.129073
Si Si8 0.963511 0.704062 0.561776
O O1 0.750000 0.262847 0.534918
O O2 0.832839 0.260164 0.443294
O O3 0.885797 0.265545 0.554738
O O4 0.823538 0.000000 0.515656
O O5 0.474068 0.500000 0.685293
O O6 0.384907 0.271085 0.668082
O O7 0.477868 0.225015 0.750967
O O8 0.503720 0.226274 0.624714
O O9 0.615163 0.269574 0.944645
O O10 0.502507 0.229333 0.876866
O O11 0.544907 0.000000 0.950233
O O12 0.500000 0.273512 0.000000
O O13 0.750000 0.730809 0.964257
O O14 0.679391 0.000000 0.981644
O O15 0.667721 0.746983 0.056340
O O16 0.750000 0.739176 0.351468
O O17 0.675191 0.000000 0.369719
O O18 0.475606 0.500000 0.817534
O O19 0.384460 0.725762 0.832244
O O20 0.750000 0.261478 0.148445
O O21 0.674590 0.000000 0.132184
O O22 0.974583 0.500000 0.562080
O O23 0.000000 0.773394 0.500000
#
# Coordination Sequence:
#
# PCOD9399710 Si02
#       8
#     8   8   8   8   8   8   8   8
#     4   9  18  32  51  78 108 131 157 203 262 312
#     4  10  22  37  49  69 102 138 172 209 252 298
#     4  10  18  32  55  78  99 128 172 214 246 292
#     4   8  14  27  50  77 100 123 156 204 253 288
#     4   9  18  32  50  74 103 134 168 204 245 299
#     4  11  23  35  48  70 106 141 167 204 256 305
#     4   9  17  32  53  74  99 133 171 206 242 291
#     4  10  19  33  54  76  97 129 177 219 247 289
#
# _framework density 18.714590999999999
#
# number of rings (size 3 to 8) (size 9 to 14) (size 15 to 20)
#    0.000    2.500    2.500    1.875    0.000    3.250 
#    0.000    3.750    0.000    1.125    0.000    3.500 
#    0.000    0.000    0.000    0.000    0.000    0.000 
#
# Total GULP energy -356926.031328 kJ/mol
# GULP energy per Si atom -5576.969240 kJ/mol
# Density = 1.867200 g / cm^3
# Si number density = 18.714591 Si / 1000 Ang^3
#
#
#
# Elastic Constant Matrix: (Units=GPa)
#
#
# Indices 1 2 3 4 5 6 
#
# 1 131.6345 -1.1071 80.3585 0.0000 0.0000 0.0000
# 2 -1.1071 15.4652 2.0402 0.0000 0.0000 0.0000
# 3 80.3585 2.0402 119.1957 0.0000 0.0000 0.0000
# 4 0.0000 0.0000 0.0000 14.2693 0.0000 0.0000
# 5 0.0000 0.0000 0.0000 0.0000 15.9372 0.0000
# 6 0.0000 0.0000 0.0000 0.0000 0.0000 18.4747
#
#
#
# Elastic Compliance Matrix: (Units=1/GPa)
#
#
# Indices 1 2 3 4 5 6 
#
# 1 0.012977 0.002088 -0.008784 0.000000 0.000000 0.000000
# 2 0.002088 0.065144 -0.002523 0.000000 0.000000 0.000000
# 3 -0.008784 -0.002523 0.014355 0.000000 0.000000 0.000000
# 4 0.000000 0.000000 0.000000 0.070080 0.000000 0.000000
# 5 0.000000 0.000000 0.000000 0.000000 0.062746 0.000000
# 6 0.000000 0.000000 0.000000 0.000000 0.000000 0.054128
#
#
# Mechanical properties :
#
#
# Convention : Reuss Voigt Hill
#
# Bulk Modulus (GPa) = 13.50673 47.65316 30.57995
# Shear Modulus (GPa) = 15.50159 22.06984 18.78571
#
# Velocity S-wave (km/s) = 2.88117 3.43780 3.17172
# Velocity P-wave (km/s) = 4.27798 6.42467 5.45790
#
# Compressibility (1/GPa) = 0.07403715
#
# Stress axis : x y z
#
# Youngs Moduli (GPa) = 77.05957 15.35071 69.66218
#
# Poissons Ratio (x) = -0.03205 0.61194
# Poissons Ratio (y) = -0.16089 0.17573
# Poissons Ratio (z) = 0.67693 0.03872
#
# Static dielectric constant tensor:
#      x y z
#    x 1.658950 0.000000 0.000000 
#    y 0.000000 1.684660 0.000000 
#    z 0.000000 0.000000 1.653880 
# 
# From -- ./inp_files/30601.got.cif
#   From: 2010.05.17/outbox.cif.g08.bks.cpg/sg51_16_cif.got.tgz:30601.got - 2010.06.03 11:52:47.
