data_PCOD9399040
_publ_section_title
;
Structure prediction by ZEFSAII (Michael W. Deem and Ramdas Pophale) SiO2 
 PCOD9399040
Probable space group: P M M A
;
_chemical_formula_sum "Si O2"
_cell_formula_units_Z 64
_cell_length_a 8.950594
_cell_length_b 24.180758
_cell_length_c 19.454412
_cell_angle_alpha 90.000000
_cell_angle_beta 90.000000
_cell_angle_gamma 90.000000
_cell_volume 4210.560167
_symmetry_space_group_name_H-M "P M M A"
_symmetry_group_IT_number 51
_symmetry_cell_setting 'orthorhombic'
loop_
_space_group_symop_operation_xyz
x,y,z
1/2-x,-y,z
1/2+x,-y,-z
-x,y,-z
-x,-y,-z
1/2+x,y,-z
1/2-x,y,z
x,-y,z
loop_
_atom_site_type_symbol
_atom_site_label
_atom_site_fract_x
_atom_site_fract_y
_atom_site_fract_z
Si Si1 0.930050 0.937351 0.425348
Si Si2 0.427865 0.564640 0.790135
Si Si3 0.072539 0.387594 0.072542
Si Si4 0.572395 0.274465 0.573114
Si Si5 0.428187 0.661310 0.290153
Si Si6 0.570430 0.828245 0.348058
Si Si7 0.426868 0.745066 0.072273
Si Si8 0.571287 0.234545 0.212597
O O1 0.750000 0.936108 0.431576
O O2 0.973993 0.889266 0.372557
O O3 0.000000 0.925871 0.500000
O O4 0.973444 0.000000 0.405265
O O5 0.250000 0.574123 0.791385
O O6 0.455818 0.500000 0.777957
O O7 0.496645 0.582429 0.863360
O O8 0.502991 0.603567 0.733168
O O9 0.250000 0.397646 0.071961
O O10 0.048740 0.321350 0.080003
O O11 0.000000 0.404426 0.000000
O O12 0.500000 0.286964 0.500000
O O13 0.750000 0.268536 0.565829
O O14 0.543033 0.320828 0.631248
O O15 0.505419 0.217621 0.603587
O O16 0.250000 0.661700 0.278282
O O17 0.502902 0.709046 0.243736
O O18 0.750000 0.823014 0.355669
O O19 0.534916 0.812137 0.269443
O O20 0.250000 0.754447 0.071128
O O21 0.501532 0.773672 0.137863
O O22 0.500000 0.761486 0.000000
O O23 0.750000 0.239795 0.207577
#
# Coordination Sequence:
#
# PCOD9399040 Si02
#       8
#     8   8   8   8   8   8   8   8
#     4   9  17  29  44  63  92 130 169 203 231 265
#     4  11  23  36  51  70  91 117 149 185 225 271
#     4  10  20  33  50  69  92 121 152 186 222 265
#     4  10  20  32  49  72  96 120 149 186 231 276
#     4  10  20  34  50  69  91 117 148 183 225 275
#     4   9  18  30  45  68  96 127 161 194 232 271
#     4  10  19  30  46  68  93 122 154 185 223 274
#     4  10  18  29  47  68  93 122 151 189 231 274
#
# _framework density 15.199877000000001
#
# number of rings (size 3 to 8) (size 9 to 14) (size 15 to 20)
#    0.000    2.125    1.250    2.625    0.000    5.750 
#    0.000    0.000    0.000    0.375    0.000    0.000 
#    0.000    0.500    0.000    0.875    0.000    1.250 
#
# Total GULP energy -357086.649833 kJ/mol
# GULP energy per Si atom -5579.478904 kJ/mol
# Density = 1.516528 g / cm^3
# Si number density = 15.199877 Si / 1000 Ang^3
#
#
#
# Elastic Constant Matrix: (Units=GPa)
#
#
# Indices 1 2 3 4 5 6 
#
# 1 56.5504 49.9007 63.4315 0.0000 0.0000 0.0000
# 2 49.9007 92.3518 69.1644 0.0000 0.0000 0.0000
# 3 63.4315 69.1644 142.6864 0.0000 0.0000 0.0000
# 4 0.0000 0.0000 0.0000 24.1249 0.0000 0.0000
# 5 0.0000 0.0000 0.0000 0.0000 29.6942 0.0000
# 6 0.0000 0.0000 0.0000 0.0000 0.0000 14.4375
#
#
#
# Elastic Compliance Matrix: (Units=1/GPa)
#
#
# Indices 1 2 3 4 5 6 
#
# 1 0.045217 -0.014723 -0.012965 0.000000 0.000000 0.000000
# 2 -0.014723 0.021793 -0.004019 0.000000 0.000000 0.000000
# 3 -0.012965 -0.004019 0.014720 0.000000 0.000000 0.000000
# 4 0.000000 0.000000 0.000000 0.041451 0.000000 0.000000
# 5 0.000000 0.000000 0.000000 0.000000 0.033677 0.000000
# 6 0.000000 0.000000 0.000000 0.000000 0.000000 0.069264
#
#
# Mechanical properties :
#
#
# Convention : Reuss Voigt Hill
#
# Bulk Modulus (GPa) = 54.59220 72.95353 63.77286
# Shear Modulus (GPa) = 16.91245 20.92413 18.91829
#
# Velocity S-wave (km/s) = 3.33929 3.71428 3.53177
# Velocity P-wave (km/s) = 7.13176 8.15444 7.66018
#
# Compressibility (1/GPa) = 0.01831764
#
# Stress axis : x y z
#
# Youngs Moduli (GPa) = 22.11544 45.88627 67.93496
#
# Poissons Ratio (x) = 0.67557 0.88077
# Poissons Ratio (y) = 0.32560 0.27301
# Poissons Ratio (z) = 0.28672 0.18441
#
# Static dielectric constant tensor:
#      x y z
#    x 1.504870 0.000000 0.000000 
#    y 0.000000 1.491550 0.000000 
#    z 0.000000 0.000000 1.500290 
# 
# From -- ./inp_files/28575.got.cif
#   From: 2010.05.17/outbox.cif.g08.bks.cpg/sg51_15_cif.got.tgz:28575.got - 2010.06.03 11:52:47.
