data_PCOD9399711
_publ_section_title
;
Structure prediction by ZEFSAII (Michael W. Deem and Ramdas Pophale) SiO2 
 PCOD9399711
Probable space group: P M M A
;
_chemical_formula_sum "Si O2"
_cell_formula_units_Z 64
_cell_length_a 18.703868
_cell_length_b 7.412365
_cell_length_c 20.551350
_cell_angle_alpha 90.000000
_cell_angle_beta 90.000000
_cell_angle_gamma 90.000000
_cell_volume 2849.237038
_symmetry_space_group_name_H-M "P M M A"
_symmetry_group_IT_number 51
_symmetry_cell_setting 'orthorhombic'
loop_
_space_group_symop_operation_xyz
x,y,z
1/2-x,-y,z
1/2+x,-y,-z
-x,y,-z
-x,-y,-z
1/2+x,y,-z
1/2-x,y,z
x,-y,z
loop_
_atom_site_type_symbol
_atom_site_label
_atom_site_fract_x
_atom_site_fract_y
_atom_site_fract_z
Si Si1 0.831849 0.716821 0.893282
Si Si2 0.173241 0.711078 0.327634
Si Si3 0.442475 0.220410 0.593183
Si Si4 0.093629 0.792469 0.735657
Si Si5 0.330409 0.221270 0.859934
Si Si6 0.599568 0.783017 0.545118
Si Si7 0.077426 0.786541 0.979227
Si Si8 0.936607 0.281118 0.777280
O O1 0.750000 0.782435 0.885580
O O2 0.828854 0.500000 0.887720
O O3 0.865813 0.762519 0.962793
O O4 0.888342 0.777263 0.838337
O O5 0.250000 0.790395 0.309854
O O6 0.175923 0.500000 0.310746
O O7 0.159196 0.726173 0.404081
O O8 0.106946 0.782348 0.286502
O O9 0.417389 0.286467 0.663571
O O10 0.396661 0.274920 0.529905
O O11 0.523426 0.276878 0.575492
O O12 0.443609 0.000000 0.595315
O O13 0.148656 0.715373 0.787817
O O14 0.016715 0.788701 0.771463
O O15 0.115024 0.000000 0.725041
O O16 0.250000 0.273240 0.877973
O O17 0.332630 0.000000 0.859570
O O18 0.387660 0.285068 0.913100
O O19 0.598528 0.000000 0.544575
O O20 0.067202 0.000000 0.968850
O O21 0.000000 0.711648 0.000000
O O22 0.942110 0.500000 0.778321
#
# Coordination Sequence:
#
# PCOD9399711 Si02
#       8
#     8   8   8   8   8   8   8   8
#     4  10  21  36  53  74 102 137 173 209 253 305
#     4  10  20  33  48  69 101 138 171 206 252 304
#     4   8  15  28  49  74 100 125 156 208 260 294
#     4  10  18  32  55  78  99 130 171 211 247 296
#     4   9  18  32  51  76 105 133 162 203 256 306
#     4   9  16  30  49  71  99 129 163 206 257 301
#     4  10  20  35  55  79 104 132 168 213 259 304
#     4  10  20  34  51  73 102 134 169 210 255 301
#
# _framework density 22.462154999999999
#
# number of rings (size 3 to 8) (size 9 to 14) (size 15 to 20)
#    0.000    2.500    1.250    2.250    0.000    4.250 
#    0.000    3.125    0.000    5.625    0.000    0.000 
#    0.000    0.000    0.000    0.000    0.000    0.000 
#
# Total GULP energy -357353.820549 kJ/mol
# GULP energy per Si atom -5583.653446 kJ/mol
# Density = 2.241103 g / cm^3
# Si number density = 22.462155 Si / 1000 Ang^3
#
#
#
# Elastic Constant Matrix: (Units=GPa)
#
#
# Indices 1 2 3 4 5 6 
#
# 1 58.9407 -3.7463 19.9986 0.0000 0.0000 0.0000
# 2 -3.7463 74.7430 -3.9448 0.0000 0.0000 0.0000
# 3 19.9986 -3.9448 137.9741 0.0000 0.0000 0.0000
# 4 0.0000 0.0000 0.0000 9.1360 0.0000 0.0000
# 5 0.0000 0.0000 0.0000 0.0000 98.3573 0.0000
# 6 0.0000 0.0000 0.0000 0.0000 0.0000 6.9836
#
#
#
# Elastic Compliance Matrix: (Units=1/GPa)
#
#
# Indices 1 2 3 4 5 6 
#
# 1 0.017887 0.000761 -0.002571 0.000000 0.000000 0.000000
# 2 0.000761 0.013432 0.000274 0.000000 0.000000 0.000000
# 3 -0.002571 0.000274 0.007628 0.000000 0.000000 0.000000
# 4 0.000000 0.000000 0.000000 0.109456 0.000000 0.000000
# 5 0.000000 0.000000 0.000000 0.000000 0.010167 0.000000
# 6 0.000000 0.000000 0.000000 0.000000 0.000000 0.143192
#
#
# Mechanical properties :
#
#
# Convention : Reuss Voigt Hill
#
# Bulk Modulus (GPa) = 27.87511 32.91920 30.39716
# Shear Modulus (GPa) = 15.78317 40.18541 27.98429
#
# Velocity S-wave (km/s) = 2.65364 4.23428 3.53348
# Velocity P-wave (km/s) = 4.67181 6.21230 5.49630
#
# Compressibility (1/GPa) = 0.03587429
#
# Stress axis : x y z
#
# Youngs Moduli (GPa) = 55.90694 74.45041 131.09265
#
# Poissons Ratio (x) = -0.05665 0.33702
# Poissons Ratio (y) = -0.04254 -0.03589
# Poissons Ratio (z) = 0.14373 -0.02038
#
# Static dielectric constant tensor:
#      x y z
#    x 1.797810 0.000000 0.000000 
#    y 0.000000 1.846660 0.000000 
#    z 0.000000 0.000000 1.838530 
# 
# From -- ./inp_files/30538.got.cif
#   From: 2010.05.17/outbox.cif.g08.bks.cpg/sg51_16_cif.got.tgz:30538.got - 2010.06.03 11:52:47.
