data_PCOD9399445
_publ_section_title
;
Structure prediction by ZEFSAII (Michael W. Deem and Ramdas Pophale) SiO2 
 PCOD9399445
Probable space group: P M M A
;
_chemical_formula_sum "Si O2"
_cell_formula_units_Z 56
_cell_length_a 19.308220
_cell_length_b 9.356960
_cell_length_c 18.221027
_cell_angle_alpha 90.000000
_cell_angle_beta 90.000000
_cell_angle_gamma 90.000000
_cell_volume 3291.924477
_symmetry_space_group_name_H-M "P M M A"
_symmetry_group_IT_number 51
_symmetry_cell_setting 'orthorhombic'
loop_
_space_group_symop_operation_xyz
x,y,z
1/2-x,-y,z
1/2+x,-y,-z
-x,y,-z
-x,-y,-z
1/2+x,y,-z
1/2-x,y,z
x,-y,z
loop_
_atom_site_type_symbol
_atom_site_label
_atom_site_fract_x
_atom_site_fract_y
_atom_site_fract_z
Si Si1 0.416079 0.665042 0.510623
Si Si2 0.067132 0.835772 0.654470
Si Si3 0.384120 0.667304 0.220447
Si Si4 0.076630 0.668366 0.965944
Si Si5 0.168431 0.164695 0.080025
Si Si6 0.100604 0.165199 0.366216
Si Si7 0.050739 0.333654 0.797855
O O1 0.500000 0.664898 0.500000
O O2 0.393900 0.500000 0.510707
O O3 0.402865 0.743450 0.587563
O O4 0.385829 0.753056 0.442230
O O5 0.080057 0.764020 0.733126
O O6 0.983304 0.835005 0.643773
O O7 0.089796 0.000000 0.651286
O O8 0.365855 0.500000 0.224872
O O9 0.347745 0.745496 0.153069
O O10 0.370377 0.748686 0.296670
O O11 0.466972 0.675727 0.205400
O O12 0.094616 0.500000 0.973128
O O13 0.074136 0.704730 0.879830
O O14 0.127873 0.764053 0.012982
O O15 0.000000 0.685061 0.000000
O O16 0.250000 0.167435 0.065913
O O17 0.146368 0.000000 0.090661
O O18 0.123004 0.000000 0.367639
O O19 0.068189 0.500000 0.784161
#
# Coordination Sequence:
#
# PCOD9399445 Si02
#       7
#     8   8   8   8   8   8   8
#     4   9  15  23  35  53  81 120 160 194 234 281
#     4   9  16  24  36  57  87 121 156 193 237 287
#     4  10  18  31  49  68  92 124 163 203 244 293
#     4  10  19  35  55  76  98 126 166 211 255 305
#     4  11  24  38  51  72 102 133 166 207 255 305
#     4   9  16  25  38  59  87 119 156 196 237 284
#     4   9  17  29  46  68  94 121 156 203 247 294
#
# _framework density 17.011324999999999
#
# number of rings (size 3 to 8) (size 9 to 14) (size 15 to 20)
#    0.000    2.429    1.429    2.143    0.000    7.714 
#    0.000    0.000    0.000    0.000    0.000    0.000 
#    0.000    1.143    0.000    8.286    0.000    8.143 
#
# Total GULP energy -312310.063588 kJ/mol
# GULP energy per Si atom -5576.965421 kJ/mol
# Density = 1.697261 g / cm^3
# Si number density = 17.011325 Si / 1000 Ang^3
#
#
#
# Elastic Constant Matrix: (Units=GPa)
#
#
# Indices 1 2 3 4 5 6 
#
# 1 13.4610 31.0283 23.3962 0.0000 0.0000 0.0000
# 2 31.0283 167.4316 114.0302 0.0000 0.0000 0.0000
# 3 23.3962 114.0302 166.8148 0.0000 0.0000 0.0000
# 4 0.0000 0.0000 0.0000 22.2108 0.0000 0.0000
# 5 0.0000 0.0000 0.0000 0.0000 3.8130 0.0000
# 6 0.0000 0.0000 0.0000 0.0000 0.0000 12.7436
#
#
#
# Elastic Compliance Matrix: (Units=1/GPa)
#
#
# Indices 1 2 3 4 5 6 
#
# 1 0.130661 -0.021954 -0.003318 0.000000 0.000000 0.000000
# 2 -0.021954 0.014864 -0.007082 0.000000 0.000000 0.000000
# 3 -0.003318 -0.007082 0.011301 0.000000 0.000000 0.000000
# 4 0.000000 0.000000 0.000000 0.045023 0.000000 0.000000
# 5 0.000000 0.000000 0.000000 0.000000 0.262258 0.000000
# 6 0.000000 0.000000 0.000000 0.000000 0.000000 0.078471
#
#
# Mechanical properties :
#
#
# Convention : Reuss Voigt Hill
#
# Bulk Modulus (GPa) = 10.85562 76.06854 43.46208
# Shear Modulus (GPa) = 7.83708 19.70365 13.77037
#
# Velocity S-wave (km/s) = 2.14872 3.40702 2.84823
# Velocity P-wave (km/s) = 3.54277 7.76470 6.03497
#
# Compressibility (1/GPa) = 0.09211819
#
# Stress axis : x y z
#
# Youngs Moduli (GPa) = 7.65338 67.27654 88.48894
#
# Poissons Ratio (x) = 1.47699 0.29364
# Poissons Ratio (y) = 0.16802 0.62664
# Poissons Ratio (z) = 0.02540 0.47642
#
# Static dielectric constant tensor:
#      x y z
#    x 1.543590 0.000000 0.000000 
#    y 0.000000 1.572920 0.000000 
#    z 0.000000 0.000000 1.560630 
# 
# From -- ./inp_files/30475.got.cif
#   From: 2010.05.17/outbox.cif.g08.bks.cpg/sg51_16_cif.got.tgz:30475.got - 2010.06.03 11:52:47.
