data_PCOD9399431
_publ_section_title
;
Structure prediction by ZEFSAII (Michael W. Deem and Ramdas Pophale) SiO2 
 PCOD9399431
Probable space group: P M M A
;
_chemical_formula_sum "Si O2"
_cell_formula_units_Z 64
_cell_length_a 14.473966
_cell_length_b 20.522805
_cell_length_c 11.224024
_cell_angle_alpha 90.000000
_cell_angle_beta 90.000000
_cell_angle_gamma 90.000000
_cell_volume 3334.055718
_symmetry_space_group_name_H-M "P M M A"
_symmetry_group_IT_number 51
_symmetry_cell_setting 'orthorhombic'
loop_
_space_group_symop_operation_xyz
x,y,z
1/2-x,-y,z
1/2+x,-y,-z
-x,y,-z
-x,-y,-z
1/2+x,y,-z
1/2-x,y,z
x,-y,z
loop_
_atom_site_type_symbol
_atom_site_label
_atom_site_fract_x
_atom_site_fract_y
_atom_site_fract_z
Si Si1 0.146252 0.077921 0.921394
Si Si2 0.143417 0.424683 0.217016
Si Si3 0.449377 0.193733 0.324254
Si Si4 0.846682 0.341865 0.286285
Si Si5 0.520935 0.309695 0.864479
Si Si6 0.108313 0.423435 0.488560
Si Si7 0.054534 0.922794 0.176093
Si Si8 0.645651 0.792354 0.431743
O O1 0.250000 0.104711 0.895268
O O2 0.116888 0.087557 0.058726
O O3 0.151613 0.000000 0.903208
O O4 0.052492 0.097684 0.852298
O O5 0.250000 0.427891 0.183617
O O6 0.105878 0.500000 0.209922
O O7 0.093791 0.368715 0.141987
O O8 0.137782 0.402564 0.356349
O O9 0.453612 0.247693 0.219181
O O10 0.410580 0.125594 0.276490
O O11 0.386121 0.219235 0.432284
O O12 0.552855 0.177354 0.373731
O O13 0.750000 0.347821 0.219836
O O14 0.850692 0.393227 0.392907
O O15 0.848843 0.274355 0.358528
O O16 0.931100 0.341311 0.197308
O O17 0.500000 0.289455 0.000000
O O18 0.125473 0.500000 0.491254
O O19 0.000000 0.409461 0.500000
O O20 0.055613 0.000000 0.202743
O O21 0.750000 0.821867 0.426216
#
# Coordination Sequence:
#
# PCOD9399431 Si02
#       8
#     8   8   8   8   8   8   8   8
#     4   8  15  29  49  74 106 145 184 220 265 321
#     4  10  21  38  59  83 113 148 186 229 275 326
#     4  10  21  36  59  82 110 145 182 230 282 327
#     4  10  20  36  57  78 107 144 180 224 279 332
#     4  11  24  38  56  80 113 147 185 229 274 331
#     4  10  18  30  55  87 110 132 172 226 277 319
#     4   9  18  32  53  80 111 145 186 230 275 331
#     4   9  20  38  57  79 106 143 187 226 275 337
#
# _framework density 19.195838999999999
#
# number of rings (size 3 to 8) (size 9 to 14) (size 15 to 20)
#    0.000    2.375    1.250    1.875    3.500    4.000 
#    0.000    1.250    0.000    0.750    0.000    0.000 
#    0.000    0.000    0.000    0.000    0.000    0.000 
#
# Total GULP energy -356305.607565 kJ/mol
# GULP energy per Si atom -5567.275118 kJ/mol
# Density = 1.915215 g / cm^3
# Si number density = 19.195839 Si / 1000 Ang^3
#
#
#
# Elastic Constant Matrix: (Units=GPa)
#
#
# Indices 1 2 3 4 5 6 
#
# 1 91.1545 4.1428 4.3084 0.0000 0.0000 0.0000
# 2 4.1428 34.8271 13.3232 0.0000 0.0000 0.0000
# 3 4.3084 13.3232 63.8295 0.0000 0.0000 0.0000
# 4 0.0000 0.0000 0.0000 -123.2347 0.0000 0.0000
# 5 0.0000 0.0000 0.0000 0.0000 -12.4885 0.0000
# 6 0.0000 0.0000 0.0000 0.0000 0.0000 -26.8218
#
#
#
# Elastic Compliance Matrix: (Units=1/GPa)
#
#
# Indices 1 2 3 4 5 6 
#
# 1 0.011045 -0.001118 -0.000512 0.000000 0.000000 0.000000
# 2 -0.001118 0.031318 -0.006462 0.000000 0.000000 0.000000
# 3 -0.000512 -0.006462 0.017050 0.000000 0.000000 0.000000
# 4 0.000000 0.000000 0.000000 -0.008115 0.000000 0.000000
# 5 0.000000 0.000000 0.000000 0.000000 -0.080074 0.000000
# 6 0.000000 0.000000 0.000000 0.000000 0.000000 -0.037283
#
#
# Mechanical properties :
#
#
# Convention : Reuss Voigt Hill
#
# Bulk Modulus (GPa) = 23.13203 25.92887 24.53045
# Shear Modulus (GPa) = -140.98814 -21.30656 -81.14735
#
# Velocity S-wave (km/s) = -8.57943 -3.33522 -6.50885
# Velocity P-wave (km/s) = 9.27715 1.13784 6.60909
#
# Compressibility (1/GPa) = 0.04323010
#
# Stress axis : x y z
#
# Youngs Moduli (GPa) = 90.53542 31.93034 58.65082
#
# Poissons Ratio (x) = 0.03570 0.03004
# Poissons Ratio (y) = 0.10121 0.37898
# Poissons Ratio (z) = 0.04637 0.20632
#
# Static dielectric constant tensor:
#      x y z
#    x 1.844390 0.000000 0.000000 
#    y 0.000000 1.666180 0.000000 
#    z 0.000000 0.000000 1.668780 
# 
# From -- ./inp_files/8693.got.cif
#   From: 2010.05.17/outbox.cif.g08.bks.cpg/sg51_5_cif.got.tgz:8693.got - 2010.06.03 11:52:47.
