data_PCOD9399409
_publ_section_title
;
Structure prediction by ZEFSAII (Michael W. Deem and Ramdas Pophale) SiO2 
 PCOD9399409
Probable space group: P M M A
;
_chemical_formula_sum "Si O2"
_cell_formula_units_Z 44
_cell_length_a 8.475759
_cell_length_b 30.445903
_cell_length_c 9.241384
_cell_angle_alpha 90.000000
_cell_angle_beta 90.000000
_cell_angle_gamma 90.000000
_cell_volume 2384.758884
_symmetry_space_group_name_H-M "P M M A"
_symmetry_group_IT_number 51
_symmetry_cell_setting 'orthorhombic'
loop_
_space_group_symop_operation_xyz
x,y,z
1/2-x,-y,z
1/2+x,-y,-z
-x,y,-z
-x,-y,-z
1/2+x,y,-z
1/2-x,y,z
x,-y,z
loop_
_atom_site_type_symbol
_atom_site_label
_atom_site_fract_x
_atom_site_fract_y
_atom_site_fract_z
Si Si1 0.939229 0.092157 0.664577
Si Si2 0.937668 0.000000 0.334277
Si Si3 0.059447 0.641674 0.665792
Si Si4 0.061125 0.821469 0.162546
Si Si5 0.441008 0.452732 0.666520
Si Si6 0.560449 0.262421 0.335070
O O1 0.750000 0.090705 0.661182
O O2 0.992666 0.134615 0.753729
O O3 0.000000 0.096145 0.500000
O O4 0.000509 0.045938 0.728285
O O5 0.000000 0.000000 0.500000
O O6 0.750000 0.000000 0.335677
O O7 0.250000 0.641582 0.665336
O O8 0.007073 0.594524 0.730439
O O9 0.009570 0.689334 0.724740
O O10 0.000000 0.641584 0.500000
O O11 0.250000 0.821536 0.163043
O O12 0.003027 0.777980 0.243649
O O13 0.000000 0.821917 0.000000
O O14 0.500000 0.452717 0.500000
O O15 0.250000 0.452755 0.665765
O O16 0.492987 0.500000 0.730174
O O17 0.500000 0.258848 0.500000
O O18 0.750000 0.260925 0.336659
#
# Coordination Sequence:
#
# PCOD9399409 Si02
#       6
#     8   4   8   8   8   8
#     4  10  20  35  56  81 107 135 167 203 242 286
#     4  10  18  30  53  82 109 136 166 202 240 280
#     4   8  14  23  36  57  84 116 153 193 236 281
#     4  11  24  39  55  75 101 133 168 208 254 302
#     4   8  12  18  29  47  75 111 148 184 225 276
#     4  10  19  32  51  73  99 130 167 209 250 296
#
# _framework density 18.450500999999999
#
# number of rings (size 3 to 8) (size 9 to 14) (size 15 to 20)
#    0.000    2.545    0.000    4.091    0.000    5.091 
#    0.000    0.455    0.000    0.000    0.000    0.000 
#    0.000    0.727    0.000    1.273    0.000    9.091 
#
# Total GULP energy -245017.274763 kJ/mol
# GULP energy per Si atom -5568.574426 kJ/mol
# Density = 1.840851 g / cm^3
# Si number density = 18.450501 Si / 1000 Ang^3
#
#
#
# Elastic Constant Matrix: (Units=GPa)
#
#
# Indices 1 2 3 4 5 6 
#
# 1 38.8995 38.1139 11.7628 0.0000 0.0000 0.0000
# 2 38.1139 260.2970 63.4940 0.0000 0.0000 0.0000
# 3 11.7628 63.4940 44.9816 0.0000 0.0000 0.0000
# 4 0.0000 0.0000 0.0000 -5.6783 0.0000 0.0000
# 5 0.0000 0.0000 0.0000 0.0000 17.6915 0.0000
# 6 0.0000 0.0000 0.0000 0.0000 0.0000 36.3941
#
#
#
# Elastic Compliance Matrix: (Units=1/GPa)
#
#
# Indices 1 2 3 4 5 6 
#
# 1 0.030200 -0.003806 -0.002525 0.000000 0.000000 0.000000
# 2 -0.003806 0.006339 -0.007952 0.000000 0.000000 0.000000
# 3 -0.002525 -0.007952 0.034117 0.000000 0.000000 0.000000
# 4 0.000000 0.000000 0.000000 -0.176110 0.000000 0.000000
# 5 0.000000 0.000000 0.000000 0.000000 0.056524 0.000000
# 6 0.000000 0.000000 0.000000 0.000000 0.000000 0.027477
#
#
# Mechanical properties :
#
#
# Convention : Reuss Voigt Hill
#
# Bulk Modulus (GPa) = 23.75912 63.43549 43.59731
# Shear Modulus (GPa) = 236.48217 25.06861 130.77539
#
# Velocity S-wave (km/s) = 11.33355 3.69005 8.42810
# Velocity P-wave (km/s) = 13.57096 7.25337 10.88077
#
# Compressibility (1/GPa) = 0.04208910
#
# Stress axis : x y z
#
# Youngs Moduli (GPa) = 33.11256 157.75605 29.31107
#
# Poissons Ratio (x) = 0.60045 0.07400
# Poissons Ratio (y) = 0.12603 0.23309
# Poissons Ratio (z) = 0.08360 1.25454
#
# Static dielectric constant tensor:
#      x y z
#    x 1.631970 0.000000 0.000000 
#    y 0.000000 1.734330 0.000000 
#    z 0.000000 0.000000 1.572970 
# 
# From -- ./inp_files/5892.got.cif
#   From: 2010.05.17/outbox.cif.g08.bks.cpg/sg51_3_cif.got.tgz:5892.got - 2010.06.03 11:52:47.
