data_PCOD9399868
_publ_section_title
;
Structure prediction by ZEFSAII (Michael W. Deem and Ramdas Pophale) SiO2 
 PCOD9399868
Probable space group: P M M A
;
_chemical_formula_sum "Si O2"
_cell_formula_units_Z 56
_cell_length_a 22.222761
_cell_length_b 8.804018
_cell_length_c 15.027741
_cell_angle_alpha 90.000000
_cell_angle_beta 90.000000
_cell_angle_gamma 90.000000
_cell_volume 2940.171333
_symmetry_space_group_name_H-M "P M M A"
_symmetry_group_IT_number 51
_symmetry_cell_setting 'orthorhombic'
loop_
_space_group_symop_operation_xyz
x,y,z
1/2-x,-y,z
1/2+x,-y,-z
-x,y,-z
-x,-y,-z
1/2+x,y,-z
1/2-x,y,z
x,-y,z
loop_
_atom_site_type_symbol
_atom_site_label
_atom_site_fract_x
_atom_site_fract_y
_atom_site_fract_z
Si Si1 0.682047 0.315198 0.246604
Si Si2 0.429049 0.317858 0.631809
Si Si3 0.129851 0.181918 0.128526
Si Si4 0.750000 0.320118 0.563631
Si Si5 0.376754 0.819236 0.462234
Si Si6 0.180757 0.317265 0.957025
Si Si7 0.250000 0.818059 0.240592
Si Si8 0.950985 0.817156 0.712740
O O1 0.750000 0.264690 0.269050
O O2 0.682895 0.500000 0.247688
O O3 0.630175 0.267014 0.313484
O O4 0.668193 0.269956 0.144639
O O5 0.429416 0.500000 0.625306
O O6 0.422818 0.246554 0.534295
O O7 0.487899 0.261497 0.682893
O O8 0.136846 0.252900 0.031585
O O9 0.190895 0.217073 0.183221
O O10 0.074966 0.231380 0.191631
O O11 0.126895 0.000000 0.119997
O O12 0.750000 0.500000 0.553655
O O13 0.811340 0.253319 0.523615
O O14 0.750000 0.270441 0.667022
O O15 0.401160 0.784494 0.363319
O O16 0.372761 0.000000 0.470604
O O17 0.250000 0.269951 0.976906
O O18 0.179162 0.500000 0.959896
O O19 0.250000 0.000000 0.260288
O O20 0.959062 0.000000 0.713662
#
# Coordination Sequence:
#
# PCOD9399868 Si02
#       8
#     8   8   8   4   8   8   4   8
#     4   8  17  36  58  80 112 147 180 227 292 346
#     4  11  23  38  60  86 110 144 193 245 287 330
#     4  10  19  33  55  81 112 150 187 224 277 336
#     4  12  24  36  56  89 120 145 184 241 284 320
#     4  11  23  41  61  81 114 157 192 226 281 347
#     4   9  17  31  54  83 111 143 182 227 283 342
#     4  10  18  34  54  77 114 155 186 221 278 342
#     4  10  22  40  58  77 111 159 193 222 277 346
#
# _framework density 19.046509
#
# number of rings (size 3 to 8) (size 9 to 14) (size 15 to 20)
#    0.000    2.000    2.143    2.786    1.000    4.000 
#    0.000    2.143    0.000    6.000    0.000    0.000 
#    0.000    0.000    0.000    0.000    0.000    0.000 
#
# Total GULP energy -312721.168157 kJ/mol
# GULP energy per Si atom -5584.306574 kJ/mol
# Density = 1.900316 g / cm^3
# Si number density = 19.046509 Si / 1000 Ang^3
#
#
#
# Elastic Constant Matrix: (Units=GPa)
#
#
# Indices 1 2 3 4 5 6 
#
# 1 71.5752 24.5590 9.0963 0.0000 0.0000 0.0000
# 2 24.5590 26.6544 16.3450 0.0000 0.0000 0.0000
# 3 9.0963 16.3450 53.9706 0.0000 0.0000 0.0000
# 4 0.0000 0.0000 0.0000 40.7858 0.0000 0.0000
# 5 0.0000 0.0000 0.0000 0.0000 23.4389 0.0000
# 6 0.0000 0.0000 0.0000 0.0000 0.0000 29.4111
#
#
#
# Elastic Compliance Matrix: (Units=1/GPa)
#
#
# Indices 1 2 3 4 5 6 
#
# 1 0.020774 -0.020869 0.002819 0.000000 0.000000 0.000000
# 2 -0.020869 0.067039 -0.016785 0.000000 0.000000 0.000000
# 3 0.002819 -0.016785 0.023137 0.000000 0.000000 0.000000
# 4 0.000000 0.000000 0.000000 0.024518 0.000000 0.000000
# 5 0.000000 0.000000 0.000000 0.000000 0.042664 0.000000
# 6 0.000000 0.000000 0.000000 0.000000 0.000000 0.034001
#
#
# Mechanical properties :
#
#
# Convention : Reuss Voigt Hill
#
# Bulk Modulus (GPa) = 24.22579 28.02230 26.12404
# Shear Modulus (GPa) = 16.91685 25.54050 21.22867
#
# Velocity S-wave (km/s) = 2.98348 3.66588 3.34214
# Velocity P-wave (km/s) = 4.96136 5.71513 5.35153
#
# Compressibility (1/GPa) = 0.04127832
#
# Stress axis : x y z
#
# Youngs Moduli (GPa) = 48.13771 14.91672 43.22099
#
# Poissons Ratio (x) = 0.31130 -0.12184
# Poissons Ratio (y) = 1.00460 0.72548
# Poissons Ratio (z) = -0.13570 0.25038
#
# Static dielectric constant tensor:
#      x y z
#    x 1.659830 0.000000 0.000000 
#    y 0.000000 1.639800 0.000000 
#    z 0.000000 0.000000 1.657790 
# 
# From -- ./inp_files/25889.got.cif
#   From: 2010.05.17/outbox.cif.g08.bks.cpg/sg51_13_cif.got.tgz:25889.got - 2010.06.03 11:52:47.
