data_PCOD9399891
_publ_section_title
;
Structure prediction by ZEFSAII (Michael W. Deem and Ramdas Pophale) SiO2 
 PCOD9399891
Probable space group: P M M A
;
_chemical_formula_sum "Si O2"
_cell_formula_units_Z 48
_cell_length_a 14.904347
_cell_length_b 8.556479
_cell_length_c 18.701056
_cell_angle_alpha 90.000000
_cell_angle_beta 90.000000
_cell_angle_gamma 90.000000
_cell_volume 2384.921961
_symmetry_space_group_name_H-M "P M M A"
_symmetry_group_IT_number 51
_symmetry_cell_setting 'orthorhombic'
loop_
_space_group_symop_operation_xyz
x,y,z
1/2-x,-y,z
1/2+x,-y,-z
-x,y,-z
-x,-y,-z
1/2+x,y,-z
1/2-x,y,z
x,-y,z
loop_
_atom_site_type_symbol
_atom_site_label
_atom_site_fract_x
_atom_site_fract_y
_atom_site_fract_z
Si Si1 0.394930 0.681946 0.017044
Si Si2 0.250000 0.816562 0.910833
Si Si3 0.448191 0.809022 0.428063
Si Si4 0.250000 0.684940 0.750775
Si Si5 0.923343 0.317968 0.825669
Si Si6 0.750000 0.821144 0.582714
Si Si7 0.442456 0.813450 0.713060
Si Si8 0.750000 0.674787 0.726307
O O1 0.365058 0.500000 0.016881
O O2 0.390740 0.745311 0.097915
O O3 0.500000 0.686287 0.000000
O O4 0.335683 0.770166 0.958991
O O5 0.250000 0.730636 0.834740
O O6 0.250000 0.000000 0.896238
O O7 0.500000 0.768146 0.500000
O O8 0.346189 0.749833 0.435985
O O9 0.499775 0.757086 0.356020
O O10 0.443710 0.000000 0.423504
O O11 0.250000 0.500000 0.744364
O O12 0.341425 0.750077 0.716009
O O13 0.949411 0.500000 0.837542
O O14 0.838127 0.313829 0.773984
O O15 0.004776 0.235682 0.784995
O O16 0.750000 0.810239 0.668456
O O17 0.750000 0.000000 0.556520
O O18 0.438636 0.000000 0.709515
O O19 0.750000 0.500000 0.692573
#
# Coordination Sequence:
#
# PCOD9399891 Si02
#       8
#     8   4   8   4   8   4   8   4
#     4  10  21  38  60  84 116 161 205 243 296 368
#     4  12  25  41  62  91 123 155 199 258 314 357
#     4   9  19  35  59  92 127 163 199 244 302 363
#     4  12  26  44  64  83 116 164 207 248 303 372
#     4  10  20  35  57  86 120 161 203 243 296 363
#     4  10  18  34  58  85 117 155 198 239 290 349
#     4  11  22  38  62  92 121 152 202 259 306 356
#     4  10  19  31  52  81 116 154 194 237 285 344
#
# _framework density 20.126445
#
# number of rings (size 3 to 8) (size 9 to 14) (size 15 to 20)
#    0.000    1.667    1.667    3.500    0.000    4.333 
#    0.000    3.333    0.000    5.500    0.000    0.000 
#    0.000    0.000    0.000    0.000    0.000    0.000 
#
# Total GULP energy -268006.278701 kJ/mol
# GULP energy per Si atom -5583.464140 kJ/mol
# Density = 2.008064 g / cm^3
# Si number density = 20.126445 Si / 1000 Ang^3
#
#
#
# Elastic Constant Matrix: (Units=GPa)
#
#
# Indices 1 2 3 4 5 6 
#
# 1 161.4016 25.5141 43.4543 0.0000 0.0000 0.0000
# 2 25.5141 42.5415 3.3487 0.0000 0.0000 0.0000
# 3 43.4543 3.3487 81.9293 0.0000 0.0000 0.0000
# 4 0.0000 0.0000 0.0000 39.9492 0.0000 0.0000
# 5 0.0000 0.0000 0.0000 0.0000 21.5161 0.0000
# 6 0.0000 0.0000 0.0000 0.0000 0.0000 57.7078
#
#
#
# Elastic Compliance Matrix: (Units=1/GPa)
#
#
# Indices 1 2 3 4 5 6 
#
# 1 0.007996 -0.004476 -0.004058 0.000000 0.000000 0.000000
# 2 -0.004476 0.026088 0.001308 0.000000 0.000000 0.000000
# 3 -0.004058 0.001308 0.014304 0.000000 0.000000 0.000000
# 4 0.000000 0.000000 0.000000 0.025032 0.000000 0.000000
# 5 0.000000 0.000000 0.000000 0.000000 0.046477 0.000000
# 6 0.000000 0.000000 0.000000 0.000000 0.000000 0.017329
#
#
# Mechanical properties :
#
#
# Convention : Reuss Voigt Hill
#
# Bulk Modulus (GPa) = 29.46738 47.83409 38.65073
# Shear Modulus (GPa) = 30.67673 38.07164 34.37418
#
# Velocity S-wave (km/s) = 3.90834 4.35400 4.13717
# Velocity P-wave (km/s) = 5.91943 7.00677 6.48593
#
# Compressibility (1/GPa) = 0.03393583
#
# Stress axis : x y z
#
# Youngs Moduli (GPa) = 125.06544 38.33179 69.90818
#
# Poissons Ratio (x) = 0.17157 0.28368
# Poissons Ratio (y) = 0.55980 -0.09142
# Poissons Ratio (z) = 0.50751 -0.05013
#
# Static dielectric constant tensor:
#      x y z
#    x 1.659720 0.000000 0.000000 
#    y 0.000000 1.719330 0.000000 
#    z 0.000000 0.000000 1.701430 
# 
# From -- ./inp_files/29716.got.cif
#   From: 2010.05.17/outbox.cif.g08.bks.cpg/sg51_15_cif.got.tgz:29716.got - 2010.06.03 11:52:47.
