data_PCOD9399115
_publ_section_title
;
Structure prediction by ZEFSAII (Michael W. Deem and Ramdas Pophale) SiO2 
 PCOD9399115
Probable space group: P M M A
;
_chemical_formula_sum "Si O2"
_cell_formula_units_Z 64
_cell_length_a 14.821300
_cell_length_b 8.466440
_cell_length_c 29.105205
_cell_angle_alpha 90.000000
_cell_angle_beta 90.000000
_cell_angle_gamma 90.000000
_cell_volume 3652.227275
_symmetry_space_group_name_H-M "P M M A"
_symmetry_group_IT_number 51
_symmetry_cell_setting 'orthorhombic'
loop_
_space_group_symop_operation_xyz
x,y,z
1/2-x,-y,z
1/2+x,-y,-z
-x,y,-z
-x,-y,-z
1/2+x,y,-z
1/2-x,y,z
x,-y,z
loop_
_atom_site_type_symbol
_atom_site_label
_atom_site_fract_x
_atom_site_fract_y
_atom_site_fract_z
Si Si1 0.649205 0.313605 0.414006
Si Si2 0.851700 0.690034 0.257386
Si Si3 0.395044 0.317754 0.486638
Si Si4 0.649660 0.809938 0.613116
Si Si5 0.022697 0.185854 0.663156
Si Si6 0.026816 0.309989 0.931899
Si Si7 0.644307 0.810208 0.982286
Si Si8 0.647306 0.692387 0.152352
O O1 0.750000 0.305509 0.394928
O O2 0.622151 0.500000 0.414794
O O3 0.650002 0.257008 0.466628
O O4 0.582666 0.218981 0.381926
O O5 0.750000 0.745043 0.269928
O O6 0.849347 0.500000 0.257216
O O7 0.925943 0.741289 0.293756
O O8 0.869924 0.742003 0.204931
O O9 0.500000 0.314646 0.500000
O O10 0.366924 0.500000 0.479998
O O11 0.376218 0.230864 0.439308
O O12 0.750000 0.749894 0.622190
O O13 0.575213 0.749048 0.648858
O O14 0.649977 0.000000 0.616546
O O15 0.015803 0.000000 0.671138
O O16 0.020533 0.500000 0.932590
O O17 0.072484 0.256580 0.884199
O O18 0.927409 0.242511 0.943117
O O19 0.097011 0.258380 0.971818
O O20 0.750000 0.760821 0.977264
O O21 0.643156 0.000000 0.984943
O O22 0.750000 0.741335 0.139764
O O23 0.647351 0.500000 0.151834
#
# Coordination Sequence:
#
# PCOD9399115 Si02
#       8
#     8   8   8   8   8   8   8   8
#     4  10  20  33  49  70  97 127 153 180 224 281
#     4   9  18  34  55  76 100 129 156 188 240 302
#     4  10  19  33  53  74  96 121 154 193 229 271
#     4  10  22  38  53  69  93 127 162 195 235 280
#     4  11  22  34  50  72  97 122 155 198 237 277
#     4  10  18  29  50  76 100 130 172 219 260 298
#     4  10  20  32  45  66 103 146 180 211 250 298
#     4   8  15  29  50  76 102 127 158 198 246 298
#
# _framework density 17.523551999999999
#
# number of rings (size 3 to 8) (size 9 to 14) (size 15 to 20)
#    0.000    2.250    1.250    3.750    0.000    5.500 
#    0.000    1.250    0.000    2.250    0.000    3.500 
#    0.000    0.000    0.000    0.000    0.000    0.000 
#
# Total GULP energy -356813.819189 kJ/mol
# GULP energy per Si atom -5575.215925 kJ/mol
# Density = 1.748367 g / cm^3
# Si number density = 17.523552 Si / 1000 Ang^3
#
#
#
# Elastic Constant Matrix: (Units=GPa)
#
#
# Indices 1 2 3 4 5 6 
#
# 1 150.0897 20.3370 73.9870 0.0000 0.0000 0.0000
# 2 20.3370 19.1019 12.2584 0.0000 0.0000 0.0000
# 3 73.9870 12.2584 102.9884 0.0000 0.0000 0.0000
# 4 0.0000 0.0000 0.0000 -319.4638 0.0000 0.0000
# 5 0.0000 0.0000 0.0000 0.0000 27.6884 0.0000
# 6 0.0000 0.0000 0.0000 0.0000 0.0000 5.8047
#
#
#
# Elastic Compliance Matrix: (Units=1/GPa)
#
#
# Indices 1 2 3 4 5 6 
#
# 1 0.011185 -0.007310 -0.007166 0.000000 0.000000 0.000000
# 2 -0.007310 0.061458 -0.002063 0.000000 0.000000 0.000000
# 3 -0.007166 -0.002063 0.015103 0.000000 0.000000 0.000000
# 4 0.000000 0.000000 0.000000 -0.003130 0.000000 0.000000
# 5 0.000000 0.000000 0.000000 0.000000 0.036116 0.000000
# 6 0.000000 0.000000 0.000000 0.000000 0.000000 0.172274
#
#
# Mechanical properties :
#
#
# Convention : Reuss Voigt Hill
#
# Bulk Modulus (GPa) = 18.29220 53.92718 36.10969
# Shear Modulus (GPa) = 14.52188 -46.15430 -15.81621
#
# Velocity S-wave (km/s) = 2.88185 -5.13767 -3.00754
# Velocity P-wave (km/s) = 4.64055 2.08644 2.93100
#
# Compressibility (1/GPa) = 0.05466811
#
# Stress axis : x y z
#
# Youngs Moduli (GPa) = 89.40149 16.27127 66.21119
#
# Poissons Ratio (x) = 0.11895 0.47444
# Poissons Ratio (y) = 0.65355 0.13662
# Poissons Ratio (z) = 0.64061 0.03357
#
# Static dielectric constant tensor:
#      x y z
#    x 1.655470 0.000000 0.000000 
#    y 0.000000 1.609470 0.000000 
#    z 0.000000 0.000000 1.592080 
# 
# From -- ./inp_files/37845.got.cif
#   From: 2010.05.17/outbox.cif.g08.bks.cpg/sg51_19_cif.got.tgz:37845.got - 2010.06.03 11:52:47.
