data_PCOD9399110
_publ_section_title
;
Structure prediction by ZEFSAII (Michael W. Deem and Ramdas Pophale) SiO2 
 PCOD9399110
Probable space group: P M M A
;
_chemical_formula_sum "Si O2"
_cell_formula_units_Z 64
_cell_length_a 23.791855
_cell_length_b 7.421278
_cell_length_c 15.460683
_cell_angle_alpha 90.000000
_cell_angle_beta 90.000000
_cell_angle_gamma 90.000000
_cell_volume 2729.830492
_symmetry_space_group_name_H-M "P M M A"
_symmetry_group_IT_number 51
_symmetry_cell_setting 'orthorhombic'
loop_
_space_group_symop_operation_xyz
x,y,z
1/2-x,-y,z
1/2+x,-y,-z
-x,y,-z
-x,-y,-z
1/2+x,y,-z
1/2-x,y,z
x,-y,z
loop_
_atom_site_type_symbol
_atom_site_label
_atom_site_fract_x
_atom_site_fract_y
_atom_site_fract_z
Si Si1 0.189980 0.780959 0.278262
Si Si2 0.979607 0.287872 0.217554
Si Si3 0.354943 0.792742 0.813040
Si Si4 0.363799 0.782126 0.447991
Si Si5 0.487612 0.706384 0.406311
Si Si6 0.684753 0.219898 0.372386
Si Si7 0.400281 0.216941 0.141814
Si Si8 0.313530 0.220688 0.996099
O O1 0.250000 0.720219 0.243493
O O2 0.183695 0.734767 0.378710
O O3 0.137318 0.719100 0.222623
O O4 0.189302 0.000000 0.273186
O O5 0.970254 0.500000 0.225876
O O6 0.990632 0.215282 0.315529
O O7 0.035098 0.265135 0.159096
O O8 0.922341 0.209965 0.179470
O O9 0.338324 0.715191 0.719742
O O10 0.335544 0.000000 0.809815
O O11 0.326550 0.716225 0.898738
O O12 0.420593 0.708634 0.406956
O O13 0.350839 0.719438 0.544645
O O14 0.368446 0.000000 0.449832
O O15 0.500000 0.793035 0.500000
O O16 0.508644 0.500000 0.410182
O O17 0.750000 0.268591 0.382392
O O18 0.681854 0.000000 0.373458
O O19 0.364573 0.278159 0.058526
O O20 0.399612 0.000000 0.140288
O O21 0.250000 0.272815 0.022147
O O22 0.314347 0.000000 0.997170
#
# Coordination Sequence:
#
# PCOD9399110 Si02
#       8
#     8   8   8   8   8   8   8   8
#     4   9  16  27  47  76 106 133 164 208 259 308
#     4  11  23  38  55  77 110 147 183 225 272 321
#     4  10  20  35  57  82 109 142 181 225 269 318
#     4  10  18  29  49  78 106 135 173 216 262 318
#     4  10  21  36  52  70 100 144 186 223 264 312
#     4   9  17  30  51  81 113 141 173 220 275 324
#     4  10  19  34  57  82 109 140 179 221 262 315
#     4   9  18  34  59  89 113 137 176 224 272 321
#
# _framework density 23.444680000000002
#
# number of rings (size 3 to 8) (size 9 to 14) (size 15 to 20)
#    0.000    2.250    1.250    2.250    0.000    5.750 
#    0.000    3.125    0.000    6.750    0.000    0.000 
#    0.000    0.000    0.000    0.000    0.000    0.000 
#
# Total GULP energy -357440.790921 kJ/mol
# GULP energy per Si atom -5585.012358 kJ/mol
# Density = 2.339132 g / cm^3
# Si number density = 23.444680 Si / 1000 Ang^3
#
#
#
# Elastic Constant Matrix: (Units=GPa)
#
#
# Indices 1 2 3 4 5 6 
#
# 1 62.5822 -13.1248 5.1215 0.0000 0.0000 0.0000
# 2 -13.1248 77.4349 6.0817 0.0000 0.0000 0.0000
# 3 5.1215 6.0817 111.7280 0.0000 0.0000 0.0000
# 4 0.0000 0.0000 0.0000 1.3230 0.0000 0.0000
# 5 0.0000 0.0000 0.0000 0.0000 34.3147 0.0000
# 6 0.0000 0.0000 0.0000 0.0000 0.0000 30.0898
#
#
#
# Elastic Compliance Matrix: (Units=1/GPa)
#
#
# Indices 1 2 3 4 5 6 
#
# 1 0.016662 0.002896 -0.000921 0.000000 0.000000 0.000000
# 2 0.002896 0.013473 -0.000866 0.000000 0.000000 0.000000
# 3 -0.000921 -0.000866 0.009040 0.000000 0.000000 0.000000
# 4 0.000000 0.000000 0.000000 0.755856 0.000000 0.000000
# 5 0.000000 0.000000 0.000000 0.000000 0.029142 0.000000
# 6 0.000000 0.000000 0.000000 0.000000 0.000000 0.033234
#
#
# Mechanical properties :
#
#
# Convention : Reuss Voigt Hill
#
# Bulk Modulus (GPa) = 24.15907 27.54465 25.85186
# Shear Modulus (GPa) = 5.75383 30.05661 17.90522
#
# Velocity S-wave (km/s) = 1.56829 3.58442 2.76655
# Velocity P-wave (km/s) = 3.68870 5.37634 4.61040
#
# Compressibility (1/GPa) = 0.04139233
#
# Stress axis : x y z
#
# Youngs Moduli (GPa) = 60.01740 74.22231 110.62325
#
# Poissons Ratio (x) = -0.21498 0.10193
# Poissons Ratio (y) = -0.17384 0.09582
# Poissons Ratio (z) = 0.05530 0.06429
#
# Static dielectric constant tensor:
#      x y z
#    x 1.923460 0.000000 0.000000 
#    y 0.000000 1.969980 0.000000 
#    z 0.000000 0.000000 1.895540 
# 
# From -- ./inp_files/26303.got.cif
#   From: 2010.05.17/outbox.cif.g08.bks.cpg/sg51_14_cif.got.tgz:26303.got - 2010.06.03 11:52:47.
