data_PCOD9399229
_publ_section_title
;
Structure prediction by ZEFSAII (Michael W. Deem and Ramdas Pophale) SiO2 
 PCOD9399229
Probable space group: P M M A
;
_chemical_formula_sum "Si O2"
_cell_formula_units_Z 64
_cell_length_a 7.822807
_cell_length_b 20.919615
_cell_length_c 20.529541
_cell_angle_alpha 90.000000
_cell_angle_beta 90.000000
_cell_angle_gamma 90.000000
_cell_volume 3359.661656
_symmetry_space_group_name_H-M "P M M A"
_symmetry_group_IT_number 51
_symmetry_cell_setting 'orthorhombic'
loop_
_space_group_symop_operation_xyz
x,y,z
1/2-x,-y,z
1/2+x,-y,-z
-x,y,-z
-x,-y,-z
1/2+x,y,-z
1/2-x,y,z
x,-y,z
loop_
_atom_site_type_symbol
_atom_site_label
_atom_site_fract_x
_atom_site_fract_y
_atom_site_fract_z
Si Si1 0.455470 0.898124 0.751309
Si Si2 0.454771 0.208190 0.427753
Si Si3 0.447998 0.210867 0.928482
Si Si4 0.543722 0.573039 0.426660
Si Si5 0.451165 0.068638 0.103889
Si Si6 0.451275 0.068623 0.392958
Si Si7 0.951340 0.680514 0.330603
Si Si8 0.040828 0.754317 0.788847
O O1 0.250000 0.904647 0.750138
O O2 0.521966 0.928281 0.818164
O O3 0.528721 0.926284 0.685126
O O4 0.500110 0.823083 0.756978
O O5 0.500000 0.230648 0.500000
O O6 0.250000 0.207596 0.419065
O O7 0.522839 0.135462 0.419753
O O8 0.530581 0.256475 0.375218
O O9 0.250000 0.224105 0.923402
O O10 0.471624 0.134080 0.923125
O O11 0.526126 0.241869 0.863003
O O12 0.500000 0.232407 0.000000
O O13 0.500000 0.594351 0.500000
O O14 0.750000 0.572197 0.422569
O O15 0.482042 0.500000 0.418752
O O16 0.476018 0.621629 0.372136
O O17 0.250000 0.070766 0.089711
O O18 0.521206 0.000000 0.080754
O O19 0.250000 0.068055 0.408898
O O20 0.525456 0.000000 0.414390
O O21 0.750000 0.667509 0.321864
O O22 0.021953 0.699224 0.259596
O O23 0.250000 0.751403 0.790042
#
# Coordination Sequence:
#
# PCOD9399229 Si02
#       8
#     8   8   8   8   8   8   8   8
#     4  10  18  30  48  69  91 115 151 195 245 300
#     4  11  23  36  50  69  92 121 160 205 250 299
#     4  10  20  34  50  69  93 122 156 195 245 301
#     4   9  18  31  49  75 107 142 173 200 236 284
#     4  10  20  32  46  65  90 120 154 193 241 296
#     4  10  21  35  48  63  86 116 152 200 255 304
#     4  10  18  33  55  75 100 130 163 204 243 285
#     4   8  16  30  49  71  93 119 153 194 239 283
#
# _framework density 19.049537999999998
#
# number of rings (size 3 to 8) (size 9 to 14) (size 15 to 20)
#    0.000    2.250    1.250    3.000    0.000    5.250 
#    0.000    0.625    0.000    0.000    0.000    0.000 
#    0.000    0.500    0.000    0.375    0.000    0.750 
#
# Total GULP energy -357118.288695 kJ/mol
# GULP energy per Si atom -5579.973261 kJ/mol
# Density = 1.900618 g / cm^3
# Si number density = 19.049538 Si / 1000 Ang^3
#
#
#
# Elastic Constant Matrix: (Units=GPa)
#
#
# Indices 1 2 3 4 5 6 
#
# 1 22.4271 2.7745 -7.2682 0.0000 0.0000 0.0000
# 2 2.7745 85.7446 52.6940 0.0000 0.0000 0.0000
# 3 -7.2682 52.6940 125.9922 0.0000 0.0000 0.0000
# 4 0.0000 0.0000 0.0000 21.0153 0.0000 0.0000
# 5 0.0000 0.0000 0.0000 0.0000 16.6974 0.0000
# 6 0.0000 0.0000 0.0000 0.0000 0.0000 9.8710
#
#
#
# Elastic Compliance Matrix: (Units=1/GPa)
#
#
# Indices 1 2 3 4 5 6 
#
# 1 0.046561 -0.004249 0.004463 0.000000 0.000000 0.000000
# 2 -0.004249 0.016085 -0.006972 0.000000 0.000000 0.000000
# 3 0.004463 -0.006972 0.011111 0.000000 0.000000 0.000000
# 4 0.000000 0.000000 0.000000 0.047584 0.000000 0.000000
# 5 0.000000 0.000000 0.000000 0.000000 0.059890 0.000000
# 6 0.000000 0.000000 0.000000 0.000000 0.000000 0.101307
#
#
# Mechanical properties :
#
#
# Convention : Reuss Voigt Hill
#
# Bulk Modulus (GPa) = 16.60048 36.72941 26.66495
# Shear Modulus (GPa) = 15.81607 21.91431 18.86519
#
# Velocity S-wave (km/s) = 2.88455 3.39541 3.15035
# Velocity P-wave (km/s) = 4.45280 5.89021 5.22121
#
# Compressibility (1/GPa) = 0.06023920
#
# Stress axis : x y z
#
# Youngs Moduli (GPa) = 21.47722 62.17013 90.00461
#
# Poissons Ratio (x) = 0.26419 -0.40171
# Poissons Ratio (y) = 0.09127 0.62755
# Poissons Ratio (z) = -0.09586 0.43347
#
# Static dielectric constant tensor:
#      x y z
#    x 1.693860 0.000000 0.000000 
#    y 0.000000 1.677460 0.000000 
#    z 0.000000 0.000000 1.704330 
# 
# From -- ./inp_files/32587.got.cif
#   From: 2010.05.17/outbox.cif.g08.bks.cpg/sg51_17_cif.got.tgz:32587.got - 2010.06.03 11:52:47.
