data_PCOD9399776
_publ_section_title
;
Structure prediction by ZEFSAII (Michael W. Deem and Ramdas Pophale) SiO2 
 PCOD9399776
Probable space group: P M M A
;
_chemical_formula_sum "Si O2"
_cell_formula_units_Z 46
_cell_length_a 16.138131
_cell_length_b 11.863471
_cell_length_c 13.903135
_cell_angle_alpha 90.000000
_cell_angle_beta 90.000000
_cell_angle_gamma 90.000000
_cell_volume 2661.814272
_symmetry_space_group_name_H-M "P M M A"
_symmetry_group_IT_number 51
_symmetry_cell_setting 'orthorhombic'
loop_
_space_group_symop_operation_xyz
x,y,z
1/2-x,-y,z
1/2+x,-y,-z
-x,y,-z
-x,-y,-z
1/2+x,y,-z
1/2-x,y,z
x,-y,z
loop_
_atom_site_type_symbol
_atom_site_label
_atom_site_fract_x
_atom_site_fract_y
_atom_site_fract_z
Si Si1 0.595430 0.000000 0.463036
Si Si2 0.651230 0.766921 0.375593
Si Si3 0.750000 0.363745 0.899322
Si Si4 0.250000 0.755017 0.303724
Si Si5 0.114999 0.367651 0.429647
Si Si6 0.476769 0.632257 0.723962
Si Si7 0.250000 0.000000 0.386526
Si Si8 0.934680 0.636061 0.921957
O O1 0.500000 0.000000 0.500000
O O2 0.613103 0.888199 0.401334
O O3 0.666943 0.000000 0.546503
O O4 0.750000 0.775276 0.363761
O O5 0.631832 0.688421 0.468115
O O6 0.603836 0.708987 0.287138
O O7 0.750000 0.500000 0.878262
O O8 0.750000 0.290292 0.803227
O O9 0.660934 0.336836 0.945871
O O10 0.327195 0.699775 0.357247
O O11 0.250000 0.887698 0.322733
O O12 0.135543 0.500000 0.433759
O O13 0.026249 0.358731 0.377379
O O14 0.455673 0.500000 0.736494
O O15 0.535024 0.666336 0.813980
O O16 0.938331 0.500000 0.923872
O O17 0.000000 0.679826 0.000000
#
# Coordination Sequence:
#
# PCOD9399776 Si02
#       8
#     4   8   4   4   8   8   2   8
#     4  12  22  38  56  70 104 153 196 242 272 311
#     4  12  23  36  50  73 111 150 191 225 273 327
#     4  10  18  32  58  84 107 144 182 227 288 337
#     4  12  20  32  54  77 111 140 186 231 274 311
#     4  11  19  31  52  76 107 145 182 221 266 324
#     4  10  21  34  51  79 110 139 182 227 270 331
#     4  12  24  40  48  86 108 144 196 248 264 320
#     4   9  18  34  55  82 115 142 175 226 283 348
#
# _framework density 17.281445999999999
#
# number of rings (size 3 to 8) (size 9 to 14) (size 15 to 20)
#    0.000    1.217    5.217    2.870    0.000    2.435 
#    1.565    0.000    0.000    0.000    0.000    2.435 
#    0.000    0.000    0.000    0.000    0.000    0.000 
#
# Total GULP energy -256466.198283 kJ/mol
# GULP energy per Si atom -5575.352137 kJ/mol
# Density = 1.724211 g / cm^3
# Si number density = 17.281446 Si / 1000 Ang^3
#
#
#
# Elastic Constant Matrix: (Units=GPa)
#
#
# Indices 1 2 3 4 5 6 
#
# 1 160.5711 46.8390 37.8651 0.0000 0.0000 0.0000
# 2 46.8390 91.4709 2.0965 0.0000 0.0000 0.0000
# 3 37.8651 2.0965 30.3333 0.0000 0.0000 0.0000
# 4 0.0000 0.0000 0.0000 42.1565 0.0000 0.0000
# 5 0.0000 0.0000 0.0000 0.0000 33.6491 0.0000
# 6 0.0000 0.0000 0.0000 0.0000 0.0000 28.2724
#
#
#
# Elastic Compliance Matrix: (Units=1/GPa)
#
#
# Indices 1 2 3 4 5 6 
#
# 1 0.010882 -0.005270 -0.013220 0.000000 0.000000 0.000000
# 2 -0.005270 0.013501 0.005645 0.000000 0.000000 0.000000
# 3 -0.013220 0.005645 0.049080 0.000000 0.000000 0.000000
# 4 0.000000 0.000000 0.000000 0.023721 0.000000 0.000000
# 5 0.000000 0.000000 0.000000 0.000000 0.029718 0.000000
# 6 0.000000 0.000000 0.000000 0.000000 0.000000 0.035370
#
#
# Mechanical properties :
#
#
# Convention : Reuss Voigt Hill
#
# Bulk Modulus (GPa) = 20.93208 50.66408 35.79808
# Shear Modulus (GPa) = 24.52322 33.85391 29.18857
#
# Velocity S-wave (km/s) = 3.77111 4.43083 4.11422
# Velocity P-wave (km/s) = 5.57678 7.45366 6.58246
#
# Compressibility (1/GPa) = 0.04777356
#
# Stress axis : x y z
#
# Youngs Moduli (GPa) = 91.89084 74.06637 20.37493
#
# Poissons Ratio (x) = 0.39029 0.26936
# Poissons Ratio (y) = 0.48422 -0.11501
# Poissons Ratio (z) = 1.21483 -0.41809
#
# Static dielectric constant tensor:
#      x y z
#    x 1.627330 0.000000 0.000000 
#    y 0.000000 1.563830 0.000000 
#    z 0.000000 0.000000 1.595430 
# 
# From -- ./inp_files/17365.got.cif
#   From: 2010.05.17/outbox.cif.g08.bks.cpg/sg51_9_cif.got.tgz:17365.got - 2010.06.03 11:52:47.
