data_PCOD9399519
_publ_section_title
;
Structure prediction by ZEFSAII (Michael W. Deem and Ramdas Pophale) SiO2 
 PCOD9399519
Probable space group: P M M A
;
_chemical_formula_sum "Si O2"
_cell_formula_units_Z 64
_cell_length_a 20.062808
_cell_length_b 7.916258
_cell_length_c 20.894203
_cell_angle_alpha 90.000000
_cell_angle_beta 90.000000
_cell_angle_gamma 90.000000
_cell_volume 3318.466721
_symmetry_space_group_name_H-M "P M M A"
_symmetry_group_IT_number 51
_symmetry_cell_setting 'orthorhombic'
loop_
_space_group_symop_operation_xyz
x,y,z
1/2-x,-y,z
1/2+x,-y,-z
-x,y,-z
-x,-y,-z
1/2+x,y,-z
1/2-x,y,z
x,-y,z
loop_
_atom_site_type_symbol
_atom_site_label
_atom_site_fract_x
_atom_site_fract_y
_atom_site_fract_z
Si Si1 0.538111 0.803118 0.092144
Si Si2 0.326115 0.202401 0.666740
Si Si3 0.582749 0.798291 0.726289
Si Si4 0.826646 0.701591 0.471901
Si Si5 0.062962 0.206960 0.764338
Si Si6 0.099825 0.695307 0.033525
Si Si7 0.826634 0.797532 0.610862
Si Si8 0.674885 0.704875 0.844432
O O1 0.563834 0.744349 0.160974
O O2 0.471634 0.707600 0.069562
O O3 0.519063 0.000000 0.097838
O O4 0.590278 0.785231 0.034252
O O5 0.250000 0.269505 0.670554
O O6 0.354886 0.239879 0.595973
O O7 0.375037 0.266207 0.721956
O O8 0.322249 0.000000 0.672761
O O9 0.507500 0.734828 0.734799
O O10 0.625797 0.730249 0.666806
O O11 0.623597 0.765842 0.791080
O O12 0.577573 0.000000 0.717625
O O13 0.750000 0.766829 0.471884
O O14 0.825698 0.500000 0.471941
O O15 0.854403 0.760042 0.539990
O O16 0.063713 0.000000 0.762972
O O17 0.114713 0.500000 0.020291
O O18 0.152368 0.762798 0.085043
O O19 0.750000 0.731861 0.615749
O O20 0.822722 0.000000 0.617655
O O21 0.750000 0.758850 0.829083
O O22 0.672758 0.500000 0.844920
#
# Coordination Sequence:
#
# PCOD9399519 Si02
#       8
#     8   8   8   8   8   8   8   8
#     4  10  18  31  52  74  98 126 161 206 251 294
#     4   9  17  32  54  75  96 126 163 203 250 305
#     4  10  19  33  51  73 101 132 169 210 250 296
#     4   9  17  30  49  72  97 126 162 204 246 291
#     4   9  18  32  51  76 102 128 161 205 254 300
#     4  10  19  32  50  72  97 128 169 206 242 292
#     4   9  17  29  47  71  96 126 164 202 241 291
#     4  10  21  35  50  71 103 139 172 208 250 296
#
# _framework density 19.286016
#
# number of rings (size 3 to 8) (size 9 to 14) (size 15 to 20)
#    0.000    2.500    1.250    2.250    0.000    3.250 
#    0.000    4.375    0.000    4.500    0.000    0.000 
#    0.000    0.000    0.000    0.000    0.000    0.000 
#
# Total GULP energy -356847.541928 kJ/mol
# GULP energy per Si atom -5575.742843 kJ/mol
# Density = 1.924212 g / cm^3
# Si number density = 19.286016 Si / 1000 Ang^3
#
#
#
# Elastic Constant Matrix: (Units=GPa)
#
#
# Indices 1 2 3 4 5 6 
#
# 1 84.3641 1.2771 62.8523 0.0000 0.0000 0.0000
# 2 1.2771 18.0532 0.9779 0.0000 0.0000 0.0000
# 3 62.8523 0.9779 161.4675 0.0000 0.0000 0.0000
# 4 0.0000 0.0000 0.0000 398.9051 0.0000 0.0000
# 5 0.0000 0.0000 0.0000 0.0000 30.8384 0.0000
# 6 0.0000 0.0000 0.0000 0.0000 0.0000 9.5569
#
#
#
# Elastic Compliance Matrix: (Units=1/GPa)
#
#
# Indices 1 2 3 4 5 6 
#
# 1 0.016707 -0.000830 -0.006498 0.000000 0.000000 0.000000
# 2 -0.000830 0.055451 -0.000013 0.000000 0.000000 0.000000
# 3 -0.006498 -0.000013 0.008723 0.000000 0.000000 0.000000
# 4 0.000000 0.000000 0.000000 0.002507 0.000000 0.000000
# 5 0.000000 0.000000 0.000000 0.000000 0.032427 0.000000
# 6 0.000000 0.000000 0.000000 0.000000 0.000000 0.104637
#
#
# Mechanical properties :
#
#
# Convention : Reuss Voigt Hill
#
# Bulk Modulus (GPa) = 15.10591 43.78883 29.44737
# Shear Modulus (GPa) = 19.44005 101.11190 60.27597
#
# Velocity S-wave (km/s) = 3.17833 7.24854 5.59657
# Velocity P-wave (km/s) = 4.61720 9.63377 7.55407
#
# Compressibility (1/GPa) = 0.06619924
#
# Stress axis : x y z
#
# Youngs Moduli (GPa) = 59.85384 18.03384 114.64168
#
# Poissons Ratio (x) = 0.01497 0.74499
# Poissons Ratio (y) = 0.04968 0.00146
# Poissons Ratio (z) = 0.38896 0.00023
#
# Static dielectric constant tensor:
#      x y z
#    x 1.672420 0.000000 0.000000 
#    y 0.000000 1.686080 0.000000 
#    z 0.000000 0.000000 1.685170 
# 
# From -- ./inp_files/34094.got.cif
#   From: 2010.05.17/outbox.cif.g08.bks.cpg/sg51_18_cif.got.tgz:34094.got - 2010.06.03 11:52:47.
