data_PCOD9399894
_publ_section_title
;
Structure prediction by ZEFSAII (Michael W. Deem and Ramdas Pophale) SiO2 
 PCOD9399894
Probable space group: P M M A
;
_chemical_formula_sum "Si O2"
_cell_formula_units_Z 64
_cell_length_a 15.020250
_cell_length_b 8.512510
_cell_length_c 26.823697
_cell_angle_alpha 90.000000
_cell_angle_beta 90.000000
_cell_angle_gamma 90.000000
_cell_volume 3429.678658
_symmetry_space_group_name_H-M "P M M A"
_symmetry_group_IT_number 51
_symmetry_cell_setting 'orthorhombic'
loop_
_space_group_symop_operation_xyz
x,y,z
1/2-x,-y,z
1/2+x,-y,-z
-x,y,-z
-x,-y,-z
1/2+x,y,-z
1/2-x,y,z
x,-y,z
loop_
_atom_site_type_symbol
_atom_site_label
_atom_site_fract_x
_atom_site_fract_y
_atom_site_fract_z
Si Si1 0.004121 0.187080 0.789844
Si Si2 0.147220 0.310525 0.865125
Si Si3 0.853559 0.180007 0.611696
Si Si4 0.106521 0.318297 0.495215
Si Si5 0.496059 0.690062 0.057382
Si Si6 0.852815 0.810192 0.866630
Si Si7 0.348244 0.690946 0.604910
Si Si8 0.999759 0.684584 0.679257
O O1 0.091119 0.258322 0.816737
O O2 0.915439 0.240106 0.820092
O O3 0.998001 0.233570 0.732449
O O4 0.009380 0.000000 0.794685
O O5 0.250000 0.254648 0.866655
O O6 0.149982 0.500000 0.865819
O O7 0.084028 0.259813 0.911432
O O8 0.750000 0.192135 0.623721
O O9 0.866579 0.226365 0.554031
O O10 0.910852 0.288894 0.647546
O O11 0.882641 0.000000 0.618999
O O12 0.136267 0.500000 0.489451
O O13 0.141067 0.254054 0.547940
O O14 0.000000 0.319159 0.500000
O O15 0.493201 0.500000 0.058697
O O16 0.408558 0.752738 0.085522
O O17 0.500000 0.740488 0.000000
O O18 0.750000 0.755467 0.864701
O O19 0.850864 0.000000 0.866936
O O20 0.250000 0.728112 0.623281
O O21 0.357454 0.500000 0.601857
O O22 0.422663 0.747374 0.642832
O O23 0.014800 0.500000 0.687558
#
# Coordination Sequence:
#
# PCOD9399894 Si02
#       8
#     8   8   8   8   8   8   8   8
#     4  10  21  37  56  79 107 139 178 228 283 329
#     4   9  18  34  55  78 107 147 191 229 269 322
#     4  11  24  39  55  79 111 145 179 219 270 322
#     4  10  18  34  59  83 105 136 177 219 263 317
#     4   9  18  32  52  82 117 148 181 226 274 316
#     4   9  19  36  56  77 105 144 185 223 268 325
#     4   9  18  33  54  79 106 136 170 211 262 319
#     4  11  22  38  58  81 108 139 180 224 271 326
#
# _framework density 18.660640000000001
#
# number of rings (size 3 to 8) (size 9 to 14) (size 15 to 20)
#    0.000    2.250    1.250    1.500    0.000    4.500 
#    0.000    3.750    0.000    1.875    0.000    0.000 
#    0.000    0.000    0.000    0.000    0.000    0.000 
#
# Total GULP energy -357055.186167 kJ/mol
# GULP energy per Si atom -5578.987284 kJ/mol
# Density = 1.861817 g / cm^3
# Si number density = 18.660640 Si / 1000 Ang^3
#
#
#
# Elastic Constant Matrix: (Units=GPa)
#
#
# Indices 1 2 3 4 5 6 
#
# 1 138.0366 14.8542 59.4642 0.0000 0.0000 0.0000
# 2 14.8542 6.0666 5.5924 0.0000 0.0000 0.0000
# 3 59.4642 5.5924 133.2965 0.0000 0.0000 0.0000
# 4 0.0000 0.0000 0.0000 13.6698 0.0000 0.0000
# 5 0.0000 0.0000 0.0000 0.0000 33.9437 0.0000
# 6 0.0000 0.0000 0.0000 0.0000 0.0000 20.3705
#
#
#
# Elastic Compliance Matrix: (Units=1/GPa)
#
#
# Indices 1 2 3 4 5 6 
#
# 1 0.011721 -0.024840 -0.004187 0.000000 0.000000 0.000000
# 2 -0.024840 0.224111 0.001679 0.000000 0.000000 0.000000
# 3 -0.004187 0.001679 0.009299 0.000000 0.000000 0.000000
# 4 0.000000 0.000000 0.000000 0.073154 0.000000 0.000000
# 5 0.000000 0.000000 0.000000 0.000000 0.029461 0.000000
# 6 0.000000 0.000000 0.000000 0.000000 0.000000 0.049091
#
#
# Mechanical properties :
#
#
# Convention : Reuss Voigt Hill
#
# Bulk Modulus (GPa) = 5.25112 48.58014 26.91563
# Shear Modulus (GPa) = 9.70853 26.76271 18.23562
#
# Velocity S-wave (km/s) = 2.28341 3.79116 3.12945
# Velocity P-wave (km/s) = 3.12603 6.72710 5.24528
#
# Compressibility (1/GPa) = 0.19043552
#
# Stress axis : x y z
#
# Youngs Moduli (GPa) = 85.31653 4.46208 107.53456
#
# Poissons Ratio (x) = 0.11084 0.45021
# Poissons Ratio (y) = 2.11926 -0.18052
# Poissons Ratio (z) = 0.35719 -0.00749
#
# Static dielectric constant tensor:
#      x y z
#    x 1.652140 0.000000 0.000000 
#    y 0.000000 1.649340 0.000000 
#    z 0.000000 0.000000 1.621160 
# 
# From -- ./inp_files/35636.got.cif
#   From: 2010.05.17/outbox.cif.g08.bks.cpg/sg51_18_cif.got.tgz:35636.got - 2010.06.03 11:52:47.
