data_PCOD9399012
_publ_section_title
;
Structure prediction by ZEFSAII (Michael W. Deem and Ramdas Pophale) SiO2 
 PCOD9399012
Probable space group: P M M A
;
_chemical_formula_sum "Si O2"
_cell_formula_units_Z 64
_cell_length_a 9.009648
_cell_length_b 23.809568
_cell_length_c 19.357550
_cell_angle_alpha 90.000000
_cell_angle_beta 90.000000
_cell_angle_gamma 90.000000
_cell_volume 4152.500841
_symmetry_space_group_name_H-M "P M M A"
_symmetry_group_IT_number 51
_symmetry_cell_setting 'orthorhombic'
loop_
_space_group_symop_operation_xyz
x,y,z
1/2-x,-y,z
1/2+x,-y,-z
-x,y,-z
-x,-y,-z
1/2+x,y,-z
1/2-x,y,z
x,-y,z
loop_
_atom_site_type_symbol
_atom_site_label
_atom_site_fract_x
_atom_site_fract_y
_atom_site_fract_z
Si Si1 0.426492 0.770695 0.574851
Si Si2 0.073810 0.835459 0.303054
Si Si3 0.071228 0.064478 0.779895
Si Si4 0.426855 0.891033 0.928626
Si Si5 0.074118 0.566525 0.426145
Si Si6 0.072645 0.242466 0.927591
Si Si7 0.073331 0.340874 0.665222
Si Si8 0.926544 0.276309 0.787665
O O1 0.500000 0.771945 0.500000
O O2 0.250000 0.778408 0.569755
O O3 0.496561 0.816773 0.625954
O O4 0.454004 0.710529 0.611647
O O5 0.250000 0.840669 0.312662
O O6 0.047151 0.784008 0.249543
O O7 0.005637 0.891318 0.270428
O O8 0.250000 0.072287 0.776728
O O9 0.025040 0.077812 0.858963
O O10 0.037493 0.000000 0.763094
O O11 0.250000 0.897374 0.935108
O O12 0.459064 0.824497 0.919894
O O13 0.500000 0.910336 0.000000
O O14 0.250000 0.577708 0.429579
O O15 0.052417 0.500000 0.414037
O O16 0.000000 0.580187 0.500000
O O17 0.999025 0.604112 0.367652
O O18 0.250000 0.249352 0.929062
O O19 0.001777 0.273441 0.862309
O O20 0.000000 0.260142 0.000000
O O21 0.250000 0.346981 0.673202
O O22 0.999105 0.321927 0.736897
O O23 0.750000 0.284499 0.792931
#
# Coordination Sequence:
#
# PCOD9399012 Si02
#       8
#     8   8   8   8   8   8   8   8
#     4  10  20  33  51  74  99 124 153 190 236 284
#     4  10  20  33  50  70  93 119 152 191 235 285
#     4  10  20  34  50  67  90 121 155 192 235 283
#     4   9  18  30  45  65  90 120 154 192 231 277
#     4  10  20  33  49  70 100 139 178 212 244 281
#     4  10  18  29  46  67  94 126 160 197 239 290
#     4  10  20  32  49  73 101 133 166 204 243 282
#     4  10  19  31  48  70  96 126 160 200 244 289
#
# _framework density 15.412399000000001
#
# number of rings (size 3 to 8) (size 9 to 14) (size 15 to 20)
#    0.000    2.125    1.250    2.625    0.000    5.750 
#    0.000    0.000    0.000    0.375    0.000    0.000 
#    0.000    0.500    0.000    1.875    0.000    2.875 
#
# Total GULP energy -357203.805146 kJ/mol
# GULP energy per Si atom -5581.309455 kJ/mol
# Density = 1.537732 g / cm^3
# Si number density = 15.412399 Si / 1000 Ang^3
#
#
#
# Elastic Constant Matrix: (Units=GPa)
#
#
# Indices 1 2 3 4 5 6 
#
# 1 65.8132 46.7888 65.8324 0.0000 0.0000 0.0000
# 2 46.7888 59.0505 42.2357 0.0000 0.0000 0.0000
# 3 65.8324 42.2357 119.5520 0.0000 0.0000 0.0000
# 4 0.0000 0.0000 0.0000 27.1639 0.0000 0.0000
# 5 0.0000 0.0000 0.0000 0.0000 33.1094 0.0000
# 6 0.0000 0.0000 0.0000 0.0000 0.0000 22.1198
#
#
#
# Elastic Compliance Matrix: (Units=1/GPa)
#
#
# Indices 1 2 3 4 5 6 
#
# 1 0.058774 -0.031340 -0.021292 0.000000 0.000000 0.000000
# 2 -0.031340 0.039372 0.003348 0.000000 0.000000 0.000000
# 3 -0.021292 0.003348 0.018907 0.000000 0.000000 0.000000
# 4 0.000000 0.000000 0.000000 0.036814 0.000000 0.000000
# 5 0.000000 0.000000 0.000000 0.000000 0.030203 0.000000
# 6 0.000000 0.000000 0.000000 0.000000 0.000000 0.045208
#
#
# Mechanical properties :
#
#
# Convention : Reuss Voigt Hill
#
# Bulk Modulus (GPa) = 54.10109 61.56992 57.83550
# Shear Modulus (GPa) = 14.96968 22.44920 18.70944
#
# Velocity S-wave (km/s) = 3.11991 3.82064 3.48792
# Velocity P-wave (km/s) = 6.93952 7.71350 7.33672
#
# Compressibility (1/GPa) = 0.01848392
#
# Stress axis : x y z
#
# Youngs Moduli (GPa) = 17.01431 25.39844 52.89169
#
# Poissons Ratio (x) = 0.79600 1.12619
# Poissons Ratio (y) = 0.53324 -0.17709
# Poissons Ratio (z) = 0.36228 -0.08504
#
# Static dielectric constant tensor:
#      x y z
#    x 1.509930 0.000000 0.000000 
#    y 0.000000 1.494970 0.000000 
#    z 0.000000 0.000000 1.493490 
# 
# From -- ./inp_files/28332.got.cif
#   From: 2010.05.17/outbox.cif.g08.bks.cpg/sg51_15_cif.got.tgz:28332.got - 2010.06.03 11:52:47.
