data_PCOD9399172
_publ_section_title
;
Structure prediction by ZEFSAII (Michael W. Deem and Ramdas Pophale) SiO2 
 PCOD9399172
Probable space group: P M M A
;
_chemical_formula_sum "Si O2"
_cell_formula_units_Z 64
_cell_length_a 22.636408
_cell_length_b 8.442790
_cell_length_c 19.787528
_cell_angle_alpha 90.000000
_cell_angle_beta 90.000000
_cell_angle_gamma 90.000000
_cell_volume 3781.682315
_symmetry_space_group_name_H-M "P M M A"
_symmetry_group_IT_number 51
_symmetry_cell_setting 'orthorhombic'
loop_
_space_group_symop_operation_xyz
x,y,z
1/2-x,-y,z
1/2+x,-y,-z
-x,y,-z
-x,-y,-z
1/2+x,y,-z
1/2-x,y,z
x,-y,z
loop_
_atom_site_type_symbol
_atom_site_label
_atom_site_fract_x
_atom_site_fract_y
_atom_site_fract_z
Si Si1 0.491929 0.188175 0.170173
Si Si2 0.492328 0.688537 0.322375
Si Si3 0.108890 0.808960 0.913066
Si Si4 0.621176 0.190309 0.339768
Si Si5 0.182875 0.691295 0.530235
Si Si6 0.060153 0.693123 0.459655
Si Si7 0.185062 0.192817 0.793567
Si Si8 0.941238 0.311809 0.958862
O O1 0.484282 0.249501 0.246145
O O2 0.552646 0.243697 0.133226
O O3 0.442532 0.237380 0.115358
O O4 0.495666 0.000000 0.174445
O O5 0.490359 0.500000 0.319086
O O6 0.556383 0.740218 0.350031
O O7 0.447332 0.740953 0.381190
O O8 0.164280 0.761925 0.867773
O O9 0.105546 0.000000 0.918738
O O10 0.108206 0.737497 0.987619
O O11 0.667789 0.252082 0.394146
O O12 0.640668 0.241325 0.264964
O O13 0.618592 0.000000 0.342729
O O14 0.250000 0.743054 0.510833
O O15 0.182884 0.500000 0.527889
O O16 0.123933 0.745462 0.488994
O O17 0.059971 0.500000 0.463174
O O18 0.000000 0.743711 0.500000
O O19 0.250000 0.250352 0.777466
O O20 0.185202 0.000000 0.792291
O O21 0.944251 0.500000 0.951939
O O22 0.000000 0.255608 0.000000
#
# Coordination Sequence:
#
# PCOD9399172 Si02
#       8
#     8   8   8   8   8   8   8   8
#     4  10  18  30  46  68  96 123 155 196 243 293
#     4  11  20  31  50  71  97 132 167 202 249 300
#     4   9  16  28  44  63  89 124 158 192 235 282
#     4  11  20  32  48  70 100 133 169 205 246 290
#     4  10  20  35  54  74  95 126 169 210 248 298
#     4   9  17  32  51  71  98 130 162 201 251 302
#     4   9  17  29  44  63  91 129 167 197 231 283
#     4   9  17  28  43  66  91 119 153 189 231 279
#
# _framework density 16.923684999999999
#
# number of rings (size 3 to 8) (size 9 to 14) (size 15 to 20)
#    0.000    2.250    2.500    1.875    0.000    2.750 
#    0.000    1.875    0.000    1.875    0.000    0.875 
#    0.000    3.000    0.000    0.000    0.000    0.000 
#
# Total GULP energy -356402.039510 kJ/mol
# GULP energy per Si atom -5568.781867 kJ/mol
# Density = 1.688517 g / cm^3
# Si number density = 16.923685 Si / 1000 Ang^3
#
#
#
# Elastic Constant Matrix: (Units=GPa)
#
#
# Indices 1 2 3 4 5 6 
#
# 1 46.4363 10.5892 43.6937 0.0000 0.0000 0.0000
# 2 10.5892 12.4562 17.1693 0.0000 0.0000 0.0000
# 3 43.6937 17.1693 104.4413 0.0000 0.0000 0.0000
# 4 0.0000 0.0000 0.0000 17.0283 0.0000 0.0000
# 5 0.0000 0.0000 0.0000 0.0000 21.0040 0.0000
# 6 0.0000 0.0000 0.0000 0.0000 0.0000 10.2113
#
#
#
# Elastic Compliance Matrix: (Units=1/GPa)
#
#
# Indices 1 2 3 4 5 6 
#
# 1 0.037103 -0.013119 -0.013365 0.000000 0.000000 0.000000
# 2 -0.013119 0.108440 -0.012338 0.000000 0.000000 0.000000
# 3 -0.013365 -0.012338 0.017195 0.000000 0.000000 0.000000
# 4 0.000000 0.000000 0.000000 0.058726 0.000000 0.000000
# 5 0.000000 0.000000 0.000000 0.000000 0.047610 0.000000
# 6 0.000000 0.000000 0.000000 0.000000 0.000000 0.097931
#
#
# Mechanical properties :
#
#
# Convention : Reuss Voigt Hill
#
# Bulk Modulus (GPa) = 11.75193 34.02647 22.88920
# Shear Modulus (GPa) = 10.57052 15.77417 13.17234
#
# Velocity S-wave (km/s) = 2.50191 3.05630 2.79290
# Velocity P-wave (km/s) = 3.91219 5.71000 4.89435
#
# Compressibility (1/GPa) = 0.08509237
#
# Stress axis : x y z
#
# Youngs Moduli (GPa) = 26.95234 9.22165 58.15768
#
# Poissons Ratio (x) = 0.12098 0.77731
# Poissons Ratio (y) = 0.35358 0.71758
# Poissons Ratio (z) = 0.36023 0.11378
#
# Static dielectric constant tensor:
#      x y z
#    x 1.599840 0.000000 0.000000 
#    y 0.000000 1.577280 0.000000 
#    z 0.000000 0.000000 1.597060 
# 
# From -- ./inp_files/30868.got.cif
#   From: 2010.05.17/outbox.cif.g08.bks.cpg/sg51_16_cif.got.tgz:30868.got - 2010.06.03 11:52:47.
