data_PCOD9399838
_publ_section_title
;
Structure prediction by ZEFSAII (Michael W. Deem and Ramdas Pophale) SiO2 
 PCOD9399838
Probable space group: P M M A
;
_chemical_formula_sum "Si O2"
_cell_formula_units_Z 56
_cell_length_a 22.126677
_cell_length_b 7.762485
_cell_length_c 15.296687
_cell_angle_alpha 90.000000
_cell_angle_beta 90.000000
_cell_angle_gamma 90.000000
_cell_volume 2627.328340
_symmetry_space_group_name_H-M "P M M A"
_symmetry_group_IT_number 51
_symmetry_cell_setting 'orthorhombic'
loop_
_space_group_symop_operation_xyz
x,y,z
1/2-x,-y,z
1/2+x,-y,-z
-x,y,-z
-x,-y,-z
1/2+x,y,-z
1/2-x,y,z
x,-y,z
loop_
_atom_site_type_symbol
_atom_site_label
_atom_site_fract_x
_atom_site_fract_y
_atom_site_fract_z
Si Si1 0.045125 0.211352 0.315669
Si Si2 0.075686 0.798618 0.773793
Si Si3 0.250000 0.302091 0.391674
Si Si4 0.881765 0.199645 0.854861
Si Si5 0.180874 0.299526 0.654159
Si Si6 0.250000 0.302970 0.183507
Si Si7 0.069025 0.800399 0.968704
Si Si8 0.625406 0.801639 0.526623
O O1 0.086004 0.268604 0.232680
O O2 0.074638 0.270813 0.407220
O O3 0.977270 0.267382 0.290817
O O4 0.047940 0.000000 0.320905
O O5 0.140924 0.784113 0.729931
O O6 0.073797 0.722991 0.871723
O O7 0.060105 0.000000 0.784221
O O8 0.250000 0.500000 0.426695
O O9 0.250000 0.308404 0.288089
O O10 0.189032 0.210670 0.422090
O O11 0.810659 0.210421 0.844338
O O12 0.902263 0.000000 0.858939
O O13 0.897958 0.281554 0.948031
O O14 0.250000 0.232683 0.642584
O O15 0.185386 0.500000 0.675067
O O16 0.142060 0.281795 0.565510
O O17 0.250000 0.500000 0.151354
O O18 0.090940 0.000000 0.960709
O O19 0.000000 0.804144 0.000000
O O20 0.609932 0.000000 0.507442
#
# Coordination Sequence:
#
# PCOD9399838 Si02
#       8
#     8   8   4   8   8   4   8   8
#     4   9  18  32  57  92 122 146 179 234 293 344
#     4  10  20  38  63  90 117 146 189 241 292 347
#     4  11  21  33  51  80 117 154 191 233 280 334
#     4  10  18  33  57  85 117 152 192 237 289 345
#     4  11  25  44  61  79 112 158 201 242 287 335
#     4  11  23  35  49  78 121 162 195 233 286 342
#     4   9  16  31  61  92 114 142 185 240 296 344
#     4  11  21  35  60  89 114 148 193 234 282 344
#
# _framework density 21.314429000000001
#
# number of rings (size 3 to 8) (size 9 to 14) (size 15 to 20)
#    0.000    1.857    3.571    1.286    0.000    2.000 
#    1.286    5.714    0.000    0.857    0.000    0.000 
#    0.000    0.000    0.000    0.000    0.000    0.000 
#
# Total GULP energy -312393.914676 kJ/mol
# GULP energy per Si atom -5578.462762 kJ/mol
# Density = 2.126592 g / cm^3
# Si number density = 21.314429 Si / 1000 Ang^3
#
#
#
# Elastic Constant Matrix: (Units=GPa)
#
#
# Indices 1 2 3 4 5 6 
#
# 1 80.3075 -4.7629 45.2219 0.0000 0.0000 0.0000
# 2 -4.7629 31.0423 -4.0194 0.0000 0.0000 0.0000
# 3 45.2219 -4.0194 113.3807 0.0000 0.0000 0.0000
# 4 0.0000 0.0000 0.0000 20.6980 0.0000 0.0000
# 5 0.0000 0.0000 0.0000 0.0000 28.6220 0.0000
# 6 0.0000 0.0000 0.0000 0.0000 0.0000 -107.4163
#
#
#
# Elastic Compliance Matrix: (Units=1/GPa)
#
#
# Indices 1 2 3 4 5 6 
#
# 1 0.016143 0.001651 -0.006380 0.000000 0.000000 0.000000
# 2 0.001651 0.032531 0.000495 0.000000 0.000000 0.000000
# 3 -0.006380 0.000495 0.011382 0.000000 0.000000 0.000000
# 4 0.000000 0.000000 0.000000 0.048314 0.000000 0.000000
# 5 0.000000 0.000000 0.000000 0.000000 0.034938 0.000000
# 6 0.000000 0.000000 0.000000 0.000000 0.000000 -0.009310
#
#
# Mechanical properties :
#
#
# Convention : Reuss Voigt Hill
#
# Bulk Modulus (GPa) = 19.38460 33.06773 26.22617
# Shear Modulus (GPa) = 31.31593 0.93346 16.12469
#
# Velocity S-wave (km/s) = 3.83722 0.66249 2.75347
# Velocity P-wave (km/s) = 5.36159 4.01661 4.73708
#
# Compressibility (1/GPa) = 0.05158733
#
# Stress axis : x y z
#
# Youngs Moduli (GPa) = 61.94768 30.73952 87.85770
#
# Poissons Ratio (x) = -0.05074 0.56053
# Poissons Ratio (y) = -0.10226 -0.04348
# Poissons Ratio (z) = 0.39522 -0.01521
#
# Static dielectric constant tensor:
#      x y z
#    x 1.770170 0.000000 0.000000 
#    y 0.000000 1.823160 0.000000 
#    z 0.000000 0.000000 1.799350 
# 
# From -- ./inp_files/25912.got.cif
#   From: 2010.05.17/outbox.cif.g08.bks.cpg/sg51_13_cif.got.tgz:25912.got - 2010.06.03 11:52:47.
