data_PCOD9399443
_publ_section_title
;
Structure prediction by ZEFSAII (Michael W. Deem and Ramdas Pophale) SiO2 
 PCOD9399443
Probable space group: P M M A
;
_chemical_formula_sum "Si O2"
_cell_formula_units_Z 64
_cell_length_a 34.652681
_cell_length_b 9.003533
_cell_length_c 12.974180
_cell_angle_alpha 90.000000
_cell_angle_beta 90.000000
_cell_angle_gamma 90.000000
_cell_volume 4047.899489
_symmetry_space_group_name_H-M "P M M A"
_symmetry_group_IT_number 51
_symmetry_cell_setting 'orthorhombic'
loop_
_space_group_symop_operation_xyz
x,y,z
1/2-x,-y,z
1/2+x,-y,-z
-x,y,-z
-x,-y,-z
1/2+x,y,-z
1/2-x,y,z
x,-y,z
loop_
_atom_site_type_symbol
_atom_site_label
_atom_site_fract_x
_atom_site_fract_y
_atom_site_fract_z
Si Si1 0.295413 0.822663 0.489359
Si Si2 0.838388 0.321992 0.703190
Si Si3 0.204631 0.677214 0.884446
Si Si4 0.841978 0.822253 0.301373
Si Si5 0.998827 0.171043 0.374805
Si Si6 0.704557 0.176965 0.894238
Si Si7 0.421963 0.322731 0.377504
Si Si8 0.080807 0.677096 0.621766
O O1 0.250000 0.789556 0.497264
O O2 0.314638 0.735348 0.395553
O O3 0.317007 0.787635 0.596032
O O4 0.299540 0.000000 0.470696
O O5 0.835406 0.500000 0.710071
O O6 0.820976 0.246907 0.804354
O O7 0.883217 0.283107 0.683367
O O8 0.250000 0.706705 0.862170
O O9 0.199206 0.500000 0.888133
O O10 0.178679 0.749409 0.796319
O O11 0.196177 0.748415 0.995710
O O12 0.884454 0.757035 0.319897
O O13 0.843324 0.000000 0.290170
O O14 0.039453 0.240619 0.341155
O O15 0.000000 0.175492 0.500000
O O16 0.961057 0.263449 0.344313
O O17 0.995218 0.000000 0.343214
O O18 0.750000 0.204203 0.871028
O O19 0.698998 0.000000 0.900081
O O20 0.428060 0.500000 0.370793
O O21 0.415376 0.288736 0.499049
O O22 0.083216 0.500000 0.633812
#
# Coordination Sequence:
#
# PCOD9399443 Si02
#       8
#     8   8   8   8   8   8   8   8
#     4  10  21  34  47  67  99 137 171 203 247 302
#     4  11  21  33  50  74 102 133 170 210 252 299
#     4  10  21  37  56  76  98 128 170 217 261 304
#     4  11  21  33  51  74 103 135 170 210 254 302
#     4   9  17  28  45  69  96 129 169 206 247 296
#     4  10  21  37  55  74  98 130 170 215 261 304
#     4   9  18  31  46  68 100 135 168 204 249 298
#     4  10  18  31  48  69 101 136 170 206 249 299
#
# _framework density 15.810668
#
# number of rings (size 3 to 8) (size 9 to 14) (size 15 to 20)
#    0.000    2.000    1.250    3.000    0.000    7.250 
#    0.000    0.000    0.000    0.000    0.000    0.875 
#    0.000    7.000    0.000    0.000    0.000    0.000 
#
# Total GULP energy -357241.110310 kJ/mol
# GULP energy per Si atom -5581.892349 kJ/mol
# Density = 1.577468 g / cm^3
# Si number density = 15.810668 Si / 1000 Ang^3
#
#
#
# Elastic Constant Matrix: (Units=GPa)
#
#
# Indices 1 2 3 4 5 6 
#
# 1 143.4890 74.7505 79.2001 0.0000 0.0000 0.0000
# 2 74.7505 74.9061 61.4160 0.0000 0.0000 0.0000
# 3 79.2001 61.4160 97.6879 0.0000 0.0000 0.0000
# 4 0.0000 0.0000 0.0000 26.4746 0.0000 0.0000
# 5 0.0000 0.0000 0.0000 0.0000 14.1746 0.0000
# 6 0.0000 0.0000 0.0000 0.0000 0.0000 30.4598
#
#
#
# Elastic Compliance Matrix: (Units=1/GPa)
#
#
# Indices 1 2 3 4 5 6 
#
# 1 0.016099 -0.011071 -0.006092 0.000000 0.000000 0.000000
# 2 -0.011071 0.035165 -0.013133 0.000000 0.000000 0.000000
# 3 -0.006092 -0.013133 0.023433 0.000000 0.000000 0.000000
# 4 0.000000 0.000000 0.000000 0.037772 0.000000 0.000000
# 5 0.000000 0.000000 0.000000 0.000000 0.070549 0.000000
# 6 0.000000 0.000000 0.000000 0.000000 0.000000 0.032830
#
#
# Mechanical properties :
#
#
# Convention : Reuss Voigt Hill
#
# Bulk Modulus (GPa) = 70.89403 82.97959 76.93681
# Shear Modulus (GPa) = 17.78466 20.93622 19.36044
#
# Velocity S-wave (km/s) = 3.35752 3.64288 3.50311
# Velocity P-wave (km/s) = 7.74386 8.38399 8.07027
#
# Compressibility (1/GPa) = 0.01410556
#
# Stress axis : x y z
#
# Youngs Moduli (GPa) = 62.11557 28.43713 42.67569
#
# Poissons Ratio (x) = 0.31481 0.25999
# Poissons Ratio (y) = 0.68765 0.56046
# Poissons Ratio (z) = 0.37842 0.37346
#
# Static dielectric constant tensor:
#      x y z
#    x 1.518670 0.000000 0.000000 
#    y 0.000000 1.525080 0.000000 
#    z 0.000000 0.000000 1.493670 
# 
# From -- ./inp_files/19480.got.cif
#   From: 2010.05.17/outbox.cif.g08.bks.cpg/sg51_10_cif.got.tgz:19480.got - 2010.06.03 11:52:47.
