data_PCOD9399788
_publ_section_title
;
Structure prediction by ZEFSAII (Michael W. Deem and Ramdas Pophale) SiO2 
 PCOD9399788
Probable space group: P M M A
;
_chemical_formula_sum "Si O2"
_cell_formula_units_Z 52
_cell_length_a 8.848912
_cell_length_b 16.397224
_cell_length_c 21.586437
_cell_angle_alpha 90.000000
_cell_angle_beta 90.000000
_cell_angle_gamma 90.000000
_cell_volume 3132.140033
_symmetry_space_group_name_H-M "P M M A"
_symmetry_group_IT_number 51
_symmetry_cell_setting 'orthorhombic'
loop_
_space_group_symop_operation_xyz
x,y,z
1/2-x,-y,z
1/2+x,-y,-z
-x,y,-z
-x,-y,-z
1/2+x,y,-z
1/2-x,y,z
x,-y,z
loop_
_atom_site_type_symbol
_atom_site_label
_atom_site_fract_x
_atom_site_fract_y
_atom_site_fract_z
Si Si1 0.927945 0.500000 0.348828
Si Si2 0.421951 0.239961 0.325671
Si Si3 0.924709 0.364318 0.566623
Si Si4 0.932601 0.150211 0.147666
Si Si5 0.429661 0.087983 0.714886
Si Si6 0.932776 0.000000 0.931079
Si Si7 0.067575 0.683585 0.193357
Si Si8 0.432506 0.500000 0.211993
O O1 0.750000 0.500000 0.338000
O O2 0.980229 0.425297 0.391023
O O3 0.011817 0.500000 0.282997
O O4 0.250000 0.216350 0.311166
O O5 0.424269 0.284799 0.390717
O O6 0.519848 0.159859 0.328624
O O7 0.469422 0.294717 0.265837
O O8 0.750000 0.392042 0.560128
O O9 0.000000 0.355213 0.500000
O O10 0.750000 0.151117 0.139639
O O11 0.970931 0.114174 0.215489
O O12 0.993924 0.243979 0.151814
O O13 0.005924 0.083471 0.101634
O O14 0.250000 0.083265 0.714048
O O15 0.495285 0.000000 0.700031
O O16 0.750000 0.000000 0.930479
O O17 0.000000 0.000000 0.000000
O O18 0.250000 0.687752 0.186315
O O19 0.021130 0.588396 0.183223
O O20 0.250000 0.500000 0.212548
#
# Coordination Sequence:
#
# PCOD9399788 Si02
#       8
#     4   8   8   8   8   4   8   4
#     4  12  23  33  48  70  95 127 167 207 256 317
#     4   9  18  31  48  69  94 124 161 206 257 309
#     4  11  22  37  51  66  91 124 163 209 259 314
#     4  10  19  34  52  77 113 146 178 218 259 305
#     4   9  17  30  49  73 102 131 160 201 251 299
#     4  12  24  38  58  84 116 154 189 220 257 306
#     4   9  17  31  51  75 103 140 178 216 266 314
#     4  10  18  33  53  74 107 143 175 221 270 315
#
# _framework density 16.602067000000002
#
# number of rings (size 3 to 8) (size 9 to 14) (size 15 to 20)
#    0.000    2.000    2.308    2.538    0.000    2.769 
#    0.000    0.000    0.000    0.462    0.000    0.538 
#    0.000    0.000    0.000    0.000    0.000    0.000 
#
# Total GULP energy -289545.537882 kJ/mol
# GULP energy per Si atom -5568.183421 kJ/mol
# Density = 1.656428 g / cm^3
# Si number density = 16.602067 Si / 1000 Ang^3
#
#
#
# Elastic Constant Matrix: (Units=GPa)
#
#
# Indices 1 2 3 4 5 6 
#
# 1 32.9962 40.6665 22.1449 0.0000 0.0000 0.0000
# 2 40.6665 139.6515 35.6573 0.0000 0.0000 0.0000
# 3 22.1449 35.6573 53.9187 0.0000 0.0000 0.0000
# 4 0.0000 0.0000 0.0000 116.0955 0.0000 0.0000
# 5 0.0000 0.0000 0.0000 0.0000 21.6560 0.0000
# 6 0.0000 0.0000 0.0000 0.0000 0.0000 26.6212
#
#
#
# Elastic Compliance Matrix: (Units=1/GPa)
#
#
# Indices 1 2 3 4 5 6 
#
# 1 0.055348 -0.012408 -0.014526 0.000000 0.000000 0.000000
# 2 -0.012408 0.011397 -0.002441 0.000000 0.000000 0.000000
# 3 -0.014526 -0.002441 0.026127 0.000000 0.000000 0.000000
# 4 0.000000 0.000000 0.000000 0.008614 0.000000 0.000000
# 5 0.000000 0.000000 0.000000 0.000000 0.046177 0.000000
# 6 0.000000 0.000000 0.000000 0.000000 0.000000 0.037564
#
#
# Mechanical properties :
#
#
# Convention : Reuss Voigt Hill
#
# Bulk Modulus (GPa) = 29.30722 47.05596 38.18159
# Shear Modulus (GPa) = 19.58086 41.41440 30.49763
#
# Velocity S-wave (km/s) = 3.43800 4.99995 4.29065
# Velocity P-wave (km/s) = 5.78367 7.85733 6.89886
#
# Compressibility (1/GPa) = 0.03412128
#
# Stress axis : x y z
#
# Youngs Moduli (GPa) = 18.06738 87.74033 38.27503
#
# Poissons Ratio (x) = 1.08872 0.55599
# Poissons Ratio (y) = 0.22419 0.09343
# Poissons Ratio (z) = 0.26245 0.21417
#
# Static dielectric constant tensor:
#      x y z
#    x 1.569900 0.000000 0.000000 
#    y 0.000000 1.808000 0.000000 
#    z 0.000000 0.000000 1.523740 
# 
# From -- ./inp_files/31847.got.cif
#   From: 2010.05.17/outbox.cif.g08.bks.cpg/sg51_16_cif.got.tgz:31847.got - 2010.06.03 11:52:47.
