data_PCOD9399621
_publ_section_title
;
Structure prediction by ZEFSAII (Michael W. Deem and Ramdas Pophale) SiO2 
 PCOD9399621
Probable space group: P M M A
;
_chemical_formula_sum "Si O2"
_cell_formula_units_Z 36
_cell_length_a 8.868545
_cell_length_b 12.755061
_cell_length_c 20.825626
_cell_angle_alpha 90.000000
_cell_angle_beta 90.000000
_cell_angle_gamma 90.000000
_cell_volume 2355.770498
_symmetry_space_group_name_H-M "P M M A"
_symmetry_group_IT_number 51
_symmetry_cell_setting 'orthorhombic'
loop_
_space_group_symop_operation_xyz
x,y,z
1/2-x,-y,z
1/2+x,-y,-z
-x,y,-z
-x,-y,-z
1/2+x,y,-z
1/2-x,y,z
x,-y,z
loop_
_atom_site_type_symbol
_atom_site_label
_atom_site_fract_x
_atom_site_fract_y
_atom_site_fract_z
Si Si1 0.431328 0.000000 0.072128
Si Si2 0.577376 0.627394 0.301260
Si Si3 0.924323 0.372223 0.566574
Si Si4 0.570038 0.785207 0.071099
Si Si5 0.072551 0.374804 0.167514
O O1 0.496153 0.108319 0.099685
O O2 0.250000 0.000000 0.070749
O O3 0.500000 0.000000 0.000000
O O4 0.750000 0.661708 0.293375
O O5 0.577534 0.500000 0.303292
O O6 0.509709 0.662993 0.369180
O O7 0.479242 0.656020 0.239278
O O8 0.750000 0.341391 0.568812
O O9 0.928992 0.500000 0.566608
O O10 0.000000 0.337890 0.500000
O O11 0.750000 0.796752 0.066045
O O12 0.523374 0.689065 0.115975
O O13 0.500000 0.770030 0.000000
O O14 0.250000 0.353886 0.158619
O O15 0.048676 0.500000 0.160809
#
# Coordination Sequence:
#
# PCOD9399621 Si02
#       5
#     4   8   8   8   8
#     4  10  18  32  52  72  92 112 139 176 221 268
#     4   9  16  26  39  55  77 107 142 178 216 259
#     4   9  15  22  33  50  72 100 136 177 216 253
#     4  11  21  34  51  70  91 115 146 183 224 267
#     4  10  20  33  47  64  88 119 153 186 222 265
#
# _framework density 15.281625
#
# number of rings (size 3 to 8) (size 9 to 14) (size 15 to 20)
#    0.000    2.222    0.000    6.333    0.000    7.111 
#    0.000    0.000    0.000    0.000    0.000    0.000 
#    0.000    0.000    0.000    1.000    0.000   14.444 
#
# Total GULP energy -200643.051189 kJ/mol
# GULP energy per Si atom -5573.418089 kJ/mol
# Density = 1.524684 g / cm^3
# Si number density = 15.281625 Si / 1000 Ang^3
#
#
#
# Elastic Constant Matrix: (Units=GPa)
#
#
# Indices 1 2 3 4 5 6 
#
# 1 132.9032 31.2667 40.3823 0.0000 0.0000 0.0000
# 2 31.2667 30.0701 24.9760 0.0000 0.0000 0.0000
# 3 40.3823 24.9760 83.0589 0.0000 0.0000 0.0000
# 4 0.0000 0.0000 0.0000 -1.3540 0.0000 0.0000
# 5 0.0000 0.0000 0.0000 0.0000 30.4171 0.0000
# 6 0.0000 0.0000 0.0000 0.0000 0.0000 17.8581
#
#
#
# Elastic Compliance Matrix: (Units=1/GPa)
#
#
# Indices 1 2 3 4 5 6 
#
# 1 0.010303 -0.008734 -0.002383 0.000000 0.000000 0.000000
# 2 -0.008734 0.051730 -0.011309 0.000000 0.000000 0.000000
# 3 -0.002383 -0.011309 0.016599 0.000000 0.000000 0.000000
# 4 0.000000 0.000000 0.000000 -0.738541 0.000000 0.000000
# 5 0.000000 0.000000 0.000000 0.000000 0.032876 0.000000
# 6 0.000000 0.000000 0.000000 0.000000 0.000000 0.055997
#
#
# Mechanical properties :
#
#
# Convention : Reuss Voigt Hill
#
# Bulk Modulus (GPa) = 29.60290 48.80911 39.20600
# Shear Modulus (GPa) = -9.71017 19.34472 4.81728
#
# Velocity S-wave (km/s) = -2.52348 3.56178 1.77741
# Velocity P-wave (km/s) = 3.30500 6.99458 5.47025
#
# Compressibility (1/GPa) = 0.03378048
#
# Stress axis : x y z
#
# Youngs Moduli (GPa) = 97.05896 19.33104 60.24492
#
# Poissons Ratio (x) = 0.16883 0.14356
# Poissons Ratio (y) = 0.84769 0.68132
# Poissons Ratio (z) = 0.23129 0.21862
#
# Static dielectric constant tensor:
#      x y z
#    x 1.514630 0.000000 0.000000 
#    y 0.000000 1.510350 0.000000 
#    z 0.000000 0.000000 1.506670 
# 
# From -- ./inp_files/27005.got.cif
#   From: 2010.05.17/outbox.cif.g08.bks.cpg/sg51_14_cif.got.tgz:27005.got - 2010.06.03 11:52:47.
