data_PCOD9399903
_publ_section_title
;
Structure prediction by ZEFSAII (Michael W. Deem and Ramdas Pophale) SiO2 
 PCOD9399903
Probable space group: P M M A
;
_chemical_formula_sum "Si O2"
_cell_formula_units_Z 56
_cell_length_a 15.762406
_cell_length_b 7.664604
_cell_length_c 21.330813
_cell_angle_alpha 90.000000
_cell_angle_beta 90.000000
_cell_angle_gamma 90.000000
_cell_volume 2577.030980
_symmetry_space_group_name_H-M "P M M A"
_symmetry_group_IT_number 51
_symmetry_cell_setting 'orthorhombic'
loop_
_space_group_symop_operation_xyz
x,y,z
1/2-x,-y,z
1/2+x,-y,-z
-x,y,-z
-x,-y,-z
1/2+x,y,-z
1/2-x,y,z
x,-y,z
loop_
_atom_site_type_symbol
_atom_site_label
_atom_site_fract_x
_atom_site_fract_y
_atom_site_fract_z
Si Si1 0.597335 0.288996 0.989991
Si Si2 0.658444 0.214085 0.604898
Si Si3 0.657902 0.795433 0.124714
Si Si4 0.976377 0.794513 0.351441
Si Si5 0.154949 0.286273 0.148502
Si Si6 0.902913 0.199366 0.474085
Si Si7 0.511035 0.299066 0.215729
O O1 0.598663 0.500000 0.990360
O O2 0.633504 0.232682 0.922944
O O3 0.500000 0.232563 0.000000
O O4 0.648377 0.227158 0.050314
O O5 0.750000 0.268994 0.630463
O O6 0.573046 0.272545 0.640006
O O7 0.648718 0.274373 0.532476
O O8 0.657482 0.000000 0.604923
O O9 0.750000 0.725156 0.144309
O O10 0.578205 0.712434 0.159562
O O11 0.654943 0.000000 0.139508
O O12 0.914057 0.719858 0.405029
O O13 0.952161 0.778507 0.279429
O O14 0.980308 0.000000 0.366514
O O15 0.250000 0.231943 0.165917
O O16 0.152865 0.500000 0.148883
O O17 0.078786 0.222597 0.192782
O O18 0.000000 0.194104 0.500000
O O19 0.871358 0.000000 0.467320
O O20 0.495686 0.500000 0.230240
#
# Coordination Sequence:
#
# PCOD9399903 Si02
#       7
#     8   8   8   8   8   8   8
#     4  10  18  34  60  86 108 136 176 219 266 322
#     4   8  13  23  44  74 102 129 167 213 260 313
#     4  11  24  40  58  81 108 138 176 226 280 324
#     4   9  17  30  48  71 101 135 170 214 266 311
#     4   9  18  33  53  77 106 140 178 218 258 309
#     4   7  11  22  41  64  91 124 161 202 250 304
#     4  11  22  37  55  76 105 145 189 223 260 318
#
# _framework density 21.730433999999999
#
# number of rings (size 3 to 8) (size 9 to 14) (size 15 to 20)
#    0.000    2.714    1.429    3.000    0.000    2.571 
#    0.000    0.714    0.000    8.571    0.000    0.000 
#    0.000    0.000    0.000    0.000    0.000    0.000 
#
# Total GULP energy -312275.112892 kJ/mol
# GULP energy per Si atom -5576.341302 kJ/mol
# Density = 2.168097 g / cm^3
# Si number density = 21.730434 Si / 1000 Ang^3
#
#
#
# Elastic Constant Matrix: (Units=GPa)
#
#
# Indices 1 2 3 4 5 6 
#
# 1 65.5677 0.7323 -14.8758 0.0000 0.0000 0.0000
# 2 0.7323 37.0634 -3.4303 0.0000 0.0000 0.0000
# 3 -14.8758 -3.4303 73.8385 0.0000 0.0000 0.0000
# 4 0.0000 0.0000 0.0000 21.6982 0.0000 0.0000
# 5 0.0000 0.0000 0.0000 0.0000 8.8075 0.0000
# 6 0.0000 0.0000 0.0000 0.0000 0.0000 7.3219
#
#
#
# Elastic Compliance Matrix: (Units=1/GPa)
#
#
# Indices 1 2 3 4 5 6 
#
# 1 0.015982 -0.000018 0.003219 0.000000 0.000000 0.000000
# 2 -0.000018 0.027097 0.001255 0.000000 0.000000 0.000000
# 3 0.003219 0.001255 0.014250 0.000000 0.000000 0.000000
# 4 0.000000 0.000000 0.000000 0.046087 0.000000 0.000000
# 5 0.000000 0.000000 0.000000 0.000000 0.113540 0.000000
# 6 0.000000 0.000000 0.000000 0.000000 0.000000 0.136576
#
#
# Mechanical properties :
#
#
# Convention : Reuss Voigt Hill
#
# Bulk Modulus (GPa) = 15.09618 15.70243 15.39930
# Shear Modulus (GPa) = 13.63512 20.50174 17.06843
#
# Velocity S-wave (km/s) = 2.50765 3.07491 2.80565
# Velocity P-wave (km/s) = 3.91746 4.45516 4.19493
#
# Compressibility (1/GPa) = 0.06624193
#
# Stress axis : x y z
#
# Youngs Moduli (GPa) = 62.57069 36.90397 70.17595
#
# Poissons Ratio (x) = 0.00066 -0.22589
# Poissons Ratio (y) = 0.00112 -0.08809
# Poissons Ratio (z) = -0.20141 -0.04632
#
# Static dielectric constant tensor:
#      x y z
#    x 1.798850 0.000000 0.000000 
#    y 0.000000 1.836710 0.000000 
#    z 0.000000 0.000000 1.782920 
# 
# From -- ./inp_files/33443.got.cif
#   From: 2010.05.17/outbox.cif.g08.bks.cpg/sg51_17_cif.got.tgz:33443.got - 2010.06.03 11:52:47.
