data_PCOD9399518
_publ_section_title
;
Structure prediction by ZEFSAII (Michael W. Deem and Ramdas Pophale) SiO2 
 PCOD9399518
Probable space group: P M M A
;
_chemical_formula_sum "Si O2"
_cell_formula_units_Z 32
_cell_length_a 16.533795
_cell_length_b 7.463971
_cell_length_c 11.878026
_cell_angle_alpha 90.000000
_cell_angle_beta 90.000000
_cell_angle_gamma 90.000000
_cell_volume 1465.840658
_symmetry_space_group_name_H-M "P M M A"
_symmetry_group_IT_number 51
_symmetry_cell_setting 'orthorhombic'
loop_
_space_group_symop_operation_xyz
x,y,z
1/2-x,-y,z
1/2+x,-y,-z
-x,y,-z
-x,-y,-z
1/2+x,y,-z
1/2-x,y,z
x,-y,z
loop_
_atom_site_type_symbol
_atom_site_label
_atom_site_fract_x
_atom_site_fract_y
_atom_site_fract_z
Si Si1 0.572296 0.790370 0.081287
Si Si2 0.567060 0.782344 0.335504
Si Si3 0.250000 0.781773 0.265675
Si Si4 0.250000 0.702516 0.006252
Si Si5 0.610040 0.217479 0.570328
O O1 0.576176 0.714753 0.208505
O O2 0.663276 0.780939 0.031999
O O3 0.551383 0.000000 0.094766
O O4 0.500000 0.717242 0.000000
O O5 0.477740 0.738889 0.380707
O O6 0.621878 0.721766 0.441219
O O7 0.575080 0.000000 0.330984
O O8 0.174036 0.722603 0.338782
O O9 0.250000 0.000000 0.257199
O O10 0.250000 0.710450 0.140656
O O11 0.250000 0.500000 0.964272
O O12 0.614118 0.000000 0.567018
#
# Coordination Sequence:
#
# PCOD9399518 Si02
#       5
#     8   8   4   4   8
#     4  10  20  36  60  86 111 143 184 228 270 316
#     4   8  14  26  46  76 109 133 161 210 271 322
#     4  10  18  31  52  74  96 129 179 228 267 312
#     4  12  26  39  52  76 112 151 187 224 271 328
#     4   8  14  25  46  77 106 129 160 213 274 322
#
# _framework density 21.830476999999998
#
# number of rings (size 3 to 8) (size 9 to 14) (size 15 to 20)
#    0.000    2.750    0.000    4.125    0.000    5.500 
#    0.000    3.750    0.000    3.000    0.000    5.250 
#    0.000    0.000    0.000    0.000    0.000    0.000 
#
# Total GULP energy -178335.678576 kJ/mol
# GULP energy per Si atom -5572.989956 kJ/mol
# Density = 2.178079 g / cm^3
# Si number density = 21.830477 Si / 1000 Ang^3
#
#
#
# Elastic Constant Matrix: (Units=GPa)
#
#
# Indices 1 2 3 4 5 6 
#
# 1 78.5812 -15.0489 76.5581 0.0000 0.0000 0.0000
# 2 -15.0489 58.4039 -6.6835 0.0000 0.0000 0.0000
# 3 76.5581 -6.6835 242.1694 0.0000 0.0000 0.0000
# 4 0.0000 0.0000 0.0000 -45.8821 0.0000 0.0000
# 5 0.0000 0.0000 0.0000 0.0000 26.6937 0.0000
# 6 0.0000 0.0000 0.0000 0.0000 0.0000 189.1074
#
#
#
# Elastic Compliance Matrix: (Units=1/GPa)
#
#
# Indices 1 2 3 4 5 6 
#
# 1 0.019416 0.004314 -0.006019 0.000000 0.000000 0.000000
# 2 0.004314 0.018135 -0.000863 0.000000 0.000000 0.000000
# 3 -0.006019 -0.000863 0.006008 0.000000 0.000000 0.000000
# 4 0.000000 0.000000 0.000000 -0.021795 0.000000 0.000000
# 5 0.000000 0.000000 0.000000 0.000000 0.037462 0.000000
# 6 0.000000 0.000000 0.000000 0.000000 0.000000 0.005288
#
#
# Mechanical properties :
#
#
# Convention : Reuss Voigt Hill
#
# Bulk Modulus (GPa) = 26.02628 54.31177 40.16902
# Shear Modulus (GPa) = 60.63678 55.60571 58.12124
#
# Velocity S-wave (km/s) = 5.27603 5.05241 5.16543
# Velocity P-wave (km/s) = 7.00451 7.67911 7.34956
#
# Compressibility (1/GPa) = 0.03842271
#
# Stress axis : x y z
#
# Youngs Moduli (GPa) = 51.50425 55.14213 166.43596
#
# Poissons Ratio (x) = -0.23789 1.00177
# Poissons Ratio (y) = -0.22219 0.14369
# Poissons Ratio (z) = 0.31000 0.04761
#
# Static dielectric constant tensor:
#      x y z
#    x 1.803970 0.000000 0.000000 
#    y 0.000000 1.839470 0.000000 
#    z 0.000000 0.000000 1.797470 
# 
# From -- ./inp_files/15917.got.cif
#   From: 2010.05.17/outbox.cif.g08.bks.cpg/sg51_8_cif.got.tgz:15917.got - 2010.06.03 11:52:47.
