data_PCOD9399586
_publ_section_title
;
Structure prediction by ZEFSAII (Michael W. Deem and Ramdas Pophale) SiO2 
 PCOD9399586
Probable space group: P M M A
;
_chemical_formula_sum "Si O2"
_cell_formula_units_Z 44
_cell_length_a 7.481305
_cell_length_b 8.107146
_cell_length_c 33.764131
_cell_angle_alpha 90.000000
_cell_angle_beta 90.000000
_cell_angle_gamma 90.000000
_cell_volume 2047.863151
_symmetry_space_group_name_H-M "P M M A"
_symmetry_group_IT_number 51
_symmetry_cell_setting 'orthorhombic'
loop_
_space_group_symop_operation_xyz
x,y,z
1/2-x,-y,z
1/2+x,-y,-z
-x,y,-z
-x,-y,-z
1/2+x,y,-z
1/2-x,y,z
x,-y,z
loop_
_atom_site_type_symbol
_atom_site_label
_atom_site_fract_x
_atom_site_fract_y
_atom_site_fract_z
Si Si1 0.539503 0.680163 0.591539
Si Si2 0.964523 0.000000 0.546446
Si Si3 0.534112 0.809390 0.322152
Si Si4 0.535872 0.000000 0.186904
Si Si5 0.468470 0.315901 0.763716
Si Si6 0.035986 0.000000 0.093973
Si Si7 0.964213 0.315566 0.953688
O O1 0.750000 0.673036 0.582151
O O2 0.462189 0.500000 0.582625
O O3 0.463904 0.835237 0.567535
O O4 0.523160 0.718107 0.638130
O O5 0.000000 0.000000 0.500000
O O6 0.750000 0.000000 0.552525
O O7 0.750000 0.810479 0.321898
O O8 0.476831 0.724390 0.281355
O O9 0.473991 0.000000 0.323158
O O10 0.470242 0.833564 0.208362
O O11 0.497626 0.000000 0.140550
O O12 0.750000 0.000000 0.192114
O O13 0.250000 0.315408 0.764296
O O14 0.525888 0.500000 0.775332
O O15 0.966309 0.166096 0.072998
O O16 0.250000 0.000000 0.087968
O O17 0.750000 0.321406 0.948729
O O18 0.033354 0.500000 0.944413
O O19 0.000000 0.282722 0.000000
#
# Coordination Sequence:
#
# PCOD9399586 Si02
#       7
#     8   4   8   4   8   4   8
#     4  10  21  37  56  79 108 140 171 207 258 312
#     4  10  22  39  56  76 104 138 174 213 254 301
#     4  10  18  31  55  83 108 135 170 213 261 309
#     4  10  20  34  50  71  97 132 178 214 242 290
#     4   9  17  31  51  74 102 133 166 211 259 294
#     4  10  21  35  50  71 102 136 165 201 253 299
#     4   9  18  33  53  76 101 128 160 201 250 302
#
# _framework density 21.485810000000001
#
# number of rings (size 3 to 8) (size 9 to 14) (size 15 to 20)
#    0.000    2.364    1.818    0.818    0.000    3.636 
#    0.000    0.909    0.000    1.091    0.000    0.000 
#    0.000    0.000    0.000    0.000    0.000    0.000 
#
# Total GULP energy -245789.208974 kJ/mol
# GULP energy per Si atom -5586.118386 kJ/mol
# Density = 2.143691 g / cm^3
# Si number density = 21.485810 Si / 1000 Ang^3
#
#
#
# Elastic Constant Matrix: (Units=GPa)
#
#
# Indices 1 2 3 4 5 6 
#
# 1 61.2567 12.1941 -8.5259 0.0000 0.0000 0.0000
# 2 12.1941 254.8276 127.8053 0.0000 0.0000 0.0000
# 3 -8.5259 127.8053 152.2044 0.0000 0.0000 0.0000
# 4 0.0000 0.0000 0.0000 -2.5099 0.0000 0.0000
# 5 0.0000 0.0000 0.0000 0.0000 16.8152 0.0000
# 6 0.0000 0.0000 0.0000 0.0000 0.0000 -7.2038
#
#
#
# Elastic Compliance Matrix: (Units=1/GPa)
#
#
# Indices 1 2 3 4 5 6 
#
# 1 0.017170 -0.002253 0.002853 0.000000 0.000000 0.000000
# 2 -0.002253 0.007075 -0.006067 0.000000 0.000000 0.000000
# 3 0.002853 -0.006067 0.011824 0.000000 0.000000 0.000000
# 4 0.000000 0.000000 0.000000 -0.398424 0.000000 0.000000
# 5 0.000000 0.000000 0.000000 0.000000 0.059470 0.000000
# 6 0.000000 0.000000 0.000000 0.000000 0.000000 -0.138815
#
#
# Mechanical properties :
#
#
# Convention : Reuss Voigt Hill
#
# Bulk Modulus (GPa) = 39.78192 81.24842 60.51517
# Shear Modulus (GPa) = -11.83745 23.87463 6.01859
#
# Velocity S-wave (km/s) = -2.34976 3.33705 1.67549
# Velocity P-wave (km/s) = 3.34571 7.26257 5.65414
#
# Compressibility (1/GPa) = 0.02513705
#
# Stress axis : x y z
#
# Youngs Moduli (GPa) = 58.23997 141.34768 84.57206
#
# Poissons Ratio (x) = 0.31842 -0.24132
# Poissons Ratio (y) = 0.13120 0.51308
# Poissons Ratio (z) = -0.16618 0.85753
#
# Static dielectric constant tensor:
#      x y z
#    x 1.817090 0.000000 0.000000 
#    y 0.000000 1.799160 0.000000 
#    z 0.000000 0.000000 1.703360 
# 
# From -- ./inp_files/36842.got.cif
#   From: 2010.05.17/outbox.cif.g08.bks.cpg/sg51_19_cif.got.tgz:36842.got - 2010.06.03 11:52:47.
