data_PCOD9399022
_publ_section_title
;
Structure prediction by ZEFSAII (Michael W. Deem and Ramdas Pophale) SiO2 
 PCOD9399022
Probable space group: P M M A
;
_chemical_formula_sum "Si O2"
_cell_formula_units_Z 64
_cell_length_a 30.772833
_cell_length_b 8.658623
_cell_length_c 15.310682
_cell_angle_alpha 90.000000
_cell_angle_beta 90.000000
_cell_angle_gamma 90.000000
_cell_volume 4079.536724
_symmetry_space_group_name_H-M "P M M A"
_symmetry_group_IT_number 51
_symmetry_cell_setting 'orthorhombic'
loop_
_space_group_symop_operation_xyz
x,y,z
1/2-x,-y,z
1/2+x,-y,-z
-x,y,-z
-x,-y,-z
1/2+x,y,-z
1/2-x,y,z
x,-y,z
loop_
_atom_site_type_symbol
_atom_site_label
_atom_site_fract_x
_atom_site_fract_y
_atom_site_fract_z
Si Si1 0.538770 0.315078 0.175900
Si Si2 0.701700 0.186011 0.995382
Si Si3 0.106931 0.185382 0.959471
Si Si4 0.436175 0.185349 0.449147
Si Si5 0.201491 0.685591 0.199832
Si Si6 0.441352 0.313234 0.130389
Si Si7 0.970208 0.813330 0.368687
Si Si8 0.616055 0.685572 0.702816
O O1 0.540304 0.500000 0.172377
O O2 0.577914 0.247013 0.119630
O O3 0.491914 0.266991 0.135435
O O4 0.539940 0.260415 0.275982
O O5 0.750000 0.240563 0.024721
O O6 0.696684 0.237676 0.894820
O O7 0.702275 0.000000 0.998951
O O8 0.657478 0.238026 0.042886
O O9 0.106368 0.000000 0.959305
O O10 0.084436 0.243860 0.048815
O O11 0.481303 0.230044 0.401036
O O12 0.439446 0.233927 0.550229
O O13 0.397974 0.249555 0.390022
O O14 0.434915 0.000000 0.448954
O O15 0.250000 0.719431 0.232472
O O16 0.197772 0.500000 0.187804
O O17 0.163331 0.735400 0.263967
O O18 0.439369 0.500000 0.123553
O O19 0.417855 0.267649 0.220921
O O20 0.968849 0.000000 0.360817
O O21 0.615053 0.500000 0.698511
#
# Coordination Sequence:
#
# PCOD9399022 Si02
#       8
#     8   8   8   8   8   8   8   8
#     4  11  22  34  48  66  94 130 162 196 235 273
#     4   9  18  32  48  67  91 118 152 195 239 279
#     4  11  22  33  48  69  92 125 163 196 233 279
#     4   9  18  31  49  70  93 121 152 189 233 275
#     4   9  17  29  46  67  92 123 156 191 231 274
#     4  10  20  33  45  65  97 130 162 194 226 267
#     4   9  18  33  49  68  93 120 154 195 232 271
#     4  10  18  29  46  69  97 126 158 191 228 276
#
# _framework density 15.688056
#
# number of rings (size 3 to 8) (size 9 to 14) (size 15 to 20)
#    0.000    2.250    2.500    1.875    0.000    4.500 
#    0.000    1.250    0.000    0.000    0.000    0.875 
#    0.000    1.000    0.000    0.000    0.000    0.000 
#
# Total GULP energy -356815.057330 kJ/mol
# GULP energy per Si atom -5575.235271 kJ/mol
# Density = 1.565235 g / cm^3
# Si number density = 15.688056 Si / 1000 Ang^3
#
#
#
# Elastic Constant Matrix: (Units=GPa)
#
#
# Indices 1 2 3 4 5 6 
#
# 1 139.6703 25.5205 56.5564 0.0000 0.0000 0.0000
# 2 25.5205 10.5080 17.8920 0.0000 0.0000 0.0000
# 3 56.5564 17.8920 78.6793 0.0000 0.0000 0.0000
# 4 0.0000 0.0000 0.0000 31.0316 0.0000 0.0000
# 5 0.0000 0.0000 0.0000 0.0000 23.4985 0.0000
# 6 0.0000 0.0000 0.0000 0.0000 0.0000 16.7939
#
#
#
# Elastic Compliance Matrix: (Units=1/GPa)
#
#
# Indices 1 2 3 4 5 6 
#
# 1 0.013490 -0.026521 -0.003666 0.000000 0.000000 0.000000
# 2 -0.026521 0.207437 -0.028108 0.000000 0.000000 0.000000
# 3 -0.003666 -0.028108 0.021737 0.000000 0.000000 0.000000
# 4 0.000000 0.000000 0.000000 0.032225 0.000000 0.000000
# 5 0.000000 0.000000 0.000000 0.000000 0.042556 0.000000
# 6 0.000000 0.000000 0.000000 0.000000 0.000000 0.059545
#
#
# Mechanical properties :
#
#
# Convention : Reuss Voigt Hill
#
# Bulk Modulus (GPa) = 7.93186 47.64392 27.78789
# Shear Modulus (GPa) = 9.33522 22.85737 16.09630
#
# Velocity S-wave (km/s) = 2.44202 3.82120 3.20663
# Velocity P-wave (km/s) = 3.60808 7.06429 5.60903
#
# Compressibility (1/GPa) = 0.12607387
#
# Stress axis : x y z
#
# Youngs Moduli (GPa) = 74.12864 4.82073 46.00467
#
# Poissons Ratio (x) = 0.12785 0.16865
# Poissons Ratio (y) = 1.96597 1.29311
# Poissons Ratio (z) = 0.27175 0.13550
#
# Static dielectric constant tensor:
#      x y z
#    x 1.547920 0.000000 0.000000 
#    y 0.000000 1.533110 0.000000 
#    z 0.000000 0.000000 1.494590 
# 
# From -- ./inp_files/26624.got.cif
#   From: 2010.05.17/outbox.cif.g08.bks.cpg/sg51_14_cif.got.tgz:26624.got - 2010.06.03 11:52:47.
