data_PCOD9399472
_publ_section_title
;
Structure prediction by ZEFSAII (Michael W. Deem and Ramdas Pophale) SiO2 
 PCOD9399472
Probable space group: P M M A
;
_chemical_formula_sum "Si O2"
_cell_formula_units_Z 48
_cell_length_a 24.163913
_cell_length_b 8.626956
_cell_length_c 14.252113
_cell_angle_alpha 90.000000
_cell_angle_beta 90.000000
_cell_angle_gamma 90.000000
_cell_volume 2971.009931
_symmetry_space_group_name_H-M "P M M A"
_symmetry_group_IT_number 51
_symmetry_cell_setting 'orthorhombic'
loop_
_space_group_symop_operation_xyz
x,y,z
1/2-x,-y,z
1/2+x,-y,-z
-x,y,-z
-x,-y,-z
1/2+x,y,-z
1/2-x,y,z
x,-y,z
loop_
_atom_site_type_symbol
_atom_site_label
_atom_site_fract_x
_atom_site_fract_y
_atom_site_fract_z
Si Si1 0.976954 0.813299 0.640980
Si Si2 0.813889 0.315205 0.152754
Si Si3 0.587728 0.187412 0.035667
Si Si4 0.916830 0.684450 0.465136
Si Si5 0.023117 0.188263 0.145429
Si Si6 0.185788 0.185233 0.641352
O O1 0.036565 0.757385 0.603232
O O2 0.932386 0.746136 0.568303
O O3 0.968566 0.760715 0.748051
O O4 0.975516 0.000000 0.637159
O O5 0.750000 0.275299 0.130995
O O6 0.817760 0.500000 0.163769
O O7 0.856133 0.258317 0.074212
O O8 0.827979 0.236982 0.252472
O O9 0.536923 0.232917 0.104422
O O10 0.591597 0.000000 0.037386
O O11 0.568694 0.236041 0.931354
O O12 0.922105 0.500000 0.462996
O O13 0.857101 0.736651 0.429088
O O14 0.023505 0.000000 0.145887
O O15 0.250000 0.228842 0.624378
O O16 0.180984 0.000000 0.634632
#
# Coordination Sequence:
#
# PCOD9399472 Si02
#       6
#     8   8   8   8   8   8
#     4  10  18  31  50  71  97 130 166 198 232 277
#     4  10  20  32  46  69 100 128 154 189 233 278
#     4   9  16  30  50  71  95 123 157 193 233 278
#     4  11  21  32  47  71 101 128 156 194 242 288
#     4   8  16  29  48  72  95 121 155 198 236 269
#     4  10  20  34  52  72  93 122 160 197 235 283
#
# _framework density 16.156122
#
# number of rings (size 3 to 8) (size 9 to 14) (size 15 to 20)
#    0.000    2.333    0.000    6.000    0.000    3.333 
#    0.000    4.167    0.000    1.000    0.000    2.333 
#    0.000    0.000    0.000    0.000    0.000    0.000 
#
# Total GULP energy -267776.071708 kJ/mol
# GULP energy per Si atom -5578.668161 kJ/mol
# Density = 1.611935 g / cm^3
# Si number density = 16.156122 Si / 1000 Ang^3
#
#
#
# Elastic Constant Matrix: (Units=GPa)
#
#
# Indices 1 2 3 4 5 6 
#
# 1 83.4289 28.1215 69.0139 0.0000 0.0000 0.0000
# 2 28.1215 47.4236 27.4809 0.0000 0.0000 0.0000
# 3 69.0139 27.4809 141.6065 0.0000 0.0000 0.0000
# 4 0.0000 0.0000 0.0000 -2.2904 0.0000 0.0000
# 5 0.0000 0.0000 0.0000 0.0000 23.6624 0.0000
# 6 0.0000 0.0000 0.0000 0.0000 0.0000 20.2063
#
#
#
# Elastic Compliance Matrix: (Units=1/GPa)
#
#
# Indices 1 2 3 4 5 6 
#
# 1 0.022401 -0.007839 -0.009396 0.000000 0.000000 0.000000
# 2 -0.007839 0.026501 -0.001323 0.000000 0.000000 0.000000
# 3 -0.009396 -0.001323 0.011898 0.000000 0.000000 0.000000
# 4 0.000000 0.000000 0.000000 -0.436600 0.000000 0.000000
# 5 0.000000 0.000000 0.000000 0.000000 0.042261 0.000000
# 6 0.000000 0.000000 0.000000 0.000000 0.000000 0.049490
#
#
# Mechanical properties :
#
#
# Convention : Reuss Voigt Hill
#
# Bulk Modulus (GPa) = 42.22072 57.96572 50.09322
# Shear Modulus (GPa) = -20.91715 18.17183 -1.37266
#
# Velocity S-wave (km/s) = -3.60208 3.35739 -0.92275
# Velocity P-wave (km/s) = 2.98156 7.14043 5.47154
#
# Compressibility (1/GPa) = 0.02368505
#
# Stress axis : x y z
#
# Youngs Moduli (GPa) = 44.64034 37.73414 84.04805
#
# Poissons Ratio (x) = 0.29578 0.78975
# Poissons Ratio (y) = 0.34992 0.11117
# Poissons Ratio (z) = 0.41946 0.04991
#
# Static dielectric constant tensor:
#      x y z
#    x 1.527340 0.000000 0.000000 
#    y 0.000000 1.540830 0.000000 
#    z 0.000000 0.000000 1.535730 
# 
# From -- ./inp_files/26028.got.cif
#   From: 2010.05.17/outbox.cif.g08.bks.cpg/sg51_14_cif.got.tgz:26028.got - 2010.06.03 11:52:47.
