data_PCOD9399749
_publ_section_title
;
Structure prediction by ZEFSAII (Michael W. Deem and Ramdas Pophale) SiO2 
 PCOD9399749
Probable space group: P M M A
;
_chemical_formula_sum "Si O2"
_cell_formula_units_Z 28
_cell_length_a 8.887472
_cell_length_b 9.727912
_cell_length_c 19.911154
_cell_angle_alpha 90.000000
_cell_angle_beta 90.000000
_cell_angle_gamma 90.000000
_cell_volume 1721.449592
_symmetry_space_group_name_H-M "P M M A"
_symmetry_group_IT_number 51
_symmetry_cell_setting 'orthorhombic'
loop_
_space_group_symop_operation_xyz
x,y,z
1/2-x,-y,z
1/2+x,-y,-z
-x,y,-z
-x,-y,-z
1/2+x,y,-z
1/2-x,y,z
x,-y,z
loop_
_atom_site_type_symbol
_atom_site_label
_atom_site_fract_x
_atom_site_fract_y
_atom_site_fract_z
Si Si1 0.068778 0.840583 0.928330
Si Si2 0.070694 0.000000 0.573466
Si Si3 0.426703 0.846852 0.311177
Si Si4 0.931618 0.659841 0.199160
O O1 0.250000 0.834693 0.932923
O O2 0.020813 0.742733 0.867511
O O3 0.026588 0.000000 0.915148
O O4 0.000000 0.800529 0.000000
O O5 0.000000 0.000000 0.500000
O O6 0.010055 0.128799 0.617818
O O7 0.250000 0.000000 0.570862
O O8 0.250000 0.822566 0.321871
O O9 0.498499 0.734191 0.263634
O O10 0.442850 0.000000 0.278441
O O11 0.750000 0.668745 0.203451
O O12 0.973535 0.500000 0.195326
#
# Coordination Sequence:
#
# PCOD9399749 Si02
#       4
#     8   4   8   8
#     4   9  18  32  49  69  95 130 173 221 269 313
#     4  10  18  32  56  84 111 136 167 210 252 296
#     4   9  19  33  51  78 105 134 172 212 253 303
#     4  10  20  33  50  73 102 138 178 217 261 314
#
# _framework density 16.265360999999999
#
# number of rings (size 3 to 8) (size 9 to 14) (size 15 to 20)
#    0.857    1.714    0.000    2.571    0.000    3.429 
#    0.000    2.857    0.000    0.857    0.000    0.000 
#    0.000    0.000    0.000    0.000    0.000    0.000 
#
# Total GULP energy -155918.083398 kJ/mol
# GULP energy per Si atom -5568.502979 kJ/mol
# Density = 1.622834 g / cm^3
# Si number density = 16.265361 Si / 1000 Ang^3
#
#
#
# Elastic Constant Matrix: (Units=GPa)
#
#
# Indices 1 2 3 4 5 6 
#
# 1 55.2145 50.2605 60.0370 0.0000 0.0000 0.0000
# 2 50.2605 97.6632 89.0589 0.0000 0.0000 0.0000
# 3 60.0370 89.0589 166.8675 0.0000 0.0000 0.0000
# 4 0.0000 0.0000 0.0000 1.9899 0.0000 0.0000
# 5 0.0000 0.0000 0.0000 0.0000 33.0326 0.0000
# 6 0.0000 0.0000 0.0000 0.0000 0.0000 20.1877
#
#
#
# Elastic Compliance Matrix: (Units=1/GPa)
#
#
# Indices 1 2 3 4 5 6 
#
# 1 0.037046 -0.013463 -0.006144 0.000000 0.000000 0.000000
# 2 -0.013463 0.024840 -0.008414 0.000000 0.000000 0.000000
# 3 -0.006144 -0.008414 0.012694 0.000000 0.000000 0.000000
# 4 0.000000 0.000000 0.000000 0.502527 0.000000 0.000000
# 5 0.000000 0.000000 0.000000 0.000000 0.030273 0.000000
# 6 0.000000 0.000000 0.000000 0.000000 0.000000 0.049535
#
#
# Mechanical properties :
#
#
# Convention : Reuss Voigt Hill
#
# Bulk Modulus (GPa) = 53.93784 79.82866 66.88325
# Shear Modulus (GPa) = 6.95279 19.06796 13.01038
#
# Velocity S-wave (km/s) = 2.06975 3.42761 2.83129
# Velocity P-wave (km/s) = 6.24059 8.05296 7.20400
#
# Compressibility (1/GPa) = 0.01853986
#
# Stress axis : x y z
#
# Youngs Moduli (GPa) = 26.99325 40.25765 78.77999
#
# Poissons Ratio (x) = 0.54198 0.48399
# Poissons Ratio (y) = 0.36341 0.66282
# Poissons Ratio (z) = 0.16584 0.33871
#
# Static dielectric constant tensor:
#      x y z
#    x 1.543150 0.000000 0.000000 
#    y 0.000000 1.539440 0.000000 
#    z 0.000000 0.000000 1.523530 
# 
# From -- ./inp_files/26863.got.cif
#   From: 2010.05.17/outbox.cif.g08.bks.cpg/sg51_14_cif.got.tgz:26863.got - 2010.06.03 11:52:47.
