data_PCOD9399539
_publ_section_title
;
Structure prediction by ZEFSAII (Michael W. Deem and Ramdas Pophale) SiO2 
 PCOD9399539
Probable space group: P M M A
;
_chemical_formula_sum "Si O2"
_cell_formula_units_Z 64
_cell_length_a 16.385886
_cell_length_b 14.251972
_cell_length_c 12.804535
_cell_angle_alpha 90.000000
_cell_angle_beta 90.000000
_cell_angle_gamma 90.000000
_cell_volume 2990.258276
_symmetry_space_group_name_H-M "P M M A"
_symmetry_group_IT_number 51
_symmetry_cell_setting 'orthorhombic'
loop_
_space_group_symop_operation_xyz
x,y,z
1/2-x,-y,z
1/2+x,-y,-z
-x,y,-z
-x,-y,-z
1/2+x,y,-z
1/2-x,y,z
x,-y,z
loop_
_atom_site_type_symbol
_atom_site_label
_atom_site_fract_x
_atom_site_fract_y
_atom_site_fract_z
Si Si1 0.655933 0.354674 0.108600
Si Si2 0.658212 0.766372 0.459840
Si Si3 0.410076 0.100332 0.048817
Si Si4 0.091456 0.604211 0.674014
Si Si5 0.339008 0.135100 0.834917
Si Si6 0.151882 0.298665 0.118141
Si Si7 0.967678 0.107307 0.344940
Si Si8 0.074629 0.291383 0.334157
O O1 0.750000 0.388732 0.113409
O O2 0.602192 0.397933 0.200369
O O3 0.656865 0.245466 0.141107
O O4 0.627547 0.354997 0.987629
O O5 0.750000 0.803342 0.460814
O O6 0.649578 0.685003 0.372453
O O7 0.591482 0.846282 0.432750
O O8 0.635045 0.717834 0.568783
O O9 0.381500 0.192547 0.107117
O O10 0.409843 0.000000 0.106416
O O11 0.500000 0.114571 0.000000
O O12 0.351670 0.093733 0.948889
O O13 0.108227 0.500000 0.633629
O O14 0.001914 0.641081 0.643959
O O15 0.250000 0.112401 0.791090
O O16 0.410448 0.106776 0.757721
O O17 0.250000 0.297535 0.118278
O O18 0.116609 0.328763 0.229066
O O19 0.036502 0.185846 0.323965
O O20 0.992839 0.000000 0.367298
#
# Coordination Sequence:
#
# PCOD9399539 Si02
#       8
#     8   8   8   8   8   8   8   8
#     4   9  18  35  59  89 123 155 194 247 305 362
#     4  11  24  42  65  92 122 159 204 255 308 365
#     4  10  20  31  48  79 116 156 205 257 303 351
#     4  11  23  41  68  98 122 149 193 253 319 376
#     4  10  18  31  52  79 115 152 191 246 305 354
#     4  10  22  38  59  84 120 171 210 247 303 363
#     4  11  22  37  59  89 123 164 208 255 308 356
#     4  11  24  42  62  86 126 166 207 251 295 369
#
# _framework density 21.402833999999999
#
# number of rings (size 3 to 8) (size 9 to 14) (size 15 to 20)
#    0.000    1.625    2.500    4.875    1.750    7.000 
#    0.000    1.250    0.000    4.125    0.000    0.000 
#    0.000    0.000    0.000    0.000    0.000    0.000 
#
# Total GULP energy -357323.151905 kJ/mol
# GULP energy per Si atom -5583.174249 kJ/mol
# Density = 2.135412 g / cm^3
# Si number density = 21.402834 Si / 1000 Ang^3
#
#
#
# Elastic Constant Matrix: (Units=GPa)
#
#
# Indices 1 2 3 4 5 6 
#
# 1 60.1848 -2.1411 13.3393 0.0000 0.0000 0.0000
# 2 -2.1411 76.6989 -9.5392 0.0000 0.0000 0.0000
# 3 13.3393 -9.5392 104.4512 0.0000 0.0000 0.0000
# 4 0.0000 0.0000 0.0000 4.3073 0.0000 0.0000
# 5 0.0000 0.0000 0.0000 0.0000 34.3843 0.0000
# 6 0.0000 0.0000 0.0000 0.0000 0.0000 -40.4344
#
#
#
# Elastic Compliance Matrix: (Units=1/GPa)
#
#
# Indices 1 2 3 4 5 6 
#
# 1 0.017103 0.000208 -0.002165 0.000000 0.000000 0.000000
# 2 0.000208 0.013190 0.001178 0.000000 0.000000 0.000000
# 3 -0.002165 0.001178 0.009958 0.000000 0.000000 0.000000
# 4 0.000000 0.000000 0.000000 0.232163 0.000000 0.000000
# 5 0.000000 0.000000 0.000000 0.000000 0.029083 0.000000
# 6 0.000000 0.000000 0.000000 0.000000 0.000000 -0.024731
#
#
# Mechanical properties :
#
#
# Convention : Reuss Voigt Hill
#
# Bulk Modulus (GPa) = 25.84438 27.18365 26.51401
# Shear Modulus (GPa) = 17.16907 15.62982 16.39945
#
# Velocity S-wave (km/s) = 2.83536 2.70528 2.77109
# Velocity P-wave (km/s) = 4.77708 4.74200 4.75957
#
# Compressibility (1/GPa) = 0.03869314
#
# Stress axis : x y z
#
# Youngs Moduli (GPa) = 58.46999 75.81319 100.42229
#
# Poissons Ratio (x) = -0.01578 0.21743
# Poissons Ratio (y) = -0.01217 -0.11830
# Poissons Ratio (z) = 0.12660 -0.08931
#
# Static dielectric constant tensor:
#      x y z
#    x 1.767630 0.000000 0.000000 
#    y 0.000000 1.825540 0.000000 
#    z 0.000000 0.000000 1.829420 
# 
# From -- ./inp_files/17581.got.cif
#   From: 2010.05.17/outbox.cif.g08.bks.cpg/sg51_9_cif.got.tgz:17581.got - 2010.06.03 11:52:47.
