data_PCOD9399196
_publ_section_title
;
Structure prediction by ZEFSAII (Michael W. Deem and Ramdas Pophale) SiO2 
 PCOD9399196
Probable space group: P M M A
;
_chemical_formula_sum "Si O2"
_cell_formula_units_Z 64
_cell_length_a 29.380869
_cell_length_b 8.134605
_cell_length_c 16.179911
_cell_angle_alpha 90.000000
_cell_angle_beta 90.000000
_cell_angle_gamma 90.000000
_cell_volume 3867.027268
_symmetry_space_group_name_H-M "P M M A"
_symmetry_group_IT_number 51
_symmetry_cell_setting 'orthorhombic'
loop_
_space_group_symop_operation_xyz
x,y,z
1/2-x,-y,z
1/2+x,-y,-z
-x,y,-z
-x,-y,-z
1/2+x,y,-z
1/2-x,y,z
x,-y,z
loop_
_atom_site_type_symbol
_atom_site_label
_atom_site_fract_x
_atom_site_fract_y
_atom_site_fract_z
Si Si1 0.641961 0.298575 0.663542
Si Si2 0.197487 0.302260 0.176833
Si Si3 0.953693 0.308072 0.600694
Si Si4 0.197480 0.697784 0.821447
Si Si5 0.142460 0.699017 0.661482
Si Si6 0.947130 0.810253 0.417951
Si Si7 0.802483 0.196133 0.000859
Si Si8 0.302327 0.299325 0.498609
O O1 0.641528 0.500000 0.663181
O O2 0.666744 0.243934 0.747108
O O3 0.589809 0.245786 0.651308
O O4 0.670898 0.246860 0.583368
O O5 0.250000 0.241488 0.184042
O O6 0.199304 0.500000 0.181433
O O7 0.178484 0.255427 0.086689
O O8 0.960628 0.500000 0.618906
O O9 0.941802 0.291122 0.503111
O O10 0.001583 0.218705 0.613050
O O11 0.250000 0.758517 0.814250
O O12 0.199325 0.500000 0.817007
O O13 0.166801 0.756188 0.745311
O O14 0.178468 0.744872 0.911559
O O15 0.142035 0.500000 0.662141
O O16 0.091384 0.759358 0.646487
O O17 0.171797 0.752344 0.581649
O O18 0.941602 0.000000 0.440409
O O19 0.750000 0.258349 0.000881
O O20 0.802135 0.000000 0.000772
O O21 0.250000 0.245343 0.497794
O O22 0.302154 0.500000 0.498480
#
# Coordination Sequence:
#
# PCOD9399196 Si02
#       8
#     8   8   8   8   8   8   8   8
#     4   9  16  26  44  71  94 117 151 190 232 270
#     4   9  16  27  45  69  95 121 152 190 226 265
#     4  10  18  32  51  68  88 117 155 199 239 276
#     4   9  17  29  47  71  95 120 155 197 234 269
#     4  10  18  30  47  69  93 122 156 190 230 274
#     4  11  21  32  46  66  91 121 156 195 236 276
#     4   9  17  29  44  63  90 125 159 190 228 271
#     4   9  15  24  41  66  94 121 152 187 220 261
#
# _framework density 16.550180000000001
#
# number of rings (size 3 to 8) (size 9 to 14) (size 15 to 20)
#    0.000    2.500    1.250    3.375    0.000    5.000 
#    0.000    1.250    0.000    1.125    0.000    0.875 
#    0.000    7.000    0.000    0.000    0.000    0.000 
#
# Total GULP energy -356791.451599 kJ/mol
# GULP energy per Si atom -5574.866431 kJ/mol
# Density = 1.651251 g / cm^3
# Si number density = 16.550180 Si / 1000 Ang^3
#
#
#
# Elastic Constant Matrix: (Units=GPa)
#
#
# Indices 1 2 3 4 5 6 
#
# 1 100.4827 3.9530 68.4983 0.0000 0.0000 0.0000
# 2 3.9530 12.2773 5.1693 0.0000 0.0000 0.0000
# 3 68.4983 5.1693 148.1783 0.0000 0.0000 0.0000
# 4 0.0000 0.0000 0.0000 -9.1227 0.0000 0.0000
# 5 0.0000 0.0000 0.0000 0.0000 10.5797 0.0000
# 6 0.0000 0.0000 0.0000 0.0000 0.0000 1.7047
#
#
#
# Elastic Compliance Matrix: (Units=1/GPa)
#
#
# Indices 1 2 3 4 5 6 
#
# 1 0.014574 -0.001884 -0.006671 0.000000 0.000000 0.000000
# 2 -0.001884 0.082909 -0.002022 0.000000 0.000000 0.000000
# 3 -0.006671 -0.002022 0.009903 0.000000 0.000000 0.000000
# 4 0.000000 0.000000 0.000000 -0.109616 0.000000 0.000000
# 5 0.000000 0.000000 0.000000 0.000000 0.094520 0.000000
# 6 0.000000 0.000000 0.000000 0.000000 0.000000 0.586608
#
#
# Mechanical properties :
#
#
# Convention : Reuss Voigt Hill
#
# Bulk Modulus (GPa) = 11.59650 46.24216 28.91933
# Shear Modulus (GPa) = 6.86064 12.85353 9.85708
#
# Velocity S-wave (km/s) = 2.03822 2.78985 2.44311
# Velocity P-wave (km/s) = 3.54418 6.19507 5.04679
#
# Compressibility (1/GPa) = 0.08623292
#
# Stress axis : x y z
#
# Youngs Moduli (GPa) = 68.61604 12.06142 100.97847
#
# Poissons Ratio (x) = 0.02272 0.67366
# Poissons Ratio (y) = 0.12924 0.20414
# Poissons Ratio (z) = 0.45776 0.02438
#
# Static dielectric constant tensor:
#      x y z
#    x 1.554020 0.000000 0.000000 
#    y 0.000000 1.567650 0.000000 
#    z 0.000000 0.000000 1.557810 
# 
# From -- ./inp_files/26613.got.cif
#   From: 2010.05.17/outbox.cif.g08.bks.cpg/sg51_14_cif.got.tgz:26613.got - 2010.06.03 11:52:47.
