data_PCOD9399078
_publ_section_title
;
Structure prediction by ZEFSAII (Michael W. Deem and Ramdas Pophale) SiO2 
 PCOD9399078
Probable space group: P M M A
;
_chemical_formula_sum "Si O2"
_cell_formula_units_Z 40
_cell_length_a 25.729500
_cell_length_b 8.528679
_cell_length_c 10.544729
_cell_angle_alpha 90.000000
_cell_angle_beta 90.000000
_cell_angle_gamma 90.000000
_cell_volume 2313.921058
_symmetry_space_group_name_H-M "P M M A"
_symmetry_group_IT_number 51
_symmetry_cell_setting 'orthorhombic'
loop_
_space_group_symop_operation_xyz
x,y,z
1/2-x,-y,z
1/2+x,-y,-z
-x,y,-z
-x,-y,-z
1/2+x,y,-z
1/2-x,y,z
x,-y,z
loop_
_atom_site_type_symbol
_atom_site_label
_atom_site_fract_x
_atom_site_fract_y
_atom_site_fract_z
Si Si1 0.026924 0.689100 0.628657
Si Si2 0.750000 0.681032 0.979027
Si Si3 0.750000 0.317554 0.287579
Si Si4 0.137225 0.309689 0.725881
Si Si5 0.639752 0.187248 0.987325
Si Si6 0.467829 0.189006 0.125981
O O1 0.028284 0.500000 0.623930
O O2 0.086456 0.742842 0.649462
O O3 0.000000 0.746909 0.500000
O O4 0.993763 0.738945 0.750466
O O5 0.750000 0.500000 0.941631
O O6 0.803741 0.760551 0.939161
O O7 0.750000 0.686734 0.133490
O O8 0.750000 0.500000 0.327170
O O9 0.806463 0.250422 0.323429
O O10 0.139167 0.500000 0.724955
O O11 0.131480 0.258041 0.872212
O O12 0.591843 0.235767 0.898614
O O13 0.638566 0.000000 0.999923
O O14 0.470307 0.000000 0.136324
O O15 0.500000 0.233858 0.000000
#
# Coordination Sequence:
#
# PCOD9399078 Si02
#       6
#     8   4   4   8   8   8
#     4  10  21  34  49  72 102 136 175 216 258 309
#     4   9  17  29  45  70 103 132 162 200 252 308
#     4   7  12  23  41  64  87 116 154 196 242 294
#     4   9  16  28  46  68  96 128 163 207 259 305
#     4  10  18  29  48  73 101 129 166 211 252 297
#     4  10  20  34  51  74 102 133 170 211 254 304
#
# _framework density 17.286674999999999
#
# number of rings (size 3 to 8) (size 9 to 14) (size 15 to 20)
#    0.000    2.600    2.000    2.100    0.000    2.400 
#    0.000    0.000    0.000    1.200    0.000    2.800 
#    0.000    0.000    0.000    0.000    0.000    0.000 
#
# Total GULP energy -222837.012433 kJ/mol
# GULP energy per Si atom -5570.925311 kJ/mol
# Density = 1.724733 g / cm^3
# Si number density = 17.286675 Si / 1000 Ang^3
#
#
#
# Elastic Constant Matrix: (Units=GPa)
#
#
# Indices 1 2 3 4 5 6 
#
# 1 206.8418 22.3603 66.1633 0.0000 0.0000 0.0000
# 2 22.3603 8.9198 5.1412 0.0000 0.0000 0.0000
# 3 66.1633 5.1412 77.1904 0.0000 0.0000 0.0000
# 4 0.0000 0.0000 0.0000 -23.7137 0.0000 0.0000
# 5 0.0000 0.0000 0.0000 0.0000 17.2406 0.0000
# 6 0.0000 0.0000 0.0000 0.0000 0.0000 18.9237
#
#
#
# Elastic Compliance Matrix: (Units=1/GPa)
#
#
# Indices 1 2 3 4 5 6 
#
# 1 0.008885 -0.018597 -0.006377 0.000000 0.000000 0.000000
# 2 -0.018597 0.155511 0.005583 0.000000 0.000000 0.000000
# 3 -0.006377 0.005583 0.018049 0.000000 0.000000 0.000000
# 4 0.000000 0.000000 0.000000 -0.042170 0.000000 0.000000
# 5 0.000000 0.000000 0.000000 0.000000 0.058003 0.000000
# 6 0.000000 0.000000 0.000000 0.000000 0.000000 0.052844
#
#
# Mechanical properties :
#
#
# Convention : Reuss Voigt Hill
#
# Bulk Modulus (GPa) = 6.96075 53.36462 30.16268
# Shear Modulus (GPa) = 14.80199 15.77593 15.28896
#
# Velocity S-wave (km/s) = 2.92938 3.02421 2.97717
# Velocity P-wave (km/s) = 3.93409 6.56749 5.41336
#
# Compressibility (1/GPa) = 0.14366269
#
# Stress axis : x y z
#
# Youngs Moduli (GPa) = 112.55129 6.43040 55.40437
#
# Poissons Ratio (x) = 0.11959 0.35331
# Poissons Ratio (y) = 2.09312 -0.30930
# Poissons Ratio (z) = 0.71773 -0.03590
#
# Static dielectric constant tensor:
#      x y z
#    x 1.646350 0.000000 0.000000 
#    y 0.000000 1.587250 0.000000 
#    z 0.000000 0.000000 1.540400 
# 
# From -- ./inp_files/12135.got.cif
#   From: 2010.05.17/outbox.cif.g08.bks.cpg/sg51_7_cif.got.tgz:12135.got - 2010.06.03 11:52:47.
