data_PCOD9399803
_publ_section_title
;
Structure prediction by ZEFSAII (Michael W. Deem and Ramdas Pophale) SiO2 
 PCOD9399803
Probable space group: P M M A
;
_chemical_formula_sum "Si O2"
_cell_formula_units_Z 32
_cell_length_a 20.416460
_cell_length_b 8.259393
_cell_length_c 10.364983
_cell_angle_alpha 90.000000
_cell_angle_beta 90.000000
_cell_angle_gamma 90.000000
_cell_volume 1747.821863
_symmetry_space_group_name_H-M "P M M A"
_symmetry_group_IT_number 51
_symmetry_cell_setting 'orthorhombic'
loop_
_space_group_symop_operation_xyz
x,y,z
1/2-x,-y,z
1/2+x,-y,-z
-x,y,-z
-x,-y,-z
1/2+x,y,-z
1/2-x,y,z
x,-y,z
loop_
_atom_site_type_symbol
_atom_site_label
_atom_site_fract_x
_atom_site_fract_y
_atom_site_fract_z
Si Si1 0.175184 0.801984 0.166123
Si Si2 0.427951 0.804255 0.949757
Si Si3 0.047540 0.311871 0.672614
Si Si4 0.407658 0.190166 0.407971
O O1 0.250000 0.750108 0.150017
O O2 0.144287 0.750459 0.302716
O O3 0.174049 0.000000 0.166686
O O4 0.127336 0.750243 0.050537
O O5 0.419338 0.738774 0.805811
O O6 0.427186 0.000000 0.945179
O O7 0.500000 0.754505 0.000000
O O8 0.029953 0.500000 0.675653
O O9 0.090255 0.277408 0.545493
O O10 0.979913 0.213367 0.653950
O O11 0.397148 0.000000 0.430798
#
# Coordination Sequence:
#
# PCOD9399803 Si02
#       4
#     8   8   8   8
#     4   9  18  33  55  81 106 133 174 224 267 311
#     4  10  18  33  55  80 105 137 176 218 264 310
#     4  11  21  32  50  79 110 137 173 217 263 309
#     4  10  18  33  55  78 104 136 175 218 266 311
#
# _framework density 18.308502000000001
#
# number of rings (size 3 to 8) (size 9 to 14) (size 15 to 20)
#    0.000    2.000    2.500    4.500    0.000    0.500 
#    0.000    1.250    0.000   14.250    0.000    0.000 
#    0.000    0.000    0.000    0.000    0.000    0.000 
#
# Total GULP energy -178610.660460 kJ/mol
# GULP energy per Si atom -5581.583139 kJ/mol
# Density = 1.826683 g / cm^3
# Si number density = 18.308502 Si / 1000 Ang^3
#
#
#
# Elastic Constant Matrix: (Units=GPa)
#
#
# Indices 1 2 3 4 5 6 
#
# 1 118.3310 1.4873 79.6567 0.0000 0.0000 0.0000
# 2 1.4873 16.2819 2.4719 0.0000 0.0000 0.0000
# 3 79.6567 2.4719 154.9018 0.0000 0.0000 0.0000
# 4 0.0000 0.0000 0.0000 -40.5885 0.0000 0.0000
# 5 0.0000 0.0000 0.0000 0.0000 26.7847 0.0000
# 6 0.0000 0.0000 0.0000 0.0000 0.0000 -6.5592
#
#
#
# Elastic Compliance Matrix: (Units=1/GPa)
#
#
# Indices 1 2 3 4 5 6 
#
# 1 0.012926 -0.000172 -0.006644 0.000000 0.000000 0.000000
# 2 -0.000172 0.061569 -0.000894 0.000000 0.000000 0.000000
# 3 -0.006644 -0.000894 0.009887 0.000000 0.000000 0.000000
# 4 0.000000 0.000000 0.000000 -0.024637 0.000000 0.000000
# 5 0.000000 0.000000 0.000000 0.000000 0.037335 0.000000
# 6 0.000000 0.000000 0.000000 0.000000 0.000000 -0.152458
#
#
# Mechanical properties :
#
#
# Convention : Reuss Voigt Hill
#
# Bulk Modulus (GPa) = 14.50093 50.74960 32.62526
# Shear Modulus (GPa) = -294.61520 9.65398 -142.48061
#
# Velocity S-wave (km/s) = -12.69907 2.29878 -8.83125
# Velocity P-wave (km/s) = 14.39043 5.90129 9.28061
#
# Compressibility (1/GPa) = 0.06896110
#
# Stress axis : x y z
#
# Youngs Moduli (GPa) = 77.36551 16.24189 101.14649
#
# Poissons Ratio (x) = 0.00279 0.67203
# Poissons Ratio (y) = 0.01331 0.09043
# Poissons Ratio (z) = 0.51403 0.01452
#
# Static dielectric constant tensor:
#      x y z
#    x 1.611000 0.000000 0.000000 
#    y 0.000000 1.615000 0.000000 
#    z 0.000000 0.000000 1.630970 
# 
# From -- ./inp_files/10263.got.cif
#   From: 2010.05.17/outbox.cif.g08.bks.cpg/sg51_6_cif.got.tgz:10263.got - 2010.06.03 11:52:47.
