data_PCOD9399673
_publ_section_title
;
Structure prediction by ZEFSAII (Michael W. Deem and Ramdas Pophale) SiO2 
 PCOD9399673
Probable space group: P M M A
;
_chemical_formula_sum "Si O2"
_cell_formula_units_Z 64
_cell_length_a 20.508979
_cell_length_b 8.480836
_cell_length_c 20.751077
_cell_angle_alpha 90.000000
_cell_angle_beta 90.000000
_cell_angle_gamma 90.000000
_cell_volume 3609.303040
_symmetry_space_group_name_H-M "P M M A"
_symmetry_group_IT_number 51
_symmetry_cell_setting 'orthorhombic'
loop_
_space_group_symop_operation_xyz
x,y,z
1/2-x,-y,z
1/2+x,-y,-z
-x,y,-z
-x,-y,-z
1/2+x,y,-z
1/2-x,y,z
x,-y,z
loop_
_atom_site_type_symbol
_atom_site_label
_atom_site_fract_x
_atom_site_fract_y
_atom_site_fract_z
Si Si1 0.176038 0.190078 0.082792
Si Si2 0.928124 0.809467 0.523974
Si Si3 0.943458 0.688391 0.162697
Si Si4 0.411580 0.188882 0.700992
Si Si5 0.445965 0.311023 0.336792
Si Si6 0.428215 0.809652 0.977038
Si Si7 0.591203 0.310082 0.803153
Si Si8 0.824232 0.192556 0.416861
O O1 0.250000 0.247182 0.074772
O O2 0.145704 0.239429 0.151003
O O3 0.176831 0.000000 0.079833
O O4 0.126884 0.246418 0.026826
O O5 0.917770 0.749755 0.596246
O O6 0.872792 0.756663 0.473911
O O7 0.000000 0.757908 0.500000
O O8 0.928453 0.000000 0.524639
O O9 0.942646 0.500000 0.161336
O O10 0.906934 0.745760 0.226802
O O11 0.917246 0.754575 0.095769
O O12 0.019380 0.739345 0.171204
O O13 0.480949 0.244792 0.672383
O O14 0.355619 0.240245 0.651396
O O15 0.412018 0.000000 0.703575
O O16 0.449852 0.500000 0.337495
O O17 0.406984 0.264026 0.272075
O O18 0.428683 0.000000 0.978079
O O19 0.500000 0.754936 0.000000
O O20 0.594299 0.500000 0.806692
O O21 0.750000 0.245928 0.424764
O O22 0.824048 0.000000 0.417694
#
# Coordination Sequence:
#
# PCOD9399673 Si02
#       8
#     8   8   8   8   8   8   8   8
#     4  10  21  36  54  78 107 136 173 221 266 310
#     4  10  18  32  53  80 106 136 178 220 260 310
#     4  10  20  33  52  80 109 135 171 218 264 308
#     4  10  18  32  54  78 104 136 175 218 264 312
#     4  10  20  33  51  79 109 136 171 217 267 310
#     4  10  19  33  54  80 105 137 177 217 260 309
#     4   9  19  34  51  74 104 137 172 211 258 316
#     4   9  18  33  53  77 106 138 175 219 266 315
#
# _framework density 17.731954000000002
#
# number of rings (size 3 to 8) (size 9 to 14) (size 15 to 20)
#    0.000    2.250    2.500    1.875    0.000    3.750 
#    0.000    1.250    0.000    9.375    0.000    0.000 
#    0.000    0.000    0.000    0.000    0.000    0.000 
#
# Total GULP energy -357049.189464 kJ/mol
# GULP energy per Si atom -5578.893585 kJ/mol
# Density = 1.769160 g / cm^3
# Si number density = 17.731954 Si / 1000 Ang^3
#
#
#
# Elastic Constant Matrix: (Units=GPa)
#
#
# Indices 1 2 3 4 5 6 
#
# 1 132.7769 19.9775 90.5719 0.0000 0.0000 0.0000
# 2 19.9775 9.0051 14.9547 0.0000 0.0000 0.0000
# 3 90.5719 14.9547 162.8030 0.0000 0.0000 0.0000
# 4 0.0000 0.0000 0.0000 -12.1423 0.0000 0.0000
# 5 0.0000 0.0000 0.0000 0.0000 24.5363 0.0000
# 6 0.0000 0.0000 0.0000 0.0000 0.0000 5.4496
#
#
#
# Elastic Compliance Matrix: (Units=1/GPa)
#
#
# Indices 1 2 3 4 5 6 
#
# 1 0.015484 -0.023654 -0.006442 0.000000 0.000000 0.000000
# 2 -0.023654 0.167172 -0.002197 0.000000 0.000000 0.000000
# 3 -0.006442 -0.002197 0.009928 0.000000 0.000000 0.000000
# 4 0.000000 0.000000 0.000000 -0.082357 0.000000 0.000000
# 5 0.000000 0.000000 0.000000 0.000000 0.040756 0.000000
# 6 0.000000 0.000000 0.000000 0.000000 0.000000 0.183500
#
#
# Mechanical properties :
#
#
# Convention : Reuss Voigt Hill
#
# Bulk Modulus (GPa) = 7.81250 61.73255 34.77253
# Shear Modulus (GPa) = 11.31899 15.50744 13.41322
#
# Velocity S-wave (km/s) = 2.52928 2.96048 2.75333
# Velocity P-wave (km/s) = 3.59793 6.82465 5.45532
#
# Compressibility (1/GPa) = 0.12799992
#
# Stress axis : x y z
#
# Youngs Moduli (GPa) = 64.58073 5.98185 100.72694
#
# Poissons Ratio (x) = 0.14150 0.64885
# Poissons Ratio (y) = 1.52761 0.22125
# Poissons Ratio (z) = 0.41601 0.01314
#
# Static dielectric constant tensor:
#      x y z
#    x 1.594550 0.000000 0.000000 
#    y 0.000000 1.602050 0.000000 
#    z 0.000000 0.000000 1.602590 
# 
# From -- ./inp_files/34124.got.cif
#   From: 2010.05.17/outbox.cif.g08.bks.cpg/sg51_18_cif.got.tgz:34124.got - 2010.06.03 11:52:47.
