data_PCOD9399693
_publ_section_title
;
Structure prediction by ZEFSAII (Michael W. Deem and Ramdas Pophale) SiO2 
 PCOD9399693
Probable space group: P M M A
;
_chemical_formula_sum "Si O2"
_cell_formula_units_Z 64
_cell_length_a 15.033004
_cell_length_b 8.030140
_cell_length_c 25.514086
_cell_angle_alpha 90.000000
_cell_angle_beta 90.000000
_cell_angle_gamma 90.000000
_cell_volume 3079.987153
_symmetry_space_group_name_H-M "P M M A"
_symmetry_group_IT_number 51
_symmetry_cell_setting 'orthorhombic'
loop_
_space_group_symop_operation_xyz
x,y,z
1/2-x,-y,z
1/2+x,-y,-z
-x,y,-z
-x,-y,-z
1/2+x,y,-z
1/2-x,y,z
x,-y,z
loop_
_atom_site_type_symbol
_atom_site_label
_atom_site_fract_x
_atom_site_fract_y
_atom_site_fract_z
Si Si1 0.958085 0.301276 0.119588
Si Si2 0.348843 0.804812 0.099542
Si Si3 0.471239 0.699348 0.680149
Si Si4 0.601392 0.304623 0.520201
Si Si5 0.650775 0.195959 0.636220
Si Si6 0.154124 0.297439 0.590012
Si Si7 0.646962 0.295664 0.221992
Si Si8 0.352374 0.698599 0.980119
O O1 0.945474 0.500000 0.117648
O O2 0.898762 0.239702 0.167904
O O3 0.919580 0.237648 0.064119
O O4 0.062810 0.268691 0.125490
O O5 0.250000 0.735150 0.112706
O O6 0.347575 0.000000 0.111127
O O7 0.360350 0.779786 0.036973
O O8 0.460896 0.500000 0.679700
O O9 0.575019 0.735235 0.674495
O O10 0.423397 0.764605 0.627400
O O11 0.416161 0.760015 0.730215
O O12 0.500000 0.295235 0.500000
O O13 0.623191 0.500000 0.527427
O O14 0.621495 0.224361 0.575790
O O15 0.651703 0.235291 0.469426
O O16 0.750000 0.267148 0.643277
O O17 0.654598 0.000000 0.645092
O O18 0.250000 0.263176 0.614520
O O19 0.145163 0.500000 0.585938
O O20 0.750000 0.244144 0.226856
O O21 0.647200 0.500000 0.222163
O O22 0.250000 0.719832 0.961827
O O23 0.367066 0.500000 0.988029
#
# Coordination Sequence:
#
# PCOD9399693 Si02
#       8
#     8   8   8   8   8   8   8   8
#     4  10  19  32  53  81 110 141 176 216 267 324
#     4  10  21  35  50  72 105 145 187 227 266 308
#     4  10  19  35  58  81 104 134 176 220 263 311
#     4  10  18  32  54  81 109 138 174 215 258 310
#     4  11  24  39  54  75 107 146 183 220 266 315
#     4   9  16  27  48  78 107 133 164 205 254 307
#     4   9  18  34  59  89 114 134 165 216 271 320
#     4   9  17  30  50  77 110 145 178 214 262 323
#
# _framework density 20.779306999999999
#
# number of rings (size 3 to 8) (size 9 to 14) (size 15 to 20)
#    0.000    2.250    1.250    2.250    0.000    7.500 
#    0.000    1.250    0.000    7.125    0.000    0.000 
#    0.000    0.000    0.000    0.000    0.000    0.000 
#
# Total GULP energy -357065.712091 kJ/mol
# GULP energy per Si atom -5579.151751 kJ/mol
# Density = 2.073201 g / cm^3
# Si number density = 20.779307 Si / 1000 Ang^3
#
#
#
# Elastic Constant Matrix: (Units=GPa)
#
#
# Indices 1 2 3 4 5 6 
#
# 1 134.0407 -2.2350 49.6139 0.0000 0.0000 0.0000
# 2 -2.2350 8.0029 0.8136 0.0000 0.0000 0.0000
# 3 49.6139 0.8136 58.8191 0.0000 0.0000 0.0000
# 4 0.0000 0.0000 0.0000 -891.3445 0.0000 0.0000
# 5 0.0000 0.0000 0.0000 0.0000 32.0044 0.0000
# 6 0.0000 0.0000 0.0000 0.0000 0.0000 -61.4868
#
#
#
# Elastic Compliance Matrix: (Units=1/GPa)
#
#
# Indices 1 2 3 4 5 6 
#
# 1 0.010974 0.004011 -0.009312 0.000000 0.000000 0.000000
# 2 0.004011 0.126597 -0.005135 0.000000 0.000000 0.000000
# 3 -0.009312 -0.005135 0.024927 0.000000 0.000000 0.000000
# 4 0.000000 0.000000 0.000000 -0.001122 0.000000 0.000000
# 5 0.000000 0.000000 0.000000 0.000000 0.031246 0.000000
# 6 0.000000 0.000000 0.000000 0.000000 0.000000 -0.016264
#
#
# Mechanical properties :
#
#
# Convention : Reuss Voigt Hill
#
# Bulk Modulus (GPa) = 7.06077 33.02753 20.04415
# Shear Modulus (GPa) = 20.45501 -173.98739 -76.76619
#
# Velocity S-wave (km/s) = 3.14091 -9.16040 -6.08472
# Velocity P-wave (km/s) = 4.06929 9.79566 6.30063
#
# Compressibility (1/GPa) = 0.14162768
#
# Stress axis : x y z
#
# Youngs Moduli (GPa) = 91.12351 7.89906 40.11699
#
# Poissons Ratio (x) = -0.03169 0.37358
# Poissons Ratio (y) = -0.36554 0.20599
# Poissons Ratio (z) = 0.84856 0.04056
#
# Static dielectric constant tensor:
#      x y z
#    x 1.810580 0.000000 0.000000 
#    y 0.000000 1.748680 0.000000 
#    z 0.000000 0.000000 1.733890 
# 
# From -- ./inp_files/35729.got.cif
#   From: 2010.05.17/outbox.cif.g08.bks.cpg/sg51_18_cif.got.tgz:35729.got - 2010.06.03 11:52:47.
