data_PCOD9399909
_publ_section_title
;
Structure prediction by ZEFSAII (Michael W. Deem and Ramdas Pophale) SiO2 
 PCOD9399909
Probable space group: P M M A
;
_chemical_formula_sum "Si O2"
_cell_formula_units_Z 64
_cell_length_a 31.834981
_cell_length_b 8.437077
_cell_length_c 12.253805
_cell_angle_alpha 90.000000
_cell_angle_beta 90.000000
_cell_angle_gamma 90.000000
_cell_volume 3291.300779
_symmetry_space_group_name_H-M "P M M A"
_symmetry_group_IT_number 51
_symmetry_cell_setting 'orthorhombic'
loop_
_space_group_symop_operation_xyz
x,y,z
1/2-x,-y,z
1/2+x,-y,-z
-x,y,-z
-x,-y,-z
1/2+x,y,-z
1/2-x,y,z
x,-y,z
loop_
_atom_site_type_symbol
_atom_site_label
_atom_site_fract_x
_atom_site_fract_y
_atom_site_fract_z
Si Si1 0.123134 0.189791 0.619835
Si Si2 0.704144 0.190097 0.513939
Si Si3 0.452181 0.812429 0.011688
Si Si4 0.952932 0.308380 0.526788
Si Si5 0.796318 0.693369 0.991962
Si Si6 0.419059 0.311122 0.238264
Si Si7 0.123720 0.310485 0.866383
Si Si8 0.180963 0.311623 0.250710
O O1 0.164420 0.251044 0.554973
O O2 0.081598 0.249500 0.558475
O O3 0.123924 0.243048 0.744831
O O4 0.123336 0.000000 0.615296
O O5 0.750000 0.249841 0.477294
O O6 0.698338 0.230964 0.641103
O O7 0.704143 0.000000 0.503075
O O8 0.436942 0.777533 0.133972
O O9 0.452066 0.000000 0.990291
O O10 0.500000 0.753210 0.000000
O O11 0.418702 0.734636 0.930157
O O12 0.952248 0.500000 0.524560
O O13 0.939784 0.258783 0.648515
O O14 0.000000 0.254851 0.500000
O O15 0.750000 0.740423 0.032348
O O16 0.797900 0.500000 0.990843
O O17 0.835679 0.747275 0.064422
O O18 0.801510 0.743869 0.865863
O O19 0.426396 0.500000 0.223595
O O20 0.369147 0.288557 0.246926
O O21 0.126187 0.500000 0.860539
O O22 0.189433 0.500000 0.259654
#
# Coordination Sequence:
#
# PCOD9399909 Si02
#       8
#     8   8   8   8   8   8   8   8
#     4  11  24  41  60  85 119 159 199 245 299 351
#     4  10  22  39  58  84 120 160 199 239 291 354
#     4  11  25  42  61  89 123 158 198 243 294 353
#     4  10  22  40  62  90 120 155 199 245 293 350
#     4   9  18  34  57  86 117 148 187 239 297 350
#     4  10  20  37  62  91 121 154 197 244 294 351
#     4  11  23  41  63  86 116 156 200 248 297 348
#     4  10  18  34  60  89 119 150 191 243 296 347
#
# _framework density 19.445198999999999
#
# number of rings (size 3 to 8) (size 9 to 14) (size 15 to 20)
#    0.000    1.750    2.500    1.500    1.750    4.000 
#    0.000    0.000    0.000    1.875    0.000    0.000 
#    0.000    0.000    0.000    0.000    0.000    0.000 
#
# Total GULP energy -357530.177857 kJ/mol
# GULP energy per Si atom -5586.409029 kJ/mol
# Density = 1.940094 g / cm^3
# Si number density = 19.445199 Si / 1000 Ang^3
#
#
#
# Elastic Constant Matrix: (Units=GPa)
#
#
# Indices 1 2 3 4 5 6 
#
# 1 157.5446 19.3082 74.8423 0.0000 0.0000 0.0000
# 2 19.3082 6.2162 7.0099 0.0000 0.0000 0.0000
# 3 74.8423 7.0099 136.4114 0.0000 0.0000 0.0000
# 4 0.0000 0.0000 0.0000 40.9640 0.0000 0.0000
# 5 0.0000 0.0000 0.0000 0.0000 44.2807 0.0000
# 6 0.0000 0.0000 0.0000 0.0000 0.0000 2.2830
#
#
#
# Elastic Compliance Matrix: (Units=1/GPa)
#
#
# Indices 1 2 3 4 5 6 
#
# 1 0.013218 -0.034900 -0.005458 0.000000 0.000000 0.000000
# 2 -0.034900 0.262915 0.005637 0.000000 0.000000 0.000000
# 3 -0.005458 0.005637 0.010036 0.000000 0.000000 0.000000
# 4 0.000000 0.000000 0.000000 0.024412 0.000000 0.000000
# 5 0.000000 0.000000 0.000000 0.000000 0.022583 0.000000
# 6 0.000000 0.000000 0.000000 0.000000 0.000000 0.438012
#
#
# Mechanical properties :
#
#
# Convention : Reuss Voigt Hill
#
# Bulk Modulus (GPa) = 4.61411 55.83255 30.22333
# Shear Modulus (GPa) = 5.47729 30.77301 18.12515
#
# Velocity S-wave (km/s) = 1.68015 3.98244 3.05637
# Velocity P-wave (km/s) = 2.47828 7.06552 5.29450
#
# Compressibility (1/GPa) = 0.21672654
#
# Stress axis : x y z
#
# Youngs Moduli (GPa) = 75.65593 3.80351 99.64242
#
# Poissons Ratio (x) = 0.13274 0.54390
# Poissons Ratio (y) = 2.64040 -0.56172
# Poissons Ratio (z) = 0.41297 -0.02144
#
# Static dielectric constant tensor:
#      x y z
#    x 1.688080 0.000000 0.000000 
#    y 0.000000 1.675610 0.000000 
#    z 0.000000 0.000000 1.638980 
# 
# From -- ./inp_files/19654.got.cif
#   From: 2010.05.17/outbox.cif.g08.bks.cpg/sg51_10_cif.got.tgz:19654.got - 2010.06.03 11:52:47.
