data_PCOD9399505
_publ_section_title
;
Structure prediction by ZEFSAII (Michael W. Deem and Ramdas Pophale) SiO2 
 PCOD9399505
Probable space group: P M M A
;
_chemical_formula_sum "Si O2"
_cell_formula_units_Z 40
_cell_length_a 8.622354
_cell_length_b 26.559937
_cell_length_c 9.863133
_cell_angle_alpha 90.000000
_cell_angle_beta 90.000000
_cell_angle_gamma 90.000000
_cell_volume 2258.747991
_symmetry_space_group_name_H-M "P M M A"
_symmetry_group_IT_number 51
_symmetry_cell_setting 'orthorhombic'
loop_
_space_group_symop_operation_xyz
x,y,z
1/2-x,-y,z
1/2+x,-y,-z
-x,y,-z
-x,-y,-z
1/2+x,y,-z
1/2-x,y,z
x,-y,z
loop_
_atom_site_type_symbol
_atom_site_label
_atom_site_fract_x
_atom_site_fract_y
_atom_site_fract_z
Si Si1 0.565108 0.143071 0.652773
Si Si2 0.564676 0.751929 0.345945
Si Si3 0.937066 0.556974 0.849791
Si Si4 0.063379 0.353101 0.347144
Si Si5 0.564244 0.058385 0.150841
O O1 0.500000 0.137239 0.500000
O O2 0.750000 0.146398 0.646278
O O3 0.498092 0.195589 0.712157
O O4 0.511148 0.096678 0.743913
O O5 0.500000 0.751914 0.500000
O O6 0.750000 0.751856 0.347481
O O7 0.501094 0.699534 0.287676
O O8 0.750000 0.557602 0.854573
O O9 0.986064 0.500000 0.811747
O O10 0.985769 0.599560 0.743806
O O11 0.000000 0.567307 0.000000
O O12 0.250000 0.350422 0.352341
O O13 0.000000 0.358684 0.500000
O O14 0.750000 0.064304 0.151505
O O15 0.528323 0.000000 0.184537
O O16 0.500000 0.067895 0.000000
#
# Coordination Sequence:
#
# PCOD9399505 Si02
#       5
#     8   8   8   8   8
#     4  11  21  35  56  81 109 140 177 219 263 310
#     4  10  18  31  51  75 104 136 171 210 259 311
#     4   9  19  35  53  73 100 134 170 209 254 304
#     4  10  19  32  51  76 104 133 169 210 254 304
#     4  10  21  38  58  80 108 142 178 216 262 314
#
# _framework density 17.708925000000001
#
# number of rings (size 3 to 8) (size 9 to 14) (size 15 to 20)
#    0.000    2.000    0.000    7.200    0.000    3.600 
#    0.000    1.000    0.000    2.400    0.000    0.000 
#    0.000    0.000    0.000    0.000    0.000    0.000 
#
# Total GULP energy -223201.188170 kJ/mol
# GULP energy per Si atom -5580.029704 kJ/mol
# Density = 1.766862 g / cm^3
# Si number density = 17.708925 Si / 1000 Ang^3
#
#
#
# Elastic Constant Matrix: (Units=GPa)
#
#
# Indices 1 2 3 4 5 6 
#
# 1 113.0203 70.4859 37.9888 0.0000 0.0000 0.0000
# 2 70.4859 177.4766 90.3773 0.0000 0.0000 0.0000
# 3 37.9888 90.3773 68.1281 0.0000 0.0000 0.0000
# 4 0.0000 0.0000 0.0000 -33.3793 0.0000 0.0000
# 5 0.0000 0.0000 0.0000 0.0000 27.1627 0.0000
# 6 0.0000 0.0000 0.0000 0.0000 0.0000 12.7677
#
#
#
# Elastic Compliance Matrix: (Units=1/GPa)
#
#
# Indices 1 2 3 4 5 6 
#
# 1 0.011789 -0.004113 -0.001117 0.000000 0.000000 0.000000
# 2 -0.004113 0.018801 -0.022648 0.000000 0.000000 0.000000
# 3 -0.001117 -0.022648 0.045345 0.000000 0.000000 0.000000
# 4 0.000000 0.000000 0.000000 -0.029959 0.000000 0.000000
# 5 0.000000 0.000000 0.000000 0.000000 0.036815 0.000000
# 6 0.000000 0.000000 0.000000 0.000000 0.000000 0.078323
#
#
# Mechanical properties :
#
#
# Convention : Reuss Voigt Hill
#
# Bulk Modulus (GPa) = 49.55640 84.03657 66.79649
# Shear Modulus (GPa) = 22.36180 11.96173 17.16177
#
# Velocity S-wave (km/s) = 3.55736 2.60179 3.11642
# Velocity P-wave (km/s) = 6.70207 7.52217 7.12393
#
# Compressibility (1/GPa) = 0.02017903
#
# Stress axis : x y z
#
# Youngs Moduli (GPa) = 84.82789 53.18880 22.05317
#
# Poissons Ratio (x) = 0.21876 0.02464
# Poissons Ratio (y) = 0.34889 0.49945
# Poissons Ratio (z) = 0.09477 1.20459
#
# Static dielectric constant tensor:
#      x y z
#    x 1.594460 0.000000 0.000000 
#    y 0.000000 1.641530 0.000000 
#    z 0.000000 0.000000 1.579930 
# 
# From -- ./inp_files/14241.got.cif
#   From: 2010.05.17/outbox.cif.g08.bks.cpg/sg51_8_cif.got.tgz:14241.got - 2010.06.03 11:52:47.
