data_PCOD9399870
_publ_section_title
;
Structure prediction by ZEFSAII (Michael W. Deem and Ramdas Pophale) SiO2 
 PCOD9399870
Probable space group: P M M A
;
_chemical_formula_sum "Si O2"
_cell_formula_units_Z 30
_cell_length_a 14.520793
_cell_length_b 11.878437
_cell_length_c 9.205898
_cell_angle_alpha 90.000000
_cell_angle_beta 90.000000
_cell_angle_gamma 90.000000
_cell_volume 1587.873101
_symmetry_space_group_name_H-M "P M M A"
_symmetry_group_IT_number 51
_symmetry_cell_setting 'orthorhombic'
loop_
_space_group_symop_operation_xyz
x,y,z
1/2-x,-y,z
1/2+x,-y,-z
-x,y,-z
-x,-y,-z
1/2+x,y,-z
1/2-x,y,z
x,-y,z
loop_
_atom_site_type_symbol
_atom_site_label
_atom_site_fract_x
_atom_site_fract_y
_atom_site_fract_z
Si Si1 0.750000 0.369961 0.158100
Si Si2 0.750000 0.500000 0.723644
Si Si3 0.094737 0.873456 0.585338
Si Si4 0.750000 0.702957 0.493507
Si Si5 0.944803 0.724527 0.144385
Si Si6 0.041394 0.500000 0.164967
O O1 0.750000 0.500000 0.124899
O O2 0.750000 0.354122 0.333257
O O3 0.656852 0.316293 0.099679
O O4 0.750000 0.609914 0.618722
O O5 0.651593 0.500000 0.809825
O O6 0.162455 0.785501 0.507726
O O7 0.071311 0.824389 0.743593
O O8 0.000000 0.877478 0.500000
O O9 0.133500 0.000000 0.593470
O O10 0.996529 0.617323 0.220827
O O11 0.000000 0.755453 0.000000
O O12 0.000000 0.500000 0.000000
#
# Coordination Sequence:
#
# PCOD9399870 Si02
#       6
#     4   2   8   4   8   4
#     4  10  18  34  55  81 116 150 190 237 296 340
#     4  12  22  36  60  88 118 158 194 244 300 362
#     4  10  21  38  60  83 114 152 195 250 299 341
#     4  10  21  36  58  88 114 147 195 247 298 360
#     4  10  21  36  56  84 116 158 196 238 289 362
#     4  10  22  35  52  83 121 158 195 240 295 356
#
# _framework density 18.893198999999999
#
# number of rings (size 3 to 8) (size 9 to 14) (size 15 to 20)
#    0.000    1.867    2.000    2.000    0.000    4.800 
#    0.000    5.333    0.000    0.000    0.000    0.000 
#    0.000    0.000    0.000    0.000    0.000    0.000 
#
# Total GULP energy -167377.206131 kJ/mol
# GULP energy per Si atom -5579.240204 kJ/mol
# Density = 1.885020 g / cm^3
# Si number density = 18.893199 Si / 1000 Ang^3
#
#
#
# Elastic Constant Matrix: (Units=GPa)
#
#
# Indices 1 2 3 4 5 6 
#
# 1 166.6054 51.1525 51.4952 0.0000 0.0000 0.0000
# 2 51.1525 127.7250 49.0966 0.0000 0.0000 0.0000
# 3 51.4952 49.0966 63.2588 0.0000 0.0000 0.0000
# 4 0.0000 0.0000 0.0000 23.8549 0.0000 0.0000
# 5 0.0000 0.0000 0.0000 0.0000 29.8457 0.0000
# 6 0.0000 0.0000 0.0000 0.0000 0.0000 25.5868
#
#
#
# Elastic Compliance Matrix: (Units=1/GPa)
#
#
# Indices 1 2 3 4 5 6 
#
# 1 0.008111 -0.001012 -0.005817 0.000000 0.000000 0.000000
# 2 -0.001012 0.011285 -0.007934 0.000000 0.000000 0.000000
# 3 -0.005817 -0.007934 0.026701 0.000000 0.000000 0.000000
# 4 0.000000 0.000000 0.000000 0.041920 0.000000 0.000000
# 5 0.000000 0.000000 0.000000 0.000000 0.033506 0.000000
# 6 0.000000 0.000000 0.000000 0.000000 0.000000 0.039083
#
#
# Mechanical properties :
#
#
# Convention : Reuss Voigt Hill
#
# Bulk Modulus (GPa) = 60.35050 73.45309 66.90180
# Shear Modulus (GPa) = 25.55516 29.58048 27.56782
#
# Velocity S-wave (km/s) = 3.68178 3.96115 3.82401
# Velocity P-wave (km/s) = 7.07717 7.73843 7.41518
#
# Compressibility (1/GPa) = 0.01656987
#
# Stress axis : x y z
#
# Youngs Moduli (GPa) = 123.29016 88.61645 37.45154
#
# Poissons Ratio (x) = 0.08971 0.21785
# Poissons Ratio (y) = 0.12481 0.29715
# Poissons Ratio (z) = 0.71717 0.70310
#
# Static dielectric constant tensor:
#      x y z
#    x 1.657810 0.000000 0.000000 
#    y 0.000000 1.678130 0.000000 
#    z 0.000000 0.000000 1.666340 
# 
# From -- ./inp_files/7530.got.cif
#   From: 2010.05.17/outbox.cif.g08.bks.cpg/sg51_4_cif.got.tgz:7530.got - 2010.06.03 11:52:47.
