data_PCOD9399852
_publ_section_title
;
Structure prediction by ZEFSAII (Michael W. Deem and Ramdas Pophale) SiO2 
 PCOD9399852
Probable space group: P M M A
;
_chemical_formula_sum "Si O2"
_cell_formula_units_Z 64
_cell_length_a 32.018573
_cell_length_b 7.684215
_cell_length_c 12.165056
_cell_angle_alpha 90.000000
_cell_angle_beta 90.000000
_cell_angle_gamma 90.000000
_cell_volume 2993.061169
_symmetry_space_group_name_H-M "P M M A"
_symmetry_group_IT_number 51
_symmetry_cell_setting 'orthorhombic'
loop_
_space_group_symop_operation_xyz
x,y,z
1/2-x,-y,z
1/2+x,-y,-z
-x,y,-z
-x,-y,-z
1/2+x,y,-z
1/2-x,y,z
x,-y,z
loop_
_atom_site_type_symbol
_atom_site_label
_atom_site_fract_x
_atom_site_fract_y
_atom_site_fract_z
Si Si1 0.376139 0.295628 0.888274
Si Si2 0.575786 0.204038 0.510567
Si Si3 0.040324 0.788692 0.260798
Si Si4 0.670844 0.787400 0.494743
Si Si5 0.622941 0.202990 0.860574
Si Si6 0.296878 0.211008 0.743112
Si Si7 0.703816 0.787069 0.731600
Si Si8 0.948418 0.702966 0.270682
O O1 0.384133 0.500000 0.904001
O O2 0.332404 0.271529 0.826250
O O3 0.412795 0.223205 0.809518
O O4 0.375551 0.215646 0.008842
O O5 0.550095 0.272470 0.614401
O O6 0.622909 0.274835 0.502289
O O7 0.554205 0.219609 0.392813
O O8 0.580950 0.000000 0.534579
O O9 0.079464 0.727083 0.187956
O O10 0.994905 0.725221 0.225285
O O11 0.038045 0.000000 0.257703
O O12 0.691251 0.731161 0.380391
O O13 0.694925 0.737579 0.605197
O O14 0.670592 0.000000 0.492189
O O15 0.664990 0.275888 0.805016
O O16 0.622556 0.000000 0.828259
O O17 0.250000 0.267549 0.771251
O O18 0.297497 0.000000 0.743738
O O19 0.750000 0.728945 0.766275
O O20 0.704128 0.000000 0.735708
O O21 0.939074 0.500000 0.284844
#
# Coordination Sequence:
#
# PCOD9399852 Si02
#       8
#     8   8   8   8   8   8   8   8
#     4  11  25  42  57  77 110 154 195 234 283 332
#     4  10  18  33  59  87 116 147 179 223 282 342
#     4  10  21  37  59  87 115 145 183 231 290 343
#     4   9  15  28  54  87 119 145 172 217 276 333
#     4  10  21  38  59  84 112 145 190 239 282 332
#     4  10  20  35  60  91 116 144 186 231 275 329
#     4   9  16  29  54  88 120 144 172 220 279 333
#     4  11  24  39  56  81 113 150 192 233 279 337
#
# _framework density 21.382791000000001
#
# number of rings (size 3 to 8) (size 9 to 14) (size 15 to 20)
#    0.000    2.000    2.500    1.500    0.000    6.750 
#    0.000    3.750    0.000    0.750    0.000    0.000 
#    0.000    0.000    0.000    0.000    0.000    0.000 
#
# Total GULP energy -357507.601616 kJ/mol
# GULP energy per Si atom -5586.056275 kJ/mol
# Density = 2.133412 g / cm^3
# Si number density = 21.382791 Si / 1000 Ang^3
#
#
#
# Elastic Constant Matrix: (Units=GPa)
#
#
# Indices 1 2 3 4 5 6 
#
# 1 176.2350 -13.2156 58.7686 0.0000 0.0000 0.0000
# 2 -13.2156 29.7748 -16.3576 0.0000 0.0000 0.0000
# 3 58.7686 -16.3576 111.4457 0.0000 0.0000 0.0000
# 4 0.0000 0.0000 0.0000-1865.8567 0.0000 0.0000
# 5 0.0000 0.0000 0.0000 0.0000 2.7641 0.0000
# 6 0.0000 0.0000 0.0000 0.0000 0.0000 -6.8028
#
#
#
# Elastic Compliance Matrix: (Units=1/GPa)
#
#
# Indices 1 2 3 4 5 6 
#
# 1 0.006922 0.001161 -0.003480 0.000000 0.000000 0.000000
# 2 0.001161 0.036726 0.004779 0.000000 0.000000 0.000000
# 3 -0.003480 0.004779 0.011509 0.000000 0.000000 0.000000
# 4 0.000000 0.000000 0.000000 -0.000536 0.000000 0.000000
# 5 0.000000 0.000000 0.000000 0.000000 0.361777 0.000000
# 6 0.000000 0.000000 0.000000 0.000000 0.000000 -0.146998
#
#
# Mechanical properties :
#
#
# Convention : Reuss Voigt Hill
#
# Bulk Modulus (GPa) = 16.64575 41.76069 29.20322
# Shear Modulus (GPa) = 17.57435 -354.76173 -168.59369
#
# Velocity S-wave (km/s) = 2.86998 -12.89458 -8.88913
# Velocity P-wave (km/s) = 4.33404 14.21693 9.57437
#
# Compressibility (1/GPa) = 0.06007541
#
# Stress axis : x y z
#
# Youngs Moduli (GPa) = 144.47503 27.22886 86.88654
#
# Poissons Ratio (x) = -0.03160 0.30233
# Poissons Ratio (y) = -0.16767 -0.41519
# Poissons Ratio (z) = 0.50272 -0.13011
#
# Static dielectric constant tensor:
#      x y z
#    x 1.776570 0.000000 0.000000 
#    y 0.000000 1.837490 0.000000 
#    z 0.000000 0.000000 1.729000 
# 
# From -- ./inp_files/19611.got.cif
#   From: 2010.05.17/outbox.cif.g08.bks.cpg/sg51_10_cif.got.tgz:19611.got - 2010.06.03 11:52:47.
