data_PCOD9399837
_publ_section_title
;
Structure prediction by ZEFSAII (Michael W. Deem and Ramdas Pophale) SiO2 
 PCOD9399837
Probable space group: P M M A
;
_chemical_formula_sum "Si O2"
_cell_formula_units_Z 64
_cell_length_a 24.328904
_cell_length_b 7.959596
_cell_length_c 15.967848
_cell_angle_alpha 90.000000
_cell_angle_beta 90.000000
_cell_angle_gamma 90.000000
_cell_volume 3092.145773
_symmetry_space_group_name_H-M "P M M A"
_symmetry_group_IT_number 51
_symmetry_cell_setting 'orthorhombic'
loop_
_space_group_symop_operation_xyz
x,y,z
1/2-x,-y,z
1/2+x,-y,-z
-x,y,-z
-x,-y,-z
1/2+x,y,-z
1/2-x,y,z
x,-y,z
loop_
_atom_site_type_symbol
_atom_site_label
_atom_site_fract_x
_atom_site_fract_y
_atom_site_fract_z
Si Si1 0.110927 0.199284 0.088338
Si Si2 0.626793 0.193725 0.595685
Si Si3 0.122145 0.204821 0.904338
Si Si4 0.312862 0.205673 0.741829
Si Si5 0.687878 0.697142 0.760745
Si Si6 0.002740 0.204223 0.835151
Si Si7 0.008314 0.694762 0.357555
Si Si8 0.611396 0.203725 0.413121
O O1 0.151795 0.224573 0.165400
O O2 0.050771 0.264716 0.114490
O O3 0.103573 0.000000 0.076847
O O4 0.132096 0.264909 0.998985
O O5 0.658206 0.279947 0.671738
O O6 0.561514 0.203902 0.612888
O O7 0.635165 0.262555 0.502144
O O8 0.644258 0.000000 0.596967
O O9 0.162758 0.262471 0.830991
O O10 0.059963 0.249809 0.878450
O O11 0.125531 0.000000 0.903445
O O12 0.250000 0.258437 0.730124
O O13 0.352566 0.259695 0.666180
O O14 0.313635 0.000000 0.741528
O O15 0.750000 0.764777 0.758305
O O16 0.690180 0.500000 0.778621
O O17 0.000217 0.271468 0.740957
O O18 0.001181 0.000000 0.830086
O O19 0.020769 0.500000 0.371836
O O20 0.951543 0.741125 0.402391
O O21 0.611584 0.000000 0.414071
#
# Coordination Sequence:
#
# PCOD9399837 Si02
#       8
#     8   8   8   8   8   8   8   8
#     4  10  20  34  59  90 115 149 194 241 288 339
#     4  11  23  39  62  88 113 147 193 246 294 340
#     4   9  17  31  55  88 121 150 186 236 290 340
#     4   9  17  31  54  84 115 146 185 236 286 331
#     4  11  25  43  60  81 116 160 198 238 291 346
#     4  10  18  33  57  84 118 153 189 237 290 343
#     4  12  23  35  57  87 120 154 188 230 286 355
#     4  10  21  38  60  86 116 150 191 238 290 346
#
# _framework density 20.697599
#
# number of rings (size 3 to 8) (size 9 to 14) (size 15 to 20)
#    0.000    1.750    2.500    2.625    0.000    6.000 
#    0.000    3.125    0.000    1.875    0.000    0.000 
#    0.000    0.000    0.000    0.000    0.000    0.000 
#
# Total GULP energy -357572.031513 kJ/mol
# GULP energy per Si atom -5587.062992 kJ/mol
# Density = 2.065049 g / cm^3
# Si number density = 20.697599 Si / 1000 Ang^3
#
#
#
# Elastic Constant Matrix: (Units=GPa)
#
#
# Indices 1 2 3 4 5 6 
#
# 1 83.4518 -12.7046 9.0872 0.0000 0.0000 0.0000
# 2 -12.7046 16.8518 -8.4467 0.0000 0.0000 0.0000
# 3 9.0872 -8.4467 113.1694 0.0000 0.0000 0.0000
# 4 0.0000 0.0000 0.0000 -78.7501 0.0000 0.0000
# 5 0.0000 0.0000 0.0000 0.0000 2.1871 0.0000
# 6 0.0000 0.0000 0.0000 0.0000 0.0000 -13.6228
#
#
#
# Elastic Compliance Matrix: (Units=1/GPa)
#
#
# Indices 1 2 3 4 5 6 
#
# 1 0.013549 0.010045 -0.000338 0.000000 0.000000 0.000000
# 2 0.010045 0.069094 0.004350 0.000000 0.000000 0.000000
# 3 -0.000338 0.004350 0.009188 0.000000 0.000000 0.000000
# 4 0.000000 0.000000 0.000000 -0.012698 0.000000 0.000000
# 5 0.000000 0.000000 0.000000 0.000000 0.457229 0.000000
# 6 0.000000 0.000000 0.000000 0.000000 0.000000 -0.073406
#
#
# Mechanical properties :
#
#
# Convention : Reuss Voigt Hill
#
# Bulk Modulus (GPa) = 8.33707 21.03832 14.68769
# Shear Modulus (GPa) = 10.53024 -3.00135 3.76444
#
# Velocity S-wave (km/s) = 2.25803 -1.20551 1.35009
# Velocity P-wave (km/s) = 3.29167 2.87211 3.08902
#
# Compressibility (1/GPa) = 0.11994621
#
# Stress axis : x y z
#
# Youngs Moduli (GPa) = 73.80597 14.47297 108.83557
#
# Poissons Ratio (x) = -0.14538 0.03681
# Poissons Ratio (y) = -0.74139 -0.47348
# Poissons Ratio (z) = 0.02496 -0.06296
#
# Static dielectric constant tensor:
#      x y z
#    x 1.710310 0.000000 0.000000 
#    y 0.000000 1.741520 0.000000 
#    z 0.000000 0.000000 1.737150 
# 
# From -- ./inp_files/26286.got.cif
#   From: 2010.05.17/outbox.cif.g08.bks.cpg/sg51_14_cif.got.tgz:26286.got - 2010.06.03 11:52:47.
