data_PCOD9399363
_publ_section_title
;
Structure prediction by ZEFSAII (Michael W. Deem and Ramdas Pophale) SiO2 
 PCOD9399363
Probable space group: P M M A
;
_chemical_formula_sum "Si O2"
_cell_formula_units_Z 28
_cell_length_a 8.554402
_cell_length_b 18.671103
_cell_length_c 9.562063
_cell_angle_alpha 90.000000
_cell_angle_beta 90.000000
_cell_angle_gamma 90.000000
_cell_volume 1527.253858
_symmetry_space_group_name_H-M "P M M A"
_symmetry_group_IT_number 51
_symmetry_cell_setting 'orthorhombic'
loop_
_space_group_symop_operation_xyz
x,y,z
1/2-x,-y,z
1/2+x,-y,-z
-x,y,-z
-x,-y,-z
1/2+x,y,-z
1/2-x,y,z
x,-y,z
loop_
_atom_site_type_symbol
_atom_site_label
_atom_site_fract_x
_atom_site_fract_y
_atom_site_fract_z
Si Si1 0.563618 0.500000 0.159330
Si Si2 0.061211 0.213554 0.343252
Si Si3 0.437678 0.650154 0.158485
Si Si4 0.061158 0.918665 0.155385
O O1 0.750000 0.500000 0.158201
O O2 0.500844 0.574844 0.218709
O O3 0.500000 0.500000 0.000000
O O4 0.250000 0.212865 0.346115
O O5 0.013347 0.282659 0.252506
O O6 0.008001 0.141383 0.264248
O O7 0.000000 0.217078 0.500000
O O8 0.250000 0.646878 0.152443
O O9 0.500000 0.658802 0.000000
O O10 0.250000 0.917431 0.151504
O O11 0.011796 0.000000 0.191120
O O12 0.000000 0.902325 0.000000
#
# Coordination Sequence:
#
# PCOD9399363 Si02
#       4
#     4   8   8   8
#     4  10  18  30  51  78 103 130 166 208 256 304
#     4  10  22  36  51  74 105 139 173 210 252 301
#     4  10  19  33  53  77 103 132 169 212 256 301
#     4   9  18  34  55  79 105 133 169 212 255 300
#
# _framework density 18.333559999999999
#
# number of rings (size 3 to 8) (size 9 to 14) (size 15 to 20)
#    0.000    2.286    0.000    4.714    0.000    4.000 
#    0.000    0.714    0.000    0.000    0.000    0.000 
#    0.000    0.000    0.000    0.000    0.000    0.000 
#
# Total GULP energy -156239.083931 kJ/mol
# GULP energy per Si atom -5579.967283 kJ/mol
# Density = 1.829183 g / cm^3
# Si number density = 18.333560 Si / 1000 Ang^3
#
#
#
# Elastic Constant Matrix: (Units=GPa)
#
#
# Indices 1 2 3 4 5 6 
#
# 1 40.7033 39.0306 24.4165 0.0000 0.0000 0.0000
# 2 39.0306 186.8857 112.0794 0.0000 0.0000 0.0000
# 3 24.4165 112.0794 113.3531 0.0000 0.0000 0.0000
# 4 0.0000 0.0000 0.0000 -2.2216 0.0000 0.0000
# 5 0.0000 0.0000 0.0000 0.0000 29.8133 0.0000
# 6 0.0000 0.0000 0.0000 0.0000 0.0000 16.9534
#
#
#
# Elastic Compliance Matrix: (Units=1/GPa)
#
#
# Indices 1 2 3 4 5 6 
#
# 1 0.030741 -0.006017 -0.000672 0.000000 0.000000 0.000000
# 2 -0.006017 0.014324 -0.012867 0.000000 0.000000 0.000000
# 3 -0.000672 -0.012867 0.021689 0.000000 0.000000 0.000000
# 4 0.000000 0.000000 0.000000 -0.450130 0.000000 0.000000
# 5 0.000000 0.000000 0.000000 0.000000 0.033542 0.000000
# 6 0.000000 0.000000 0.000000 0.000000 0.000000 0.058985
#
#
# Mechanical properties :
#
#
# Convention : Reuss Voigt Hill
#
# Bulk Modulus (GPa) = 36.17726 76.88838 56.53282
# Shear Modulus (GPa) = -20.61674 19.93674 -0.34000
#
# Velocity S-wave (km/s) = -3.35705 3.30122 -0.43111
# Velocity P-wave (km/s) = 2.17929 7.52066 5.53668
#
# Compressibility (1/GPa) = 0.02764167
#
# Stress axis : x y z
#
# Youngs Moduli (GPa) = 32.52982 69.81167 46.10536
#
# Poissons Ratio (x) = 0.42006 0.03100
# Poissons Ratio (y) = 0.19573 0.59325
# Poissons Ratio (z) = 0.02187 0.89828
#
# Static dielectric constant tensor:
#      x y z
#    x 1.621770 0.000000 0.000000 
#    y 0.000000 1.670670 0.000000 
#    z 0.000000 0.000000 1.572240 
# 
# From -- ./inp_files/4648.got.cif
#   From: 2010.05.17/outbox.cif.g08.bks.cpg/sg51_3_cif.got.tgz:4648.got - 2010.06.03 11:52:47.
