data_PCOD9399976
_publ_section_title
;
Structure prediction by ZEFSAII (Michael W. Deem and Ramdas Pophale) SiO2 
 PCOD9399976
Probable space group: P M M A
;
_chemical_formula_sum "Si O2"
_cell_formula_units_Z 56
_cell_length_a 9.280140
_cell_length_b 13.794618
_cell_length_c 29.895997
_cell_angle_alpha 90.000000
_cell_angle_beta 90.000000
_cell_angle_gamma 90.000000
_cell_volume 3827.165542
_symmetry_space_group_name_H-M "P M M A"
_symmetry_group_IT_number 51
_symmetry_cell_setting 'orthorhombic'
loop_
_space_group_symop_operation_xyz
x,y,z
1/2-x,-y,z
1/2+x,-y,-z
-x,y,-z
-x,-y,-z
1/2+x,y,-z
1/2-x,y,z
x,-y,z
loop_
_atom_site_type_symbol
_atom_site_label
_atom_site_fract_x
_atom_site_fract_y
_atom_site_fract_z
Si Si1 0.578487 0.304827 0.319094
Si Si2 0.917857 0.617800 0.142806
Si Si3 0.420730 0.390751 0.404085
Si Si4 0.080367 0.616833 0.232380
Si Si5 0.419958 0.382834 0.956031
Si Si6 0.921330 0.805922 0.546131
Si Si7 0.579904 0.109424 0.369269
O O1 0.750000 0.320051 0.316349
O O2 0.511497 0.367033 0.359763
O O3 0.502806 0.334395 0.273298
O O4 0.550571 0.193134 0.333115
O O5 0.750000 0.645492 0.148767
O O6 0.920609 0.500000 0.142035
O O7 0.968194 0.650603 0.093406
O O8 0.013100 0.647966 0.184858
O O9 0.250000 0.384414 0.392977
O O10 0.450592 0.500000 0.419739
O O11 0.449962 0.306345 0.439867
O O12 0.250000 0.637671 0.234326
O O13 0.062460 0.500000 0.236143
O O14 0.250000 0.363537 0.959534
O O15 0.437218 0.500000 0.956019
O O16 0.500000 0.345070 0.000000
O O17 0.750000 0.819704 0.542456
O O18 0.000000 0.828933 0.500000
O O19 0.986415 0.867514 0.586935
O O20 0.750000 0.117866 0.380992
O O21 0.553358 0.000000 0.353586
#
# Coordination Sequence:
#
# PCOD9399976 Si02
#       7
#     8   8   8   8   8   8   8
#     4  10  19  30  46  66  84 104 132 165 201 241
#     4   8  14  24  35  48  69  98 134 174 210 242
#     4   9  18  32  47  63  86 114 140 166 195 228
#     4  10  19  28  39  57  82 111 139 168 203 241
#     4   8  13  20  30  44  63  90 126 169 212 247
#     4  10  20  33  49  69  91 113 137 164 195 232
#     4   9  19  36  54  69  85 105 131 164 200 239
#
# _framework density 14.632239
#
# number of rings (size 3 to 8) (size 9 to 14) (size 15 to 20)
#    0.000    2.857    0.000    2.571    0.000    5.429 
#    0.000    2.857    0.000    0.000    0.000    0.000 
#    0.000    0.000    0.000    0.000    0.000    0.714 
#
# Total GULP energy -311911.794823 kJ/mol
# GULP energy per Si atom -5569.853479 kJ/mol
# Density = 1.459894 g / cm^3
# Si number density = 14.632239 Si / 1000 Ang^3
#
#
#
# Elastic Constant Matrix: (Units=GPa)
#
#
# Indices 1 2 3 4 5 6 
#
# 1 50.7211 14.9940 50.9130 0.0000 0.0000 0.0000
# 2 14.9940 33.9296 1.1606 0.0000 0.0000 0.0000
# 3 50.9130 1.1606 100.3664 0.0000 0.0000 0.0000
# 4 0.0000 0.0000 0.0000 7.8796 0.0000 0.0000
# 5 0.0000 0.0000 0.0000 0.0000 28.3100 0.0000
# 6 0.0000 0.0000 0.0000 0.0000 0.0000 13.0671
#
#
#
# Elastic Compliance Matrix: (Units=1/GPa)
#
#
# Indices 1 2 3 4 5 6 
#
# 1 0.053259 -0.022621 -0.026755 0.000000 0.000000 0.000000
# 2 -0.022621 0.039092 0.011023 0.000000 0.000000 0.000000
# 3 -0.026755 0.011023 0.023408 0.000000 0.000000 0.000000
# 4 0.000000 0.000000 0.000000 0.126911 0.000000 0.000000
# 5 0.000000 0.000000 0.000000 0.000000 0.035323 0.000000
# 6 0.000000 0.000000 0.000000 0.000000 0.000000 0.076528
#
#
# Mechanical properties :
#
#
# Convention : Reuss Voigt Hill
#
# Bulk Modulus (GPa) = 25.60617 35.46136 30.53377
# Shear Modulus (GPa) = 11.25504 17.71464 14.48484
#
# Velocity S-wave (km/s) = 2.77644 3.48323 3.14972
# Velocity P-wave (km/s) = 5.27409 6.36120 5.84298
#
# Compressibility (1/GPa) = 0.03905309
#
# Stress axis : x y z
#
# Youngs Moduli (GPa) = 18.77614 25.58059 42.72015
#
# Poissons Ratio (x) = 0.57865 1.14299
# Poissons Ratio (y) = 0.42473 -0.47089
# Poissons Ratio (z) = 0.50236 -0.28197
#
# Static dielectric constant tensor:
#      x y z
#    x 1.486360 0.000000 0.000000 
#    y 0.000000 1.474200 0.000000 
#    z 0.000000 0.000000 1.481290 
# 
# From -- ./inp_files/37445.got.cif
#   From: 2010.05.17/outbox.cif.g08.bks.cpg/sg51_19_cif.got.tgz:37445.got - 2010.06.03 11:52:47.
