data_PCOD9399460
_publ_section_title
;
Structure prediction by ZEFSAII (Michael W. Deem and Ramdas Pophale) SiO2 
 PCOD9399460
Probable space group: P M M A
;
_chemical_formula_sum "Si O2"
_cell_formula_units_Z 48
_cell_length_a 26.875629
_cell_length_b 7.970165
_cell_length_c 12.298305
_cell_angle_alpha 90.000000
_cell_angle_beta 90.000000
_cell_angle_gamma 90.000000
_cell_volume 2634.336256
_symmetry_space_group_name_H-M "P M M A"
_symmetry_group_IT_number 51
_symmetry_cell_setting 'orthorhombic'
loop_
_space_group_symop_operation_xyz
x,y,z
1/2-x,-y,z
1/2+x,-y,-z
-x,y,-z
-x,-y,-z
1/2+x,y,-z
1/2-x,y,z
x,-y,z
loop_
_atom_site_type_symbol
_atom_site_label
_atom_site_fract_x
_atom_site_fract_y
_atom_site_fract_z
Si Si1 0.807005 0.706103 0.647391
Si Si2 0.555683 0.303113 0.018209
Si Si3 0.879935 0.694788 0.827319
Si Si4 0.032093 0.694850 0.351249
Si Si5 0.570443 0.190744 0.256143
Si Si6 0.110365 0.701999 0.523391
O O1 0.750000 0.758561 0.638336
O O2 0.808102 0.500000 0.648754
O O3 0.833904 0.765949 0.758335
O O4 0.841886 0.758253 0.546165
O O5 0.551960 0.500000 0.987397
O O6 0.570241 0.291108 0.143823
O O7 0.500000 0.231124 0.000000
O O8 0.597303 0.229241 0.937236
O O9 0.866508 0.500000 0.849802
O O10 0.925823 0.695625 0.742141
O O11 0.016889 0.500000 0.368166
O O12 0.060714 0.758777 0.458118
O O13 0.984337 0.790206 0.308503
O O14 0.607368 0.246004 0.351954
O O15 0.580051 0.000000 0.226813
O O16 0.109226 0.500000 0.517618
#
# Coordination Sequence:
#
# PCOD9399460 Si02
#       6
#     8   8   8   8   8   8
#     4   8  14  27  51  80 100 111 139 199 259 291
#     4  10  18  31  50  66  90 131 171 196 224 282
#     4   8  14  26  46  71  94 120 154 192 236 284
#     4   9  16  30  48  66  91 126 164 194 226 280
#     4  12  23  30  41  65 100 133 163 198 236 272
#     4   9  18  31  49  70  94 125 159 192 235 292
#
# _framework density 18.22091
#
# number of rings (size 3 to 8) (size 9 to 14) (size 15 to 20)
#    0.000    2.667    1.667    4.000    0.000    3.000 
#    0.000    0.000    0.000    1.500    0.000    4.667 
#    0.000    0.000    0.000    0.000    0.000    0.000 
#
# Total GULP energy -267499.108280 kJ/mol
# GULP energy per Si atom -5572.898089 kJ/mol
# Density = 1.817944 g / cm^3
# Si number density = 18.220910 Si / 1000 Ang^3
#
#
#
# Elastic Constant Matrix: (Units=GPa)
#
#
# Indices 1 2 3 4 5 6 
#
# 1 96.9913 0.9342 42.6093 0.0000 0.0000 0.0000
# 2 0.9342 12.4541 -8.4164 0.0000 0.0000 0.0000
# 3 42.6093 -8.4164 113.4632 0.0000 0.0000 0.0000
# 4 0.0000 0.0000 0.0000 -18.6970 0.0000 0.0000
# 5 0.0000 0.0000 0.0000 0.0000 13.6975 0.0000
# 6 0.0000 0.0000 0.0000 0.0000 0.0000 144.7321
#
#
#
# Elastic Compliance Matrix: (Units=1/GPa)
#
#
# Indices 1 2 3 4 5 6 
#
# 1 0.012567 -0.004350 -0.005042 0.000000 0.000000 0.000000
# 2 -0.004350 0.086038 0.008016 0.000000 0.000000 0.000000
# 3 -0.005042 0.008016 0.011301 0.000000 0.000000 0.000000
# 4 0.000000 0.000000 0.000000 -0.053484 0.000000 0.000000
# 5 0.000000 0.000000 0.000000 0.000000 0.073006 0.000000
# 6 0.000000 0.000000 0.000000 0.000000 0.000000 0.006909
#
#
# Mechanical properties :
#
#
# Convention : Reuss Voigt Hill
#
# Bulk Modulus (GPa) = 9.33242 32.57367 20.95304
# Shear Modulus (GPa) = 28.60282 40.46528 34.53405
#
# Velocity S-wave (km/s) = 3.96634 4.71767 4.35822
# Velocity P-wave (km/s) = 5.10967 6.89863 6.07041
#
# Compressibility (1/GPa) = 0.10715333
#
# Stress axis : x y z
#
# Youngs Moduli (GPa) = 79.57267 11.62280 88.48410
#
# Poissons Ratio (x) = 0.05056 0.44614
# Poissons Ratio (y) = 0.34615 -0.70925
# Poissons Ratio (z) = 0.40121 -0.09316
#
# Static dielectric constant tensor:
#      x y z
#    x 1.620540 0.000000 0.000000 
#    y 0.000000 1.659200 0.000000 
#    z 0.000000 0.000000 1.655080 
# 
# From -- ./inp_files/18997.got.cif
#   From: 2010.05.17/outbox.cif.g08.bks.cpg/sg51_10_cif.got.tgz:18997.got - 2010.06.03 11:52:47.
