data_PCOD9399995
_publ_section_title
;
Structure prediction by ZEFSAII (Michael W. Deem and Ramdas Pophale) SiO2 
 PCOD9399995
Probable space group: P M M A
;
_chemical_formula_sum "Si O2"
_cell_formula_units_Z 48
_cell_length_a 9.124903
_cell_length_b 13.886995
_cell_length_c 24.273456
_cell_angle_alpha 90.000000
_cell_angle_beta 90.000000
_cell_angle_gamma 90.000000
_cell_volume 3075.871232
_symmetry_space_group_name_H-M "P M M A"
_symmetry_group_IT_number 51
_symmetry_cell_setting 'orthorhombic'
loop_
_space_group_symop_operation_xyz
x,y,z
1/2-x,-y,z
1/2+x,-y,-z
-x,y,-z
-x,-y,-z
1/2+x,y,-z
1/2-x,y,z
x,-y,z
loop_
_atom_site_type_symbol
_atom_site_label
_atom_site_fract_x
_atom_site_fract_y
_atom_site_fract_z
Si Si1 0.424390 0.611529 0.392065
Si Si2 0.923857 0.110314 0.659875
Si Si3 0.076930 0.297471 0.273365
Si Si4 0.075204 0.793587 0.557032
Si Si5 0.081020 0.382768 0.055574
Si Si6 0.423941 0.614235 0.831676
O O1 0.250000 0.627664 0.401925
O O2 0.457629 0.500000 0.402737
O O3 0.450819 0.637497 0.327767
O O4 0.517501 0.686480 0.427540
O O5 0.750000 0.121734 0.646660
O O6 0.955885 0.188708 0.706981
O O7 0.016746 0.139712 0.606530
O O8 0.949637 0.000000 0.675674
O O9 0.250000 0.305124 0.260787
O O10 0.985853 0.331511 0.221320
O O11 0.250000 0.795618 0.553124
O O12 0.000000 0.822906 0.500000
O O13 0.250000 0.352791 0.055700
O O14 0.078035 0.500000 0.054895
O O15 0.000449 0.353407 0.111661
O O16 0.000000 0.350432 0.000000
O O17 0.250000 0.625768 0.836385
O O18 0.455116 0.500000 0.824719
#
# Coordination Sequence:
#
# PCOD9399995 Si02
#       6
#     8   8   8   8   8   8
#     4   9  18  33  51  69  92 123 156 189 226 268
#     4   9  19  37  57  73  91 116 146 184 232 282
#     4   9  17  30  48  69  91 116 148 185 226 271
#     4  11  22  35  51  71  95 120 149 185 224 271
#     4   9  16  26  40  58  84 120 160 198 232 265
#     4  10  19  28  40  62  93 128 162 192 222 259
#
# _framework density 15.605335999999999
#
# number of rings (size 3 to 8) (size 9 to 14) (size 15 to 20)
#    0.000    2.500    0.000    4.000    0.000    7.667 
#    0.000    0.000    0.000    0.000    0.000    0.000 
#    0.000    0.667    0.000    1.833    0.000    2.667 
#
# Total GULP energy -267730.479321 kJ/mol
# GULP energy per Si atom -5577.718319 kJ/mol
# Density = 1.556982 g / cm^3
# Si number density = 15.605336 Si / 1000 Ang^3
#
#
#
# Elastic Constant Matrix: (Units=GPa)
#
#
# Indices 1 2 3 4 5 6 
#
# 1 86.5593 31.5350 66.7988 0.0000 0.0000 0.0000
# 2 31.5350 52.4752 17.3823 0.0000 0.0000 0.0000
# 3 66.7988 17.3823 100.6211 0.0000 0.0000 0.0000
# 4 0.0000 0.0000 0.0000 9.0149 0.0000 0.0000
# 5 0.0000 0.0000 0.0000 0.0000 32.5341 0.0000
# 6 0.0000 0.0000 0.0000 0.0000 0.0000 17.4892
#
#
#
# Elastic Compliance Matrix: (Units=1/GPa)
#
#
# Indices 1 2 3 4 5 6 
#
# 1 0.029298 -0.011841 -0.017404 0.000000 0.000000 0.000000
# 2 -0.011841 0.024999 0.003543 0.000000 0.000000 0.000000
# 3 -0.017404 0.003543 0.020880 0.000000 0.000000 0.000000
# 4 0.000000 0.000000 0.000000 0.110928 0.000000 0.000000
# 5 0.000000 0.000000 0.000000 0.000000 0.030737 0.000000
# 6 0.000000 0.000000 0.000000 0.000000 0.000000 0.057178
#
#
# Mechanical properties :
#
#
# Convention : Reuss Voigt Hill
#
# Bulk Modulus (GPa) = 42.06773 52.34309 47.20541
# Shear Modulus (GPa) = 14.99925 20.07028 17.53476
#
# Velocity S-wave (km/s) = 3.10362 3.59014 3.35571
# Velocity P-wave (km/s) = 6.31341 7.12742 6.73272
#
# Compressibility (1/GPa) = 0.02377119
#
# Stress axis : x y z
#
# Youngs Moduli (GPa) = 34.13225 40.00110 47.89196
#
# Poissons Ratio (x) = 0.47367 0.83352
# Poissons Ratio (y) = 0.40418 -0.16966
# Poissons Ratio (z) = 0.59404 -0.14170
#
# Static dielectric constant tensor:
#      x y z
#    x 1.518110 0.000000 0.000000 
#    y 0.000000 1.511490 0.000000 
#    z 0.000000 0.000000 1.502460 
# 
# From -- ./inp_files/31597.got.cif
#   From: 2010.05.17/outbox.cif.g08.bks.cpg/sg51_16_cif.got.tgz:31597.got - 2010.06.03 11:52:47.
