data_PCOD9399470
_publ_section_title
;
Structure prediction by ZEFSAII (Michael W. Deem and Ramdas Pophale) SiO2 
 PCOD9399470
Probable space group: P M M A
;
_chemical_formula_sum "Si O2"
_cell_formula_units_Z 64
_cell_length_a 8.887751
_cell_length_b 20.509326
_cell_length_c 20.335342
_cell_angle_alpha 90.000000
_cell_angle_beta 90.000000
_cell_angle_gamma 90.000000
_cell_volume 3706.762391
_symmetry_space_group_name_H-M "P M M A"
_symmetry_group_IT_number 51
_symmetry_cell_setting 'orthorhombic'
loop_
_space_group_symop_operation_xyz
x,y,z
1/2-x,-y,z
1/2+x,-y,-z
-x,y,-z
-x,-y,-z
1/2+x,y,-z
1/2-x,y,z
x,-y,z
loop_
_atom_site_type_symbol
_atom_site_label
_atom_site_fract_x
_atom_site_fract_y
_atom_site_fract_z
Si Si1 0.570424 0.571956 0.614672
Si Si2 0.569141 0.815261 0.326717
Si Si3 0.929187 0.705048 0.432741
Si Si4 0.427165 0.571652 0.898343
Si Si5 0.928739 0.290993 0.933214
Si Si6 0.931021 0.075724 0.429967
Si Si7 0.430154 0.252928 0.211416
Si Si8 0.073820 0.390029 0.748542
O O1 0.750000 0.578803 0.609715
O O2 0.527315 0.500000 0.589638
O O3 0.491989 0.632842 0.579964
O O4 0.519171 0.577018 0.690627
O O5 0.750000 0.816407 0.317492
O O6 0.532183 0.752835 0.372649
O O7 0.523797 0.877918 0.369773
O O8 0.489182 0.805280 0.256985
O O9 0.750000 0.703040 0.438477
O O10 0.000000 0.730735 0.500000
O O11 0.250000 0.578334 0.915106
O O12 0.480339 0.500000 0.919972
O O13 0.514684 0.634406 0.924271
O O14 0.437562 0.575086 0.818946
O O15 0.750000 0.291471 0.938947
O O16 0.969346 0.252772 0.866126
O O17 0.000000 0.264489 0.000000
O O18 0.750000 0.079954 0.435342
O O19 0.000000 0.096127 0.500000
O O20 0.972182 0.000000 0.418912
O O21 0.250000 0.259270 0.216986
O O22 0.509731 0.317857 0.239375
O O23 0.250000 0.387058 0.729677
#
# Coordination Sequence:
#
# PCOD9399470 Si02
#       8
#     8   8   8   8   8   8   8   8
#     4  11  23  36  50  68  91 121 160 209 264 317
#     4  10  20  34  54  80 106 138 176 211 252 297
#     4  11  23  37  53  72  95 126 166 211 257 308
#     4   9  18  31  47  67  91 121 157 198 248 308
#     4  10  21  35  50  70  95 127 163 203 255 310
#     4   9  18  33  53  80 116 153 186 216 248 293
#     4  10  20  33  52  76 101 129 166 210 254 300
#     4  10  18  31  50  71  94 121 157 203 256 312
#
# _framework density 17.265741999999999
#
# number of rings (size 3 to 8) (size 9 to 14) (size 15 to 20)
#    0.000    2.000    1.250    2.625    0.000    5.250 
#    0.000    0.000    0.000    0.000    0.000    0.000 
#    0.000    0.500    0.000    1.125    0.000    1.750 
#
# Total GULP energy -357307.985964 kJ/mol
# GULP energy per Si atom -5582.937281 kJ/mol
# Density = 1.722644 g / cm^3
# Si number density = 17.265742 Si / 1000 Ang^3
#
#
#
# Elastic Constant Matrix: (Units=GPa)
#
#
# Indices 1 2 3 4 5 6 
#
# 1 34.0988 23.5684 35.7702 0.0000 0.0000 0.0000
# 2 23.5684 71.9425 44.8298 0.0000 0.0000 0.0000
# 3 35.7702 44.8298 117.8683 0.0000 0.0000 0.0000
# 4 0.0000 0.0000 0.0000 49.4607 0.0000 0.0000
# 5 0.0000 0.0000 0.0000 0.0000 30.5527 0.0000
# 6 0.0000 0.0000 0.0000 0.0000 0.0000 13.9918
#
#
#
# Elastic Compliance Matrix: (Units=1/GPa)
#
#
# Indices 1 2 3 4 5 6 
#
# 1 0.046653 -0.008468 -0.010937 0.000000 0.000000 0.000000
# 2 -0.008468 0.019755 -0.004944 0.000000 0.000000 0.000000
# 3 -0.010937 -0.004944 0.013683 0.000000 0.000000 0.000000
# 4 0.000000 0.000000 0.000000 0.020218 0.000000 0.000000
# 5 0.000000 0.000000 0.000000 0.000000 0.032730 0.000000
# 6 0.000000 0.000000 0.000000 0.000000 0.000000 0.071470
#
#
# Mechanical properties :
#
#
# Convention : Reuss Voigt Hill
#
# Bulk Modulus (GPa) = 31.85415 48.02736 39.94076
# Shear Modulus (GPa) = 18.96294 26.78379 22.87337
#
# Velocity S-wave (km/s) = 3.31765 3.94289 3.64371
# Velocity P-wave (km/s) = 5.75892 6.97176 6.39416
#
# Compressibility (1/GPa) = 0.03139308
#
# Stress axis : x y z
#
# Youngs Moduli (GPa) = 21.43487 50.62092 73.08088
#
# Poissons Ratio (x) = 0.42867 0.79931
# Poissons Ratio (y) = 0.18151 0.36128
# Poissons Ratio (z) = 0.23444 0.25025
#
# Static dielectric constant tensor:
#      x y z
#    x 1.574790 0.000000 0.000000 
#    y 0.000000 1.584650 0.000000 
#    z 0.000000 0.000000 1.617910 
# 
# From -- ./inp_files/32343.got.cif
#   From: 2010.05.17/outbox.cif.g08.bks.cpg/sg51_17_cif.got.tgz:32343.got - 2010.06.03 11:52:47.
