data_PCOD9399953
_publ_section_title
;
Structure prediction by ZEFSAII (Michael W. Deem and Ramdas Pophale) SiO2 
 PCOD9399953
Probable space group: P M M A
;
_chemical_formula_sum "Si O2"
_cell_formula_units_Z 48
_cell_length_a 15.006176
_cell_length_b 8.684706
_cell_length_c 20.039190
_cell_angle_alpha 90.000000
_cell_angle_beta 90.000000
_cell_angle_gamma 90.000000
_cell_volume 2611.591941
_symmetry_space_group_name_H-M "P M M A"
_symmetry_group_IT_number 51
_symmetry_cell_setting 'orthorhombic'
loop_
_space_group_symop_operation_xyz
x,y,z
1/2-x,-y,z
1/2+x,-y,-z
-x,y,-z
-x,-y,-z
1/2+x,y,-z
1/2-x,y,z
x,-y,z
loop_
_atom_site_type_symbol
_atom_site_label
_atom_site_fract_x
_atom_site_fract_y
_atom_site_fract_z
Si Si1 0.855873 0.816918 0.061235
Si Si2 0.067773 0.815483 0.686635
Si Si3 0.250000 0.186814 0.479071
Si Si4 0.646078 0.814762 0.907692
Si Si5 0.056421 0.187319 0.435088
Si Si6 0.250000 0.316489 0.629206
Si Si7 0.984746 0.318768 0.171512
O O1 0.750000 0.794251 0.071027
O O2 0.913411 0.727243 0.114832
O O3 0.873897 0.000000 0.068227
O O4 0.876692 0.773971 0.984558
O O5 0.161901 0.742121 0.666634
O O6 0.038824 0.767178 0.760215
O O7 0.994466 0.764849 0.631783
O O8 0.076253 0.000000 0.682586
O O9 0.158755 0.236707 0.443192
O O10 0.250000 0.247377 0.554604
O O11 0.250000 0.000000 0.481926
O O12 0.750000 0.777604 0.896733
O O13 0.579928 0.733886 0.857125
O O14 0.636652 0.000000 0.902233
O O15 0.000000 0.236926 0.500000
O O16 0.056595 0.000000 0.435551
O O17 0.250000 0.500000 0.625895
O O18 0.982880 0.500000 0.183101
#
# Coordination Sequence:
#
# PCOD9399953 Si02
#       7
#     8   8   4   8   8   4   8
#     4   9  19  37  62  89 115 149 198 248 291 344
#     4  11  23  41  62  84 115 158 200 242 289 344
#     4  10  18  36  64  90 116 147 190 243 290 342
#     4   9  19  39  65  88 111 148 203 253 287 341
#     4   9  17  33  61  92 113 141 195 245 281 331
#     4  12  24  38  58  90 122 151 186 233 298 360
#     4  12  25  38  55  85 125 160 191 238 300 363
#
# _framework density 18.379594000000001
#
# number of rings (size 3 to 8) (size 9 to 14) (size 15 to 20)
#    0.000    1.833    1.667    4.250    1.167    3.333 
#    1.500    4.167    0.000    0.000    0.000    0.000 
#    0.000    0.000    0.000    0.000    0.000    0.000 
#
# Total GULP energy -268164.055866 kJ/mol
# GULP energy per Si atom -5586.751164 kJ/mol
# Density = 1.833776 g / cm^3
# Si number density = 18.379594 Si / 1000 Ang^3
#
#
#
# Elastic Constant Matrix: (Units=GPa)
#
#
# Indices 1 2 3 4 5 6 
#
# 1 132.0643 32.0294 71.9220 0.0000 0.0000 0.0000
# 2 32.0294 41.8977 25.4018 0.0000 0.0000 0.0000
# 3 71.9220 25.4018 100.2166 0.0000 0.0000 0.0000
# 4 0.0000 0.0000 0.0000 -4.6852 0.0000 0.0000
# 5 0.0000 0.0000 0.0000 0.0000 -9.9355 0.0000
# 6 0.0000 0.0000 0.0000 0.0000 0.0000 279.8087
#
#
#
# Elastic Compliance Matrix: (Units=1/GPa)
#
#
# Indices 1 2 3 4 5 6 
#
# 1 0.013319 -0.005183 -0.008245 0.000000 0.000000 0.000000
# 2 -0.005183 0.030219 -0.003940 0.000000 0.000000 0.000000
# 3 -0.008245 -0.003940 0.016894 0.000000 0.000000 0.000000
# 4 0.000000 0.000000 0.000000 -0.213440 0.000000 0.000000
# 5 0.000000 0.000000 0.000000 0.000000 -0.100649 0.000000
# 6 0.000000 0.000000 0.000000 0.000000 0.000000 0.003574
#
#
# Mechanical properties :
#
#
# Convention : Reuss Voigt Hill
#
# Bulk Modulus (GPa) = 38.91622 59.20943 49.06282
# Shear Modulus (GPa) = -24.18006 62.69264 19.25629
#
# Velocity S-wave (km/s) = -3.63105 5.84671 3.24033
# Velocity P-wave (km/s) = 1.90794 8.82402 6.38371
#
# Compressibility (1/GPa) = 0.02569622
#
# Stress axis : x y z
#
# Youngs Moduli (GPa) = 75.07812 33.09209 59.19215
#
# Poissons Ratio (x) = 0.17153 0.48804
# Poissons Ratio (y) = 0.38916 0.23319
# Poissons Ratio (z) = 0.61902 0.13037
#
# Static dielectric constant tensor:
#      x y z
#    x 1.628910 0.000000 0.000000 
#    y 0.000000 1.613090 0.000000 
#    z 0.000000 0.000000 1.598890 
# 
# From -- ./inp_files/29661.got.cif
#   From: 2010.05.17/outbox.cif.g08.bks.cpg/sg51_15_cif.got.tgz:29661.got - 2010.06.03 11:52:47.
