data_PCOD9399927
_publ_section_title
;
Structure prediction by ZEFSAII (Michael W. Deem and Ramdas Pophale) SiO2 
 PCOD9399927
Probable space group: P M M A
;
_chemical_formula_sum "Si O2"
_cell_formula_units_Z 64
_cell_length_a 17.137277
_cell_length_b 18.350316
_cell_length_c 11.088247
_cell_angle_alpha 90.000000
_cell_angle_beta 90.000000
_cell_angle_gamma 90.000000
_cell_volume 3486.970358
_symmetry_space_group_name_H-M "P M M A"
_symmetry_group_IT_number 51
_symmetry_cell_setting 'orthorhombic'
loop_
_space_group_symop_operation_xyz
x,y,z
1/2-x,-y,z
1/2+x,-y,-z
-x,y,-z
-x,-y,-z
1/2+x,y,-z
1/2-x,y,z
x,-y,z
loop_
_atom_site_type_symbol
_atom_site_label
_atom_site_fract_x
_atom_site_fract_y
_atom_site_fract_z
Si Si1 0.561458 0.079863 0.229596
Si Si2 0.340991 0.299388 0.012533
Si Si3 0.957141 0.689263 0.760488
Si Si4 0.058595 0.581985 0.885234
Si Si5 0.339044 0.234176 0.398983
Si Si6 0.935910 0.791469 0.391201
Si Si7 0.374912 0.085002 0.251147
Si Si8 0.164546 0.129353 0.980147
O O1 0.590098 0.134887 0.329734
O O2 0.468014 0.085017 0.233324
O O3 0.595688 0.096243 0.098519
O O4 0.585787 0.000000 0.265090
O O5 0.250000 0.315254 0.048374
O O6 0.406640 0.296911 0.118512
O O7 0.374003 0.360300 0.920776
O O8 0.340321 0.216632 0.965957
O O9 0.891709 0.703432 0.661261
O O10 0.004186 0.614956 0.779927
O O11 0.023271 0.746159 0.715993
O O12 0.086579 0.500000 0.862048
O O13 0.000000 0.579098 0.000000
O O14 0.250000 0.248282 0.373309
O O15 0.361726 0.238574 0.538705
O O16 0.356413 0.152502 0.342678
O O17 0.000000 0.800625 0.500000
O O18 0.352576 0.000000 0.281886
O O19 0.341206 0.107512 0.120609
O O20 0.250000 0.105109 0.936023
#
# Coordination Sequence:
#
# PCOD9399927 Si02
#       8
#     8   8   8   8   8   8   8   8
#     4  11  22  35  53  75 105 147 193 236 292 358
#     4  10  19  31  55  85 116 153 191 231 273 328
#     4  10  18  35  59  80 110 148 192 231 280 340
#     4   9  19  34  56  90 126 156 182 217 271 339
#     4  11  22  37  58  83 108 142 197 258 302 340
#     4  10  20  37  56  78 102 145 192 247 296 339
#     4  11  22  36  56  80 109 148 195 246 300 355
#     4  11  22  35  51  78 115 151 189 235 289 348
#
# _framework density 18.354042
#
# number of rings (size 3 to 8) (size 9 to 14) (size 15 to 20)
#    0.000    1.625    3.750    2.250    0.000    5.250 
#    0.000    0.625    0.000    4.500    0.000    0.000 
#    0.000    0.000    0.000    0.000    0.000    0.000 
#
# Total GULP energy -356294.179573 kJ/mol
# GULP energy per Si atom -5567.096556 kJ/mol
# Density = 1.831227 g / cm^3
# Si number density = 18.354042 Si / 1000 Ang^3
#
#
#
# Elastic Constant Matrix: (Units=GPa)
#
#
# Indices 1 2 3 4 5 6 
#
# 1 57.9968 27.2462 29.2282 0.0000 0.0000 0.0000
# 2 27.2462 86.3822 30.7696 0.0000 0.0000 0.0000
# 3 29.2282 30.7696 40.1195 0.0000 0.0000 0.0000
# 4 0.0000 0.0000 0.0000 -1.7833 0.0000 0.0000
# 5 0.0000 0.0000 0.0000 0.0000 12.1378 0.0000
# 6 0.0000 0.0000 0.0000 0.0000 0.0000 0.5076
#
#
#
# Elastic Compliance Matrix: (Units=1/GPa)
#
#
# Indices 1 2 3 4 5 6 
#
# 1 0.027524 -0.002117 -0.018428 0.000000 0.000000 0.000000
# 2 -0.002117 0.016091 -0.010798 0.000000 0.000000 0.000000
# 3 -0.018428 -0.010798 0.046633 0.000000 0.000000 0.000000
# 4 0.000000 0.000000 0.000000 -0.560757 0.000000 0.000000
# 5 0.000000 0.000000 0.000000 0.000000 0.082387 0.000000
# 6 0.000000 0.000000 0.000000 0.000000 0.000000 1.970033
#
#
# Mechanical properties :
#
#
# Convention : Reuss Voigt Hill
#
# Bulk Modulus (GPa) = 36.28448 39.88738 38.08593
# Shear Modulus (GPa) = 3.02337 8.65606 5.83971
#
# Velocity S-wave (km/s) = 1.28484 2.17403 1.78567
# Velocity P-wave (km/s) = 4.69183 5.29917 5.00472
#
# Compressibility (1/GPa) = 0.02755999
#
# Stress axis : x y z
#
# Youngs Moduli (GPa) = 36.33176 62.14791 21.44420
#
# Poissons Ratio (x) = 0.13159 0.39518
# Poissons Ratio (y) = 0.07693 0.23156
# Poissons Ratio (z) = 0.66953 0.67109
#
# Static dielectric constant tensor:
#      x y z
#    x 1.673970 0.000000 0.000000 
#    y 0.000000 1.652200 0.000000 
#    z 0.000000 0.000000 1.651330 
# 
# From -- ./inp_files/17679.got.cif
#   From: 2010.05.17/outbox.cif.g08.bks.cpg/sg51_9_cif.got.tgz:17679.got - 2010.06.03 11:52:47.
