data_PCOD9399140
_publ_section_title
;
Structure prediction by ZEFSAII (Michael W. Deem and Ramdas Pophale) SiO2 
 PCOD9399140
Probable space group: P M M A
;
_chemical_formula_sum "Si O2"
_cell_formula_units_Z 64
_cell_length_a 30.653831
_cell_length_b 7.829941
_cell_length_c 14.606341
_cell_angle_alpha 90.000000
_cell_angle_beta 90.000000
_cell_angle_gamma 90.000000
_cell_volume 3505.780199
_symmetry_space_group_name_H-M "P M M A"
_symmetry_group_IT_number 51
_symmetry_cell_setting 'orthorhombic'
loop_
_space_group_symop_operation_xyz
x,y,z
1/2-x,-y,z
1/2+x,-y,-z
-x,y,-z
-x,-y,-z
1/2+x,y,-z
1/2-x,y,z
x,-y,z
loop_
_atom_site_type_symbol
_atom_site_label
_atom_site_fract_x
_atom_site_fract_y
_atom_site_fract_z
Si Si1 0.859752 0.795231 0.155894
Si Si2 0.549338 0.201442 0.504171
Si Si3 0.078274 0.306091 0.298811
Si Si4 0.408020 0.795835 0.675738
Si Si5 0.059012 0.303055 0.967890
Si Si6 0.201096 0.705886 0.999012
Si Si7 0.880026 0.289580 0.877620
Si Si8 0.994063 0.802849 0.199728
O O1 0.868148 0.735980 0.260027
O O2 0.897792 0.708781 0.095889
O O3 0.815636 0.755427 0.102214
O O4 0.867179 0.000000 0.151829
O O5 0.500000 0.274219 0.500000
O O6 0.568677 0.218049 0.605241
O O7 0.580375 0.274244 0.424266
O O8 0.544778 0.000000 0.483366
O O9 0.090396 0.500000 0.320532
O O10 0.113393 0.234063 0.226794
O O11 0.033530 0.304619 0.239950
O O12 0.451518 0.769856 0.737183
O O13 0.401351 0.000000 0.666458
O O14 0.048278 0.500000 0.983410
O O15 0.021078 0.225947 0.904868
O O16 0.078480 0.228050 0.061751
O O17 0.250000 0.768092 0.016868
O O18 0.201358 0.500000 0.003736
O O19 0.164213 0.764823 0.071416
O O20 0.881222 0.500000 0.878934
O O21 0.005996 0.000000 0.212517
#
# Coordination Sequence:
#
# PCOD9399140 Si02
#       8
#     8   8   8   8   8   8   8   8
#     4   9  16  27  45  71  99 123 147 183 230 282
#     4  10  18  32  49  63  85 122 162 202 239 272
#     4  11  21  31  43  63  90 121 159 202 237 274
#     4   8  15  28  45  62  86 121 154 185 230 278
#     4   9  16  29  46  63  86 122 161 193 227 271
#     4   9  17  32  54  75  94 121 154 184 223 282
#     4   8  17  32  46  63  93 123 148 186 237 282
#     4  10  18  30  44  62  87 121 160 198 238 276
#
# _framework density 18.255566000000002
#
# number of rings (size 3 to 8) (size 9 to 14) (size 15 to 20)
#    0.000    2.750    1.250    3.000    0.000    1.000 
#    0.000   10.000    0.000    0.000    0.000    0.875 
#    0.000    3.000    0.000    0.000    0.000    0.000 
#
# Total GULP energy -356577.947840 kJ/mol
# GULP energy per Si atom -5571.530435 kJ/mol
# Density = 1.821402 g / cm^3
# Si number density = 18.255566 Si / 1000 Ang^3
#
#
#
# Elastic Constant Matrix: (Units=GPa)
#
#
# Indices 1 2 3 4 5 6 
#
# 1 77.7313 7.9814 34.0802 0.0000 0.0000 0.0000
# 2 7.9814 25.6405 0.9704 0.0000 0.0000 0.0000
# 3 34.0802 0.9704 127.3672 0.0000 0.0000 0.0000
# 4 0.0000 0.0000 0.0000 17.2875 0.0000 0.0000
# 5 0.0000 0.0000 0.0000 0.0000 16.6971 0.0000
# 6 0.0000 0.0000 0.0000 0.0000 0.0000 15.3323
#
#
#
# Elastic Compliance Matrix: (Units=1/GPa)
#
#
# Indices 1 2 3 4 5 6 
#
# 1 0.015086 -0.004545 -0.004002 0.000000 0.000000 0.000000
# 2 -0.004545 0.040381 0.000908 0.000000 0.000000 0.000000
# 3 -0.004002 0.000908 0.008915 0.000000 0.000000 0.000000
# 4 0.000000 0.000000 0.000000 0.057845 0.000000 0.000000
# 5 0.000000 0.000000 0.000000 0.000000 0.059891 0.000000
# 6 0.000000 0.000000 0.000000 0.000000 0.000000 0.065222
#
#
# Mechanical properties :
#
#
# Convention : Reuss Voigt Hill
#
# Bulk Modulus (GPa) = 20.36414 35.20035 27.78224
# Shear Modulus (GPa) = 17.92211 22.37719 20.14965
#
# Velocity S-wave (km/s) = 3.13666 3.50490 3.32588
# Velocity P-wave (km/s) = 4.92924 5.97520 5.47724
#
# Compressibility (1/GPa) = 0.04910593
#
# Stress axis : x y z
#
# Youngs Moduli (GPa) = 66.28623 24.76406 112.16761
#
# Poissons Ratio (x) = 0.11254 0.44890
# Poissons Ratio (y) = 0.30124 -0.10189
# Poissons Ratio (z) = 0.26528 -0.02249
#
# Static dielectric constant tensor:
#      x y z
#    x 1.634380 0.000000 0.000000 
#    y 0.000000 1.677940 0.000000 
#    z 0.000000 0.000000 1.682610 
# 
# From -- ./inp_files/26693.got.cif
#   From: 2010.05.17/outbox.cif.g08.bks.cpg/sg51_14_cif.got.tgz:26693.got - 2010.06.03 11:52:47.
