data_PCOD9399652
_publ_section_title
;
Structure prediction by ZEFSAII (Michael W. Deem and Ramdas Pophale) SiO2 
 PCOD9399652
Probable space group: P M M A
;
_chemical_formula_sum "Si O2"
_cell_formula_units_Z 64
_cell_length_a 23.618929
_cell_length_b 7.698082
_cell_length_c 18.199233
_cell_angle_alpha 90.000000
_cell_angle_beta 90.000000
_cell_angle_gamma 90.000000
_cell_volume 3308.992774
_symmetry_space_group_name_H-M "P M M A"
_symmetry_group_IT_number 51
_symmetry_cell_setting 'orthorhombic'
loop_
_space_group_symop_operation_xyz
x,y,z
1/2-x,-y,z
1/2+x,-y,-z
-x,y,-z
-x,-y,-z
1/2+x,y,-z
1/2-x,y,z
x,-y,z
loop_
_atom_site_type_symbol
_atom_site_label
_atom_site_fract_x
_atom_site_fract_y
_atom_site_fract_z
Si Si1 0.593937 0.197870 0.816441
Si Si2 0.988510 0.289935 0.084728
Si Si3 0.568226 0.699238 0.510526
Si Si4 0.859916 0.712285 0.092281
Si Si5 0.583634 0.713661 0.349350
Si Si6 0.186642 0.707347 0.064552
Si Si7 0.455354 0.704037 0.334933
Si Si8 0.812737 0.712258 0.246941
O O1 0.536629 0.215106 0.863723
O O2 0.644067 0.263803 0.868397
O O3 0.581014 0.282974 0.738338
O O4 0.606268 0.000000 0.800215
O O5 0.992229 0.500000 0.090944
O O6 0.925035 0.236044 0.104095
O O7 0.000000 0.244975 0.000000
O O8 0.500000 0.695194 0.500000
O O9 0.589453 0.500000 0.512646
O O10 0.591209 0.773350 0.433953
O O11 0.573983 0.779818 0.591599
O O12 0.859642 0.500000 0.090150
O O13 0.823517 0.765025 0.162491
O O14 0.838042 0.774339 0.013084
O O15 0.583947 0.500000 0.348635
O O16 0.520146 0.769391 0.324753
O O17 0.634678 0.770213 0.297030
O O18 0.250000 0.774930 0.077481
O O19 0.190373 0.500000 0.055605
O O20 0.462448 0.500000 0.351509
O O21 0.750000 0.767312 0.271089
O O22 0.813533 0.500000 0.247983
#
# Coordination Sequence:
#
# PCOD9399652 Si02
#       8
#     8   8   8   8   8   8   8   8
#     4  12  24  34  47  71 105 133 159 197 249 302
#     4  10  18  32  53  72  93 122 162 204 244 288
#     4   7  11  21  41  68  90 113 151 198 241 284
#     4   9  16  28  47  71  94 119 156 202 241 279
#     4   8  13  23  42  68  95 122 155 196 242 288
#     4  10  20  36  56  72  89 122 171 215 245 281
#     4   9  16  29  50  71  92 122 164 204 243 291
#     4   9  15  21  33  60  98 130 150 178 231 292
#
# _framework density 19.341232000000002
#
# number of rings (size 3 to 8) (size 9 to 14) (size 15 to 20)
#    0.000    2.750    1.250    3.750    0.000    4.000 
#    0.000    0.000    0.000    4.125    0.000    3.500 
#    0.000    4.500    0.000    0.000    0.000    0.000 
#
# Total GULP energy -356752.197516 kJ/mol
# GULP energy per Si atom -5574.253086 kJ/mol
# Density = 1.929721 g / cm^3
# Si number density = 19.341232 Si / 1000 Ang^3
#
#
#
# Elastic Constant Matrix: (Units=GPa)
#
#
# Indices 1 2 3 4 5 6 
#
# 1 120.1608 1.5775 67.5068 0.0000 0.0000 0.0000
# 2 1.5775 26.0325 -1.2754 0.0000 0.0000 0.0000
# 3 67.5068 -1.2754 143.2343 0.0000 0.0000 0.0000
# 4 0.0000 0.0000 0.0000 -36.1894 0.0000 0.0000
# 5 0.0000 0.0000 0.0000 0.0000 9.0814 0.0000
# 6 0.0000 0.0000 0.0000 0.0000 0.0000 -36.5542
#
#
#
# Elastic Compliance Matrix: (Units=1/GPa)
#
#
# Indices 1 2 3 4 5 6 
#
# 1 0.011343 -0.000950 -0.005354 0.000000 0.000000 0.000000
# 2 -0.000950 0.038510 0.000790 0.000000 0.000000 0.000000
# 3 -0.005354 0.000790 0.009512 0.000000 0.000000 0.000000
# 4 0.000000 0.000000 0.000000 -0.027632 0.000000 0.000000
# 5 0.000000 0.000000 0.000000 0.000000 0.110115 0.000000
# 6 0.000000 0.000000 0.000000 0.000000 0.000000 -0.027357
#
#
# Mechanical properties :
#
#
# Convention : Reuss Voigt Hill
#
# Bulk Modulus (GPa) = 20.68780 47.22727 33.95754
# Shear Modulus (GPa) = 35.30310 2.04214 18.67262
#
# Velocity S-wave (km/s) = 4.27696 1.02866 3.11051
# Velocity P-wave (km/s) = 5.92531 5.08741 5.52228
#
# Compressibility (1/GPa) = 0.04833767
#
# Stress axis : x y z
#
# Youngs Moduli (GPa) = 88.16218 25.96740 105.12906
#
# Poissons Ratio (x) = 0.02466 0.56290
# Poissons Ratio (y) = 0.08372 -0.08310
# Poissons Ratio (z) = 0.47205 -0.02053
#
# Static dielectric constant tensor:
#      x y z
#    x 1.457010 0.000000 0.000000 
#    y 0.000000 1.734050 0.000000 
#    z 0.000000 0.000000 1.732880 
# 
# From -- ./inp_files/30655.got.cif
#   From: 2010.05.17/outbox.cif.g08.bks.cpg/sg51_16_cif.got.tgz:30655.got - 2010.06.03 11:52:47.
