data_PCOD9399739
_publ_section_title
;
Structure prediction by ZEFSAII (Michael W. Deem and Ramdas Pophale) SiO2 
 PCOD9399739
Probable space group: P M M A
;
_chemical_formula_sum "Si O2"
_cell_formula_units_Z 64
_cell_length_a 8.667202
_cell_length_b 20.261174
_cell_length_c 21.173720
_cell_angle_alpha 90.000000
_cell_angle_beta 90.000000
_cell_angle_gamma 90.000000
_cell_volume 3718.268012
_symmetry_space_group_name_H-M "P M M A"
_symmetry_group_IT_number 51
_symmetry_cell_setting 'orthorhombic'
loop_
_space_group_symop_operation_xyz
x,y,z
1/2-x,-y,z
1/2+x,-y,-z
-x,y,-z
-x,-y,-z
1/2+x,y,-z
1/2-x,y,z
x,-y,z
loop_
_atom_site_type_symbol
_atom_site_label
_atom_site_fract_x
_atom_site_fract_y
_atom_site_fract_z
Si Si1 0.062599 0.427147 0.237681
Si Si2 0.564185 0.788637 0.684725
Si Si3 0.936204 0.926882 0.121191
Si Si4 0.567374 0.709451 0.433689
Si Si5 0.935977 0.574360 0.613823
Si Si6 0.934689 0.788965 0.066985
Si Si7 0.063940 0.073689 0.262810
Si Si8 0.436486 0.288870 0.186229
O O1 0.250000 0.427387 0.235625
O O2 0.009167 0.500000 0.217409
O O3 0.023532 0.418484 0.311733
O O4 0.011527 0.364255 0.197746
O O5 0.750000 0.784912 0.678418
O O6 0.491746 0.752331 0.625194
O O7 0.517418 0.864971 0.693723
O O8 0.523861 0.751414 0.750071
O O9 0.750000 0.926489 0.121899
O O10 0.988801 0.864328 0.080766
O O11 0.994562 0.917902 0.192874
O O12 0.987676 0.000000 0.099643
O O13 0.500000 0.733803 0.500000
O O14 0.750000 0.710884 0.435956
O O15 0.511222 0.634294 0.422940
O O16 0.750000 0.579484 0.609115
O O17 0.980369 0.500000 0.593976
O O18 0.750000 0.788431 0.065206
O O19 0.991781 0.744855 0.125157
O O20 0.000000 0.766533 0.000000
O O21 0.250000 0.076408 0.256850
O O22 0.021591 0.000000 0.285274
O O23 0.250000 0.287411 0.180519
#
# Coordination Sequence:
#
# PCOD9399739 Si02
#       8
#     8   8   8   8   8   8   8   8
#     4   8  14  27  51  80 106 134 169 208 253 307
#     4  10  19  34  56  81 109 139 176 219 265 317
#     4   9  18  32  49  72 104 139 174 214 257 306
#     4  12  25  38  54  76 108 145 184 225 269 317
#     4   9  17  33  56  80 109 144 180 216 259 314
#     4  11  23  36  51  73 105 141 180 220 264 313
#     4   9  17  30  52  81 109 138 172 212 259 314
#     4  10  18  32  56  81 106 137 173 215 263 313
#
# _framework density 17.212315
#
# number of rings (size 3 to 8) (size 9 to 14) (size 15 to 20)
#    0.000    2.250    2.500    2.250    0.000    2.250 
#    0.000    0.000    0.000    1.125    0.000    0.000 
#    0.000    0.000    0.000    0.000    0.000    0.000 
#
# Total GULP energy -357018.178034 kJ/mol
# GULP energy per Si atom -5578.409032 kJ/mol
# Density = 1.717314 g / cm^3
# Si number density = 17.212315 Si / 1000 Ang^3
#
#
#
# Elastic Constant Matrix: (Units=GPa)
#
#
# Indices 1 2 3 4 5 6 
#
# 1 26.5619 31.7977 34.4663 0.0000 0.0000 0.0000
# 2 31.7977 121.5337 66.5704 0.0000 0.0000 0.0000
# 3 34.4663 66.5704 115.5619 0.0000 0.0000 0.0000
# 4 0.0000 0.0000 0.0000 17.8376 0.0000 0.0000
# 5 0.0000 0.0000 0.0000 0.0000 23.9979 0.0000
# 6 0.0000 0.0000 0.0000 0.0000 0.0000 20.1072
#
#
#
# Elastic Compliance Matrix: (Units=1/GPa)
#
#
# Indices 1 2 3 4 5 6 
#
# 1 0.068645 -0.009856 -0.014796 0.000000 0.000000 0.000000
# 2 -0.009856 0.013436 -0.004801 0.000000 0.000000 0.000000
# 3 -0.014796 -0.004801 0.015832 0.000000 0.000000 0.000000
# 4 0.000000 0.000000 0.000000 0.056061 0.000000 0.000000
# 5 0.000000 0.000000 0.000000 0.000000 0.041670 0.000000
# 6 0.000000 0.000000 0.000000 0.000000 0.000000 0.049733
#
#
# Mechanical properties :
#
#
# Convention : Reuss Voigt Hill
#
# Bulk Modulus (GPa) = 25.63522 58.81402 42.22462
# Shear Modulus (GPa) = 15.75864 21.11008 18.43436
#
# Velocity S-wave (km/s) = 3.02908 3.50587 3.27616
# Velocity P-wave (km/s) = 5.21149 7.11562 6.23666
#
# Compressibility (1/GPa) = 0.03900884
#
# Stress axis : x y z
#
# Youngs Moduli (GPa) = 14.56761 74.42490 63.16413
#
# Poissons Ratio (x) = 0.73350 0.93458
# Poissons Ratio (y) = 0.14357 0.30323
# Poissons Ratio (z) = 0.21554 0.35729
#
# Static dielectric constant tensor:
#      x y z
#    x 1.579990 0.000000 0.000000 
#    y 0.000000 1.618100 0.000000 
#    z 0.000000 0.000000 1.550340 
# 
# From -- ./inp_files/28358.got.cif
#   From: 2010.05.17/outbox.cif.g08.bks.cpg/sg51_15_cif.got.tgz:28358.got - 2010.06.03 11:52:47.
