data_PCOD9399154
_publ_section_title
;
Structure prediction by ZEFSAII (Michael W. Deem and Ramdas Pophale) SiO2 
 PCOD9399154
Probable space group: P M M A
;
_chemical_formula_sum "Si O2"
_cell_formula_units_Z 40
_cell_length_a 9.206505
_cell_length_b 10.508098
_cell_length_c 25.370436
_cell_angle_alpha 90.000000
_cell_angle_beta 90.000000
_cell_angle_gamma 90.000000
_cell_volume 2454.408456
_symmetry_space_group_name_H-M "P M M A"
_symmetry_group_IT_number 51
_symmetry_cell_setting 'orthorhombic'
loop_
_space_group_symop_operation_xyz
x,y,z
1/2-x,-y,z
1/2+x,-y,-z
-x,y,-z
-x,-y,-z
1/2+x,y,-z
1/2-x,y,z
x,-y,z
loop_
_atom_site_type_symbol
_atom_site_label
_atom_site_fract_x
_atom_site_fract_y
_atom_site_fract_z
Si Si1 0.426635 0.000000 0.442618
Si Si2 0.082891 0.345103 0.841429
Si Si3 0.073852 0.250728 0.378092
Si Si4 0.425595 0.500000 0.443643
Si Si5 0.582449 0.344772 0.946982
Si Si6 0.576083 0.651666 0.733793
O O1 0.500000 0.000000 0.500000
O O2 0.470153 0.875866 0.408899
O O3 0.250000 0.000000 0.448445
O O4 0.250000 0.304000 0.842381
O O5 0.081749 0.500000 0.842332
O O6 0.998274 0.302959 0.893779
O O7 0.003635 0.309009 0.787288
O O8 0.250000 0.249781 0.376264
O O9 0.031354 0.374680 0.411328
O O10 0.026700 0.270919 0.317743
O O11 0.250000 0.500000 0.448851
O O12 0.500000 0.500000 0.500000
O O13 0.750000 0.305037 0.947417
O O14 0.580970 0.500000 0.946818
O O15 0.500000 0.304356 0.000000
O O16 0.750000 0.666069 0.740277
O O17 0.550505 0.500000 0.724505
#
# Coordination Sequence:
#
# PCOD9399154 Si02
#       6
#     4   8   8   4   8   8
#     4  10  20  34  50  68  90 116 145 178 219 268
#     4   9  16  24  34  52  78 105 135 177 223 263
#     4   9  17  30  48  66  86 113 145 179 217 263
#     4  10  18  30  46  66  88 112 141 176 215 258
#     4   9  15  22  32  47  70 105 147 185 219 259
#     4   9  15  26  43  59  76 104 141 177 213 258
#
# _framework density 16.297205000000002
#
# number of rings (size 3 to 8) (size 9 to 14) (size 15 to 20)
#    0.000    2.800    1.000    1.800    0.000    4.800 
#    0.000    2.000    0.000    0.000    0.000    0.000 
#    0.000    0.000    0.000    0.900    0.000    9.400 
#
# Total GULP energy -222834.435106 kJ/mol
# GULP energy per Si atom -5570.860878 kJ/mol
# Density = 1.626011 g / cm^3
# Si number density = 16.297205 Si / 1000 Ang^3
#
#
#
# Elastic Constant Matrix: (Units=GPa)
#
#
# Indices 1 2 3 4 5 6 
#
# 1 75.3213 26.2129 81.5745 0.0000 0.0000 0.0000
# 2 26.2129 68.0184 57.4379 0.0000 0.0000 0.0000
# 3 81.5745 57.4379 212.2210 0.0000 0.0000 0.0000
# 4 0.0000 0.0000 0.0000 12.2650 0.0000 0.0000
# 5 0.0000 0.0000 0.0000 0.0000 33.6828 0.0000
# 6 0.0000 0.0000 0.0000 0.0000 0.0000 2.9337
#
#
#
# Elastic Compliance Matrix: (Units=1/GPa)
#
#
# Indices 1 2 3 4 5 6 
#
# 1 0.022915 -0.001806 -0.008320 0.000000 0.000000 0.000000
# 2 -0.001806 0.019200 -0.004502 0.000000 0.000000 0.000000
# 3 -0.008320 -0.004502 0.009129 0.000000 0.000000 0.000000
# 4 0.000000 0.000000 0.000000 0.081533 0.000000 0.000000
# 5 0.000000 0.000000 0.000000 0.000000 0.029689 0.000000
# 6 0.000000 0.000000 0.000000 0.000000 0.000000 0.340869
#
#
# Mechanical properties :
#
#
# Convention : Reuss Voigt Hill
#
# Bulk Modulus (GPa) = 45.47863 76.22347 60.85105
# Shear Modulus (GPa) = 9.26067 22.46531 15.86299
#
# Velocity S-wave (km/s) = 2.38636 3.71681 3.12325
# Velocity P-wave (km/s) = 5.96316 8.08035 7.10110
#
# Compressibility (1/GPa) = 0.02198835
#
# Stress axis : x y z
#
# Youngs Moduli (GPa) = 43.63948 52.08387 109.54649
#
# Poissons Ratio (x) = 0.09404 0.91137
# Poissons Ratio (y) = 0.07880 0.49322
# Poissons Ratio (z) = 0.36306 0.23450
#
# Static dielectric constant tensor:
#      x y z
#    x 1.545080 0.000000 0.000000 
#    y 0.000000 1.535340 0.000000 
#    z 0.000000 0.000000 1.542170 
# 
# From -- ./inp_files/36000.got.cif
#   From: 2010.05.17/outbox.cif.g08.bks.cpg/sg51_18_cif.got.tgz:36000.got - 2010.06.03 11:52:47.
