data_PCOD9399119
_publ_section_title
;
Structure prediction by ZEFSAII (Michael W. Deem and Ramdas Pophale) SiO2 
 PCOD9399119
Probable space group: P M M A
;
_chemical_formula_sum "Si O2"
_cell_formula_units_Z 48
_cell_length_a 14.741783
_cell_length_b 12.233368
_cell_length_c 13.018911
_cell_angle_alpha 90.000000
_cell_angle_beta 90.000000
_cell_angle_gamma 90.000000
_cell_volume 2347.851974
_symmetry_space_group_name_H-M "P M M A"
_symmetry_group_IT_number 51
_symmetry_cell_setting 'orthorhombic'
loop_
_space_group_symop_operation_xyz
x,y,z
1/2-x,-y,z
1/2+x,-y,-z
-x,y,-z
-x,-y,-z
1/2+x,y,-z
1/2-x,y,z
x,-y,z
loop_
_atom_site_type_symbol
_atom_site_label
_atom_site_fract_x
_atom_site_fract_y
_atom_site_fract_z
Si Si1 0.353804 0.723006 0.116660
Si Si2 0.641165 0.124403 0.061178
Si Si3 0.116819 0.125099 0.310172
Si Si4 0.889059 0.738817 0.490962
Si Si5 0.601533 0.875122 0.295542
Si Si6 0.602292 0.500000 0.542653
Si Si7 0.638796 0.500000 0.783506
O O1 0.250000 0.696086 0.087881
O O2 0.352754 0.806185 0.212149
O O3 0.393335 0.609123 0.157821
O O4 0.394961 0.788991 0.021263
O O5 0.750000 0.119129 0.046580
O O6 0.623726 0.156277 0.178916
O O7 0.606323 0.000000 0.045711
O O8 0.142976 0.186955 0.414293
O O9 0.007301 0.123199 0.305846
O O10 0.147479 0.000000 0.307602
O O11 0.864239 0.794129 0.383334
O O12 0.857246 0.614575 0.504654
O O13 0.000000 0.737700 0.500000
O O14 0.634238 0.000000 0.311775
O O15 0.500000 0.500000 0.500000
O O16 0.604744 0.500000 0.666383
O O17 0.750000 0.500000 0.777479
#
# Coordination Sequence:
#
# PCOD9399119 Si02
#       7
#     8   8   8   8   8   4   4
#     4  10  20  34  52  73  99 131 168 209 257 307
#     4   9  18  34  54  74 100 136 174 210 252 304
#     4  10  18  29  50  76 103 131 166 212 256 304
#     4   9  17  30  49  75 101 133 167 206 252 303
#     4   9  18  32  50  74 105 137 169 206 253 307
#     4  10  18  32  55  76 100 137 174 208 252 307
#     4  10  20  36  55  77 104 134 168 213 264 309
#
# _framework density 20.444219
#
# number of rings (size 3 to 8) (size 9 to 14) (size 15 to 20)
#    0.000    2.500    1.667    1.000    0.000    3.667 
#    0.000    5.000    0.000    3.000    0.000    0.000 
#    0.000    0.000    0.000    0.000    0.000    0.000 
#
# Total GULP energy -267953.998175 kJ/mol
# GULP energy per Si atom -5582.374962 kJ/mol
# Density = 2.039769 g / cm^3
# Si number density = 20.444219 Si / 1000 Ang^3
#
#
#
# Elastic Constant Matrix: (Units=GPa)
#
#
# Indices 1 2 3 4 5 6 
#
# 1 55.0800 4.8345 7.6569 0.0000 0.0000 0.0000
# 2 4.8345 200.7277 129.1137 0.0000 0.0000 0.0000
# 3 7.6569 129.1137 191.5828 0.0000 0.0000 0.0000
# 4 0.0000 0.0000 0.0000 75.6764 0.0000 0.0000
# 5 0.0000 0.0000 0.0000 0.0000 27.7739 0.0000
# 6 0.0000 0.0000 0.0000 0.0000 0.0000 -591.2915
#
#
#
# Elastic Compliance Matrix: (Units=1/GPa)
#
#
# Indices 1 2 3 4 5 6 
#
# 1 0.018257 0.000052 -0.000765 0.000000 0.000000 0.000000
# 2 0.000052 0.008794 -0.005929 0.000000 0.000000 0.000000
# 3 -0.000765 -0.005929 0.009246 0.000000 0.000000 0.000000
# 4 0.000000 0.000000 0.000000 0.013214 0.000000 0.000000
# 5 0.000000 0.000000 0.000000 0.000000 0.036005 0.000000
# 6 0.000000 0.000000 0.000000 0.000000 0.000000 -0.001691
#
#
# Mechanical properties :
#
#
# Convention : Reuss Voigt Hill
#
# Bulk Modulus (GPa) = 43.45108 81.17784 62.31446
# Shear Modulus (GPa) = 47.71935 -77.18254 -14.73159
#
# Velocity S-wave (km/s) = 4.83652 -6.15099 -2.68727
# Velocity P-wave (km/s) = 7.24492 3.26391 4.57361
#
# Compressibility (1/GPa) = 0.02301439
#
# Stress axis : x y z
#
# Youngs Moduli (GPa) = 54.77305 113.71198 108.15707
#
# Poissons Ratio (x) = -0.00595 0.08273
# Poissons Ratio (y) = -0.00286 0.64124
# Poissons Ratio (z) = 0.04190 0.67417
#
# Static dielectric constant tensor:
#      x y z
#    x 1.779690 0.000000 0.000000 
#    y 0.000000 1.725670 0.000000 
#    z 0.000000 0.000000 1.686530 
# 
# From -- ./inp_files/18170.got.cif
#   From: 2010.05.17/outbox.cif.g08.bks.cpg/sg51_10_cif.got.tgz:18170.got - 2010.06.03 11:52:47.
