data_PCOD9399471
_publ_section_title
;
Structure prediction by ZEFSAII (Michael W. Deem and Ramdas Pophale) SiO2 
 PCOD9399471
Probable space group: P M M A
;
_chemical_formula_sum "Si O2"
_cell_formula_units_Z 64
_cell_length_a 18.403709
_cell_length_b 14.366348
_cell_length_c 15.784255
_cell_angle_alpha 90.000000
_cell_angle_beta 90.000000
_cell_angle_gamma 90.000000
_cell_volume 4173.263705
_symmetry_space_group_name_H-M "P M M A"
_symmetry_group_IT_number 51
_symmetry_cell_setting 'orthorhombic'
loop_
_space_group_symop_operation_xyz
x,y,z
1/2-x,-y,z
1/2+x,-y,-z
-x,y,-z
-x,-y,-z
1/2+x,y,-z
1/2-x,y,z
x,-y,z
loop_
_atom_site_type_symbol
_atom_site_label
_atom_site_fract_x
_atom_site_fract_y
_atom_site_fract_z
Si Si1 0.428781 0.606547 0.440982
Si Si2 0.166216 0.888898 0.493449
Si Si3 0.333408 0.886838 0.013568
Si Si4 0.066264 0.794133 0.352060
Si Si5 0.925504 0.110015 0.823140
Si Si6 0.105392 0.795711 0.660157
Si Si7 0.098804 0.890321 0.835902
Si Si8 0.336288 0.393915 0.603558
O O1 0.500000 0.623624 0.500000
O O2 0.432661 0.500000 0.410893
O O3 0.425010 0.684410 0.369586
O O4 0.361814 0.616428 0.506074
O O5 0.250000 0.868842 0.470154
O O6 0.110870 0.845809 0.425564
O O7 0.149465 0.844814 0.584928
O O8 0.156822 0.000000 0.497227
O O9 0.250000 0.858038 0.022193
O O10 0.380671 0.859057 0.094726
O O11 0.335781 0.000000 0.012355
O O12 0.365913 0.856768 0.923392
O O13 0.091201 0.831245 0.260832
O O14 0.979945 0.814014 0.357212
O O15 0.011466 0.117939 0.841640
O O16 0.910581 0.000000 0.806897
O O17 0.123424 0.836432 0.752108
O O18 0.122718 0.686240 0.654632
O O19 0.115772 0.000000 0.825169
O O20 0.250000 0.382291 0.610960
O O21 0.355721 0.500000 0.628353
#
# Coordination Sequence:
#
# PCOD9399471 Si02
#       8
#     8   8   8   8   8   8   8   8
#     4  10  18  31  50  71  95 125 163 204 243 281
#     4  11  23  34  44  63  96 134 166 197 236 282
#     4   9  17  30  48  69  92 120 155 197 244 287
#     4  11  20  32  49  71  94 128 165 200 238 287
#     4   9  18  31  47  67  94 126 161 197 236 284
#     4  11  20  32  49  71  95 126 164 200 240 286
#     4   9  18  31  48  69  94 124 158 196 237 284
#     4  10  20  33  49  69  95 126 159 199 245 288
#
# _framework density 15.335718999999999
#
# number of rings (size 3 to 8) (size 9 to 14) (size 15 to 20)
#    0.000    2.000    2.500    1.875    0.000    5.000 
#    0.000    2.500    0.000    0.000    0.000    0.875 
#    0.000    5.000    0.000    0.000    0.000    0.000 
#
# Total GULP energy -356950.908604 kJ/mol
# GULP energy per Si atom -5577.357947 kJ/mol
# Density = 1.530081 g / cm^3
# Si number density = 15.335719 Si / 1000 Ang^3
#
#
#
# Elastic Constant Matrix: (Units=GPa)
#
#
# Indices 1 2 3 4 5 6 
#
# 1 53.3072 27.1343 35.4710 0.0000 0.0000 0.0000
# 2 27.1343 65.8923 38.6995 0.0000 0.0000 0.0000
# 3 35.4710 38.6995 83.6656 0.0000 0.0000 0.0000
# 4 0.0000 0.0000 0.0000 9.0025 0.0000 0.0000
# 5 0.0000 0.0000 0.0000 0.0000 5.0786 0.0000
# 6 0.0000 0.0000 0.0000 0.0000 0.0000 18.2624
#
#
#
# Elastic Compliance Matrix: (Units=1/GPa)
#
#
# Indices 1 2 3 4 5 6 
#
# 1 0.027878 -0.006231 -0.008937 0.000000 0.000000 0.000000
# 2 -0.006231 0.022230 -0.007641 0.000000 0.000000 0.000000
# 3 -0.008937 -0.007641 0.019275 0.000000 0.000000 0.000000
# 4 0.000000 0.000000 0.000000 0.111081 0.000000 0.000000
# 5 0.000000 0.000000 0.000000 0.000000 0.196903 0.000000
# 6 0.000000 0.000000 0.000000 0.000000 0.000000 0.054757
#
#
# Mechanical properties :
#
#
# Convention : Reuss Voigt Hill
#
# Bulk Modulus (GPa) = 42.07777 45.05274 43.56525
# Shear Modulus (GPa) = 10.29520 13.23937 11.76729
#
# Velocity S-wave (km/s) = 2.59380 2.94139 2.77305
# Velocity P-wave (km/s) = 6.03885 6.40134 6.22273
#
# Compressibility (1/GPa) = 0.02376552
#
# Stress axis : x y z
#
# Youngs Moduli (GPa) = 35.87111 44.98490 51.87976
#
# Poissons Ratio (x) = 0.28031 0.46364
# Poissons Ratio (y) = 0.22352 0.39639
# Poissons Ratio (z) = 0.32057 0.34371
#
# Static dielectric constant tensor:
#      x y z
#    x 1.528130 0.000000 0.000000 
#    y 0.000000 1.511710 0.000000 
#    z 0.000000 0.000000 1.484910 
# 
# From -- ./inp_files/25342.got.cif
#   From: 2010.05.17/outbox.cif.g08.bks.cpg/sg51_13_cif.got.tgz:25342.got - 2010.06.03 11:52:47.
