data_PCOD9399193
_publ_section_title
;
Structure prediction by ZEFSAII (Michael W. Deem and Ramdas Pophale) SiO2 
 PCOD9399193
Probable space group: P M M A
;
_chemical_formula_sum "Si O2"
_cell_formula_units_Z 52
_cell_length_a 7.520471
_cell_length_b 17.203193
_cell_length_c 18.803799
_cell_angle_alpha 90.000000
_cell_angle_beta 90.000000
_cell_angle_gamma 90.000000
_cell_volume 2432.762444
_symmetry_space_group_name_H-M "P M M A"
_symmetry_group_IT_number 51
_symmetry_cell_setting 'orthorhombic'
loop_
_space_group_symop_operation_xyz
x,y,z
1/2-x,-y,z
1/2+x,-y,-z
-x,y,-z
-x,-y,-z
1/2+x,y,-z
1/2-x,y,z
x,-y,z
loop_
_atom_site_type_symbol
_atom_site_label
_atom_site_fract_x
_atom_site_fract_y
_atom_site_fract_z
Si Si1 0.546359 0.000000 0.830334
Si Si2 0.046542 0.829330 0.650583
Si Si3 0.958585 0.163238 0.814252
Si Si4 0.966636 0.587179 0.200570
Si Si5 0.961992 0.500000 0.417136
Si Si6 0.532284 0.339314 0.345564
Si Si7 0.467964 0.000000 0.662946
Si Si8 0.539264 0.696428 0.082877
O O1 0.467977 0.083518 0.848778
O O2 0.535678 0.000000 0.744142
O O3 0.750000 0.000000 0.855924
O O4 0.250000 0.830246 0.625301
O O5 0.967978 0.745445 0.628406
O O6 0.973896 0.915711 0.632301
O O7 0.046414 0.824347 0.737262
O O8 0.750000 0.151509 0.797912
O O9 0.973423 0.231485 0.870602
O O10 0.750000 0.584820 0.202213
O O11 0.028473 0.500000 0.214826
O O12 0.019942 0.645044 0.263684
O O13 0.025329 0.619942 0.124705
O O14 0.750000 0.500000 0.403108
O O15 0.027291 0.582208 0.385459
O O16 0.000000 0.500000 0.500000
O O17 0.750000 0.336745 0.348544
O O18 0.250000 0.000000 0.664825
O O19 0.750000 0.697576 0.090194
O O20 0.500000 0.699182 0.000000
#
# Coordination Sequence:
#
# PCOD9399193 Si02
#       8
#     4   8   8   8   4   8   4   8
#     4   8  16  28  43  63  90 123 156 193 239 299
#     4   9  15  26  45  71  97 126 161 200 243 290
#     4  10  18  30  47  68  94 124 159 199 248 297
#     4   9  16  29  51  74  92 118 160 200 234 285
#     4  10  20  34  54  78 107 138 166 199 236 285
#     4   9  15  27  50  75  97 128 167 196 231 284
#     4   8  14  22  38  67 100 121 149 201 249 281
#     4  11  22  35  50  68  92 122 160 206 253 299
#
# _framework density 21.374877999999999
#
# number of rings (size 3 to 8) (size 9 to 14) (size 15 to 20)
#    0.000    2.615    2.308    0.923    0.000    0.923 
#    0.000    1.154    0.000    1.385    0.000    0.538 
#    0.000    0.000    0.000    0.000    0.000    0.000 
#
# Total GULP energy -289681.366474 kJ/mol
# GULP energy per Si atom -5570.795509 kJ/mol
# Density = 2.132623 g / cm^3
# Si number density = 21.374878 Si / 1000 Ang^3
#
#
#
# Elastic Constant Matrix: (Units=GPa)
#
#
# Indices 1 2 3 4 5 6 
#
# 1 62.7056 1.1652 -7.0291 0.0000 0.0000 0.0000
# 2 1.1652 206.3732 18.3791 0.0000 0.0000 0.0000
# 3 -7.0291 18.3791 29.6396 0.0000 0.0000 0.0000
# 4 0.0000 0.0000 0.0000 11.8775 0.0000 0.0000
# 5 0.0000 0.0000 0.0000 0.0000 11.5796 0.0000
# 6 0.0000 0.0000 0.0000 0.0000 0.0000 -24.9414
#
#
#
# Elastic Compliance Matrix: (Units=1/GPa)
#
#
# Indices 1 2 3 4 5 6 
#
# 1 0.016425 -0.000465 0.004184 0.000000 0.000000 0.000000
# 2 -0.000465 0.005142 -0.003299 0.000000 0.000000 0.000000
# 3 0.004184 -0.003299 0.036776 0.000000 0.000000 0.000000
# 4 0.000000 0.000000 0.000000 0.084193 0.000000 0.000000
# 5 0.000000 0.000000 0.000000 0.000000 0.086359 0.000000
# 6 0.000000 0.000000 0.000000 0.000000 0.000000 -0.040094
#
#
# Mechanical properties :
#
#
# Convention : Reuss Voigt Hill
#
# Bulk Modulus (GPa) = 16.89681 35.97209 26.43445
# Shear Modulus (GPa) = 24.07433 18.78334 21.42884
#
# Velocity S-wave (km/s) = 3.35967 2.96760 3.16970
# Velocity P-wave (km/s) = 4.79291 5.34863 5.07838
#
# Compressibility (1/GPa) = 0.05918277
#
# Stress axis : x y z
#
# Youngs Moduli (GPa) = 60.88219 194.47673 27.19138
#
# Poissons Ratio (x) = 0.09050 -0.11376
# Poissons Ratio (y) = 0.02833 0.08970
# Poissons Ratio (z) = -0.25472 0.64155
#
# Static dielectric constant tensor:
#      x y z
#    x 1.811180 0.000000 0.000000 
#    y 0.000000 1.867330 0.000000 
#    z 0.000000 0.000000 1.672600 
# 
# From -- ./inp_files/27988.got.cif
#   From: 2010.05.17/outbox.cif.g08.bks.cpg/sg51_14_cif.got.tgz:27988.got - 2010.06.03 11:52:47.
