data_PCOD9399325
_publ_section_title
;
Structure prediction by ZEFSAII (Michael W. Deem and Ramdas Pophale) SiO2 
 PCOD9399325
Probable space group: P M M A
;
_chemical_formula_sum "Si O2"
_cell_formula_units_Z 44
_cell_length_a 7.624836
_cell_length_b 13.995301
_cell_length_c 19.556903
_cell_angle_alpha 90.000000
_cell_angle_beta 90.000000
_cell_angle_gamma 90.000000
_cell_volume 2086.953786
_symmetry_space_group_name_H-M "P M M A"
_symmetry_group_IT_number 51
_symmetry_cell_setting 'orthorhombic'
loop_
_space_group_symop_operation_xyz
x,y,z
1/2-x,-y,z
1/2+x,-y,-z
-x,y,-z
-x,-y,-z
1/2+x,y,-z
1/2-x,y,z
x,-y,z
loop_
_atom_site_type_symbol
_atom_site_label
_atom_site_fract_x
_atom_site_fract_y
_atom_site_fract_z
Si Si1 0.042116 0.396822 0.282440
Si Si2 0.539296 0.893710 0.919510
Si Si3 0.460613 0.100838 0.581049
Si Si4 0.035369 0.699168 0.151185
Si Si5 0.458158 0.308489 0.579194
Si Si6 0.459783 0.500000 0.080227
O O1 0.250000 0.400713 0.271554
O O2 0.967453 0.500000 0.263037
O O3 0.978905 0.316270 0.230017
O O4 0.014903 0.380012 0.362355
O O5 0.750000 0.895284 0.911377
O O6 0.472712 0.799120 0.880736
O O7 0.474174 0.000000 0.898249
O O8 0.500000 0.883296 0.000000
O O9 0.500000 0.098730 0.500000
O O10 0.250000 0.101118 0.590001
O O11 0.531304 0.204156 0.601426
O O12 0.528156 0.000000 0.610131
O O13 0.250000 0.702185 0.147061
O O14 0.978921 0.601236 0.112548
O O15 0.500000 0.329382 0.500000
O O16 0.250000 0.302990 0.581993
O O17 0.250000 0.500000 0.090668
O O18 0.500000 0.500000 0.000000
#
# Coordination Sequence:
#
# PCOD9399325 Si02
#       6
#     8   8   8   8   8   4
#     4  10  20  36  55  71  93 132 174 212 260 314
#     4   9  17  30  50  76 106 139 173 210 250 296
#     4   8  14  26  45  68  94 122 150 185 235 292
#     4   9  17  32  52  72  98 134 173 206 246 303
#     4  10  20  34  53  77 102 129 166 213 260 310
#     4  10  18  30  50  76 101 128 163 204 245 288
#
# _framework density 21.083361
#
# number of rings (size 3 to 8) (size 9 to 14) (size 15 to 20)
#    0.000    2.727    0.909    1.091    0.000    1.455 
#    0.000    2.727    0.000    1.091    0.000    0.000 
#    0.000    0.000    0.000    0.000    0.000    0.000 
#
# Total GULP energy -245051.882325 kJ/mol
# GULP energy per Si atom -5569.360962 kJ/mol
# Density = 2.103537 g / cm^3
# Si number density = 21.083361 Si / 1000 Ang^3
#
#
#
# Elastic Constant Matrix: (Units=GPa)
#
#
# Indices 1 2 3 4 5 6 
#
# 1 42.1925 10.0854 -3.1156 0.0000 0.0000 0.0000
# 2 10.0854 177.2006 78.7851 0.0000 0.0000 0.0000
# 3 -3.1156 78.7851 101.8814 0.0000 0.0000 0.0000
# 4 0.0000 0.0000 0.0000 30.2442 0.0000 0.0000
# 5 0.0000 0.0000 0.0000 0.0000 16.2725 0.0000
# 6 0.0000 0.0000 0.0000 0.0000 0.0000 0.3458
#
#
#
# Elastic Compliance Matrix: (Units=1/GPa)
#
#
# Indices 1 2 3 4 5 6 
#
# 1 0.024537 -0.002637 0.002789 0.000000 0.000000 0.000000
# 2 -0.002637 0.008884 -0.006950 0.000000 0.000000 0.000000
# 3 0.002789 -0.006950 0.015275 0.000000 0.000000 0.000000
# 4 0.000000 0.000000 0.000000 0.033064 0.000000 0.000000
# 5 0.000000 0.000000 0.000000 0.000000 0.061453 0.000000
# 6 0.000000 0.000000 0.000000 0.000000 0.000000 2.891731
#
#
# Mechanical properties :
#
#
# Convention : Reuss Voigt Hill
#
# Bulk Modulus (GPa) = 28.48948 54.75379 41.62164
# Shear Modulus (GPa) = 1.63386 25.07381 13.35384
#
# Velocity S-wave (km/s) = 0.88127 3.45232 2.51944
# Velocity P-wave (km/s) = 3.81807 6.47440 5.31486
#
# Compressibility (1/GPa) = 0.03510067
#
# Stress axis : x y z
#
# Youngs Moduli (GPa) = 40.75457 112.56738 65.46502
#
# Poissons Ratio (x) = 0.29681 -0.18260
# Poissons Ratio (y) = 0.10746 0.45500
# Poissons Ratio (z) = -0.11368 0.78238
#
# Static dielectric constant tensor:
#      x y z
#    x 1.851460 0.000000 0.000000 
#    y 0.000000 1.856510 0.000000 
#    z 0.000000 0.000000 1.702780 
# 
# From -- ./inp_files/27368.got.cif
#   From: 2010.05.17/outbox.cif.g08.bks.cpg/sg51_14_cif.got.tgz:27368.got - 2010.06.03 11:52:47.
