data_PCOD9399790
_publ_section_title
;
Structure prediction by ZEFSAII (Michael W. Deem and Ramdas Pophale) SiO2 
 PCOD9399790
Probable space group: P M M A
;
_chemical_formula_sum "Si O2"
_cell_formula_units_Z 48
_cell_length_a 16.984796
_cell_length_b 12.341300
_cell_length_c 13.259213
_cell_angle_alpha 90.000000
_cell_angle_beta 90.000000
_cell_angle_gamma 90.000000
_cell_volume 2779.322811
_symmetry_space_group_name_H-M "P M M A"
_symmetry_group_IT_number 51
_symmetry_cell_setting 'orthorhombic'
loop_
_space_group_symop_operation_xyz
x,y,z
1/2-x,-y,z
1/2+x,-y,-z
-x,y,-z
-x,-y,-z
1/2+x,y,-z
1/2-x,y,z
x,-y,z
loop_
_atom_site_type_symbol
_atom_site_label
_atom_site_fract_x
_atom_site_fract_y
_atom_site_fract_z
Si Si1 0.750000 0.628333 0.749414
Si Si2 0.750000 0.631226 0.981852
Si Si3 0.666694 0.000000 0.778985
Si Si4 0.628099 0.216766 0.660052
Si Si5 0.590522 0.125380 0.456831
Si Si6 0.999725 0.000000 0.880399
Si Si7 0.044863 0.791898 0.753455
Si Si8 0.922818 0.630921 0.070482
O O1 0.750000 0.500000 0.747164
O O2 0.824401 0.679936 0.695251
O O3 0.750000 0.665540 0.865493
O O4 0.750000 0.500000 0.985825
O O5 0.835811 0.663315 0.027411
O O6 0.660659 0.106757 0.710443
O O7 0.750000 0.000000 0.833937
O O8 0.591517 0.000000 0.849191
O O9 0.632581 0.197103 0.540941
O O10 0.540443 0.227460 0.703603
O O11 0.500000 0.122440 0.500000
O O12 0.594978 0.174032 0.344815
O O13 0.616708 0.000000 0.456370
O O14 0.037892 0.105517 0.828671
O O15 0.000000 0.000000 0.000000
O O16 0.068351 0.690737 0.822408
O O17 0.923924 0.500000 0.079555
O O18 0.000000 0.659468 0.000000
#
# Coordination Sequence:
#
# PCOD9399790 Si02
#       8
#     4   4   4   8   8   4   8   8
#     4  11  22  35  52  79 112 139 173 234 292 322
#     4   9  20  38  58  79 106 146 194 234 272 328
#     4  10  18  33  53  79 105 137 186 229 269 326
#     4  10  19  32  55  80 105 140 182 226 275 333
#     4   9  16  31  54  78 102 136 181 225 270 334
#     4  10  20  31  51  81 115 147 177 223 285 339
#     4  10  19  33  54  81 110 141 184 227 273 329
#     4  10  20  36  59  82 108 150 196 232 273 334
#
# _framework density 17.270394
#
# number of rings (size 3 to 8) (size 9 to 14) (size 15 to 20)
#    0.000    2.167    2.500    1.500    0.000    3.333 
#    0.000    1.667    0.000    4.000    0.000    0.000 
#    0.000    0.000    0.000    0.000    0.000    0.000 
#
# Total GULP energy -267394.490693 kJ/mol
# GULP energy per Si atom -5570.718556 kJ/mol
# Density = 1.723109 g / cm^3
# Si number density = 17.270394 Si / 1000 Ang^3
#
#
#
# Elastic Constant Matrix: (Units=GPa)
#
#
# Indices 1 2 3 4 5 6 
#
# 1 72.1116 27.5690 44.6273 0.0000 0.0000 0.0000
# 2 27.5690 69.4023 56.4013 0.0000 0.0000 0.0000
# 3 44.6273 56.4013 168.3788 0.0000 0.0000 0.0000
# 4 0.0000 0.0000 0.0000 27.1813 0.0000 0.0000
# 5 0.0000 0.0000 0.0000 0.0000 11.1901 0.0000
# 6 0.0000 0.0000 0.0000 0.0000 0.0000 21.5661
#
#
#
# Elastic Compliance Matrix: (Units=1/GPa)
#
#
# Indices 1 2 3 4 5 6 
#
# 1 0.017504 -0.004373 -0.003174 0.000000 0.000000 0.000000
# 2 -0.004373 0.020891 -0.005839 0.000000 0.000000 0.000000
# 3 -0.003174 -0.005839 0.008736 0.000000 0.000000 0.000000
# 4 0.000000 0.000000 0.000000 0.036790 0.000000 0.000000
# 5 0.000000 0.000000 0.000000 0.000000 0.089365 0.000000
# 6 0.000000 0.000000 0.000000 0.000000 0.000000 0.046369
#
#
# Mechanical properties :
#
#
# Convention : Reuss Voigt Hill
#
# Bulk Modulus (GPa) = 49.12055 63.00976 56.06516
# Shear Modulus (GPa) = 19.74617 24.07383 21.91000
#
# Velocity S-wave (km/s) = 3.38502 3.73760 3.56567
# Velocity P-wave (km/s) = 6.61677 7.42897 7.03460
#
# Compressibility (1/GPa) = 0.02035808
#
# Stress axis : x y z
#
# Youngs Moduli (GPa) = 57.13028 47.86773 114.46834
#
# Poissons Ratio (x) = 0.20935 0.36335
# Poissons Ratio (y) = 0.24986 0.66834
# Poissons Ratio (z) = 0.18135 0.27948
#
# Static dielectric constant tensor:
#      x y z
#    x 1.634320 0.000000 0.000000 
#    y 0.000000 1.569980 0.000000 
#    z 0.000000 0.000000 1.573240 
# 
# From -- ./inp_files/18198.got.cif
#   From: 2010.05.17/outbox.cif.g08.bks.cpg/sg51_10_cif.got.tgz:18198.got - 2010.06.03 11:52:47.
