data_PCOD9399950
_publ_section_title
;
Structure prediction by ZEFSAII (Michael W. Deem and Ramdas Pophale) SiO2 
 PCOD9399950
Probable space group: P M M A
;
_chemical_formula_sum "Si O2"
_cell_formula_units_Z 56
_cell_length_a 24.133542
_cell_length_b 7.689253
_cell_length_c 12.967815
_cell_angle_alpha 90.000000
_cell_angle_beta 90.000000
_cell_angle_gamma 90.000000
_cell_volume 2406.423298
_symmetry_space_group_name_H-M "P M M A"
_symmetry_group_IT_number 51
_symmetry_cell_setting 'orthorhombic'
loop_
_space_group_symop_operation_xyz
x,y,z
1/2-x,-y,z
1/2+x,-y,-z
-x,y,-z
-x,-y,-z
1/2+x,y,-z
1/2-x,y,z
x,-y,z
loop_
_atom_site_type_symbol
_atom_site_label
_atom_site_fract_x
_atom_site_fract_y
_atom_site_fract_z
Si Si1 0.309576 0.789679 0.408332
Si Si2 0.369817 0.290062 0.085991
Si Si3 0.250000 0.293749 0.043773
Si Si4 0.078428 0.702200 0.291957
Si Si5 0.546006 0.791951 0.077859
Si Si6 0.539782 0.793507 0.309699
Si Si7 0.750000 0.210653 0.198301
Si Si8 0.659588 0.787625 0.364046
O O1 0.250000 0.731183 0.365060
O O2 0.364406 0.726331 0.352020
O O3 0.313570 0.736051 0.527881
O O4 0.310807 0.000000 0.404484
O O5 0.368767 0.500000 0.094344
O O6 0.408799 0.220327 0.178150
O O7 0.307094 0.222995 0.090531
O O8 0.395718 0.243451 0.976160
O O9 0.250000 0.500000 0.063771
O O10 0.250000 0.270935 0.919717
O O11 0.067792 0.500000 0.278709
O O12 0.023091 0.769573 0.347441
O O13 0.540675 0.722740 0.192722
O O14 0.538692 0.000000 0.083723
O O15 0.500000 0.719278 0.000000
O O16 0.595636 0.726808 0.362838
O O17 0.547722 0.000000 0.305230
O O18 0.803841 0.266457 0.265418
O O19 0.750000 0.000000 0.195350
O O20 0.660659 0.000000 0.362797
#
# Coordination Sequence:
#
# PCOD9399950 Si02
#       8
#     8   8   4   8   8   8   4   8
#     4  10  21  40  64  87 110 143 189 239 288 343
#     4  10  22  38  56  77 111 156 194 227 274 337
#     4  10  22  38  53  78 114 150 187 230 275 328
#     4  11  24  39  57  82 114 155 197 238 282 333
#     4  10  19  33  56  85 116 146 184 234 277 321
#     4  10  20  36  58  86 119 153 186 229 286 342
#     4  10  18  36  63  90 116 144 185 234 285 344
#     4   9  18  35  63  90 113 145 184 230 288 350
#
# _framework density 23.271052000000001
#
# number of rings (size 3 to 8) (size 9 to 14) (size 15 to 20)
#    0.000    2.000    2.143    1.286    1.000    4.000 
#    0.000    5.000    0.000    0.000    0.000    0.000 
#    0.000    0.000    0.000    0.000    0.000    0.000 
#
# Total GULP energy -312807.313500 kJ/mol
# GULP energy per Si atom -5585.844884 kJ/mol
# Density = 2.321809 g / cm^3
# Si number density = 23.271052 Si / 1000 Ang^3
#
#
#
# Elastic Constant Matrix: (Units=GPa)
#
#
# Indices 1 2 3 4 5 6 
#
# 1 175.6986 -3.3124 11.9337 0.0000 0.0000 0.0000
# 2 -3.3124 38.6760 -3.9253 0.0000 0.0000 0.0000
# 3 11.9337 -3.9253 23.7143 0.0000 0.0000 0.0000
# 4 0.0000 0.0000 0.0000 15.8782 0.0000 0.0000
# 5 0.0000 0.0000 0.0000 0.0000 40.1090 0.0000
# 6 0.0000 0.0000 0.0000 0.0000 0.0000 25.1723
#
#
#
# Elastic Compliance Matrix: (Units=1/GPa)
#
#
# Indices 1 2 3 4 5 6 
#
# 1 0.005895 0.000207 -0.002932 0.000000 0.000000 0.000000
# 2 0.000207 0.026305 0.004250 0.000000 0.000000 0.000000
# 3 -0.002932 0.004250 0.044348 0.000000 0.000000 0.000000
# 4 0.000000 0.000000 0.000000 0.062980 0.000000 0.000000
# 5 0.000000 0.000000 0.000000 0.000000 0.024932 0.000000
# 6 0.000000 0.000000 0.000000 0.000000 0.000000 0.039726
#
#
# Mechanical properties :
#
#
# Convention : Reuss Voigt Hill
#
# Bulk Modulus (GPa) = 12.56327 27.49788 20.03057
# Shear Modulus (GPa) = 21.96187 31.79142 26.87665
#
# Velocity S-wave (km/s) = 3.07537 3.70014 3.40213
# Velocity P-wave (km/s) = 4.24511 5.48604 4.90498
#
# Compressibility (1/GPa) = 0.07959713
#
# Stress axis : x y z
#
# Youngs Moduli (GPa) = 169.64616 38.01575 22.54915
#
# Poissons Ratio (x) = -0.00788 0.06612
# Poissons Ratio (y) = -0.03516 -0.09583
# Poissons Ratio (z) = 0.49741 -0.16156
#
# Static dielectric constant tensor:
#      x y z
#    x 1.935590 0.000000 0.000000 
#    y 0.000000 1.856750 0.000000 
#    z 0.000000 0.000000 1.860110 
# 
# From -- ./inp_files/25797.got.cif
#   From: 2010.05.17/outbox.cif.g08.bks.cpg/sg51_13_cif.got.tgz:25797.got - 2010.06.03 11:52:47.
