data_PCOD9399321
_publ_section_title
;
Structure prediction by ZEFSAII (Michael W. Deem and Ramdas Pophale) SiO2 
 PCOD9399321
Probable space group: P M M A
;
_chemical_formula_sum "Si O2"
_cell_formula_units_Z 48
_cell_length_a 14.433524
_cell_length_b 12.311795
_cell_length_c 12.999261
_cell_angle_alpha 90.000000
_cell_angle_beta 90.000000
_cell_angle_gamma 90.000000
_cell_volume 2310.002330
_symmetry_space_group_name_H-M "P M M A"
_symmetry_group_IT_number 51
_symmetry_cell_setting 'orthorhombic'
loop_
_space_group_symop_operation_xyz
x,y,z
1/2-x,-y,z
1/2+x,-y,-z
-x,y,-z
-x,-y,-z
1/2+x,y,-z
1/2-x,y,z
x,-y,z
loop_
_atom_site_type_symbol
_atom_site_label
_atom_site_fract_x
_atom_site_fract_y
_atom_site_fract_z
Si Si1 0.863377 0.123706 0.642451
Si Si2 0.608168 0.877256 0.021489
Si Si3 0.363214 0.500000 0.235451
Si Si4 0.637085 0.500000 0.522537
Si Si5 0.142612 0.733010 0.170261
Si Si6 0.361209 0.876747 0.741176
Si Si7 0.863164 0.267726 0.446108
O O1 0.750000 0.120142 0.643864
O O2 0.896688 0.181635 0.746910
O O3 0.889535 0.195100 0.544257
O O4 0.895013 0.000000 0.634774
O O5 0.622622 0.847384 0.140128
O O6 0.646563 0.000000 0.004895
O O7 0.500000 0.884293 0.000000
O O8 0.641839 0.787781 0.941144
O O9 0.250000 0.500000 0.229009
O O10 0.387655 0.500000 0.356530
O O11 0.397173 0.388061 0.183016
O O12 0.750000 0.500000 0.521676
O O13 0.606063 0.609344 0.465789
O O14 0.250000 0.721435 0.200655
O O15 0.250000 0.881627 0.727736
O O16 0.395765 0.791008 0.657501
O O17 0.396325 0.000000 0.724407
O O18 0.750000 0.270114 0.444035
#
# Coordination Sequence:
#
# PCOD9399321 Si02
#       7
#     8   8   4   4   8   8   8
#     4   9  15  22  38  68 100 123 150 194 241 285
#     4  10  21  36  52  70  96 131 168 208 255 301
#     4   9  16  28  46  73 105 132 157 197 250 295
#     4   9  14  24  41  67 104 136 155 186 241 292
#     4  10  18  30  50  75 100 128 165 204 245 291
#     4   9  17  30  49  72  98 128 161 199 242 288
#     4   9  15  24  41  68 100 129 156 188 236 291
#
# _framework density 20.779199999999999
#
# number of rings (size 3 to 8) (size 9 to 14) (size 15 to 20)
#    0.000    2.667    1.667    1.500    0.000    3.667 
#    0.000    1.250    0.000    4.000    0.000    5.833 
#    0.000    0.000    0.000    0.000    0.000    0.000 
#
# Total GULP energy -267961.445870 kJ/mol
# GULP energy per Si atom -5582.530122 kJ/mol
# Density = 2.073191 g / cm^3
# Si number density = 20.779200 Si / 1000 Ang^3
#
#
#
# Elastic Constant Matrix: (Units=GPa)
#
#
# Indices 1 2 3 4 5 6 
#
# 1 44.7325 -0.7502 -1.4196 0.0000 0.0000 0.0000
# 2 -0.7502 228.4259 134.5848 0.0000 0.0000 0.0000
# 3 -1.4196 134.5848 163.9576 0.0000 0.0000 0.0000
# 4 0.0000 0.0000 0.0000 21.6034 0.0000 0.0000
# 5 0.0000 0.0000 0.0000 0.0000 11.7684 0.0000
# 6 0.0000 0.0000 0.0000 0.0000 0.0000 9.0715
#
#
#
# Elastic Compliance Matrix: (Units=1/GPa)
#
#
# Indices 1 2 3 4 5 6 
#
# 1 0.022362 -0.000079 0.000258 0.000000 0.000000 0.000000
# 2 -0.000079 0.008478 -0.006960 0.000000 0.000000 0.000000
# 3 0.000258 -0.006960 0.011815 0.000000 0.000000 0.000000
# 4 0.000000 0.000000 0.000000 0.046289 0.000000 0.000000
# 5 0.000000 0.000000 0.000000 0.000000 0.084974 0.000000
# 6 0.000000 0.000000 0.000000 0.000000 0.000000 0.110235
#
#
# Mechanical properties :
#
#
# Convention : Reuss Voigt Hill
#
# Bulk Modulus (GPa) = 34.37170 77.99400 56.18285
# Shear Modulus (GPa) = 16.26483 28.80204 22.53344
#
# Velocity S-wave (km/s) = 2.80079 3.72708 3.29663
# Velocity P-wave (km/s) = 5.19967 7.49250 6.44880
#
# Compressibility (1/GPa) = 0.02909370
#
# Stress axis : x y z
#
# Youngs Moduli (GPa) = 44.71876 117.94785 84.64100
#
# Poissons Ratio (x) = 0.00928 -0.02186
# Poissons Ratio (y) = 0.00352 0.58911
# Poissons Ratio (z) = -0.01155 0.82093
#
# Static dielectric constant tensor:
#      x y z
#    x 1.782690 0.000000 0.000000 
#    y 0.000000 1.747060 0.000000 
#    z 0.000000 0.000000 1.709280 
# 
# From -- ./inp_files/18186.got.cif
#   From: 2010.05.17/outbox.cif.g08.bks.cpg/sg51_10_cif.got.tgz:18186.got - 2010.06.03 11:52:47.
