data_PCOD9399025
_publ_section_title
;
Structure prediction by ZEFSAII (Michael W. Deem and Ramdas Pophale) SiO2 
 PCOD9399025
Probable space group: P M M A
;
_chemical_formula_sum "Si O2"
_cell_formula_units_Z 64
_cell_length_a 9.420765
_cell_length_b 19.846559
_cell_length_c 20.650190
_cell_angle_alpha 90.000000
_cell_angle_beta 90.000000
_cell_angle_gamma 90.000000
_cell_volume 3860.961242
_symmetry_space_group_name_H-M "P M M A"
_symmetry_group_IT_number 51
_symmetry_cell_setting 'orthorhombic'
loop_
_space_group_symop_operation_xyz
x,y,z
1/2-x,-y,z
1/2+x,-y,-z
-x,y,-z
-x,-y,-z
1/2+x,y,-z
1/2-x,y,z
x,-y,z
loop_
_atom_site_type_symbol
_atom_site_label
_atom_site_fract_x
_atom_site_fract_y
_atom_site_fract_z
Si Si1 0.919384 0.355136 0.937684
Si Si2 0.580587 0.422018 0.433651
Si Si3 0.914542 0.074594 0.097923
Si Si4 0.913703 0.924334 0.255400
Si Si5 0.579885 0.663751 0.306958
Si Si6 0.417794 0.793328 0.104942
Si Si7 0.917648 0.206580 0.739239
Si Si8 0.085047 0.580224 0.200499
O O1 0.750000 0.356209 0.948000
O O2 0.963645 0.277371 0.925722
O O3 0.948481 0.395883 0.872155
O O4 0.000000 0.382168 0.000000
O O5 0.500000 0.406020 0.500000
O O6 0.750000 0.418824 0.444258
O O7 0.545986 0.500000 0.415997
O O8 0.545320 0.372096 0.375081
O O9 0.750000 0.080730 0.078158
O O10 0.917529 0.074643 0.176721
O O11 0.002112 0.140598 0.079525
O O12 0.967289 0.000000 0.077746
O O13 0.750000 0.909864 0.273274
O O14 0.018538 0.866256 0.278061
O O15 0.950217 0.000000 0.277087
O O16 0.750000 0.670219 0.301724
O O17 0.503560 0.735088 0.296740
O O18 0.517953 0.616214 0.250665
O O19 0.250000 0.801950 0.094397
O O20 0.438902 0.785973 0.182768
O O21 0.750000 0.211090 0.726931
O O22 0.250000 0.600636 0.213341
O O23 0.075682 0.500000 0.205660
#
# Coordination Sequence:
#
# PCOD9399025 Si02
#       8
#     8   8   8   8   8   8   8   8
#     4  10  21  37  52  71  95 122 161 205 252 304
#     4   9  19  35  53  75 104 137 172 209 247 292
#     4   8  14  24  40  64  91 117 150 191 235 288
#     4   8  14  25  40  62  95 131 165 203 249 297
#     4  11  21  33  52  78 108 136 168 210 250 292
#     4   9  17  30  46  64  92 122 155 200 242 291
#     4  10  18  29  46  69  99 133 169 207 250 299
#     4  10  21  38  57  75  99 129 160 201 254 308
#
# _framework density 16.576181999999999
#
# number of rings (size 3 to 8) (size 9 to 14) (size 15 to 20)
#    0.000    2.625    1.250    1.875    0.000    4.000 
#    0.000    3.750    0.000    0.375    0.000    0.000 
#    0.000    0.500    0.000    1.625    0.000    2.000 
#
# Total GULP energy -356915.996698 kJ/mol
# GULP energy per Si atom -5576.812448 kJ/mol
# Density = 1.653845 g / cm^3
# Si number density = 16.576182 Si / 1000 Ang^3
#
#
#
# Elastic Constant Matrix: (Units=GPa)
#
#
# Indices 1 2 3 4 5 6 
#
# 1 62.6601 56.3761 50.6291 0.0000 0.0000 0.0000
# 2 56.3761 91.5614 45.5414 0.0000 0.0000 0.0000
# 3 50.6291 45.5414 72.7949 0.0000 0.0000 0.0000
# 4 0.0000 0.0000 0.0000 62.0111 0.0000 0.0000
# 5 0.0000 0.0000 0.0000 0.0000 20.8917 0.0000
# 6 0.0000 0.0000 0.0000 0.0000 0.0000 48.4907
#
#
#
# Elastic Compliance Matrix: (Units=1/GPa)
#
#
# Indices 1 2 3 4 5 6 
#
# 1 0.056266 -0.022037 -0.025347 0.000000 0.000000 0.000000
# 2 -0.022037 0.024486 0.000008 0.000000 0.000000 0.000000
# 3 -0.025347 0.000008 0.031361 0.000000 0.000000 0.000000
# 4 0.000000 0.000000 0.000000 0.016126 0.000000 0.000000
# 5 0.000000 0.000000 0.000000 0.000000 0.047866 0.000000
# 6 0.000000 0.000000 0.000000 0.000000 0.000000 0.020623
#
#
# Mechanical properties :
#
#
# Convention : Reuss Voigt Hill
#
# Bulk Modulus (GPa) = 57.59762 59.12330 58.36046
# Shear Modulus (GPa) = 16.81992 31.24336 24.03164
#
# Velocity S-wave (km/s) = 3.18890 4.34618 3.81171
# Velocity P-wave (km/s) = 6.95567 7.80581 7.39297
#
# Compressibility (1/GPa) = 0.01736183
#
# Stress axis : x y z
#
# Youngs Moduli (GPa) = 17.77271 40.83905 31.88685
#
# Poissons Ratio (x) = 0.89997 0.80822
# Poissons Ratio (y) = 0.39166 -0.00025
# Poissons Ratio (z) = 0.45048 -0.00032
#
# Static dielectric constant tensor:
#      x y z
#    x 1.552660 0.000000 0.000000 
#    y 0.000000 1.569360 0.000000 
#    z 0.000000 0.000000 1.538910 
# 
# From -- ./inp_files/32654.got.cif
#   From: 2010.05.17/outbox.cif.g08.bks.cpg/sg51_17_cif.got.tgz:32654.got - 2010.06.03 11:52:47.
