data_PCOD9399858
_publ_section_title
;
Structure prediction by ZEFSAII (Michael W. Deem and Ramdas Pophale) SiO2 
 PCOD9399858
Probable space group: P M M A
;
_chemical_formula_sum "Si O2"
_cell_formula_units_Z 64
_cell_length_a 16.269431
_cell_length_b 15.632831
_cell_length_c 12.726338
_cell_angle_alpha 90.000000
_cell_angle_beta 90.000000
_cell_angle_gamma 90.000000
_cell_volume 3236.782004
_symmetry_space_group_name_H-M "P M M A"
_symmetry_group_IT_number 51
_symmetry_cell_setting 'orthorhombic'
loop_
_space_group_symop_operation_xyz
x,y,z
1/2-x,-y,z
1/2+x,-y,-z
-x,y,-z
-x,-y,-z
1/2+x,y,-z
1/2-x,y,z
x,-y,z
loop_
_atom_site_type_symbol
_atom_site_label
_atom_site_fract_x
_atom_site_fract_y
_atom_site_fract_z
Si Si1 0.427961 0.277474 0.825235
Si Si2 0.156721 0.142744 0.248072
Si Si3 0.346118 0.596459 0.988901
Si Si4 0.650422 0.904839 0.509757
Si Si5 0.849501 0.594034 0.559140
Si Si6 0.493903 0.906123 0.874343
Si Si7 0.112361 0.662984 0.215756
Si Si8 0.849044 0.737179 0.396454
O O1 0.390610 0.329736 0.922501
O O2 0.439907 0.176184 0.844571
O O3 0.517610 0.315673 0.804363
O O4 0.375661 0.287252 0.719790
O O5 0.250000 0.111864 0.226798
O O6 0.135680 0.120585 0.368946
O O7 0.084819 0.106046 0.175033
O O8 0.155174 0.245084 0.233420
O O9 0.250000 0.598260 0.961159
O O10 0.377856 0.500000 0.967048
O O11 0.354555 0.616375 0.112408
O O12 0.750000 0.907237 0.499618
O O13 0.619655 0.830403 0.433068
O O14 0.618514 0.000000 0.488182
O O15 0.750000 0.596906 0.559004
O O16 0.875453 0.500000 0.523118
O O17 0.876654 0.610511 0.677936
O O18 0.878968 0.667998 0.481334
O O19 0.462158 0.000000 0.841398
O O20 0.500000 0.905027 0.000000
O O21 0.750000 0.738788 0.401265
#
# Coordination Sequence:
#
# PCOD9399858 Si02
#       8
#     8   8   8   8   8   8   8   8
#     4  11  24  40  60  86 124 164 197 238 305 372
#     4  10  18  33  60  89 119 156 202 251 305 359
#     4  11  24  42  66  93 118 153 204 254 302 362
#     4   9  17  31  55  86 115 146 194 254 302 341
#     4  10  20  36  59  85 114 152 199 248 297 350
#     4  10  22  40  59  85 123 161 201 249 303 364
#     4  11  21  36  59  90 126 155 191 246 306 362
#     4  10  21  39  59  81 115 158 203 247 292 354
#
# _framework density 19.772725000000001
#
# number of rings (size 3 to 8) (size 9 to 14) (size 15 to 20)
#    0.000    1.750    1.250    4.125    0.000    4.750 
#    0.000    2.500    0.000    4.875    0.000    0.000 
#    0.000    0.000    0.000    0.000    0.000    0.000 
#
# Total GULP energy -357473.496008 kJ/mol
# GULP energy per Si atom -5585.523375 kJ/mol
# Density = 1.972772 g / cm^3
# Si number density = 19.772725 Si / 1000 Ang^3
#
#
#
# Elastic Constant Matrix: (Units=GPa)
#
#
# Indices 1 2 3 4 5 6 
#
# 1 27.4216 26.8554 7.5243 0.0000 0.0000 0.0000
# 2 26.8554 142.1722 38.1355 0.0000 0.0000 0.0000
# 3 7.5243 38.1355 88.3791 0.0000 0.0000 0.0000
# 4 0.0000 0.0000 0.0000 10.5402 0.0000 0.0000
# 5 0.0000 0.0000 0.0000 0.0000 3.3703 0.0000
# 6 0.0000 0.0000 0.0000 0.0000 0.0000 10.1283
#
#
#
# Elastic Compliance Matrix: (Units=1/GPa)
#
#
# Indices 1 2 3 4 5 6 
#
# 1 0.044748 -0.008403 -0.000184 0.000000 0.000000 0.000000
# 2 -0.008403 0.009532 -0.003398 0.000000 0.000000 0.000000
# 3 -0.000184 -0.003398 0.012797 0.000000 0.000000 0.000000
# 4 0.000000 0.000000 0.000000 0.094874 0.000000 0.000000
# 5 0.000000 0.000000 0.000000 0.000000 0.296711 0.000000
# 6 0.000000 0.000000 0.000000 0.000000 0.000000 0.098733
#
#
# Mechanical properties :
#
#
# Convention : Reuss Voigt Hill
#
# Bulk Modulus (GPa) = 23.19787 44.77815 33.98801
# Shear Modulus (GPa) = 8.39301 17.17162 12.78232
#
# Velocity S-wave (km/s) = 2.06251 2.95014 2.54532
# Velocity P-wave (km/s) = 4.17489 5.85663 5.08575
#
# Compressibility (1/GPa) = 0.04310741
#
# Stress axis : x y z
#
# Youngs Moduli (GPa) = 22.34746 104.90459 78.14525
#
# Poissons Ratio (x) = 0.88155 0.01435
# Poissons Ratio (y) = 0.18779 0.26552
# Poissons Ratio (z) = 0.00410 0.35645
#
# Static dielectric constant tensor:
#      x y z
#    x 1.695810 0.000000 0.000000 
#    y 0.000000 1.726250 0.000000 
#    z 0.000000 0.000000 1.649870 
# 
# From -- ./inp_files/17551.got.cif
#   From: 2010.05.17/outbox.cif.g08.bks.cpg/sg51_9_cif.got.tgz:17551.got - 2010.06.03 11:52:47.
