data_PCOD9399928
_publ_section_title
;
Structure prediction by ZEFSAII (Michael W. Deem and Ramdas Pophale) SiO2 
 PCOD9399928
Probable space group: P M M A
;
_chemical_formula_sum "Si O2"
_cell_formula_units_Z 58
_cell_length_a 31.552751
_cell_length_b 7.777802
_cell_length_c 11.112575
_cell_angle_alpha 90.000000
_cell_angle_beta 90.000000
_cell_angle_gamma 90.000000
_cell_volume 2727.148697
_symmetry_space_group_name_H-M "P M M A"
_symmetry_group_IT_number 51
_symmetry_cell_setting 'orthorhombic'
loop_
_space_group_symop_operation_xyz
x,y,z
1/2-x,-y,z
1/2+x,-y,-z
-x,y,-z
-x,-y,-z
1/2+x,y,-z
1/2-x,y,z
x,-y,z
loop_
_atom_site_type_symbol
_atom_site_label
_atom_site_fract_x
_atom_site_fract_y
_atom_site_fract_z
Si Si1 0.800229 0.198164 0.156490
Si Si2 0.403815 0.208393 0.222091
Si Si3 0.683110 0.307429 0.900108
Si Si4 0.702593 0.299946 0.431101
Si Si5 0.609673 0.798786 0.505587
Si Si6 0.250000 0.000000 0.145979
Si Si7 0.494311 0.300020 0.132907
Si Si8 0.026981 0.299173 0.614730
O O1 0.750000 0.195101 0.126163
O O2 0.803416 0.280450 0.287338
O O3 0.814441 0.000000 0.163935
O O4 0.821420 0.290602 0.044832
O O5 0.361749 0.276552 0.160471
O O6 0.402647 0.260890 0.361607
O O7 0.444856 0.286413 0.161170
O O8 0.405007 0.000000 0.215858
O O9 0.698698 0.500000 0.872004
O O10 0.713444 0.152627 0.859424
O O11 0.750000 0.226293 0.459523
O O12 0.703752 0.500000 0.462783
O O13 0.660033 0.224772 0.487807
O O14 0.576949 0.712692 0.413671
O O15 0.600861 0.000000 0.496115
O O16 0.508408 0.500000 0.124617
O O17 0.516242 0.223849 0.253565
O O18 0.500000 0.221811 0.000000
O O19 0.014617 0.500000 0.621622
O O20 0.000000 0.226852 0.500000
#
# Coordination Sequence:
#
# PCOD9399928 Si02
#       8
#     8   8   8   8   8   2   8   8
#     4  10  18  35  59  86 122 160 211 272 327 393
#     4  11  24  43  62  89 131 172 220 281 337 408
#     4  12  23  39  66  94 130 178 223 280 344 401
#     4  10  22  39  60  89 125 167 218 272 331 400
#     4  11  24  41  64  91 124 170 220 275 337 400
#     4  12  22  44  60  98 132 170 238 286 330 412
#     4  10  22  41  66  98 133 168 213 274 347 417
#     4  10  20  38  67  95 123 164 214 269 324 399
#
# _framework density 21.267636
#
# number of rings (size 3 to 8) (size 9 to 14) (size 15 to 20)
#    0.000    1.379    3.448    1.862    0.000    5.241 
#    1.241    4.138    0.000    0.000    0.000    0.000 
#    0.000    0.000    0.000    0.000    0.000    0.000 
#
# Total GULP energy -323318.819008 kJ/mol
# GULP energy per Si atom -5574.462397 kJ/mol
# Density = 2.121923 g / cm^3
# Si number density = 21.267636 Si / 1000 Ang^3
#
#
#
# Elastic Constant Matrix: (Units=GPa)
#
#
# Indices 1 2 3 4 5 6 
#
# 1 110.0605 2.7065 54.3580 0.0000 0.0000 0.0000
# 2 2.7065 73.7015 6.8632 0.0000 0.0000 0.0000
# 3 54.3580 6.8632 121.6592 0.0000 0.0000 0.0000
# 4 0.0000 0.0000 0.0000 14.1526 0.0000 0.0000
# 5 0.0000 0.0000 0.0000 0.0000 207.1460 0.0000
# 6 0.0000 0.0000 0.0000 0.0000 0.0000 32.2743
#
#
#
# Elastic Compliance Matrix: (Units=1/GPa)
#
#
# Indices 1 2 3 4 5 6 
#
# 1 0.011659 0.000057 -0.005212 0.000000 0.000000 0.000000
# 2 0.000057 0.013640 -0.000795 0.000000 0.000000 0.000000
# 3 -0.005212 -0.000795 0.010594 0.000000 0.000000 0.000000
# 4 0.000000 0.000000 0.000000 0.070658 0.000000 0.000000
# 5 0.000000 0.000000 0.000000 0.000000 0.004828 0.000000
# 6 0.000000 0.000000 0.000000 0.000000 0.000000 0.030984
#
#
# Mechanical properties :
#
#
# Convention : Reuss Voigt Hill
#
# Bulk Modulus (GPa) = 41.68060 48.14184 44.91122
# Shear Modulus (GPa) = 30.81461 66.81414 48.81438
#
# Velocity S-wave (km/s) = 3.81057 5.61107 4.79607
# Velocity P-wave (km/s) = 6.24510 8.04140 7.19949
#
# Compressibility (1/GPa) = 0.02399197
#
# Stress axis : x y z
#
# Youngs Moduli (GPa) = 85.77127 73.31281 94.39750
#
# Poissons Ratio (x) = -0.00420 0.49205
# Poissons Ratio (y) = -0.00491 0.07505
# Poissons Ratio (z) = 0.44708 0.05829
#
# Static dielectric constant tensor:
#      x y z
#    x 1.768550 0.000000 0.000000 
#    y 0.000000 1.776260 0.000000 
#    z 0.000000 0.000000 1.800340 
# 
# From -- ./inp_files/19159.got.cif
#   From: 2010.05.17/outbox.cif.g08.bks.cpg/sg51_10_cif.got.tgz:19159.got - 2010.06.03 11:52:47.
