data_PCOD9399008
_publ_section_title
;
Structure prediction by ZEFSAII (Michael W. Deem and Ramdas Pophale) SiO2 
 PCOD9399008
Probable space group: P M M A
;
_chemical_formula_sum "Si O2"
_cell_formula_units_Z 64
_cell_length_a 29.382037
_cell_length_b 8.819575
_cell_length_c 15.999127
_cell_angle_alpha 90.000000
_cell_angle_beta 90.000000
_cell_angle_gamma 90.000000
_cell_volume 4145.967037
_symmetry_space_group_name_H-M "P M M A"
_symmetry_group_IT_number 51
_symmetry_cell_setting 'orthorhombic'
loop_
_space_group_symop_operation_xyz
x,y,z
1/2-x,-y,z
1/2+x,-y,-z
-x,y,-z
-x,-y,-z
1/2+x,y,-z
1/2-x,y,z
x,-y,z
loop_
_atom_site_type_symbol
_atom_site_label
_atom_site_fract_x
_atom_site_fract_y
_atom_site_fract_z
Si Si1 0.392939 0.682905 0.330382
Si Si2 0.198489 0.318315 0.417946
Si Si3 0.052245 0.684504 0.496927
Si Si4 0.198333 0.181284 0.602110
Si Si5 0.944940 0.825547 0.008670
Si Si6 0.107768 0.683117 0.661866
Si Si7 0.945177 0.817818 0.824399
Si Si8 0.545952 0.680883 0.181154
O O1 0.396060 0.500000 0.321933
O O2 0.341113 0.723464 0.353695
O O3 0.423182 0.728204 0.410988
O O4 0.412501 0.759050 0.247927
O O5 0.250000 0.284292 0.390011
O O6 0.194938 0.500000 0.431708
O O7 0.191108 0.239711 0.507279
O O8 0.051816 0.500000 0.498435
O O9 0.080559 0.732767 0.578344
O O10 0.000000 0.736103 0.500000
O O11 0.250000 0.226630 0.625999
O O12 0.158294 0.250611 0.657468
O O13 0.195734 0.000000 0.603295
O O14 0.929184 0.769664 0.917668
O O15 0.930615 0.000000 0.021259
O O16 0.934633 0.730140 0.091011
O O17 0.000000 0.825841 0.000000
O O18 0.110466 0.500000 0.660077
O O19 0.078963 0.727502 0.743325
O O20 0.996022 0.754269 0.809347
O O21 0.947577 0.000000 0.825219
O O22 0.540530 0.500000 0.184118
#
# Coordination Sequence:
#
# PCOD9399008 Si02
#       8
#     8   8   8   8   8   8   8   8
#     4  10  18  29  46  67  90 122 159 194 231 271
#     4   9  17  31  50  68  88 118 156 196 239 282
#     4   9  16  27  42  61  90 124 154 183 219 265
#     4  10  20  32  47  68  93 121 155 196 236 272
#     4   8  16  31  47  64  91 125 155 188 233 276
#     4  10  19  32  48  68  93 124 157 190 234 280
#     4  10  20  32  46  66  96 130 158 188 230 277
#     4  10  19  30  49  73  94 120 157 197 232 270
#
# _framework density 15.436688
#
# number of rings (size 3 to 8) (size 9 to 14) (size 15 to 20)
#    0.000    2.500    1.250    2.625    0.000    7.000 
#    0.000    0.000    0.000    1.500    0.000    0.875 
#    0.000    3.000    0.000    0.000    0.000    0.000 
#
# Total GULP energy -356741.295823 kJ/mol
# GULP energy per Si atom -5574.082747 kJ/mol
# Density = 1.540155 g / cm^3
# Si number density = 15.436688 Si / 1000 Ang^3
#
#
#
# Elastic Constant Matrix: (Units=GPa)
#
#
# Indices 1 2 3 4 5 6 
#
# 1 94.3275 26.0085 47.6412 0.0000 0.0000 0.0000
# 2 26.0085 21.6511 27.2030 0.0000 0.0000 0.0000
# 3 47.6412 27.2030 102.2962 0.0000 0.0000 0.0000
# 4 0.0000 0.0000 0.0000 15.1713 0.0000 0.0000
# 5 0.0000 0.0000 0.0000 0.0000 10.3794 0.0000
# 6 0.0000 0.0000 0.0000 0.0000 0.0000 15.6701
#
#
#
# Elastic Compliance Matrix: (Units=1/GPa)
#
#
# Indices 1 2 3 4 5 6 
#
# 1 0.016723 -0.015473 -0.003674 0.000000 0.000000 0.000000
# 2 -0.015473 0.083679 -0.015046 0.000000 0.000000 0.000000
# 3 -0.003674 -0.015046 0.015487 0.000000 0.000000 0.000000
# 4 0.000000 0.000000 0.000000 0.065914 0.000000 0.000000
# 5 0.000000 0.000000 0.000000 0.000000 0.096344 0.000000
# 6 0.000000 0.000000 0.000000 0.000000 0.000000 0.063816
#
#
# Mechanical properties :
#
#
# Convention : Reuss Voigt Hill
#
# Bulk Modulus (GPa) = 21.05102 46.66448 33.85775
# Shear Modulus (GPa) = 11.73204 16.07230 13.90217
#
# Velocity S-wave (km/s) = 2.75982 3.23023 3.00424
# Velocity P-wave (km/s) = 4.88079 6.64889 5.83223
#
# Compressibility (1/GPa) = 0.04750364
#
# Stress axis : x y z
#
# Youngs Moduli (GPa) = 59.79751 11.95049 64.56829
#
# Poissons Ratio (x) = 0.18491 0.23720
# Poissons Ratio (y) = 0.92526 0.97150
# Poissons Ratio (z) = 0.21967 0.17981
#
# Static dielectric constant tensor:
#      x y z
#    x 1.509700 0.000000 0.000000 
#    y 0.000000 1.521000 0.000000 
#    z 0.000000 0.000000 1.511630 
# 
# From -- ./inp_files/26656.got.cif
#   From: 2010.05.17/outbox.cif.g08.bks.cpg/sg51_14_cif.got.tgz:26656.got - 2010.06.03 11:52:47.
