data_PCOD9399263
_publ_section_title
;
Structure prediction by ZEFSAII (Michael W. Deem and Ramdas Pophale) SiO2 
 PCOD9399263
Probable space group: P M M A
;
_chemical_formula_sum "Si O2"
_cell_formula_units_Z 44
_cell_length_a 8.561374
_cell_length_b 29.950116
_cell_length_c 9.718720
_cell_angle_alpha 90.000000
_cell_angle_beta 90.000000
_cell_angle_gamma 90.000000
_cell_volume 2492.017274
_symmetry_space_group_name_H-M "P M M A"
_symmetry_group_IT_number 51
_symmetry_cell_setting 'orthorhombic'
loop_
_space_group_symop_operation_xyz
x,y,z
1/2-x,-y,z
1/2+x,-y,-z
-x,y,-z
-x,-y,-z
1/2+x,y,-z
1/2-x,y,z
x,-y,z
loop_
_atom_site_type_symbol
_atom_site_label
_atom_site_fract_x
_atom_site_fract_y
_atom_site_fract_z
Si Si1 0.062946 0.949549 0.653952
Si Si2 0.062150 0.406411 0.344114
Si Si3 0.937541 0.871183 0.844171
Si Si4 0.436402 0.500000 0.656805
Si Si5 0.938885 0.323775 0.844101
Si Si6 0.438251 0.773742 0.156138
O O1 0.250000 0.947815 0.651789
O O2 0.000000 0.942474 0.500000
O O3 0.999732 0.911629 0.753853
O O4 0.015567 0.000000 0.696540
O O5 0.250000 0.408190 0.348646
O O6 0.010755 0.364548 0.251938
O O7 0.000000 0.401595 0.500000
O O8 0.999485 0.453402 0.284418
O O9 0.750000 0.872648 0.847341
O O10 0.987095 0.822086 0.786237
O O11 0.000000 0.874660 0.000000
O O12 0.250000 0.500000 0.655740
O O13 0.500000 0.500000 0.500000
O O14 0.750000 0.324487 0.849001
O O15 0.988102 0.274685 0.787417
O O16 0.000000 0.328431 0.000000
O O17 0.250000 0.773768 0.154904
O O18 0.500000 0.773761 0.000000
#
# Coordination Sequence:
#
# PCOD9399263 Si02
#       6
#     8   8   8   4   8   8
#     4  10  21  37  55  74  99 132 168 205 249 301
#     4  10  19  32  50  72  97 126 160 199 240 285
#     4  10  19  32  53  78 104 132 166 208 248 290
#     4  10  18  30  49  70  93 124 160 198 240 288
#     4   9  18  32  51  73  99 129 162 199 240 287
#     4   8  15  29  48  71  98 129 162 197 239 286
#
# _framework density 17.656379000000001
#
# number of rings (size 3 to 8) (size 9 to 14) (size 15 to 20)
#    0.000    2.545    0.000    3.545    0.000    3.636 
#    0.000    1.364    0.000    2.182    0.000    0.000 
#    0.000    0.000    0.000    0.000    0.000    0.000 
#
# Total GULP energy -245096.227065 kJ/mol
# GULP energy per Si atom -5570.368797 kJ/mol
# Density = 1.761619 g / cm^3
# Si number density = 17.656379 Si / 1000 Ang^3
#
#
#
# Elastic Constant Matrix: (Units=GPa)
#
#
# Indices 1 2 3 4 5 6 
#
# 1 47.9800 47.2291 18.6274 0.0000 0.0000 0.0000
# 2 47.2291 233.8611 81.9796 0.0000 0.0000 0.0000
# 3 18.6274 81.9796 50.7003 0.0000 0.0000 0.0000
# 4 0.0000 0.0000 0.0000 59.6639 0.0000 0.0000
# 5 0.0000 0.0000 0.0000 0.0000 24.5953 0.0000
# 6 0.0000 0.0000 0.0000 0.0000 0.0000 67.8047
#
#
#
# Elastic Compliance Matrix: (Units=1/GPa)
#
#
# Indices 1 2 3 4 5 6 
#
# 1 0.026146 -0.004416 -0.002466 0.000000 0.000000 0.000000
# 2 -0.004416 0.010617 -0.015545 0.000000 0.000000 0.000000
# 3 -0.002466 -0.015545 0.045765 0.000000 0.000000 0.000000
# 4 0.000000 0.000000 0.000000 0.016761 0.000000 0.000000
# 5 0.000000 0.000000 0.000000 0.000000 0.040658 0.000000
# 6 0.000000 0.000000 0.000000 0.000000 0.000000 0.014748
#
#
# Mechanical properties :
#
#
# Convention : Reuss Voigt Hill
#
# Bulk Modulus (GPa) = 26.54291 69.80152 48.17221
# Shear Modulus (GPa) = 23.57310 42.72647 33.14979
#
# Velocity S-wave (km/s) = 3.65787 4.92457 4.33771
# Velocity P-wave (km/s) = 5.73635 8.48259 7.24086
#
# Compressibility (1/GPa) = 0.03767485
#
# Stress axis : x y z
#
# Youngs Moduli (GPa) = 38.24657 94.18827 21.85091
#
# Poissons Ratio (x) = 0.41593 0.05388
# Poissons Ratio (y) = 0.16889 0.33967
# Poissons Ratio (z) = 0.09431 1.46413
#
# Static dielectric constant tensor:
#      x y z
#    x 1.599900 0.000000 0.000000 
#    y 0.000000 1.669820 0.000000 
#    z 0.000000 0.000000 1.585720 
# 
# From -- ./inp_files/5727.got.cif
#   From: 2010.05.17/outbox.cif.g08.bks.cpg/sg51_3_cif.got.tgz:5727.got - 2010.06.03 11:52:47.
