data_PCOD9399298
_publ_section_title
;
Structure prediction by ZEFSAII (Michael W. Deem and Ramdas Pophale) SiO2 
 PCOD9399298
Probable space group: P M M A
;
_chemical_formula_sum "Si O2"
_cell_formula_units_Z 48
_cell_length_a 18.435871
_cell_length_b 7.425683
_cell_length_c 16.585106
_cell_angle_alpha 90.000000
_cell_angle_beta 90.000000
_cell_angle_gamma 90.000000
_cell_volume 2270.483330
_symmetry_space_group_name_H-M "P M M A"
_symmetry_group_IT_number 51
_symmetry_cell_setting 'orthorhombic'
loop_
_space_group_symop_operation_xyz
x,y,z
1/2-x,-y,z
1/2+x,-y,-z
-x,y,-z
-x,-y,-z
1/2+x,y,-z
1/2-x,y,z
x,-y,z
loop_
_atom_site_type_symbol
_atom_site_label
_atom_site_fract_x
_atom_site_fract_y
_atom_site_fract_z
Si Si1 0.895722 0.219743 0.111751
Si Si2 0.750000 0.698082 0.369262
Si Si3 0.392962 0.782882 0.535099
Si Si4 0.538424 0.780526 0.626797
Si Si5 0.334019 0.780755 0.060798
Si Si6 0.750000 0.798786 0.193743
Si Si7 0.548242 0.220357 0.810821
O O1 0.826201 0.280552 0.164153
O O2 0.972991 0.279119 0.146966
O O3 0.899136 0.000000 0.114331
O O4 0.876707 0.272197 0.020410
O O5 0.750000 0.500000 0.333809
O O6 0.680503 0.723918 0.424394
O O7 0.750000 0.815325 0.289461
O O8 0.460423 0.725768 0.590889
O O9 0.405601 0.723810 0.442998
O O10 0.394044 0.000000 0.534436
O O11 0.550699 0.720208 0.717815
O O12 0.538952 0.000000 0.628603
O O13 0.250000 0.720989 0.060189
O O14 0.382088 0.723945 0.137106
O O15 0.332191 0.000000 0.060895
O O16 0.750000 0.000000 0.156342
O O17 0.547735 0.000000 0.810603
#
# Coordination Sequence:
#
# PCOD9399298 Si02
#       7
#     8   4   8   8   8   4   8
#     4   9  15  24  40  62  88 123 162 192 228 284
#     4  12  24  34  46  73 104 126 158 199 244 300
#     4   9  17  33  54  71  96 129 162 203 247 293
#     4   8  15  29  49  72  93 122 168 209 242 286
#     4   9  15  23  32  52  94 135 157 181 230 289
#     4  10  18  30  50  69  90 122 162 203 242 286
#     4   9  15  22  36  60  90 124 158 194 235 279
#
# _framework density 21.140872000000002
#
# number of rings (size 3 to 8) (size 9 to 14) (size 15 to 20)
#    0.000    2.833    0.833    3.250    0.000    4.667 
#    1.500    1.667    0.000    0.000    0.000    0.000 
#    0.000   13.333    0.000    0.000    0.000    0.000 
#
# Total GULP energy -267906.354004 kJ/mol
# GULP energy per Si atom -5581.382375 kJ/mol
# Density = 2.109275 g / cm^3
# Si number density = 21.140872 Si / 1000 Ang^3
#
#
#
# Elastic Constant Matrix: (Units=GPa)
#
#
# Indices 1 2 3 4 5 6 
#
# 1 70.9258 -0.3778 80.4026 0.0000 0.0000 0.0000
# 2 -0.3778 65.8008 4.5367 0.0000 0.0000 0.0000
# 3 80.4026 4.5367 200.8163 0.0000 0.0000 0.0000
# 4 0.0000 0.0000 0.0000 -27.1334 0.0000 0.0000
# 5 0.0000 0.0000 0.0000 0.0000 31.3587 0.0000
# 6 0.0000 0.0000 0.0000 0.0000 0.0000 3.5207
#
#
#
# Elastic Compliance Matrix: (Units=1/GPa)
#
#
# Indices 1 2 3 4 5 6 
#
# 1 0.025866 0.000864 -0.010376 0.000000 0.000000 0.000000
# 2 0.000864 0.015250 -0.000690 0.000000 0.000000 0.000000
# 3 -0.010376 -0.000690 0.009149 0.000000 0.000000 0.000000
# 4 0.000000 0.000000 0.000000 -0.036855 0.000000 0.000000
# 5 0.000000 0.000000 0.000000 0.000000 0.031889 0.000000
# 6 0.000000 0.000000 0.000000 0.000000 0.000000 0.284036
#
#
# Mechanical properties :
#
#
# Convention : Reuss Voigt Hill
#
# Bulk Modulus (GPa) = 33.48859 56.29621 44.89240
# Shear Modulus (GPa) = 13.90071 18.41463 16.15767
#
# Velocity S-wave (km/s) = 2.56701 2.95455 2.76757
# Velocity P-wave (km/s) = 4.96600 6.19080 5.61191
#
# Compressibility (1/GPa) = 0.02986092
#
# Stress axis : x y z
#
# Youngs Moduli (GPa) = 38.66098 65.57401 109.29594
#
# Poissons Ratio (x) = -0.05665 1.13402
# Poissons Ratio (y) = -0.03340 0.07546
# Poissons Ratio (z) = 0.40113 0.04527
#
# Static dielectric constant tensor:
#      x y z
#    x 1.715730 0.000000 0.000000 
#    y 0.000000 1.832220 0.000000 
#    z 0.000000 0.000000 1.729690 
# 
# From -- ./inp_files/24888.got.cif
#   From: 2010.05.17/outbox.cif.g08.bks.cpg/sg51_13_cif.got.tgz:24888.got - 2010.06.03 11:52:47.
