data_PCOD9399718
_publ_section_title
;
Structure prediction by ZEFSAII (Michael W. Deem and Ramdas Pophale) SiO2 
 PCOD9399718
Probable space group: P M M A
;
_chemical_formula_sum "Si O2"
_cell_formula_units_Z 56
_cell_length_a 14.408241
_cell_length_b 14.877673
_cell_length_c 11.165912
_cell_angle_alpha 90.000000
_cell_angle_beta 90.000000
_cell_angle_gamma 90.000000
_cell_volume 2393.537158
_symmetry_space_group_name_H-M "P M M A"
_symmetry_group_IT_number 51
_symmetry_cell_setting 'orthorhombic'
loop_
_space_group_symop_operation_xyz
x,y,z
1/2-x,-y,z
1/2+x,-y,-z
-x,y,-z
-x,-y,-z
1/2+x,y,-z
1/2-x,y,z
x,-y,z
loop_
_atom_site_type_symbol
_atom_site_label
_atom_site_fract_x
_atom_site_fract_y
_atom_site_fract_z
Si Si1 0.647344 0.191371 0.192504
Si Si2 0.848448 0.394453 0.129990
Si Si3 0.975421 0.400812 0.769316
Si Si4 0.973223 0.895825 0.700249
Si Si5 0.641195 0.897910 0.946566
Si Si6 0.857667 0.738740 0.637786
Si Si7 0.857649 0.598494 0.425594
O O1 0.750000 0.152491 0.211841
O O2 0.655362 0.298456 0.199784
O O3 0.573203 0.148490 0.280240
O O4 0.619970 0.168016 0.055656
O O5 0.750000 0.388343 0.057194
O O6 0.842934 0.500000 0.173948
O O7 0.959552 0.391380 0.113812
O O8 0.930957 0.500000 0.771217
O O9 0.053332 0.399381 0.662221
O O10 0.906283 0.319713 0.743113
O O11 0.921216 0.889635 0.829559
O O12 0.911748 0.831220 0.618579
O O13 0.977468 0.000000 0.665761
O O14 0.750000 0.887165 0.914483
O O15 0.628766 0.000000 0.993540
O O16 0.750000 0.754305 0.664441
O O17 0.865105 0.676803 0.521047
O O18 0.750000 0.601713 0.377182
O O19 0.863095 0.500000 0.485627
#
# Coordination Sequence:
#
# PCOD9399718 Si02
#       7
#     8   8   8   8   8   8   8
#     4  10  19  33  55  83 109 134 169 220 273 317
#     4   9  17  30  51  80 111 140 169 203 250 316
#     4  10  18  32  55  80 108 139 173 213 261 310
#     4  11  22  37  55  76 104 140 180 222 270 320
#     4   9  18  33  55  81 104 130 172 225 272 313
#     4  11  22  34  49  75 107 141 179 217 260 312
#     4   9  18  33  56  85 112 137 170 217 267 315
#
# _framework density 23.396338
#
# number of rings (size 3 to 8) (size 9 to 14) (size 15 to 20)
#    0.000    2.143    1.429    2.571    0.000    6.571 
#    0.000    0.000    0.000    5.143    0.000    6.000 
#    0.000    0.000    0.000    0.000    0.000    0.000 
#
# Total GULP energy -311842.841979 kJ/mol
# GULP energy per Si atom -5568.622178 kJ/mol
# Density = 2.334309 g / cm^3
# Si number density = 23.396338 Si / 1000 Ang^3
#
#
#
# Elastic Constant Matrix: (Units=GPa)
#
#
# Indices 1 2 3 4 5 6 
#
# 1 92.9128 44.2867 32.3181 0.0000 0.0000 0.0000
# 2 44.2867 177.9609 28.8184 0.0000 0.0000 0.0000
# 3 32.3181 28.8184 36.8296 0.0000 0.0000 0.0000
# 4 0.0000 0.0000 0.0000 28.9689 0.0000 0.0000
# 5 0.0000 0.0000 0.0000 0.0000 8.8056 0.0000
# 6 0.0000 0.0000 0.0000 0.0000 0.0000 30.6960
#
#
#
# Elastic Compliance Matrix: (Units=1/GPa)
#
#
# Indices 1 2 3 4 5 6 
#
# 1 0.016069 -0.001964 -0.012564 0.000000 0.000000 0.000000
# 2 -0.001964 0.006675 -0.003499 0.000000 0.000000 0.000000
# 3 -0.012564 -0.003499 0.040915 0.000000 0.000000 0.000000
# 4 0.000000 0.000000 0.000000 0.034520 0.000000 0.000000
# 5 0.000000 0.000000 0.000000 0.000000 0.113564 0.000000
# 6 0.000000 0.000000 0.000000 0.000000 0.000000 0.032578
#
#
# Mechanical properties :
#
#
# Convention : Reuss Voigt Hill
#
# Bulk Modulus (GPa) = 36.22620 57.61663 46.92142
# Shear Modulus (GPa) = 17.26667 27.17944 22.22305
#
# Velocity S-wave (km/s) = 2.71958 3.41206 3.08531
# Velocity P-wave (km/s) = 5.03774 6.34056 5.72632
#
# Compressibility (1/GPa) = 0.02760433
#
# Stress axis : x y z
#
# Youngs Moduli (GPa) = 62.23108 149.81978 24.44114
#
# Poissons Ratio (x) = 0.29431 0.30707
# Poissons Ratio (y) = 0.12225 0.08552
# Poissons Ratio (z) = 0.78185 0.52422
#
# Static dielectric constant tensor:
#      x y z
#    x 1.933030 0.000000 0.000000 
#    y 0.000000 1.859270 0.000000 
#    z 0.000000 0.000000 2.017290 
# 
# From -- ./inp_files/16630.got.cif
#   From: 2010.05.17/outbox.cif.g08.bks.cpg/sg51_9_cif.got.tgz:16630.got - 2010.06.03 11:52:47.
