data_PCOD9399747
_publ_section_title
;
Structure prediction by ZEFSAII (Michael W. Deem and Ramdas Pophale) SiO2 
 PCOD9399747
Probable space group: P M M A
;
_chemical_formula_sum "Si O2"
_cell_formula_units_Z 56
_cell_length_a 22.140442
_cell_length_b 7.598892
_cell_length_c 15.017448
_cell_angle_alpha 90.000000
_cell_angle_beta 90.000000
_cell_angle_gamma 90.000000
_cell_volume 2526.577915
_symmetry_space_group_name_H-M "P M M A"
_symmetry_group_IT_number 51
_symmetry_cell_setting 'orthorhombic'
loop_
_space_group_symop_operation_xyz
x,y,z
1/2-x,-y,z
1/2+x,-y,-z
-x,y,-z
-x,-y,-z
1/2+x,y,-z
1/2-x,y,z
x,-y,z
loop_
_atom_site_type_symbol
_atom_site_label
_atom_site_fract_x
_atom_site_fract_y
_atom_site_fract_z
Si Si1 0.250000 0.708719 0.581663
Si Si2 0.551995 0.216004 0.273475
Si Si3 0.882646 0.209201 0.449146
Si Si4 0.250000 0.287700 0.785961
Si Si5 0.435349 0.202333 0.374050
Si Si6 0.819361 0.786578 0.933847
Si Si7 0.181656 0.294383 0.270500
Si Si8 0.373682 0.792896 0.888228
O O1 0.250000 0.500000 0.586893
O O2 0.312002 0.761372 0.535004
O O3 0.250000 0.777080 0.683632
O O4 0.598282 0.272492 0.351464
O O5 0.486846 0.275658 0.309296
O O6 0.575478 0.280338 0.178091
O O7 0.552679 0.000000 0.268213
O O8 0.923656 0.283150 0.528752
O O9 0.892010 0.000000 0.448200
O O10 0.250000 0.500000 0.786430
O O11 0.189944 0.224574 0.836115
O O12 0.370933 0.204889 0.325747
O O13 0.454181 0.000000 0.389213
O O14 0.750000 0.735710 0.955042
O O15 0.832289 0.723016 0.834529
O O16 0.821275 0.000000 0.932120
O O17 0.862361 0.720908 0.012834
O O18 0.250000 0.225837 0.284067
O O19 0.181425 0.500000 0.294602
O O20 0.386345 0.000000 0.899808
#
# Coordination Sequence:
#
# PCOD9399747 Si02
#       8
#     4   8   8   4   8   8   8   8
#     4  11  23  35  49  78 117 148 181 225 270 316
#     4   9  18  34  57  83 112 143 178 222 268 323
#     4  10  20  35  58  82 109 144 184 225 271 320
#     4  11  21  31  47  76 115 150 179 219 266 316
#     4  10  21  37  58  83 107 139 185 230 273 319
#     4   9  17  31  54  83 109 136 176 225 271 319
#     4  10  22  39  57  78 106 143 182 226 277 325
#     4  10  18  32  56  83 111 144 179 219 270 323
#
# _framework density 22.164366999999999
#
# number of rings (size 3 to 8) (size 9 to 14) (size 15 to 20)
#    0.000    2.143    2.143    1.286    1.000    4.286 
#    0.000    2.143    0.000    6.000    0.000    0.000 
#    0.000    0.000    0.000    0.000    0.000    0.000 
#
# Total GULP energy -312724.463032 kJ/mol
# GULP energy per Si atom -5584.365411 kJ/mol
# Density = 2.211392 g / cm^3
# Si number density = 22.164367 Si / 1000 Ang^3
#
#
#
# Elastic Constant Matrix: (Units=GPa)
#
#
# Indices 1 2 3 4 5 6 
#
# 1 72.4133 -6.1946 5.5265 0.0000 0.0000 0.0000
# 2 -6.1946 49.3280 -0.8894 0.0000 0.0000 0.0000
# 3 5.5265 -0.8894 33.3320 0.0000 0.0000 0.0000
# 4 0.0000 0.0000 0.0000 -29.7698 0.0000 0.0000
# 5 0.0000 0.0000 0.0000 0.0000 44.6625 0.0000
# 6 0.0000 0.0000 0.0000 0.0000 0.0000 -469.1252
#
#
#
# Elastic Compliance Matrix: (Units=1/GPa)
#
#
# Indices 1 2 3 4 5 6 
#
# 1 0.014133 0.001733 -0.002297 0.000000 0.000000 0.000000
# 2 0.001733 0.020495 0.000259 0.000000 0.000000 0.000000
# 3 -0.002297 0.000259 0.030389 0.000000 0.000000 0.000000
# 4 0.000000 0.000000 0.000000 -0.033591 0.000000 0.000000
# 5 0.000000 0.000000 0.000000 0.000000 0.022390 0.000000
# 6 0.000000 0.000000 0.000000 0.000000 0.000000 -0.002132
#
#
# Mechanical properties :
#
#
# Convention : Reuss Voigt Hill
#
# Bulk Modulus (GPa) = 15.52587 16.88425 16.20506
# Shear Modulus (GPa) = 67.78532 -80.40445 -6.30956
#
# Velocity S-wave (km/s) = 5.53619 -6.02953 -1.68905
# Velocity P-wave (km/s) = 6.91997 6.39056 1.87705
#
# Compressibility (1/GPa) = 0.06440865
#
# Stress axis : x y z
#
# Youngs Moduli (GPa) = 70.75531 48.79283 32.90671
#
# Poissons Ratio (x) = -0.08458 0.07559
# Poissons Ratio (y) = -0.12265 -0.00854
# Poissons Ratio (z) = 0.16253 -0.01266
#
# Static dielectric constant tensor:
#      x y z
#    x 1.819630 0.000000 0.000000 
#    y 0.000000 1.843150 0.000000 
#    z 0.000000 0.000000 1.829340 
# 
# From -- ./inp_files/25800.got.cif
#   From: 2010.05.17/outbox.cif.g08.bks.cpg/sg51_13_cif.got.tgz:25800.got - 2010.06.03 11:52:47.
