data_PCOD9399271
_publ_section_title
;
Structure prediction by ZEFSAII (Michael W. Deem and Ramdas Pophale) SiO2 
 PCOD9399271
Probable space group: P M M A
;
_chemical_formula_sum "Si O2"
_cell_formula_units_Z 64
_cell_length_a 8.890696
_cell_length_b 14.678863
_cell_length_c 31.864753
_cell_angle_alpha 90.000000
_cell_angle_beta 90.000000
_cell_angle_gamma 90.000000
_cell_volume 4158.519422
_symmetry_space_group_name_H-M "P M M A"
_symmetry_group_IT_number 51
_symmetry_cell_setting 'orthorhombic'
loop_
_space_group_symop_operation_xyz
x,y,z
1/2-x,-y,z
1/2+x,-y,-z
-x,y,-z
-x,-y,-z
1/2+x,y,-z
1/2-x,y,z
x,-y,z
loop_
_atom_site_type_symbol
_atom_site_label
_atom_site_fract_x
_atom_site_fract_y
_atom_site_fract_z
Si Si1 0.931224 0.105877 0.044729
Si Si2 0.933083 0.895323 0.208600
Si Si3 0.070182 0.107105 0.368768
Si Si4 0.069106 0.395746 0.258621
Si Si5 0.576968 0.889271 0.456918
Si Si6 0.930492 0.784166 0.291715
Si Si7 0.569098 0.603369 0.839838
Si Si8 0.931782 0.782697 0.126409
O O1 0.750000 0.109714 0.042093
O O2 0.979717 0.168812 0.083389
O O3 0.972462 0.000000 0.052901
O O4 0.000000 0.132454 0.000000
O O5 0.750000 0.896501 0.208251
O O6 0.979005 0.841176 0.250302
O O7 0.981016 0.842960 0.166546
O O8 0.984227 0.000000 0.209232
O O9 0.250000 0.114105 0.367477
O O10 0.010707 0.135625 0.414628
O O11 0.997039 0.167001 0.332430
O O12 0.029734 0.000000 0.362634
O O13 0.250000 0.386968 0.261859
O O14 0.029661 0.500000 0.269887
O O15 0.029039 0.382803 0.209353
O O16 0.989800 0.318074 0.285377
O O17 0.500000 0.857592 0.500000
O O18 0.750000 0.859927 0.454774
O O19 0.575845 0.000000 0.458262
O O20 0.750000 0.785006 0.293556
O O21 0.750000 0.609303 0.842614
O O22 0.525105 0.500000 0.851258
O O23 0.494558 0.681842 0.867063
O O24 0.750000 0.780120 0.126831
#
# Coordination Sequence:
#
# PCOD9399271 Si02
#       8
#     8   8   8   8   8   8   8   8
#     4   9  18  32  50  71  96 124 153 186 227 274
#     4   9  17  28  42  63  92 123 153 185 223 268
#     4  10  20  32  45  63  92 131 169 202 238 283
#     4   9  18  33  50  66  89 122 157 194 237 283
#     4   9  16  27  44  65  89 119 159 205 248 288
#     4  11  20  30  46  68  94 125 159 196 236 281
#     4   9  18  32  49  69  94 122 150 186 234 281
#     4  10  18  30  49  72  93 118 154 193 229 270
#
# _framework density 15.390093
#
# number of rings (size 3 to 8) (size 9 to 14) (size 15 to 20)
#    0.000    2.500    1.250    2.625    0.000    5.250 
#    0.000    1.250    0.000    2.250    0.000    0.000 
#    0.000    0.500    0.000    1.875    0.000    2.875 
#
# Total GULP energy -356848.027765 kJ/mol
# GULP energy per Si atom -5575.750434 kJ/mol
# Density = 1.535506 g / cm^3
# Si number density = 15.390093 Si / 1000 Ang^3
#
#
#
# Elastic Constant Matrix: (Units=GPa)
#
#
# Indices 1 2 3 4 5 6 
#
# 1 35.1109 37.5280 43.9585 0.0000 0.0000 0.0000
# 2 37.5280 111.4799 80.4589 0.0000 0.0000 0.0000
# 3 43.9585 80.4589 141.8571 0.0000 0.0000 0.0000
# 4 0.0000 0.0000 0.0000 9.0152 0.0000 0.0000
# 5 0.0000 0.0000 0.0000 0.0000 24.9242 0.0000
# 6 0.0000 0.0000 0.0000 0.0000 0.0000 22.6603
#
#
#
# Elastic Compliance Matrix: (Units=1/GPa)
#
#
# Indices 1 2 3 4 5 6 
#
# 1 0.052412 -0.010026 -0.010555 0.000000 0.000000 0.000000
# 2 -0.010026 0.017105 -0.006595 0.000000 0.000000 0.000000
# 3 -0.010555 -0.006595 0.014061 0.000000 0.000000 0.000000
# 4 0.000000 0.000000 0.000000 0.110924 0.000000 0.000000
# 5 0.000000 0.000000 0.000000 0.000000 0.040122 0.000000
# 6 0.000000 0.000000 0.000000 0.000000 0.000000 0.044130
#
#
# Mechanical properties :
#
#
# Convention : Reuss Voigt Hill
#
# Bulk Modulus (GPa) = 34.21579 68.03766 51.12673
# Shear Modulus (GPa) = 14.58378 19.75342 17.16860
#
# Velocity S-wave (km/s) = 3.08166 3.58650 3.34363
# Velocity P-wave (km/s) = 5.91125 7.83935 6.94256
#
# Compressibility (1/GPa) = 0.02922627
#
# Stress axis : x y z
#
# Youngs Moduli (GPa) = 19.07967 58.46230 71.12093
#
# Poissons Ratio (x) = 0.58614 0.75067
# Poissons Ratio (y) = 0.19129 0.46903
# Poissons Ratio (z) = 0.20138 0.38555
#
# Static dielectric constant tensor:
#      x y z
#    x 1.517330 0.000000 0.000000 
#    y 0.000000 1.498310 0.000000 
#    z 0.000000 0.000000 1.495460 
# 
# From -- ./inp_files/37656.got.cif
#   From: 2010.05.17/outbox.cif.g08.bks.cpg/sg51_19_cif.got.tgz:37656.got - 2010.06.03 11:52:47.
