data_PCOD9399619
_publ_section_title
;
Structure prediction by ZEFSAII (Michael W. Deem and Ramdas Pophale) SiO2 
 PCOD9399619
Probable space group: P M M A
;
_chemical_formula_sum "Si O2"
_cell_formula_units_Z 40
_cell_length_a 20.194606
_cell_length_b 7.914515
_cell_length_c 14.681905
_cell_angle_alpha 90.000000
_cell_angle_beta 90.000000
_cell_angle_gamma 90.000000
_cell_volume 2346.616395
_symmetry_space_group_name_H-M "P M M A"
_symmetry_group_IT_number 51
_symmetry_cell_setting 'orthorhombic'
loop_
_space_group_symop_operation_xyz
x,y,z
1/2-x,-y,z
1/2+x,-y,-z
-x,y,-z
-x,-y,-z
1/2+x,y,-z
1/2-x,y,z
x,-y,z
loop_
_atom_site_type_symbol
_atom_site_label
_atom_site_fract_x
_atom_site_fract_y
_atom_site_fract_z
Si Si1 0.069659 0.703955 0.457385
Si Si2 0.174239 0.799628 0.607777
Si Si3 0.942472 0.696860 0.751462
Si Si4 0.100159 0.312261 0.786940
Si Si5 0.089596 0.000000 0.911113
Si Si6 0.070283 0.000000 0.118105
O O1 0.068205 0.500000 0.460409
O O2 0.129426 0.764197 0.519998
O O3 0.075030 0.750133 0.351441
O O4 0.000000 0.765016 0.500000
O O5 0.250000 0.745755 0.594290
O O6 0.141990 0.711679 0.695339
O O7 0.173072 0.000000 0.625568
O O8 0.923071 0.500000 0.766439
O O9 0.022615 0.702049 0.759460
O O10 0.915161 0.831468 0.823738
O O11 0.110605 0.500000 0.824643
O O12 0.114970 0.165935 0.859097
O O13 0.009516 0.000000 0.898164
O O14 0.102578 0.000000 0.018558
#
# Coordination Sequence:
#
# PCOD9399619 Si02
#       6
#     8   8   8   8   4   4
#     4  10  19  32  51  76 104 140 183 219 258 316
#     4  11  23  35  49  76 111 142 179 221 261 318
#     4   9  18  30  48  77 105 134 178 214 252 316
#     4  10  18  32  52  72 101 139 171 211 264 312
#     4   9  18  32  46  73 101 130 174 208 252 322
#     4   9  18  30  48  70 104 137 162 212 270 297
#
# _framework density 17.045821
#
# number of rings (size 3 to 8) (size 9 to 14) (size 15 to 20)
#    0.000    2.200    3.000    0.600    1.400    2.800 
#    0.000    4.000    0.000    0.000    0.000    2.800 
#    0.000    3.200    0.000    0.000    0.000    0.000 
#
# Total GULP energy -223110.186956 kJ/mol
# GULP energy per Si atom -5577.754674 kJ/mol
# Density = 1.700702 g / cm^3
# Si number density = 17.045821 Si / 1000 Ang^3
#
#
#
# Elastic Constant Matrix: (Units=GPa)
#
#
# Indices 1 2 3 4 5 6 
#
# 1 44.4813 26.8710 35.8302 0.0000 0.0000 0.0000
# 2 26.8710 103.3491 83.8637 0.0000 0.0000 0.0000
# 3 35.8302 83.8637 147.4036 0.0000 0.0000 0.0000
# 4 0.0000 0.0000 0.0000 5.4012 0.0000 0.0000
# 5 0.0000 0.0000 0.0000 0.0000 10.5451 0.0000
# 6 0.0000 0.0000 0.0000 0.0000 0.0000 14.2995
#
#
#
# Elastic Compliance Matrix: (Units=1/GPa)
#
#
# Indices 1 2 3 4 5 6 
#
# 1 0.028559 -0.003329 -0.005048 0.000000 0.000000 0.000000
# 2 -0.003329 0.018362 -0.009638 0.000000 0.000000 0.000000
# 3 -0.005048 -0.009638 0.013494 0.000000 0.000000 0.000000
# 4 0.000000 0.000000 0.000000 0.185144 0.000000 0.000000
# 5 0.000000 0.000000 0.000000 0.000000 0.094831 0.000000
# 6 0.000000 0.000000 0.000000 0.000000 0.000000 0.069932
#
#
# Mechanical properties :
#
#
# Convention : Reuss Voigt Hill
#
# Bulk Modulus (GPa) = 41.00766 65.37374 53.19070
# Shear Modulus (GPa) = 11.00160 15.96045 13.48102
#
# Velocity S-wave (km/s) = 2.54325 3.06326 2.81529
# Velocity P-wave (km/s) = 5.72134 7.13768 6.46839
#
# Compressibility (1/GPa) = 0.02438569
#
# Stress axis : x y z
#
# Youngs Moduli (GPa) = 35.01580 54.45981 74.10514
#
# Poissons Ratio (x) = 0.18131 0.37406
# Poissons Ratio (y) = 0.11658 0.71420
# Poissons Ratio (z) = 0.17675 0.52487
#
# Static dielectric constant tensor:
#      x y z
#    x 1.550570 0.000000 0.000000 
#    y 0.000000 1.605410 0.000000 
#    z 0.000000 0.000000 1.556930 
# 
# From -- ./inp_files/17918.got.cif
#   From: 2010.05.17/outbox.cif.g08.bks.cpg/sg51_9_cif.got.tgz:17918.got - 2010.06.03 11:52:47.
