data_PCOD9399889
_publ_section_title
;
Structure prediction by ZEFSAII (Michael W. Deem and Ramdas Pophale) SiO2 
 PCOD9399889
Probable space group: P M M A
;
_chemical_formula_sum "Si O2"
_cell_formula_units_Z 64
_cell_length_a 7.923713
_cell_length_b 24.650315
_cell_length_c 15.954502
_cell_angle_alpha 90.000000
_cell_angle_beta 90.000000
_cell_angle_gamma 90.000000
_cell_volume 3116.265581
_symmetry_space_group_name_H-M "P M M A"
_symmetry_group_IT_number 51
_symmetry_cell_setting 'orthorhombic'
loop_
_space_group_symop_operation_xyz
x,y,z
1/2-x,-y,z
1/2+x,-y,-z
-x,y,-z
-x,-y,-z
1/2+x,y,-z
1/2-x,y,z
x,-y,z
loop_
_atom_site_type_symbol
_atom_site_label
_atom_site_fract_x
_atom_site_fract_y
_atom_site_fract_z
Si Si1 0.953167 0.868233 0.593263
Si Si2 0.547079 0.136436 0.907165
Si Si3 0.543536 0.253486 0.847473
Si Si4 0.547436 0.248311 0.653610
Si Si5 0.547435 0.561480 0.254711
Si Si6 0.043224 0.062296 0.247441
Si Si7 0.048933 0.629605 0.092902
Si Si8 0.049421 0.634570 0.592387
O O1 0.750000 0.866895 0.598030
O O2 0.016774 0.807026 0.611549
O O3 0.011679 0.907681 0.667519
O O4 0.000000 0.885588 0.500000
O O5 0.750000 0.137886 0.901455
O O6 0.485856 0.198012 0.891054
O O7 0.487377 0.097077 0.833009
O O8 0.500000 0.118172 0.000000
O O9 0.750000 0.253591 0.848765
O O10 0.489956 0.252618 0.750165
O O11 0.484355 0.309013 0.890303
O O12 0.750000 0.244351 0.656381
O O13 0.504199 0.303254 0.605881
O O14 0.750000 0.558834 0.263866
O O15 0.481680 0.500000 0.256160
O O16 0.512110 0.590965 0.167111
O O17 0.480066 0.597840 0.331711
O O18 0.250000 0.062514 0.247155
O O19 0.988657 0.000000 0.243863
O O20 0.250000 0.631398 0.098088
O O21 0.000000 0.611576 0.000000
O O22 0.250000 0.633421 0.597803
O O23 0.000000 0.615425 0.500000
#
# Coordination Sequence:
#
# PCOD9399889 Si02
#       8
#     8   8   8   8   8   8   8   8
#     4  10  20  34  55  80 108 141 180 224 272 326
#     4  10  19  34  55  80 109 143 180 222 271 325
#     4   9  17  32  56  82 110 144 180 220 272 329
#     4  10  18  34  58  82 111 145 181 224 274 331
#     4  10  23  43  62  82 112 148 188 233 275 319
#     4   9  18  34  55  76 102 143 189 225 265 323
#     4  11  22  37  60  87 115 147 184 228 278 333
#     4  11  23  38  59  87 116 147 183 226 276 330
#
# _framework density 20.537402
#
# number of rings (size 3 to 8) (size 9 to 14) (size 15 to 20)
#    0.000    2.000    2.500    1.500    0.000    3.250 
#    0.000    1.875    0.000    0.750    0.000    0.000 
#    0.000    0.000    0.000    0.000    0.000    0.000 
#
# Total GULP energy -357535.159433 kJ/mol
# GULP energy per Si atom -5586.486866 kJ/mol
# Density = 2.049066 g / cm^3
# Si number density = 20.537402 Si / 1000 Ang^3
#
#
#
# Elastic Constant Matrix: (Units=GPa)
#
#
# Indices 1 2 3 4 5 6 
#
# 1 15.3132 4.1064 -4.4851 0.0000 0.0000 0.0000
# 2 4.1064 153.8989 78.9829 0.0000 0.0000 0.0000
# 3 -4.4851 78.9829 181.8841 0.0000 0.0000 0.0000
# 4 0.0000 0.0000 0.0000 7.2729 0.0000 0.0000
# 5 0.0000 0.0000 0.0000 0.0000 18.1911 0.0000
# 6 0.0000 0.0000 0.0000 0.0000 0.0000 21.4453
#
#
#
# Elastic Compliance Matrix: (Units=1/GPa)
#
#
# Indices 1 2 3 4 5 6 
#
# 1 0.067131 -0.003398 0.003131 0.000000 0.000000 0.000000
# 2 -0.003398 0.008533 -0.003789 0.000000 0.000000 0.000000
# 3 0.003131 -0.003789 0.007221 0.000000 0.000000 0.000000
# 4 0.000000 0.000000 0.000000 0.137496 0.000000 0.000000
# 5 0.000000 0.000000 0.000000 0.000000 0.054972 0.000000
# 6 0.000000 0.000000 0.000000 0.000000 0.000000 0.046630
#
#
# Mechanical properties :
#
#
# Convention : Reuss Voigt Hill
#
# Bulk Modulus (GPa) = 13.37389 56.47830 34.92609
# Shear Modulus (GPa) = 14.08370 27.54800 20.81585
#
# Velocity S-wave (km/s) = 2.62154 3.66643 3.18710
# Velocity P-wave (km/s) = 3.96099 6.74415 5.53050
#
# Compressibility (1/GPa) = 0.07477255
#
# Stress axis : x y z
#
# Youngs Moduli (GPa) = 14.89615 117.18985 138.49040
#
# Poissons Ratio (x) = 0.39822 -0.43362
# Poissons Ratio (y) = 0.05062 0.52478
# Poissons Ratio (z) = -0.04664 0.44407
#
# Static dielectric constant tensor:
#      x y z
#    x 1.744100 0.000000 0.000000 
#    y 0.000000 1.722190 0.000000 
#    z 0.000000 0.000000 1.743040 
# 
# From -- ./inp_files/22318.got.cif
#   From: 2010.05.17/outbox.cif.g08.bks.cpg/sg51_12_cif.got.tgz:22318.got - 2010.06.03 11:52:47.
