data_PCOD9399779
_publ_section_title
;
Structure prediction by ZEFSAII (Michael W. Deem and Ramdas Pophale) SiO2 
 PCOD9399779
Probable space group: P M M A
;
_chemical_formula_sum "Si O2"
_cell_formula_units_Z 32
_cell_length_a 19.558284
_cell_length_b 8.099003
_cell_length_c 9.662784
_cell_angle_alpha 90.000000
_cell_angle_beta 90.000000
_cell_angle_gamma 90.000000
_cell_volume 1530.610116
_symmetry_space_group_name_H-M "P M M A"
_symmetry_group_IT_number 51
_symmetry_cell_setting 'orthorhombic'
loop_
_space_group_symop_operation_xyz
x,y,z
1/2-x,-y,z
1/2+x,-y,-z
-x,y,-z
-x,-y,-z
1/2+x,y,-z
1/2-x,y,z
x,-y,z
loop_
_atom_site_type_symbol
_atom_site_label
_atom_site_fract_x
_atom_site_fract_y
_atom_site_fract_z
Si Si1 0.832374 0.684415 0.542578
Si Si2 0.533909 0.321616 0.150927
Si Si3 0.531622 0.000000 0.846556
Si Si4 0.671158 0.198555 0.231426
Si Si5 0.831023 0.000000 0.733442
O O1 0.750000 0.673598 0.548100
O O2 0.859441 0.500000 0.574331
O O3 0.847482 0.737928 0.385350
O O4 0.847720 0.836192 0.644189
O O5 0.525801 0.500000 0.219608
O O6 0.613896 0.279084 0.135711
O O7 0.497884 0.165599 0.222749
O O8 0.500000 0.332596 0.000000
O O9 0.613283 0.000000 0.854314
O O10 0.500000 0.000000 0.000000
O O11 0.750000 0.244479 0.201665
O O12 0.666778 0.000000 0.228183
O O13 0.750000 0.000000 0.768784
#
# Coordination Sequence:
#
# PCOD9399779 Si02
#       5
#     8   8   4   8   4
#     4   9  17  31  54  86 121 150 183 235 292 344
#     4  10  21  38  58  79 112 158 201 244 294 341
#     4  10  22  41  59  79 115 150 191 240 291 341
#     4  10  18  32  58  89 118 151 194 241 292 347
#     4  10  20  37  61  87 114 148 191 234 283 345
#
# _framework density 20.906697999999999
#
# number of rings (size 3 to 8) (size 9 to 14) (size 15 to 20)
#    0.000    2.250    2.500    0.750    0.000    2.500 
#    0.000    7.500    0.000    4.500    0.000    0.000 
#    0.000    0.000    0.000    0.000    0.000    0.000 
#
# Total GULP energy -178344.790639 kJ/mol
# GULP energy per Si atom -5573.274707 kJ/mol
# Density = 2.085911 g / cm^3
# Si number density = 20.906698 Si / 1000 Ang^3
#
#
#
# Elastic Constant Matrix: (Units=GPa)
#
#
# Indices 1 2 3 4 5 6 
#
# 1 143.4033 48.6311 46.0617 0.0000 0.0000 0.0000
# 2 48.6311 189.3380 15.8018 0.0000 0.0000 0.0000
# 3 46.0617 15.8018 44.6696 0.0000 0.0000 0.0000
# 4 0.0000 0.0000 0.0000 -20.5397 0.0000 0.0000
# 5 0.0000 0.0000 0.0000 0.0000 15.2600 0.0000
# 6 0.0000 0.0000 0.0000 0.0000 0.0000 15.4859
#
#
#
# Elastic Compliance Matrix: (Units=1/GPa)
#
#
# Indices 1 2 3 4 5 6 
#
# 1 0.011085 -0.001951 -0.010740 0.000000 0.000000 0.000000
# 2 -0.001951 0.005786 -0.000035 0.000000 0.000000 0.000000
# 3 -0.010740 -0.000035 0.033474 0.000000 0.000000 0.000000
# 4 0.000000 0.000000 0.000000 -0.048686 0.000000 0.000000
# 5 0.000000 0.000000 0.000000 0.000000 0.065531 0.000000
# 6 0.000000 0.000000 0.000000 0.000000 0.000000 0.064575
#
#
# Mechanical properties :
#
#
# Convention : Reuss Voigt Hill
#
# Bulk Modulus (GPa) = 40.17320 66.48889 53.33104
# Shear Modulus (GPa) = 30.20918 19.83565 25.02241
#
# Velocity S-wave (km/s) = 3.80538 3.08355 3.46332
# Velocity P-wave (km/s) = 6.21008 6.67454 6.44649
#
# Compressibility (1/GPa) = 0.02489222
#
# Stress axis : x y z
#
# Youngs Moduli (GPa) = 90.21536 172.84509 29.87419
#
# Poissons Ratio (x) = 0.33717 0.32085
# Poissons Ratio (y) = 0.17598 0.00105
# Poissons Ratio (z) = 0.96891 0.00607
#
# Static dielectric constant tensor:
#      x y z
#    x 1.760390 0.000000 0.000000 
#    y 0.000000 1.863530 0.000000 
#    z 0.000000 0.000000 1.720380 
# 
# From -- ./inp_files/15965.got.cif
#   From: 2010.05.17/outbox.cif.g08.bks.cpg/sg51_8_cif.got.tgz:15965.got - 2010.06.03 11:52:47.
