data_PCOD9399565
_publ_section_title
;
Structure prediction by ZEFSAII (Michael W. Deem and Ramdas Pophale) SiO2 
 PCOD9399565
Probable space group: P M M A
;
_chemical_formula_sum "Si O2"
_cell_formula_units_Z 64
_cell_length_a 29.090078
_cell_length_b 7.666400
_cell_length_c 12.584110
_cell_angle_alpha 90.000000
_cell_angle_beta 90.000000
_cell_angle_gamma 90.000000
_cell_volume 2806.460065
_symmetry_space_group_name_H-M "P M M A"
_symmetry_group_IT_number 51
_symmetry_cell_setting 'orthorhombic'
loop_
_space_group_symop_operation_xyz
x,y,z
1/2-x,-y,z
1/2+x,-y,-z
-x,y,-z
-x,-y,-z
1/2+x,y,-z
1/2-x,y,z
x,-y,z
loop_
_atom_site_type_symbol
_atom_site_label
_atom_site_fract_x
_atom_site_fract_y
_atom_site_fract_z
Si Si1 0.033481 0.800068 0.777849
Si Si2 0.298718 0.211775 0.718813
Si Si3 0.660367 0.705429 0.736089
Si Si4 0.941223 0.704255 0.685187
Si Si5 0.332519 0.209731 0.496364
Si Si6 0.199097 0.202564 0.044061
Si Si7 0.375874 0.213804 0.880575
Si Si8 0.936757 0.298576 0.454553
O O1 0.072502 0.723720 0.855730
O O2 0.053601 0.792083 0.657358
O O3 0.982897 0.720930 0.766644
O O4 0.026391 0.000000 0.807944
O O5 0.250000 0.270184 0.765277
O O6 0.301854 0.261236 0.595981
O O7 0.343275 0.268301 0.782695
O O8 0.299294 0.000000 0.723322
O O9 0.658410 0.500000 0.759409
O O10 0.607722 0.775779 0.724902
O O11 0.682161 0.732721 0.620263
O O12 0.687904 0.789712 0.831640
O O13 0.932894 0.500000 0.665571
O O14 0.955779 0.773355 0.567770
O O15 0.382517 0.287983 0.521550
O O16 0.336693 0.000000 0.495921
O O17 0.250000 0.279416 0.024339
O O18 0.201870 0.000000 0.010362
O O19 0.154243 0.272478 0.981691
O O20 0.379067 0.000000 0.881873
O O21 0.951534 0.500000 0.439350
#
# Coordination Sequence:
#
# PCOD9399565 Si02
#       8
#     8   8   8   8   8   8   8   8
#     4  11  20  31  52  83 114 147 188 235 284 333
#     4   9  16  28  50  79 111 143 174 220 282 339
#     4  10  22  40  59  80 113 151 187 233 288 339
#     4   9  20  36  52  75 109 152 193 227 275 340
#     4  10  18  31  53  83 114 144 186 233 278 335
#     4  10  21  39  65  89 107 139 190 239 282 334
#     4   9  18  34  54  83 116 142 180 234 286 333
#     4  10  19  32  50  74 112 157 193 226 272 331
#
# _framework density 22.804528999999999
#
# number of rings (size 3 to 8) (size 9 to 14) (size 15 to 20)
#    0.000    2.250    1.250    3.000    0.000    6.750 
#    0.000    3.125    0.000    4.875    0.000    0.000 
#    0.000    0.000    0.000    0.000    0.000    0.000 
#
# Total GULP energy -357144.186127 kJ/mol
# GULP energy per Si atom -5580.377908 kJ/mol
# Density = 2.275263 g / cm^3
# Si number density = 22.804529 Si / 1000 Ang^3
#
#
#
# Elastic Constant Matrix: (Units=GPa)
#
#
# Indices 1 2 3 4 5 6 
#
# 1 49.3079 0.3949 5.7438 0.0000 0.0000 0.0000
# 2 0.3949 44.6739 -9.2931 0.0000 0.0000 0.0000
# 3 5.7438 -9.2931 74.4504 0.0000 0.0000 0.0000
# 4 0.0000 0.0000 0.0000 60.2201 0.0000 0.0000
# 5 0.0000 0.0000 0.0000 0.0000 -2.8376 0.0000
# 6 0.0000 0.0000 0.0000 0.0000 0.0000 19.9752
#
#
#
# Elastic Compliance Matrix: (Units=1/GPa)
#
#
# Indices 1 2 3 4 5 6 
#
# 1 0.020477 -0.000523 -0.001645 0.000000 0.000000 0.000000
# 2 -0.000523 0.022995 0.002911 0.000000 0.000000 0.000000
# 3 -0.001645 0.002911 0.013922 0.000000 0.000000 0.000000
# 4 0.000000 0.000000 0.000000 0.016606 0.000000 0.000000
# 5 0.000000 0.000000 0.000000 0.000000 -0.352406 0.000000
# 6 0.000000 0.000000 0.000000 0.000000 0.000000 0.050062
#
#
# Mechanical properties :
#
#
# Convention : Reuss Voigt Hill
#
# Bulk Modulus (GPa) = 16.98436 18.01373 17.49905
# Shear Modulus (GPa) = -23.78637 26.91064 1.56213
#
# Velocity S-wave (km/s) = -3.23314 3.43892 0.82855
# Velocity P-wave (km/s) = 2.54433 4.86668 2.93351
#
# Compressibility (1/GPa) = 0.05887769
#
# Stress axis : x y z
#
# Youngs Moduli (GPa) = 48.83639 43.48857 71.82888
#
# Poissons Ratio (x) = 0.02275 0.11816
# Poissons Ratio (y) = 0.02555 -0.20906
# Poissons Ratio (z) = 0.08034 -0.12658
#
# Static dielectric constant tensor:
#      x y z
#    x 1.446280 0.000000 0.000000 
#    y 0.000000 1.851940 0.000000 
#    z 0.000000 0.000000 1.848020 
# 
# From -- ./inp_files/19462.got.cif
#   From: 2010.05.17/outbox.cif.g08.bks.cpg/sg51_10_cif.got.tgz:19462.got - 2010.06.03 11:52:47.
