data_PCOD9399307
_publ_section_title
;
Structure prediction by ZEFSAII (Michael W. Deem and Ramdas Pophale) SiO2 
 PCOD9399307
Probable space group: P M M A
;
_chemical_formula_sum "Si O2"
_cell_formula_units_Z 64
_cell_length_a 9.154666
_cell_length_b 20.667385
_cell_length_c 20.508434
_cell_angle_alpha 90.000000
_cell_angle_beta 90.000000
_cell_angle_gamma 90.000000
_cell_volume 3880.257377
_symmetry_space_group_name_H-M "P M M A"
_symmetry_group_IT_number 51
_symmetry_cell_setting 'orthorhombic'
loop_
_space_group_symop_operation_xyz
x,y,z
1/2-x,-y,z
1/2+x,-y,-z
-x,y,-z
-x,-y,-z
1/2+x,y,-z
1/2-x,y,z
x,-y,z
loop_
_atom_site_type_symbol
_atom_site_label
_atom_site_fract_x
_atom_site_fract_y
_atom_site_fract_z
Si Si1 0.077229 0.923166 0.431797
Si Si2 0.919119 0.397588 0.065491
Si Si3 0.928042 0.762231 0.206536
Si Si4 0.418877 0.239764 0.935468
Si Si5 0.428093 0.611310 0.791865
Si Si6 0.425303 0.303566 0.569710
Si Si7 0.074615 0.822085 0.658618
Si Si8 0.427909 0.429611 0.649559
O O1 0.250000 0.910872 0.436757
O O2 0.000000 0.905048 0.500000
O O3 0.006547 0.881737 0.374327
O O4 0.054972 0.000000 0.422090
O O5 0.750000 0.417059 0.061186
O O6 0.923726 0.318626 0.066116
O O7 0.977805 0.415366 0.137634
O O8 0.000000 0.419295 0.000000
O O9 0.750000 0.762340 0.205449
O O10 0.978433 0.782792 0.134550
O O11 0.969276 0.686924 0.215428
O O12 0.972688 0.805130 0.267771
O O13 0.250000 0.221408 0.940063
O O14 0.500000 0.217752 0.000000
O O15 0.250000 0.608969 0.794817
O O16 0.473623 0.577339 0.725178
O O17 0.500000 0.296965 0.500000
O O18 0.250000 0.307350 0.561547
O O19 0.454713 0.241657 0.615100
O O20 0.475724 0.368661 0.606829
O O21 0.250000 0.832691 0.658173
O O22 0.250000 0.427443 0.650112
O O23 0.472983 0.500000 0.624156
#
# Coordination Sequence:
#
# PCOD9399307 Si02
#       8
#     8   8   8   8   8   8   8   8
#     4  10  21  36  52  71  97 127 157 188 222 264
#     4   8  13  20  34  55  78 105 136 173 215 260
#     4   8  13  23  40  61  86 117 150 184 224 267
#     4   8  13  21  34  54  82 114 146 179 217 262
#     4   8  12  22  39  58  80 108 145 184 221 261
#     4  10  20  32  47  68  91 114 144 184 230 274
#     4  10  18  30  50  72  95 123 154 189 227 269
#     4   9  16  27  44  64  84 109 147 192 230 267
#
# _framework density 16.493751
#
# number of rings (size 3 to 8) (size 9 to 14) (size 15 to 20)
#    0.000    3.125    1.250    2.250    0.000    2.500 
#    0.000    0.625    0.000    1.875    0.000    0.000 
#    0.000    0.500    0.000    1.125    0.000    2.000 
#
# Total GULP energy -356392.262787 kJ/mol
# GULP energy per Si atom -5568.629106 kJ/mol
# Density = 1.645621 g / cm^3
# Si number density = 16.493751 Si / 1000 Ang^3
#
#
#
# Elastic Constant Matrix: (Units=GPa)
#
#
# Indices 1 2 3 4 5 6 
#
# 1 19.1483 24.8905 38.0360 0.0000 0.0000 0.0000
# 2 24.8905 47.8312 42.3891 0.0000 0.0000 0.0000
# 3 38.0360 42.3891 144.5091 0.0000 0.0000 0.0000
# 4 0.0000 0.0000 0.0000 -24.3117 0.0000 0.0000
# 5 0.0000 0.0000 0.0000 0.0000 24.0157 0.0000
# 6 0.0000 0.0000 0.0000 0.0000 0.0000 28.6809
#
#
#
# Elastic Compliance Matrix: (Units=1/GPa)
#
#
# Indices 1 2 3 4 5 6 
#
# 1 0.262557 -0.101866 -0.039227 0.000000 0.000000 0.000000
# 2 -0.101866 0.067773 0.006932 0.000000 0.000000 0.000000
# 3 -0.039227 0.006932 0.015211 0.000000 0.000000 0.000000
# 4 0.000000 0.000000 0.000000 -0.041133 0.000000 0.000000
# 5 0.000000 0.000000 0.000000 0.000000 0.041639 0.000000
# 6 0.000000 0.000000 0.000000 0.000000 0.000000 0.034866
#
#
# Mechanical properties :
#
#
# Convention : Reuss Voigt Hill
#
# Bulk Modulus (GPa) = 12.95006 46.90219 29.92613
# Shear Modulus (GPa) = 7.40767 12.75518 10.08142
#
# Velocity S-wave (km/s) = 2.12154 2.78391 2.47498
# Velocity P-wave (km/s) = 3.72422 6.23150 5.13329
#
# Compressibility (1/GPa) = 0.07721970
#
# Stress axis : x y z
#
# Youngs Moduli (GPa) = 3.80869 14.75518 65.74045
#
# Poissons Ratio (x) = 1.50306 2.57878
# Poissons Ratio (y) = 0.38798 -0.45573
# Poissons Ratio (z) = 0.14940 -0.10229
#
# Static dielectric constant tensor:
#      x y z
#    x 1.551460 0.000000 0.000000 
#    y 0.000000 1.553290 0.000000 
#    z 0.000000 0.000000 1.577650 
# 
# From -- ./inp_files/32582.got.cif
#   From: 2010.05.17/outbox.cif.g08.bks.cpg/sg51_17_cif.got.tgz:32582.got - 2010.06.03 11:52:47.
