data_PCOD9399467
_publ_section_title
;
Structure prediction by ZEFSAII (Michael W. Deem and Ramdas Pophale) SiO2 
 PCOD9399467
Probable space group: P M M A
;
_chemical_formula_sum "Si O2"
_cell_formula_units_Z 64
_cell_length_a 23.496707
_cell_length_b 7.626386
_cell_length_c 18.277400
_cell_angle_alpha 90.000000
_cell_angle_beta 90.000000
_cell_angle_gamma 90.000000
_cell_volume 3275.217913
_symmetry_space_group_name_H-M "P M M A"
_symmetry_group_IT_number 51
_symmetry_cell_setting 'orthorhombic'
loop_
_space_group_symop_operation_xyz
x,y,z
1/2-x,-y,z
1/2+x,-y,-z
-x,y,-z
-x,-y,-z
1/2+x,y,-z
1/2-x,y,z
x,-y,z
loop_
_atom_site_type_symbol
_atom_site_label
_atom_site_fract_x
_atom_site_fract_y
_atom_site_fract_z
Si Si1 0.080918 0.709901 0.146650
Si Si2 0.351422 0.785313 0.405102
Si Si3 0.022156 0.794841 0.423990
Si Si4 0.688198 0.788792 0.751776
Si Si5 0.313237 0.788928 0.566573
Si Si6 0.068495 0.298321 0.988400
Si Si7 0.548542 0.715252 0.169578
Si Si8 0.583362 0.292058 0.325727
O O1 0.075460 0.500000 0.139324
O O2 0.133133 0.743397 0.200365
O O3 0.018239 0.770006 0.173524
O O4 0.091479 0.780506 0.064113
O O5 0.417012 0.725567 0.399257
O O6 0.319726 0.727129 0.331967
O O7 0.328653 0.727888 0.484324
O O8 0.348260 0.000000 0.404829
O O9 0.000000 0.715066 0.500000
O O10 0.972185 0.781182 0.366040
O O11 0.033352 0.000000 0.438710
O O12 0.750000 0.727604 0.779876
O O13 0.689457 0.000000 0.750022
O O14 0.250000 0.726729 0.586500
O O15 0.361384 0.744396 0.625463
O O16 0.312168 0.000000 0.562943
O O17 0.088966 0.500000 0.984566
O O18 0.074916 0.221339 0.907330
O O19 0.000000 0.302813 0.000000
O O20 0.548785 0.500000 0.166568
O O21 0.582049 0.770917 0.241995
O O22 0.575888 0.500000 0.323719
#
# Coordination Sequence:
#
# PCOD9399467 Si02
#       8
#     8   8   8   8   8   8   8   8
#     4   9  16  29  51  74  95 121 156 194 230 275
#     4   9  17  32  52  70  88 119 163 203 233 273
#     4  10  18  31  50  70  95 124 159 199 236 280
#     4  10  20  32  46  66  94 128 162 194 234 283
#     4  10  20  36  55  68  84 120 170 211 236 269
#     4   7  11  23  46  72  94 118 149 182 218 270
#     4   8  15  28  47  74 102 125 149 185 240 295
#     4  11  21  31  47  73 104 128 150 189 243 295
#
# _framework density 19.540685
#
# number of rings (size 3 to 8) (size 9 to 14) (size 15 to 20)
#    0.000    2.750    1.250    3.000    0.000    2.250 
#    0.000    1.250    0.000    7.125    0.000    5.250 
#    0.000    0.000    0.000    0.000    0.000    0.000 
#
# Total GULP energy -356723.569091 kJ/mol
# GULP energy per Si atom -5573.805767 kJ/mol
# Density = 1.949621 g / cm^3
# Si number density = 19.540685 Si / 1000 Ang^3
#
#
#
# Elastic Constant Matrix: (Units=GPa)
#
#
# Indices 1 2 3 4 5 6 
#
# 1 82.4393 -10.0932 39.0276 0.0000 0.0000 0.0000
# 2 -10.0932 29.3465 -9.1320 0.0000 0.0000 0.0000
# 3 39.0276 -9.1320 148.2274 0.0000 0.0000 0.0000
# 4 0.0000 0.0000 0.0000 12.4682 0.0000 0.0000
# 5 0.0000 0.0000 0.0000 0.0000 14.6995 0.0000
# 6 0.0000 0.0000 0.0000 0.0000 0.0000 -594.4190
#
#
#
# Elastic Compliance Matrix: (Units=1/GPa)
#
#
# Indices 1 2 3 4 5 6 
#
# 1 0.014263 0.003810 -0.003521 0.000000 0.000000 0.000000
# 2 0.003810 0.035759 0.001200 0.000000 0.000000 0.000000
# 3 -0.003521 0.001200 0.007747 0.000000 0.000000 0.000000
# 4 0.000000 0.000000 0.000000 0.080204 0.000000 0.000000
# 5 0.000000 0.000000 0.000000 0.000000 0.068029 0.000000
# 6 0.000000 0.000000 0.000000 0.000000 0.000000 -0.001682
#
#
# Mechanical properties :
#
#
# Convention : Reuss Voigt Hill
#
# Bulk Modulus (GPa) = 16.46130 33.29087 24.87609
# Shear Modulus (GPa) = 22.56400 -97.43619 -37.43610
#
# Velocity S-wave (km/s) = 3.40180 -7.06905 -4.38174
# Velocity P-wave (km/s) = 4.88591 7.03953 3.58350
#
# Compressibility (1/GPa) = 0.06074853
#
# Stress axis : x y z
#
# Youngs Moduli (GPa) = 70.10964 27.96465 129.07703
#
# Poissons Ratio (x) = -0.10655 0.45445
# Poissons Ratio (y) = -0.26712 -0.15488
# Poissons Ratio (z) = 0.24684 -0.03355
#
# Static dielectric constant tensor:
#      x y z
#    x 1.697830 0.000000 0.000000 
#    y 0.000000 1.752180 0.000000 
#    z 0.000000 0.000000 1.723970 
# 
# From -- ./inp_files/30831.got.cif
#   From: 2010.05.17/outbox.cif.g08.bks.cpg/sg51_16_cif.got.tgz:30831.got - 2010.06.03 11:52:47.
