data_PCOD9399599
_publ_section_title
;
Structure prediction by ZEFSAII (Michael W. Deem and Ramdas Pophale) SiO2 
 PCOD9399599
Probable space group: P M M A
;
_chemical_formula_sum "Si O2"
_cell_formula_units_Z 44
_cell_length_a 8.988932
_cell_length_b 13.281968
_cell_length_c 13.772464
_cell_angle_alpha 90.000000
_cell_angle_beta 90.000000
_cell_angle_gamma 90.000000
_cell_volume 1644.304217
_symmetry_space_group_name_H-M "P M M A"
_symmetry_group_IT_number 51
_symmetry_cell_setting 'orthorhombic'
loop_
_space_group_symop_operation_xyz
x,y,z
1/2-x,-y,z
1/2+x,-y,-z
-x,y,-z
-x,-y,-z
1/2+x,y,-z
1/2-x,y,z
x,-y,z
loop_
_atom_site_type_symbol
_atom_site_label
_atom_site_fract_x
_atom_site_fract_y
_atom_site_fract_z
Si Si1 0.750000 0.881347 0.883608
Si Si2 0.750000 0.611366 0.744095
Si Si3 0.250000 0.179324 0.344253
Si Si4 0.912083 0.163249 0.118112
Si Si5 0.078969 0.389403 0.601316
Si Si6 0.579729 0.165786 0.340115
Si Si7 0.968879 0.390607 0.114476
O O1 0.750000 0.845879 0.770758
O O2 0.583235 0.850086 0.920188
O O3 0.750000 0.000000 0.885458
O O4 0.750000 0.500000 0.700604
O O5 0.750000 0.697868 0.662282
O O6 0.613569 0.619005 0.818520
O O7 0.412566 0.141288 0.383473
O O8 0.750000 0.122917 0.080942
O O9 0.920582 0.125521 0.230125
O O10 0.894216 0.283216 0.123502
O O11 0.250000 0.396511 0.577705
O O12 0.037195 0.500000 0.641060
O O13 0.069062 0.287844 0.663077
O O14 0.000000 0.372549 0.500000
O O15 0.750000 0.143503 0.379973
O O16 0.902390 0.500000 0.140169
O O17 0.000000 0.396720 0.000000
#
# Coordination Sequence:
#
# PCOD9399599 Si02
#       7
#     4   4   4   8   8   8   8
#     4  10  20  38  60  80 106 134 168 224 286 326
#     4  10  18  32  48  72 106 135 178 216 255 322
#     4  10  18  34  54  78  98 133 170 212 273 312
#     4  10  20  36  56  82 106 140 178 220 266 325
#     4   9  18  30  42  63  96 138 183 219 250 290
#     4   9  18  31  48  68  97 130 168 215 255 305
#     4  10  20  32  50  77 111 146 180 219 265 316
#
# _framework density 26.759038
#
# number of rings (size 3 to 8) (size 9 to 14) (size 15 to 20)
#    0.000    2.364    3.636    0.000    2.545    2.182 
#    0.000    1.818    0.000    0.545    0.000    0.000 
#    0.000   11.636    1.455    0.000    0.000    0.000 
#
# Total GULP energy -245181.999089 kJ/mol
# GULP energy per Si atom -5572.318161 kJ/mol
# Density = 2.669813 g / cm^3
# Si number density = 26.759038 Si / 1000 Ang^3
#
#
#
# Elastic Constant Matrix: (Units=GPa)
#
#
# Indices 1 2 3 4 5 6 
#
# 1 302.8572 28.6660 47.4691 0.0000 0.0000 0.0000
# 2 28.6660 111.4704 1.5802 0.0000 0.0000 0.0000
# 3 47.4691 1.5802 64.2413 0.0000 0.0000 0.0000
# 4 0.0000 0.0000 0.0000 16.7080 0.0000 0.0000
# 5 0.0000 0.0000 0.0000 0.0000 41.8946 0.0000
# 6 0.0000 0.0000 0.0000 0.0000 0.0000 -31.7982
#
#
#
# Elastic Compliance Matrix: (Units=1/GPa)
#
#
# Indices 1 2 3 4 5 6 
#
# 1 0.003831 -0.000946 -0.002808 0.000000 0.000000 0.000000
# 2 -0.000946 0.009207 0.000472 0.000000 0.000000 0.000000
# 3 -0.002808 0.000472 0.017629 0.000000 0.000000 0.000000
# 4 0.000000 0.000000 0.000000 0.059852 0.000000 0.000000
# 5 0.000000 0.000000 0.000000 0.000000 0.023869 0.000000
# 6 0.000000 0.000000 0.000000 0.000000 0.000000 -0.031448
#
#
# Mechanical properties :
#
#
# Convention : Reuss Voigt Hill
#
# Bulk Modulus (GPa) = 41.48354 70.44440 55.96397
# Shear Modulus (GPa) = 51.26160 32.08445 41.67303
#
# Velocity S-wave (km/s) = 4.38159 3.46643 3.95060
# Velocity P-wave (km/s) = 6.41358 6.51185 6.46290
#
# Compressibility (1/GPa) = 0.02410595
#
# Stress axis : x y z
#
# Youngs Moduli (GPa) = 260.99545 108.60778 56.72311
#
# Poissons Ratio (x) = 0.10269 0.15927
# Poissons Ratio (y) = 0.24677 -0.02678
# Poissons Ratio (z) = 0.73285 -0.05128
#
# Static dielectric constant tensor:
#      x y z
#    x 2.263020 0.000000 0.000000 
#    y 0.000000 2.076500 0.000000 
#    z 0.000000 0.000000 2.154510 
# 
# From -- ./inp_files/27488.got.cif
#   From: 2010.05.17/outbox.cif.g08.bks.cpg/sg51_14_cif.got.tgz:27488.got - 2010.06.03 11:52:47.
