data_PCOD9399205
_publ_section_title
;
Structure prediction by ZEFSAII (Michael W. Deem and Ramdas Pophale) SiO2 
 PCOD9399205
Probable space group: P M M A
;
_chemical_formula_sum "Si O2"
_cell_formula_units_Z 64
_cell_length_a 28.468778
_cell_length_b 7.869422
_cell_length_c 14.991577
_cell_angle_alpha 90.000000
_cell_angle_beta 90.000000
_cell_angle_gamma 90.000000
_cell_volume 3358.605390
_symmetry_space_group_name_H-M "P M M A"
_symmetry_group_IT_number 51
_symmetry_cell_setting 'orthorhombic'
loop_
_space_group_symop_operation_xyz
x,y,z
1/2-x,-y,z
1/2+x,-y,-z
-x,y,-z
-x,-y,-z
1/2+x,y,-z
1/2-x,y,z
x,-y,z
loop_
_atom_site_type_symbol
_atom_site_label
_atom_site_fract_x
_atom_site_fract_y
_atom_site_fract_z
Si Si1 0.610956 0.205596 0.862580
Si Si2 0.803971 0.295532 0.737286
Si Si3 0.305977 0.700096 0.460779
Si Si4 0.552988 0.792459 0.030688
Si Si5 0.069212 0.206926 0.767306
Si Si6 0.965769 0.196392 0.727766
Si Si7 0.377762 0.800945 0.599036
Si Si8 0.452516 0.695933 0.458749
O O1 0.660052 0.254173 0.816577
O O2 0.569284 0.274313 0.799028
O O3 0.610550 0.000000 0.861896
O O4 0.593516 0.258633 0.960632
O O5 0.750000 0.236588 0.752464
O O6 0.802114 0.500000 0.730151
O O7 0.820474 0.233975 0.638297
O O8 0.250000 0.717050 0.462499
O O9 0.317946 0.500000 0.463670
O O10 0.328424 0.779621 0.549134
O O11 0.566406 0.735032 0.130312
O O12 0.551413 0.000000 0.031364
O O13 0.500000 0.739778 0.000000
O O14 0.110771 0.259487 0.699573
O O15 0.019049 0.262066 0.725074
O O16 0.071360 0.000000 0.771035
O O17 0.942024 0.209037 0.632065
O O18 0.971154 0.000000 0.754196
O O19 0.412901 0.708361 0.531927
O O20 0.389893 0.000000 0.596818
O O21 0.500000 0.769281 0.500000
O O22 0.460734 0.500000 0.434232
#
# Coordination Sequence:
#
# PCOD9399205 Si02
#       8
#     8   8   8   8   8   8   8   8
#     4  10  19  29  51  81 101 125 165 211 252 292
#     4   9  19  36  55  73  98 133 165 198 252 312
#     4   9  19  37  58  77 100 133 170 207 251 305
#     4   9  15  28  49  73 101 133 168 204 245 296
#     4   9  17  29  46  69 100 135 166 201 246 296
#     4  10  18  30  47  70  99 130 166 204 247 295
#     4  11  21  32  50  74 101 134 169 208 252 296
#     4  11  22  32  43  64  97 137 172 201 239 292
#
# _framework density 19.055527999999999
#
# number of rings (size 3 to 8) (size 9 to 14) (size 15 to 20)
#    0.000    2.250    2.500    2.250    0.000    4.000 
#    0.000    1.250    0.000    3.375    0.000    5.250 
#    0.000    0.000    0.000    0.000    0.000    0.000 
#
# Total GULP energy -356604.299350 kJ/mol
# GULP energy per Si atom -5571.942177 kJ/mol
# Density = 1.901216 g / cm^3
# Si number density = 19.055528 Si / 1000 Ang^3
#
#
#
# Elastic Constant Matrix: (Units=GPa)
#
#
# Indices 1 2 3 4 5 6 
#
# 1 74.2035 9.8337 58.6949 0.0000 0.0000 0.0000
# 2 9.8337 19.0942 7.6305 0.0000 0.0000 0.0000
# 3 58.6949 7.6305 160.4108 0.0000 0.0000 0.0000
# 4 0.0000 0.0000 0.0000 222.3877 0.0000 0.0000
# 5 0.0000 0.0000 0.0000 0.0000 31.8582 0.0000
# 6 0.0000 0.0000 0.0000 0.0000 0.0000 36.0749
#
#
#
# Elastic Compliance Matrix: (Units=1/GPa)
#
#
# Indices 1 2 3 4 5 6 
#
# 1 0.019968 -0.007507 -0.006949 0.000000 0.000000 0.000000
# 2 -0.007507 0.056209 0.000073 0.000000 0.000000 0.000000
# 3 -0.006949 0.000073 0.008773 0.000000 0.000000 0.000000
# 4 0.000000 0.000000 0.000000 0.004497 0.000000 0.000000
# 5 0.000000 0.000000 0.000000 0.000000 0.031389 0.000000
# 6 0.000000 0.000000 0.000000 0.000000 0.000000 0.027720
#
#
# Mechanical properties :
#
#
# Convention : Reuss Voigt Hill
#
# Bulk Modulus (GPa) = 17.79862 45.11408 31.45635
# Shear Modulus (GPa) = 25.50362 69.90078 47.70220
#
# Velocity S-wave (km/s) = 3.66236 6.06319 5.00875
# Velocity P-wave (km/s) = 5.21963 8.52894 7.07062
#
# Compressibility (1/GPa) = 0.05618413
#
# Stress axis : x y z
#
# Youngs Moduli (GPa) = 50.07961 17.79079 113.98197
#
# Poissons Ratio (x) = 0.13355 0.79210
# Poissons Ratio (y) = 0.37593 -0.00832
# Poissons Ratio (z) = 0.34802 -0.00130
#
# Static dielectric constant tensor:
#      x y z
#    x 1.682200 0.000000 0.000000 
#    y 0.000000 1.710460 0.000000 
#    z 0.000000 0.000000 1.695780 
# 
# From -- ./inp_files/26642.got.cif
#   From: 2010.05.17/outbox.cif.g08.bks.cpg/sg51_14_cif.got.tgz:26642.got - 2010.06.03 11:52:47.
