data_PCOD9399398
_publ_section_title
;
Structure prediction by ZEFSAII (Michael W. Deem and Ramdas Pophale) SiO2 
 PCOD9399398
Probable space group: P M M A
;
_chemical_formula_sum "Si O2"
_cell_formula_units_Z 56
_cell_length_a 8.773700
_cell_length_b 15.800375
_cell_length_c 20.622449
_cell_angle_alpha 90.000000
_cell_angle_beta 90.000000
_cell_angle_gamma 90.000000
_cell_volume 2858.843707
_symmetry_space_group_name_H-M "P M M A"
_symmetry_group_IT_number 51
_symmetry_cell_setting 'orthorhombic'
loop_
_space_group_symop_operation_xyz
x,y,z
1/2-x,-y,z
1/2+x,-y,-z
-x,y,-z
-x,-y,-z
1/2+x,y,-z
1/2-x,y,z
x,-y,z
loop_
_atom_site_type_symbol
_atom_site_label
_atom_site_fract_x
_atom_site_fract_y
_atom_site_fract_z
Si Si1 0.931550 0.904585 0.671271
Si Si2 0.432612 0.226199 0.568805
Si Si3 0.071227 0.352790 0.246345
Si Si4 0.568418 0.772629 0.066735
Si Si5 0.429654 0.407216 0.100223
Si Si6 0.066208 0.591955 0.620538
Si Si7 0.431712 0.825012 0.792129
O O1 0.750000 0.893891 0.668333
O O2 0.008853 0.835009 0.625465
O O3 0.987144 0.890558 0.744873
O O4 0.970332 0.000000 0.650240
O O5 0.500000 0.199106 0.500000
O O6 0.250000 0.223713 0.567129
O O7 0.482099 0.323288 0.583039
O O8 0.250000 0.333132 0.256594
O O9 0.059013 0.401966 0.178451
O O10 0.005072 0.400608 0.307962
O O11 0.977288 0.266656 0.236465
O O12 0.750000 0.774930 0.064041
O O13 0.515940 0.674835 0.074269
O O14 0.519314 0.820857 0.132498
O O15 0.500000 0.806479 0.000000
O O16 0.250000 0.399385 0.083825
O O17 0.484797 0.500000 0.079025
O O18 0.250000 0.594852 0.625712
O O19 0.023605 0.500000 0.592284
O O20 0.250000 0.836099 0.789343
#
# Coordination Sequence:
#
# PCOD9399398 Si02
#       7
#     8   8   8   8   8   8   8
#     4  11  24  42  67  98 126 154 193 242 298 361
#     4  11  24  42  64  89 124 166 205 249 300 353
#     4  10  18  30  52  80 111 149 196 247 297 350
#     4  10  21  35  53  78 109 149 196 240 292 353
#     4   9  18  31  46  69 104 145 192 245 297 349
#     4  10  21  36  55  82 118 160 205 251 298 350
#     4  10  20  36  59  87 118 153 193 240 295 353
#
# _framework density 19.588339999999999
#
# number of rings (size 3 to 8) (size 9 to 14) (size 15 to 20)
#    0.000    1.857    1.429    2.571    0.000    6.000 
#    0.000    0.000    0.000    0.429    0.000    0.000 
#    0.000    0.000    0.000    0.000    0.000    0.000 
#
# Total GULP energy -312724.141223 kJ/mol
# GULP energy per Si atom -5584.359665 kJ/mol
# Density = 1.954376 g / cm^3
# Si number density = 19.588340 Si / 1000 Ang^3
#
#
#
# Elastic Constant Matrix: (Units=GPa)
#
#
# Indices 1 2 3 4 5 6 
#
# 1 35.1429 26.2362 27.7393 0.0000 0.0000 0.0000
# 2 26.2362 82.3550 38.0588 0.0000 0.0000 0.0000
# 3 27.7393 38.0588 113.7912 0.0000 0.0000 0.0000
# 4 0.0000 0.0000 0.0000 -3.8527 0.0000 0.0000
# 5 0.0000 0.0000 0.0000 0.0000 31.6001 0.0000
# 6 0.0000 0.0000 0.0000 0.0000 0.0000 21.0773
#
#
#
# Elastic Compliance Matrix: (Units=1/GPa)
#
#
# Indices 1 2 3 4 5 6 
#
# 1 0.041237 -0.010044 -0.006693 0.000000 0.000000 0.000000
# 2 -0.010044 0.016809 -0.003173 0.000000 0.000000 0.000000
# 3 -0.006693 -0.003173 0.011481 0.000000 0.000000 0.000000
# 4 0.000000 0.000000 0.000000 -0.259560 0.000000 0.000000
# 5 0.000000 0.000000 0.000000 0.000000 0.031645 0.000000
# 6 0.000000 0.000000 0.000000 0.000000 0.000000 0.047444
#
#
# Mechanical properties :
#
#
# Convention : Reuss Voigt Hill
#
# Bulk Modulus (GPa) = 33.66366 46.15084 39.90725
# Shear Modulus (GPa) = -81.67108 19.04862 -31.31123
#
# Velocity S-wave (km/s) = -6.46407 3.12179 -4.00242
# Velocity P-wave (km/s) = 6.20399 6.05026 0.97052
#
# Compressibility (1/GPa) = 0.02970563
#
# Stress axis : x y z
#
# Youngs Moduli (GPa) = 24.25027 59.49257 87.10011
#
# Poissons Ratio (x) = 0.59753 0.58297
# Poissons Ratio (y) = 0.24357 0.27641
# Poissons Ratio (z) = 0.16231 0.18880
#
# Static dielectric constant tensor:
#      x y z
#    x 1.653580 0.000000 0.000000 
#    y 0.000000 1.693290 0.000000 
#    z 0.000000 0.000000 1.686530 
# 
# From -- ./inp_files/32005.got.cif
#   From: 2010.05.17/outbox.cif.g08.bks.cpg/sg51_17_cif.got.tgz:32005.got - 2010.06.03 11:52:47.
