data_PCOD9399584
_publ_section_title
;
Structure prediction by ZEFSAII (Michael W. Deem and Ramdas Pophale) SiO2 
 PCOD9399584
Probable space group: P M M A
;
_chemical_formula_sum "Si O2"
_cell_formula_units_Z 56
_cell_length_a 17.080429
_cell_length_b 7.863035
_cell_length_c 18.951926
_cell_angle_alpha 90.000000
_cell_angle_beta 90.000000
_cell_angle_gamma 90.000000
_cell_volume 2545.319679
_symmetry_space_group_name_H-M "P M M A"
_symmetry_group_IT_number 51
_symmetry_cell_setting 'orthorhombic'
loop_
_space_group_symop_operation_xyz
x,y,z
1/2-x,-y,z
1/2+x,-y,-z
-x,y,-z
-x,-y,-z
1/2+x,y,-z
1/2-x,y,z
x,-y,z
loop_
_atom_site_type_symbol
_atom_site_label
_atom_site_fract_x
_atom_site_fract_y
_atom_site_fract_z
Si Si1 0.250000 0.199616 0.788909
Si Si2 0.505513 0.296240 0.579275
Si Si3 0.333793 0.796911 0.173515
Si Si4 0.408490 0.706607 0.707968
Si Si5 0.582890 0.704256 0.026755
Si Si6 0.498280 0.699759 0.164197
Si Si7 0.750000 0.702627 0.046814
Si Si8 0.837710 0.794725 0.662852
O O1 0.174191 0.245219 0.741697
O O2 0.250000 0.279715 0.867623
O O3 0.250000 0.000000 0.801817
O O4 0.500000 0.226854 0.500000
O O5 0.496754 0.500000 0.575145
O O6 0.435977 0.234212 0.630993
O O7 0.589449 0.263911 0.616104
O O8 0.250000 0.729385 0.147475
O O9 0.414286 0.755082 0.135169
O O10 0.344187 0.737763 0.255084
O O11 0.329253 0.000000 0.175176
O O12 0.410659 0.500000 0.708023
O O13 0.475231 0.774868 0.761674
O O14 0.582890 0.500000 0.010490
O O15 0.568910 0.725018 0.110529
O O16 0.669490 0.773952 0.014068
O O17 0.500000 0.775303 0.000000
O O18 0.489290 0.500000 0.173457
O O19 0.750000 0.500000 0.033601
O O20 0.750000 0.742206 0.638487
O O21 0.839036 0.000000 0.663593
#
# Coordination Sequence:
#
# PCOD9399584 Si02
#       8
#     4   8   8   8   8   8   4   8
#     4  12  24  36  58  90 114 139 190 244 281 332
#     4  10  21  37  56  79 107 141 181 226 279 335
#     4   9  18  32  50  74 106 141 173 207 259 320
#     4  10  20  37  58  80 109 144 181 226 286 342
#     4   9  18  33  54  82 111 143 187 230 275 334
#     4  10  18  31  55  82 105 134 178 229 275 323
#     4  10  18  36  62  82 114 157 186 228 293 340
#     4   9  18  33  53  76 103 138 176 214 258 315
#
# _framework density 22.001165
#
# number of rings (size 3 to 8) (size 9 to 14) (size 15 to 20)
#    0.000    2.286    2.857    1.500    0.000    2.000 
#    2.571    1.429    0.000    1.714    0.000    0.000 
#    0.000    0.000    0.000    0.000    0.000    0.000 
#
# Total GULP energy -312315.077021 kJ/mol
# GULP energy per Si atom -5577.054947 kJ/mol
# Density = 2.195109 g / cm^3
# Si number density = 22.001165 Si / 1000 Ang^3
#
#
#
# Elastic Constant Matrix: (Units=GPa)
#
#
# Indices 1 2 3 4 5 6 
#
# 1 212.7045 16.6399 20.1539 0.0000 0.0000 0.0000
# 2 16.6399 110.3793 -102.0845 0.0000 0.0000 0.0000
# 3 20.1539 -102.0845 180.6084 0.0000 0.0000 0.0000
# 4 0.0000 0.0000 0.0000 -1.4384 0.0000 0.0000
# 5 0.0000 0.0000 0.0000 0.0000 45.6782 0.0000
# 6 0.0000 0.0000 0.0000 0.0000 0.0000 30.7635
#
#
#
# Elastic Compliance Matrix: (Units=1/GPa)
#
#
# Indices 1 2 3 4 5 6 
#
# 1 0.005114 -0.002721 -0.002109 0.000000 0.000000 0.000000
# 2 -0.002721 0.020431 0.011852 0.000000 0.000000 0.000000
# 3 -0.002109 0.011852 0.012471 0.000000 0.000000 0.000000
# 4 0.000000 0.000000 0.000000 -0.695237 0.000000 0.000000
# 5 0.000000 0.000000 0.000000 0.000000 0.021892 0.000000
# 6 0.000000 0.000000 0.000000 0.000000 0.000000 0.032506
#
#
# Mechanical properties :
#
#
# Convention : Reuss Voigt Hill
#
# Bulk Modulus (GPa) = 19.20869 41.45678 30.33273
# Shear Modulus (GPa) = -8.34011 52.93287 22.29638
#
# Velocity S-wave (km/s) = -1.94910 4.91033 3.18688
# Velocity P-wave (km/s) = 1.91948 7.14369 5.23052
#
# Compressibility (1/GPa) = 0.05205978
#
# Stress axis : x y z
#
# Youngs Moduli (GPa) = 195.53943 48.94494 80.18516
#
# Poissons Ratio (x) = 0.13319 0.16910
# Poissons Ratio (y) = 0.53212 -0.95034
# Poissons Ratio (z) = 0.41236 -0.58009
#
# Static dielectric constant tensor:
#      x y z
#    x 1.889780 0.000000 0.000000 
#    y 0.000000 1.776810 0.000000 
#    z 0.000000 0.000000 1.850390 
# 
# From -- ./inp_files/33562.got.cif
#   From: 2010.05.17/outbox.cif.g08.bks.cpg/sg51_17_cif.got.tgz:33562.got - 2010.06.03 11:52:47.
