data_PCOD9399966
_publ_section_title
;
Structure prediction by ZEFSAII (Michael W. Deem and Ramdas Pophale) SiO2 
 PCOD9399966
Probable space group: P M M A
;
_chemical_formula_sum "Si O2"
_cell_formula_units_Z 48
_cell_length_a 13.791993
_cell_length_b 13.857695
_cell_length_c 12.032144
_cell_angle_alpha 90.000000
_cell_angle_beta 90.000000
_cell_angle_gamma 90.000000
_cell_volume 2299.646319
_symmetry_space_group_name_H-M "P M M A"
_symmetry_group_IT_number 51
_symmetry_cell_setting 'orthorhombic'
loop_
_space_group_symop_operation_xyz
x,y,z
1/2-x,-y,z
1/2+x,-y,-z
-x,y,-z
-x,-y,-z
1/2+x,y,-z
1/2-x,y,z
x,-y,z
loop_
_atom_site_type_symbol
_atom_site_label
_atom_site_fract_x
_atom_site_fract_y
_atom_site_fract_z
Si Si1 0.869201 0.610542 0.933699
Si Si2 0.888897 0.894283 0.962907
Si Si3 0.643419 0.731579 0.133190
Si Si4 0.864348 0.229951 0.757226
Si Si5 0.632006 0.107947 0.557716
Si Si6 0.868489 0.891264 0.298182
O O1 0.750000 0.616024 0.937096
O O2 0.895611 0.500000 0.914402
O O3 0.901777 0.681461 0.833335
O O4 0.901127 0.647028 0.057017
O O5 0.875103 0.862990 0.836768
O O6 0.851132 0.000000 0.983660
O O7 0.844304 0.812273 0.038117
O O8 0.000000 0.893377 0.000000
O O9 0.750000 0.699053 0.173787
O O10 0.595853 0.797877 0.229051
O O11 0.750000 0.250637 0.742397
O O12 0.901555 0.193893 0.638015
O O13 0.750000 0.107939 0.562018
O O14 0.606814 0.117933 0.428031
O O15 0.600980 0.000000 0.593842
O O16 0.750000 0.889890 0.288771
O O17 0.898254 0.000000 0.259332
#
# Coordination Sequence:
#
# PCOD9399966 Si02
#       6
#     8   8   8   8   8   8
#     4   8  14  24  38  57  78  99 127 166 206 232
#     4  10  19  27  36  55  84 109 125 154 200 236
#     4   9  16  26  42  59  74 101 137 163 187 231
#     4   9  16  26  42  59  74 101 137 163 187 231
#     4   8  13  21  35  57  81 100 123 160 196 222
#     4   8  13  21  35  57  81 100 123 160 196 222
#
# _framework density 20.872776000000002
#
# number of rings (size 3 to 8) (size 9 to 14) (size 15 to 20)
#    0.000    3.333    0.000    3.500    0.000    2.667 
#    0.000    0.000    0.000   10.000    0.000   11.667 
#    0.000    0.000    0.000   12.000    0.000   14.667 
#
# Total GULP energy -267567.700988 kJ/mol
# GULP energy per Si atom -5574.327104 kJ/mol
# Density = 2.082527 g / cm^3
# Si number density = 20.872776 Si / 1000 Ang^3
#
#
#
# Elastic Constant Matrix: (Units=GPa)
#
#
# Indices 1 2 3 4 5 6 
#
# 1 72.2761 9.2786 1.6898 0.0000 0.0000 0.0000
# 2 9.2786 131.5129 63.2645 0.0000 0.0000 0.0000
# 3 1.6898 63.2645 114.8258 0.0000 0.0000 0.0000
# 4 0.0000 0.0000 0.0000 32.0831 0.0000 0.0000
# 5 0.0000 0.0000 0.0000 0.0000 21.6483 0.0000
# 6 0.0000 0.0000 0.0000 0.0000 0.0000 3.4435
#
#
#
# Elastic Compliance Matrix: (Units=1/GPa)
#
#
# Indices 1 2 3 4 5 6 
#
# 1 0.013980 -0.001207 0.000459 0.000000 0.000000 0.000000
# 2 -0.001207 0.010450 -0.005740 0.000000 0.000000 0.000000
# 3 0.000459 -0.005740 0.011865 0.000000 0.000000 0.000000
# 4 0.000000 0.000000 0.000000 0.031169 0.000000 0.000000
# 5 0.000000 0.000000 0.000000 0.000000 0.046193 0.000000
# 6 0.000000 0.000000 0.000000 0.000000 0.000000 0.290398
#
#
# Mechanical properties :
#
#
# Convention : Reuss Voigt Hill
#
# Bulk Modulus (GPa) = 42.88299 51.89783 47.39041
# Shear Modulus (GPa) = 11.77015 27.72713 19.74864
#
# Velocity S-wave (km/s) = 2.37723 3.64866 3.07928
# Velocity P-wave (km/s) = 5.30326 6.53209 5.94948
#
# Compressibility (1/GPa) = 0.02331927
#
# Stress axis : x y z
#
# Youngs Moduli (GPa) = 71.53033 95.69224 84.28498
#
# Poissons Ratio (x) = 0.11554 -0.03873
# Poissons Ratio (y) = 0.08636 0.48378
# Poissons Ratio (z) = -0.03287 0.54926
#
# Static dielectric constant tensor:
#      x y z
#    x 1.849700 0.000000 0.000000 
#    y 0.000000 1.747920 0.000000 
#    z 0.000000 0.000000 1.776530 
# 
# From -- ./inp_files/11744.got.cif
#   From: 2010.05.17/outbox.cif.g08.bks.cpg/sg51_6_cif.got.tgz:11744.got - 2010.06.03 11:52:47.
