data_PCOD9399338
_publ_section_title
;
Structure prediction by ZEFSAII (Michael W. Deem and Ramdas Pophale) SiO2 
 PCOD9399338
Probable space group: P M M A
;
_chemical_formula_sum "Si O2"
_cell_formula_units_Z 64
_cell_length_a 30.088513
_cell_length_b 8.653384
_cell_length_c 12.890688
_cell_angle_alpha 90.000000
_cell_angle_beta 90.000000
_cell_angle_gamma 90.000000
_cell_volume 3356.315653
_symmetry_space_group_name_H-M "P M M A"
_symmetry_group_IT_number 51
_symmetry_cell_setting 'orthorhombic'
loop_
_space_group_symop_operation_xyz
x,y,z
1/2-x,-y,z
1/2+x,-y,-z
-x,y,-z
-x,-y,-z
1/2+x,y,-z
1/2-x,y,z
x,-y,z
loop_
_atom_site_type_symbol
_atom_site_label
_atom_site_fract_x
_atom_site_fract_y
_atom_site_fract_z
Si Si1 0.669970 0.817190 0.346115
Si Si2 0.298635 0.816035 0.423447
Si Si3 0.393463 0.313724 0.367778
Si Si4 0.606580 0.686703 0.052815
Si Si5 0.557870 0.313012 0.842041
Si Si6 0.701244 0.313584 0.130747
Si Si7 0.423925 0.316601 0.590873
Si Si8 0.963644 0.183135 0.213094
O O1 0.697087 0.794175 0.452260
O O2 0.694624 0.758246 0.244498
O O3 0.624330 0.723963 0.361544
O O4 0.659999 0.000000 0.336717
O O5 0.250000 0.758878 0.388902
O O6 0.342487 0.740433 0.375489
O O7 0.300741 0.000000 0.404797
O O8 0.393649 0.500000 0.370194
O O9 0.416737 0.262426 0.262228
O O10 0.419813 0.261648 0.471620
O O11 0.604282 0.500000 0.058609
O O12 0.658112 0.732695 0.064432
O O13 0.577924 0.753802 0.147130
O O14 0.584303 0.735376 0.944818
O O15 0.555744 0.500000 0.841876
O O16 0.508246 0.249021 0.837787
O O17 0.750000 0.269834 0.089648
O O18 0.700077 0.500000 0.140036
O O19 0.431303 0.500000 0.591651
O O20 0.458919 0.239562 0.668098
O O21 0.963616 0.000000 0.210140
#
# Coordination Sequence:
#
# PCOD9399338 Si02
#       8
#     8   8   8   8   8   8   8   8
#     4  10  18  30  50  79 113 147 181 224 276 328
#     4   9  18  32  51  77 111 150 188 226 276 334
#     4   9  20  37  57  82 111 145 189 237 278 325
#     4  10  21  39  61  82 112 150 186 229 279 331
#     4  10  22  41  61  81 108 148 192 234 283 334
#     4  10  20  33  52  80 112 147 185 223 271 332
#     4  10  19  34  56  82 115 149 179 221 279 335
#     4  12  24  37  58  88 115 143 183 233 283 336
#
# _framework density 19.068529000000002
#
# number of rings (size 3 to 8) (size 9 to 14) (size 15 to 20)
#    0.000    2.000    1.250    2.625    0.000    5.000 
#    0.000    3.125    0.000    2.250    0.000    0.000 
#    0.000    0.000    0.000    0.000    0.000    0.000 
#
# Total GULP energy -357296.389822 kJ/mol
# GULP energy per Si atom -5582.756091 kJ/mol
# Density = 1.902513 g / cm^3
# Si number density = 19.068529 Si / 1000 Ang^3
#
#
#
# Elastic Constant Matrix: (Units=GPa)
#
#
# Indices 1 2 3 4 5 6 
#
# 1 76.9943 13.4005 33.1487 0.0000 0.0000 0.0000
# 2 13.4005 13.3850 18.3704 0.0000 0.0000 0.0000
# 3 33.1487 18.3704 87.6175 0.0000 0.0000 0.0000
# 4 0.0000 0.0000 0.0000 7.4303 0.0000 0.0000
# 5 0.0000 0.0000 0.0000 0.0000 -105.3105 0.0000
# 6 0.0000 0.0000 0.0000 0.0000 0.0000 -44.5706
#
#
#
# Elastic Compliance Matrix: (Units=1/GPa)
#
#
# Indices 1 2 3 4 5 6 
#
# 1 0.016642 -0.011260 -0.003935 0.000000 0.000000 0.000000
# 2 -0.011260 0.112514 -0.019330 0.000000 0.000000 0.000000
# 3 -0.003935 -0.019330 0.016955 0.000000 0.000000 0.000000
# 4 0.000000 0.000000 0.000000 0.134585 0.000000 0.000000
# 5 0.000000 0.000000 0.000000 0.000000 -0.009496 0.000000
# 6 0.000000 0.000000 0.000000 0.000000 0.000000 -0.022436
#
#
# Mechanical properties :
#
#
# Convention : Reuss Voigt Hill
#
# Bulk Modulus (GPa) = 12.97702 34.20401 23.59052
# Shear Modulus (GPa) = 14.55598 -20.95171 -3.19786
#
# Velocity S-wave (km/s) = 2.76588 -3.31835 -1.29641
# Velocity P-wave (km/s) = 4.12557 1.81506 3.18707
#
# Compressibility (1/GPa) = 0.07705927
#
# Stress axis : x y z
#
# Youngs Moduli (GPa) = 60.08859 8.88781 58.97955
#
# Poissons Ratio (x) = 0.10008 0.23211
# Poissons Ratio (y) = 0.67661 1.14008
# Poissons Ratio (z) = 0.23647 0.17180
#
# Static dielectric constant tensor:
#      x y z
#    x 1.670430 0.000000 0.000000 
#    y 0.000000 1.639860 0.000000 
#    z 0.000000 0.000000 1.657680 
# 
# From -- ./inp_files/19501.got.cif
#   From: 2010.05.17/outbox.cif.g08.bks.cpg/sg51_10_cif.got.tgz:19501.got - 2010.06.03 11:52:47.
