data_PCOD9399906
_publ_section_title
;
Structure prediction by ZEFSAII (Michael W. Deem and Ramdas Pophale) SiO2 
 PCOD9399906
Probable space group: P M M A
;
_chemical_formula_sum "Si O2"
_cell_formula_units_Z 56
_cell_length_a 14.830729
_cell_length_b 15.940065
_cell_length_c 11.632233
_cell_angle_alpha 90.000000
_cell_angle_beta 90.000000
_cell_angle_gamma 90.000000
_cell_volume 2749.892268
_symmetry_space_group_name_H-M "P M M A"
_symmetry_group_IT_number 51
_symmetry_cell_setting 'orthorhombic'
loop_
_space_group_symop_operation_xyz
x,y,z
1/2-x,-y,z
1/2+x,-y,-z
-x,y,-z
-x,-y,-z
1/2+x,y,-z
1/2-x,y,z
x,-y,z
loop_
_atom_site_type_symbol
_atom_site_label
_atom_site_fract_x
_atom_site_fract_y
_atom_site_fract_z
Si Si1 0.140922 0.407719 0.632840
Si Si2 0.641428 0.594110 0.856324
Si Si3 0.603662 0.235402 0.985882
Si Si4 0.141684 0.675133 0.388929
Si Si5 0.849671 0.908289 0.808661
Si Si6 0.481828 0.841547 0.372545
Si Si7 0.352727 0.241002 0.752132
O O1 0.250000 0.413281 0.637891
O O2 0.103359 0.500000 0.654985
O O3 0.119647 0.375162 0.505083
O O4 0.115831 0.335763 0.722467
O O5 0.750000 0.592538 0.868812
O O6 0.607599 0.500000 0.881633
O O7 0.609065 0.670588 0.935496
O O8 0.623191 0.620262 0.724387
O O9 0.643483 0.169116 0.896084
O O10 0.500000 0.212215 0.000000
O O11 0.646158 0.229806 0.111547
O O12 0.250000 0.694207 0.389873
O O13 0.080546 0.757930 0.385113
O O14 0.750000 0.903973 0.755033
O O15 0.925385 0.899241 0.712643
O O16 0.858013 0.000000 0.866065
O O17 0.500000 0.874611 0.500000
O O18 0.575810 0.817262 0.312044
O O19 0.250000 0.230214 0.708976
#
# Coordination Sequence:
#
# PCOD9399906 Si02
#       7
#     8   8   8   8   8   8   8
#     4   9  18  33  55  85 124 174 226 271 318 376
#     4  10  20  34  58  92 129 174 225 275 325 379
#     4  12  23  42  67  93 131 174 220 275 327 387
#     4  10  18  34  60  88 125 171 222 276 325 379
#     4  11  25  47  76 104 129 165 214 269 329 397
#     4  12  23  40  67  97 131 167 211 262 330 392
#     4  11  23  39  59  90 129 175 218 261 322 385
#
# _framework density 20.364432999999998
#
# number of rings (size 3 to 8) (size 9 to 14) (size 15 to 20)
#    0.000    1.286    4.286    2.143    0.000    3.714 
#    0.000    5.000    0.000    0.429    0.000    0.000 
#    0.000    0.000    0.000    0.000    0.000    0.000 
#
# Total GULP energy -312914.304137 kJ/mol
# GULP energy per Si atom -5587.755431 kJ/mol
# Density = 2.031808 g / cm^3
# Si number density = 20.364433 Si / 1000 Ang^3
#
#
#
# Elastic Constant Matrix: (Units=GPa)
#
#
# Indices 1 2 3 4 5 6 
#
# 1 93.2288 21.1097 22.2337 0.0000 0.0000 0.0000
# 2 21.1097 77.4202 28.3916 0.0000 0.0000 0.0000
# 3 22.2337 28.3916 110.9177 0.0000 0.0000 0.0000
# 4 0.0000 0.0000 0.0000 -0.6513 0.0000 0.0000
# 5 0.0000 0.0000 0.0000 0.0000 24.8442 0.0000
# 6 0.0000 0.0000 0.0000 0.0000 0.0000 -34.3932
#
#
#
# Elastic Compliance Matrix: (Units=1/GPa)
#
#
# Indices 1 2 3 4 5 6 
#
# 1 0.011712 -0.002574 -0.001689 0.000000 0.000000 0.000000
# 2 -0.002574 0.014820 -0.003278 0.000000 0.000000 0.000000
# 3 -0.001689 -0.003278 0.010193 0.000000 0.000000 0.000000
# 4 0.000000 0.000000 0.000000 -1.535322 0.000000 0.000000
# 5 0.000000 0.000000 0.000000 0.000000 0.040251 0.000000
# 6 0.000000 0.000000 0.000000 0.000000 0.000000 -0.029075
#
#
# Mechanical properties :
#
#
# Convention : Reuss Voigt Hill
#
# Bulk Modulus (GPa) = 46.20115 47.22632 46.71373
# Shear Modulus (GPa) = -3.41268 11.94870 4.26801
#
# Velocity S-wave (km/s) = -1.29593 2.42491 1.44926
# Velocity P-wave (km/s) = 4.52738 5.57505 5.07830
#
# Compressibility (1/GPa) = 0.02164448
#
# Stress axis : x y z
#
# Youngs Moduli (GPa) = 85.38323 67.47475 98.10479
#
# Poissons Ratio (x) = 0.17369 0.16568
# Poissons Ratio (y) = 0.21979 0.32155
# Poissons Ratio (z) = 0.14419 0.22115
#
# Static dielectric constant tensor:
#      x y z
#    x 1.745450 0.000000 0.000000 
#    y 0.000000 1.734550 0.000000 
#    z 0.000000 0.000000 1.702330 
# 
# From -- ./inp_files/16638.got.cif
#   From: 2010.05.17/outbox.cif.g08.bks.cpg/sg51_9_cif.got.tgz:16638.got - 2010.06.03 11:52:47.
