data_PCOD9399337
_publ_section_title
;
Structure prediction by ZEFSAII (Michael W. Deem and Ramdas Pophale) SiO2 
 PCOD9399337
Probable space group: P M M A
;
_chemical_formula_sum "Si O2"
_cell_formula_units_Z 64
_cell_length_a 25.340888
_cell_length_b 14.244450
_cell_length_c 8.793130
_cell_angle_alpha 90.000000
_cell_angle_beta 90.000000
_cell_angle_gamma 90.000000
_cell_volume 3174.029863
_symmetry_space_group_name_H-M "P M M A"
_symmetry_group_IT_number 51
_symmetry_cell_setting 'orthorhombic'
loop_
_space_group_symop_operation_xyz
x,y,z
1/2-x,-y,z
1/2+x,-y,-z
-x,y,-z
-x,-y,-z
1/2+x,y,-z
1/2-x,y,z
x,-y,z
loop_
_atom_site_type_symbol
_atom_site_label
_atom_site_fract_x
_atom_site_fract_y
_atom_site_fract_z
Si Si1 0.081774 0.098802 0.500314
Si Si2 0.626330 0.343058 0.354297
Si Si3 0.311938 0.810980 0.453832
Si Si4 0.949679 0.108714 0.853818
Si Si5 0.936490 0.609633 0.658114
Si Si6 0.470263 0.756225 0.723329
Si Si7 0.312374 0.400475 0.922730
Si Si8 0.862421 0.743465 0.856004
O O1 0.144911 0.110489 0.499527
O O2 0.064588 0.102057 0.326024
O O3 0.051952 0.181271 0.584909
O O4 0.065861 0.000000 0.570979
O O5 0.666845 0.273499 0.440133
O O6 0.591024 0.385215 0.491486
O O7 0.583639 0.296920 0.237913
O O8 0.661591 0.402541 0.242561
O O9 0.250000 0.830238 0.473327
O O10 0.325368 0.784849 0.278469
O O11 0.901837 0.174089 0.913258
O O12 0.003257 0.171117 0.841785
O O13 0.952072 0.000000 0.908522
O O14 0.947330 0.500000 0.691925
O O15 0.896936 0.662238 0.773396
O O16 0.987601 0.676921 0.674864
O O17 0.250000 0.396313 0.907600
O O18 0.326217 0.500000 0.002283
O O19 0.330596 0.309589 0.014958
#
# Coordination Sequence:
#
# PCOD9399337 Si02
#       8
#     8   8   8   8   8   8   8   8
#     4   9  16  26  45  76 109 136 166 210 259 305
#     4  10  20  33  50  75 106 138 174 216 255 300
#     4   9  17  31  51  74 101 135 173 214 260 304
#     4   9  16  29  52  79 104 132 170 213 255 305
#     4  10  19  32  52  78 108 140 174 213 257 306
#     4  10  18  30  50  78 110 144 176 208 257 313
#     4  11  23  38  56  76 100 136 177 214 259 312
#     4   9  19  35  54  77 105 135 170 216 264 310
#
# _framework density 20.163640999999998
#
# number of rings (size 3 to 8) (size 9 to 14) (size 15 to 20)
#    0.000    2.375    0.000    5.625    0.000    2.750 
#    0.000    2.500    0.000   15.375    0.000    0.000 
#    0.000    0.000    0.000    0.000    0.000    0.000 
#
# Total GULP energy -356612.318488 kJ/mol
# GULP energy per Si atom -5572.067476 kJ/mol
# Density = 2.011775 g / cm^3
# Si number density = 20.163641 Si / 1000 Ang^3
#
#
#
# Elastic Constant Matrix: (Units=GPa)
#
#
# Indices 1 2 3 4 5 6 
#
# 1 127.3875 38.0198 30.4885 0.0000 0.0000 0.0000
# 2 38.0198 134.7309 26.5940 0.0000 0.0000 0.0000
# 3 30.4885 26.5940 45.1636 0.0000 0.0000 0.0000
# 4 0.0000 0.0000 0.0000 -10.6432 0.0000 0.0000
# 5 0.0000 0.0000 0.0000 0.0000 21.7987 0.0000
# 6 0.0000 0.0000 0.0000 0.0000 0.0000 6.9604
#
#
#
# Elastic Compliance Matrix: (Units=1/GPa)
#
#
# Indices 1 2 3 4 5 6 
#
# 1 0.009669 -0.001629 -0.005568 0.000000 0.000000 0.000000
# 2 -0.001629 0.008673 -0.004007 0.000000 0.000000 0.000000
# 3 -0.005568 -0.004007 0.028260 0.000000 0.000000 0.000000
# 4 0.000000 0.000000 0.000000 -0.093957 0.000000 0.000000
# 5 0.000000 0.000000 0.000000 0.000000 0.045874 0.000000
# 6 0.000000 0.000000 0.000000 0.000000 0.000000 0.143670
#
#
# Mechanical properties :
#
#
# Convention : Reuss Voigt Hill
#
# Bulk Modulus (GPa) = 41.33363 55.27630 48.30497
# Shear Modulus (GPa) = 28.95830 17.76850 23.36340
#
# Velocity S-wave (km/s) = 3.79379 2.97175 3.40765
# Velocity P-wave (km/s) = 6.30349 6.26485 6.28420
#
# Compressibility (1/GPa) = 0.02419337
#
# Stress axis : x y z
#
# Youngs Moduli (GPa) = 103.42380 115.30108 35.38605
#
# Poissons Ratio (x) = 0.18788 0.19702
# Poissons Ratio (y) = 0.16853 0.14179
# Poissons Ratio (z) = 0.57583 0.46200
#
# Static dielectric constant tensor:
#      x y z
#    x 1.716000 0.000000 0.000000 
#    y 0.000000 1.745650 0.000000 
#    z 0.000000 0.000000 1.732050 
# 
# From -- ./inp_files/11877.got.cif
#   From: 2010.05.17/outbox.cif.g08.bks.cpg/sg51_6_cif.got.tgz:11877.got - 2010.06.03 11:52:47.
