data_PCOD9399612
_publ_section_title
;
Structure prediction by ZEFSAII (Michael W. Deem and Ramdas Pophale) SiO2 
 PCOD9399612
Probable space group: P M M A
;
_chemical_formula_sum "Si O2"
_cell_formula_units_Z 52
_cell_length_a 8.433881
_cell_length_b 23.799444
_cell_length_c 14.706606
_cell_angle_alpha 90.000000
_cell_angle_beta 90.000000
_cell_angle_gamma 90.000000
_cell_volume 2951.934642
_symmetry_space_group_name_H-M "P M M A"
_symmetry_group_IT_number 51
_symmetry_cell_setting 'orthorhombic'
loop_
_space_group_symop_operation_xyz
x,y,z
1/2-x,-y,z
1/2+x,-y,-z
-x,y,-z
-x,-y,-z
1/2+x,y,-z
1/2-x,y,z
x,-y,z
loop_
_atom_site_type_symbol
_atom_site_label
_atom_site_fract_x
_atom_site_fract_y
_atom_site_fract_z
Si Si1 0.058237 0.436181 0.898348
Si Si2 0.938340 0.149774 0.598647
Si Si3 0.059935 0.277340 0.598593
Si Si4 0.941425 0.779582 0.102761
Si Si5 0.441772 0.110151 0.785884
Si Si6 0.943562 0.670005 0.214889
Si Si7 0.441595 0.000000 0.896657
O O1 0.250000 0.435670 0.899173
O O2 0.006504 0.500000 0.876884
O O3 0.003190 0.388770 0.827960
O O4 0.000000 0.422584 0.000000
O O5 0.750000 0.152026 0.596238
O O6 0.000000 0.130699 0.500000
O O7 0.002740 0.213290 0.612952
O O8 0.995933 0.113057 0.683351
O O9 0.250000 0.276145 0.597849
O O10 0.005760 0.315601 0.682675
O O11 0.000000 0.295997 0.500000
O O12 0.750000 0.779806 0.102528
O O13 0.993894 0.833515 0.161090
O O14 0.993554 0.721977 0.151066
O O15 0.000000 0.783009 0.000000
O O16 0.250000 0.110457 0.782637
O O17 0.493345 0.055600 0.842285
O O18 0.750000 0.669528 0.215080
O O19 0.250000 0.000000 0.898388
O O20 0.500000 0.000000 0.000000
#
# Coordination Sequence:
#
# PCOD9399612 Si02
#       7
#     8   8   8   8   8   8   4
#     4   9  17  30  48  70  97 132 172 207 245 295
#     4  11  21  34  55  81 106 134 168 209 257 311
#     4  10  18  32  51  73 103 134 166 206 254 307
#     4  10  19  31  47  69 100 131 162 204 253 297
#     4  10  20  37  55  75 104 139 171 210 254 300
#     4   9  17  30  48  70  99 133 163 203 254 301
#     4  10  22  38  59  80 105 140 179 214 254 302
#
# _framework density 17.615566000000001
#
# number of rings (size 3 to 8) (size 9 to 14) (size 15 to 20)
#    0.000    2.154    1.538    3.692    0.000    1.231 
#    0.000    1.923    0.000    0.462    0.000    0.000 
#    0.000    0.000    0.000    0.000    0.000    0.615 
#
# Total GULP energy -290208.270983 kJ/mol
# GULP energy per Si atom -5580.928288 kJ/mol
# Density = 1.757547 g / cm^3
# Si number density = 17.615566 Si / 1000 Ang^3
#
#
#
# Elastic Constant Matrix: (Units=GPa)
#
#
# Indices 1 2 3 4 5 6 
#
# 1 27.3508 20.8531 26.3197 0.0000 0.0000 0.0000
# 2 20.8531 115.0941 92.9508 0.0000 0.0000 0.0000
# 3 26.3197 92.9508 185.6340 0.0000 0.0000 0.0000
# 4 0.0000 0.0000 0.0000 33.6320 0.0000 0.0000
# 5 0.0000 0.0000 0.0000 0.0000 31.7659 0.0000
# 6 0.0000 0.0000 0.0000 0.0000 0.0000 7.5053
#
#
#
# Elastic Compliance Matrix: (Units=1/GPa)
#
#
# Indices 1 2 3 4 5 6 
#
# 1 0.043937 -0.004919 -0.003767 0.000000 0.000000 0.000000
# 2 -0.004919 0.015138 -0.006883 0.000000 0.000000 0.000000
# 3 -0.003767 -0.006883 0.009367 0.000000 0.000000 0.000000
# 4 0.000000 0.000000 0.000000 0.029734 0.000000 0.000000
# 5 0.000000 0.000000 0.000000 0.000000 0.031480 0.000000
# 6 0.000000 0.000000 0.000000 0.000000 0.000000 0.133240
#
#
# Mechanical properties :
#
#
# Convention : Reuss Voigt Hill
#
# Bulk Modulus (GPa) = 26.80507 67.59179 47.19843
# Shear Modulus (GPa) = 16.31496 27.11099 21.71297
#
# Velocity S-wave (km/s) = 3.04660 3.92731 3.51465
# Velocity P-wave (km/s) = 5.25599 7.68237 6.58195
#
# Compressibility (1/GPa) = 0.03730638
#
# Stress axis : x y z
#
# Youngs Moduli (GPa) = 22.76001 66.05816 106.75492
#
# Poissons Ratio (x) = 0.32492 0.40210
# Poissons Ratio (y) = 0.11195 0.73475
# Poissons Ratio (z) = 0.08573 0.45465
#
# Static dielectric constant tensor:
#      x y z
#    x 1.601850 0.000000 0.000000 
#    y 0.000000 1.595940 0.000000 
#    z 0.000000 0.000000 1.588110 
# 
# From -- ./inp_files/22064.got.cif
#   From: 2010.05.17/outbox.cif.g08.bks.cpg/sg51_12_cif.got.tgz:22064.got - 2010.06.03 11:52:47.
