data_PCOD9399243
_publ_section_title
;
Structure prediction by ZEFSAII (Michael W. Deem and Ramdas Pophale) SiO2 
 PCOD9399243
Probable space group: P M M A
;
_chemical_formula_sum "Si O2"
_cell_formula_units_Z 64
_cell_length_a 8.308684
_cell_length_b 20.535823
_cell_length_c 20.877080
_cell_angle_alpha 90.000000
_cell_angle_beta 90.000000
_cell_angle_gamma 90.000000
_cell_volume 3562.165637
_symmetry_space_group_name_H-M "P M M A"
_symmetry_group_IT_number 51
_symmetry_cell_setting 'orthorhombic'
loop_
_space_group_symop_operation_xyz
x,y,z
1/2-x,-y,z
1/2+x,-y,-z
-x,y,-z
-x,-y,-z
1/2+x,y,-z
1/2-x,y,z
x,-y,z
loop_
_atom_site_type_symbol
_atom_site_label
_atom_site_fract_x
_atom_site_fract_y
_atom_site_fract_z
Si Si1 0.942621 0.926206 0.427718
Si Si2 0.439631 0.429275 0.240868
Si Si3 0.946594 0.289331 0.108961
Si Si4 0.057632 0.148100 0.931939
Si Si5 0.939921 0.570325 0.096827
Si Si6 0.057704 0.161654 0.312727
Si Si7 0.558219 0.705102 0.258749
Si Si8 0.444268 0.074242 0.193882
O O1 0.750000 0.925916 0.426653
O O2 0.000000 0.913446 0.500000
O O3 0.005138 0.873617 0.377536
O O4 0.998363 0.000000 0.410356
O O5 0.250000 0.425519 0.224941
O O6 0.468974 0.500000 0.271615
O O7 0.537380 0.428743 0.173995
O O8 0.488722 0.364940 0.278544
O O9 0.750000 0.291334 0.107402
O O10 0.001360 0.222931 0.076052
O O11 0.005734 0.358056 0.079094
O O12 0.994159 0.284706 0.184178
O O13 0.250000 0.149047 0.930028
O O14 0.996088 0.106473 0.872478
O O15 0.000000 0.122060 0.000000
O O16 0.750000 0.569386 0.081708
O O17 0.010044 0.500000 0.075289
O O18 0.250000 0.162867 0.310364
O O19 0.996849 0.118028 0.252986
O O20 0.996294 0.234517 0.301220
O O21 0.750000 0.701659 0.258570
O O22 0.250000 0.073539 0.196207
O O23 0.501713 0.000000 0.199194
#
# Coordination Sequence:
#
# PCOD9399243 Si02
#       8
#     8   8   8   8   8   8   8   8
#     4  10  21  37  57  81 111 148 187 222 258 303
#     4   9  16  25  38  62  97 133 168 208 256 306
#     4   8  15  28  46  67  92 121 158 204 250 302
#     4  11  22  37  54  72  95 125 166 212 262 316
#     4   8  13  23  41  64  88 118 156 197 244 298
#     4  11  21  34  55  82 112 141 172 213 263 313
#     4  10  18  30  48  71 100 134 174 214 256 308
#     4  10  22  39  57  78 102 128 162 206 259 317
#
# _framework density 17.966598999999999
#
# number of rings (size 3 to 8) (size 9 to 14) (size 15 to 20)
#    0.000    2.375    1.250    3.000    0.000    3.000 
#    0.000    0.625    0.000    0.375    0.000    0.000 
#    0.000    0.500    0.000    1.875    0.000    3.125 
#
# Total GULP energy -356917.571337 kJ/mol
# GULP energy per Si atom -5576.837052 kJ/mol
# Density = 1.792571 g / cm^3
# Si number density = 17.966599 Si / 1000 Ang^3
#
#
#
# Elastic Constant Matrix: (Units=GPa)
#
#
# Indices 1 2 3 4 5 6 
#
# 1 25.6758 19.6215 7.9693 0.0000 0.0000 0.0000
# 2 19.6215 150.9063 52.0930 0.0000 0.0000 0.0000
# 3 7.9693 52.0930 66.0169 0.0000 0.0000 0.0000
# 4 0.0000 0.0000 0.0000 63.7924 0.0000 0.0000
# 5 0.0000 0.0000 0.0000 0.0000 11.2755 0.0000
# 6 0.0000 0.0000 0.0000 0.0000 0.0000 18.9280
#
#
#
# Elastic Compliance Matrix: (Units=1/GPa)
#
#
# Indices 1 2 3 4 5 6 
#
# 1 0.043300 -0.005258 -0.001078 0.000000 0.000000 0.000000
# 2 -0.005258 0.009746 -0.007056 0.000000 0.000000 0.000000
# 3 -0.001078 -0.007056 0.020845 0.000000 0.000000 0.000000
# 4 0.000000 0.000000 0.000000 0.015676 0.000000 0.000000
# 5 0.000000 0.000000 0.000000 0.000000 0.088688 0.000000
# 6 0.000000 0.000000 0.000000 0.000000 0.000000 0.052832
#
#
# Mechanical properties :
#
#
# Convention : Reuss Voigt Hill
#
# Bulk Modulus (GPa) = 21.22788 44.66297 32.94543
# Shear Modulus (GPa) = 18.27669 29.66020 23.96844
#
# Velocity S-wave (km/s) = 3.19291 4.06748 3.65644
# Velocity P-wave (km/s) = 5.04319 6.85361 6.01688
#
# Compressibility (1/GPa) = 0.04710786
#
# Stress axis : x y z
#
# Youngs Moduli (GPa) = 23.09478 102.60731 47.97256
#
# Poissons Ratio (x) = 0.53950 0.05172
# Poissons Ratio (y) = 0.12143 0.33848
# Poissons Ratio (z) = 0.02490 0.72396
#
# Static dielectric constant tensor:
#      x y z
#    x 1.621390 0.000000 0.000000 
#    y 0.000000 1.670840 0.000000 
#    z 0.000000 0.000000 1.582270 
# 
# From -- ./inp_files/28403.got.cif
#   From: 2010.05.17/outbox.cif.g08.bks.cpg/sg51_15_cif.got.tgz:28403.got - 2010.06.03 11:52:47.
