data_PCOD9399484
_publ_section_title
;
Structure prediction by ZEFSAII (Michael W. Deem and Ramdas Pophale) SiO2 
 PCOD9399484
Probable space group: P M M A
;
_chemical_formula_sum "Si O2"
_cell_formula_units_Z 64
_cell_length_a 20.435420
_cell_length_b 9.063932
_cell_length_c 20.176991
_cell_angle_alpha 90.000000
_cell_angle_beta 90.000000
_cell_angle_gamma 90.000000
_cell_volume 3737.288349
_symmetry_space_group_name_H-M "P M M A"
_symmetry_group_IT_number 51
_symmetry_cell_setting 'orthorhombic'
loop_
_space_group_symop_operation_xyz
x,y,z
1/2-x,-y,z
1/2+x,-y,-z
-x,y,-z
-x,-y,-z
1/2+x,y,-z
1/2-x,y,z
x,-y,z
loop_
_atom_site_type_symbol
_atom_site_label
_atom_site_fract_x
_atom_site_fract_y
_atom_site_fract_z
Si Si1 0.324603 0.677419 0.114668
Si Si2 0.574636 0.329206 0.528369
Si Si3 0.470955 0.823689 0.346387
Si Si4 0.584224 0.822128 0.148676
Si Si5 0.940929 0.822398 0.804829
Si Si6 0.391716 0.676905 0.613043
Si Si7 0.824907 0.677495 0.040350
Si Si8 0.176023 0.825439 0.728746
O O1 0.250000 0.720708 0.131978
O O2 0.328722 0.500000 0.119900
O O3 0.378961 0.750997 0.160038
O O4 0.334971 0.714857 0.037041
O O5 0.500000 0.324239 0.500000
O O6 0.588600 0.500000 0.544640
O O7 0.575432 0.232134 0.594195
O O8 0.616362 0.281667 0.464373
O O9 0.446804 0.783513 0.272961
O O10 0.541054 0.748627 0.360123
O O11 0.478694 0.000000 0.349326
O O12 0.508881 0.777982 0.159258
O O13 0.621577 0.751468 0.086980
O O14 0.624685 0.781101 0.214807
O O15 0.586633 0.000000 0.143166
O O16 0.936540 0.000000 0.808727
O O17 0.397484 0.500000 0.615274
O O18 0.336676 0.735891 0.661968
O O19 0.750000 0.721305 0.058228
O O20 0.828627 0.500000 0.046435
O O21 0.250000 0.804002 0.752899
O O22 0.166523 0.000000 0.715549
#
# Coordination Sequence:
#
# PCOD9399484 Si02
#       8
#     8   8   8   8   8   8   8   8
#     4   9  20  39  59  78 102 133 170 213 263 318
#     4   8  16  29  45  70 100 129 165 209 255 300
#     4  10  18  31  50  74 104 135 168 209 258 306
#     4  10  20  35  52  75 108 140 173 214 260 309
#     4  10  21  35  53  79 110 138 169 214 261 309
#     4  10  19  31  48  71 102 135 171 217 260 303
#     4   9  19  36  55  76 104 137 176 219 257 303
#     4  10  20  34  51  71 102 144 183 219 259 307
#
# _framework density 17.124714999999998
#
# number of rings (size 3 to 8) (size 9 to 14) (size 15 to 20)
#    0.000    2.500    1.250    2.625    0.000    7.000 
#    0.000    3.750    0.000    0.750    0.000    0.000 
#    0.000    0.000    0.000    0.000    0.000    0.000 
#
# Total GULP energy -356834.708368 kJ/mol
# GULP energy per Si atom -5575.542318 kJ/mol
# Density = 1.708574 g / cm^3
# Si number density = 17.124715 Si / 1000 Ang^3
#
#
#
# Elastic Constant Matrix: (Units=GPa)
#
#
# Indices 1 2 3 4 5 6 
#
# 1 101.4816 36.6467 75.5917 0.0000 0.0000 0.0000
# 2 36.6467 31.3771 44.6882 0.0000 0.0000 0.0000
# 3 75.5917 44.6882 117.4256 0.0000 0.0000 0.0000
# 4 0.0000 0.0000 0.0000 34.5936 0.0000 0.0000
# 5 0.0000 0.0000 0.0000 0.0000 22.2099 0.0000
# 6 0.0000 0.0000 0.0000 0.0000 0.0000 26.8570
#
#
#
# Elastic Compliance Matrix: (Units=1/GPa)
#
#
# Indices 1 2 3 4 5 6 
#
# 1 0.020618 -0.011305 -0.008971 0.000000 0.000000 0.000000
# 2 -0.011305 0.075786 -0.021564 0.000000 0.000000 0.000000
# 3 -0.008971 -0.021564 0.022498 0.000000 0.000000 0.000000
# 4 0.000000 0.000000 0.000000 0.028907 0.000000 0.000000
# 5 0.000000 0.000000 0.000000 0.000000 0.045025 0.000000
# 6 0.000000 0.000000 0.000000 0.000000 0.000000 0.037234
#
#
# Mechanical properties :
#
#
# Convention : Reuss Voigt Hill
#
# Bulk Modulus (GPa) = 28.39093 62.68196 45.53645
# Shear Modulus (GPa) = 15.36149 22.95594 19.15871
#
# Velocity S-wave (km/s) = 2.99831 3.66528 3.34844
# Velocity P-wave (km/s) = 5.34802 7.38884 6.44967
#
# Compressibility (1/GPa) = 0.03522251
#
# Stress axis : x y z
#
# Youngs Moduli (GPa) = 48.50015 13.19500 44.44934
#
# Poissons Ratio (x) = 0.14917 0.39874
# Poissons Ratio (y) = 0.54829 0.95852
# Poissons Ratio (z) = 0.43508 0.28454
#
# Static dielectric constant tensor:
#      x y z
#    x 1.575870 0.000000 0.000000 
#    y 0.000000 1.572180 0.000000 
#    z 0.000000 0.000000 1.587450 
# 
# From -- ./inp_files/30690.got.cif
#   From: 2010.05.17/outbox.cif.g08.bks.cpg/sg51_16_cif.got.tgz:30690.got - 2010.06.03 11:52:47.
