data_PCOD9399985
_publ_section_title
;
Structure prediction by ZEFSAII (Michael W. Deem and Ramdas Pophale) SiO2 
 PCOD9399985
Probable space group: P M M A
;
_chemical_formula_sum "Si O2"
_cell_formula_units_Z 64
_cell_length_a 9.165718
_cell_length_b 18.704410
_cell_length_c 27.346364
_cell_angle_alpha 90.000000
_cell_angle_beta 90.000000
_cell_angle_gamma 90.000000
_cell_volume 4688.242798
_symmetry_space_group_name_H-M "P M M A"
_symmetry_group_IT_number 51
_symmetry_cell_setting 'orthorhombic'
loop_
_space_group_symop_operation_xyz
x,y,z
1/2-x,-y,z
1/2+x,-y,-z
-x,y,-z
-x,-y,-z
1/2+x,y,-z
1/2-x,y,z
x,-y,z
loop_
_atom_site_type_symbol
_atom_site_label
_atom_site_fract_x
_atom_site_fract_y
_atom_site_fract_z
Si Si1 0.423445 0.915493 0.844640
Si Si2 0.083478 0.296358 0.200743
Si Si3 0.081776 0.912932 0.549073
Si Si4 0.926784 0.844904 0.751107
Si Si5 0.075210 0.581488 0.851429
Si Si6 0.424797 0.667191 0.950343
Si Si7 0.924151 0.915753 0.648355
Si Si8 0.918499 0.794914 0.900363
O O1 0.250000 0.900366 0.844133
O O2 0.494356 0.890725 0.793185
O O3 0.501771 0.868413 0.886391
O O4 0.444949 0.000000 0.851298
O O5 0.250000 0.317085 0.211087
O O6 0.033389 0.238274 0.240557
O O7 0.082845 0.249818 0.150587
O O8 0.989641 0.365781 0.189265
O O9 0.250000 0.891360 0.548159
O O10 0.000000 0.888844 0.500000
O O11 0.004545 0.890784 0.599360
O O12 0.076847 0.000000 0.548789
O O13 0.750000 0.850622 0.757982
O O14 0.963301 0.873726 0.697549
O O15 0.250000 0.581898 0.847561
O O16 0.023014 0.500000 0.847754
O O17 0.040092 0.615351 0.904597
O O18 0.250000 0.671263 0.955275
O O19 0.492212 0.744685 0.937120
O O20 0.500000 0.641577 0.000000
O O21 0.750000 0.909851 0.641075
O O22 0.957166 0.000000 0.655865
O O23 0.750000 0.804826 0.915397
#
# Coordination Sequence:
#
# PCOD9399985 Si02
#       8
#     8   8   8   8   8   8   8   8
#     4  10  19  28  40  60  83 104 128 161 199 236
#     4   8  15  27  42  60  79 101 130 160 189 225
#     4   9  16  25  36  49  67  94 130 171 211 249
#     4   9  17  28  41  57  79 106 135 165 199 241
#     4   9  18  31  45  62  84 108 132 157 185 219
#     4  10  19  31  47  65  85 106 128 155 187 224
#     4   9  16  25  37  53  74 101 133 170 210 245
#     4   9  17  30  46  61  78 102 132 160 188 228
#
# _framework density 13.65117
#
# number of rings (size 3 to 8) (size 9 to 14) (size 15 to 20)
#    0.000    2.875    0.000    2.625    0.000    7.500 
#    0.000    1.250    0.000    0.375    0.000    0.000 
#    0.000    0.000    0.000    0.000    0.000    0.625 
#
# Total GULP energy -356420.585684 kJ/mol
# GULP energy per Si atom -5569.071651 kJ/mol
# Density = 1.362010 g / cm^3
# Si number density = 13.651170 Si / 1000 Ang^3
#
#
#
# Elastic Constant Matrix: (Units=GPa)
#
#
# Indices 1 2 3 4 5 6 
#
# 1 50.1169 40.6959 26.2559 0.0000 0.0000 0.0000
# 2 40.6959 84.4620 33.5257 0.0000 0.0000 0.0000
# 3 26.2559 33.5257 52.4136 0.0000 0.0000 0.0000
# 4 0.0000 0.0000 0.0000 9.8182 0.0000 0.0000
# 5 0.0000 0.0000 0.0000 0.0000 21.4823 0.0000
# 6 0.0000 0.0000 0.0000 0.0000 0.0000 18.5919
#
#
#
# Elastic Compliance Matrix: (Units=1/GPa)
#
#
# Indices 1 2 3 4 5 6 
#
# 1 0.035844 -0.013595 -0.009260 0.000000 0.000000 0.000000
# 2 -0.013595 0.021025 -0.006638 0.000000 0.000000 0.000000
# 3 -0.009260 -0.006638 0.027964 0.000000 0.000000 0.000000
# 4 0.000000 0.000000 0.000000 0.101851 0.000000 0.000000
# 5 0.000000 0.000000 0.000000 0.000000 0.046550 0.000000
# 6 0.000000 0.000000 0.000000 0.000000 0.000000 0.053787
#
#
# Mechanical properties :
#
#
# Convention : Reuss Voigt Hill
#
# Bulk Modulus (GPa) = 38.68951 43.10526 40.89739
# Shear Modulus (GPa) = 14.09956 15.74616 14.92286
#
# Velocity S-wave (km/s) = 3.21728 3.39996 3.30988
# Velocity P-wave (km/s) = 6.49648 6.85986 6.68064
#
# Compressibility (1/GPa) = 0.02584680
#
# Stress axis : x y z
#
# Youngs Moduli (GPa) = 27.89888 47.56260 35.76089
#
# Poissons Ratio (x) = 0.64661 0.33113
# Poissons Ratio (y) = 0.37928 0.23739
# Poissons Ratio (z) = 0.25833 0.31573
#
# Static dielectric constant tensor:
#      x y z
#    x 1.460950 0.000000 0.000000 
#    y 0.000000 1.440880 0.000000 
#    z 0.000000 0.000000 1.437690 
# 
# From -- ./inp_files/36444.got.cif
#   From: 2010.05.17/outbox.cif.g08.bks.cpg/sg51_19_cif.got.tgz:36444.got - 2010.06.03 11:52:47.
