data_PCOD9399737
_publ_section_title
;
Structure prediction by ZEFSAII (Michael W. Deem and Ramdas Pophale) SiO2 
 PCOD9399737
Probable space group: P M M A
;
_chemical_formula_sum "Si O2"
_cell_formula_units_Z 32
_cell_length_a 21.463507
_cell_length_b 8.741165
_cell_length_c 9.446614
_cell_angle_alpha 90.000000
_cell_angle_beta 90.000000
_cell_angle_gamma 90.000000
_cell_volume 1772.336463
_symmetry_space_group_name_H-M "P M M A"
_symmetry_group_IT_number 51
_symmetry_cell_setting 'orthorhombic'
loop_
_space_group_symop_operation_xyz
x,y,z
1/2-x,-y,z
1/2+x,-y,-z
-x,y,-z
-x,-y,-z
1/2+x,y,-z
1/2-x,y,z
x,-y,z
loop_
_atom_site_type_symbol
_atom_site_label
_atom_site_fract_x
_atom_site_fract_y
_atom_site_fract_z
Si Si1 0.250000 0.313991 0.660849
Si Si2 0.496334 0.176496 0.828054
Si Si3 0.132644 0.682606 0.847885
Si Si4 0.750000 0.684221 0.665279
Si Si5 0.133966 0.815662 0.163522
O O1 0.250000 0.500000 0.660640
O O2 0.311795 0.265969 0.745213
O O3 0.250000 0.265334 0.498243
O O4 0.435386 0.271588 0.789629
O O5 0.564829 0.231047 0.782285
O O6 0.487674 0.000000 0.784774
O O7 0.500000 0.178314 0.000000
O O8 0.135856 0.500000 0.864913
O O9 0.140598 0.758344 0.002052
O O10 0.750000 0.500000 0.671835
O O11 0.810936 0.747304 0.743860
O O12 0.135802 0.000000 0.163737
#
# Coordination Sequence:
#
# PCOD9399737 Si02
#       5
#     4   8   8   4   8
#     4   9  21  37  50  72 106 137 168 213 260 300
#     4   8  16  31  50  75 107 135 163 208 258 301
#     4  10  18  32  56  81 104 134 173 212 253 304
#     4  11  22  37  54  72 100 137 176 215 254 300
#     4  10  20  35  54  78 107 135 167 210 259 308
#
# _framework density 18.055261999999999
#
# number of rings (size 3 to 8) (size 9 to 14) (size 15 to 20)
#    0.000    2.500    0.000    4.125    0.000    6.500 
#    0.000    8.125    0.000    7.500    0.000    0.000 
#    0.000    0.000    0.000    0.000    0.000    0.000 
#
# Total GULP energy -178461.436063 kJ/mol
# GULP energy per Si atom -5576.919877 kJ/mol
# Density = 1.801417 g / cm^3
# Si number density = 18.055262 Si / 1000 Ang^3
#
#
#
# Elastic Constant Matrix: (Units=GPa)
#
#
# Indices 1 2 3 4 5 6 
#
# 1 206.7686 54.4854 88.0444 0.0000 0.0000 0.0000
# 2 54.4854 54.0181 31.1098 0.0000 0.0000 0.0000
# 3 88.0444 31.1098 85.5703 0.0000 0.0000 0.0000
# 4 0.0000 0.0000 0.0000 -5.9448 0.0000 0.0000
# 5 0.0000 0.0000 0.0000 0.0000 -5.9499 0.0000
# 6 0.0000 0.0000 0.0000 0.0000 0.0000 35.2046
#
#
#
# Elastic Compliance Matrix: (Units=1/GPa)
#
#
# Indices 1 2 3 4 5 6 
#
# 1 0.009583 -0.005043 -0.008027 0.000000 0.000000 0.000000
# 2 -0.005043 0.026069 -0.004288 0.000000 0.000000 0.000000
# 3 -0.008027 -0.004288 0.021504 0.000000 0.000000 0.000000
# 4 0.000000 0.000000 0.000000 -0.168213 0.000000 0.000000
# 5 0.000000 0.000000 0.000000 0.000000 -0.168071 0.000000
# 6 0.000000 0.000000 0.000000 0.000000 0.000000 0.028405
#
#
# Mechanical properties :
#
#
# Convention : Reuss Voigt Hill
#
# Bulk Modulus (GPa) = 44.56448 77.07070 60.81759
# Shear Modulus (GPa) = -23.97783 16.17649 -3.90067
#
# Velocity S-wave (km/s) = -3.64816 2.99648 -1.47143
# Velocity P-wave (km/s) = 2.64394 7.39936 5.55612
#
# Compressibility (1/GPa) = 0.02243939
#
# Stress axis : x y z
#
# Youngs Moduli (GPa) = 104.35005 38.35963 46.50276
#
# Poissons Ratio (x) = 0.19346 0.37326
# Poissons Ratio (y) = 0.52628 0.19942
# Poissons Ratio (z) = 0.83758 0.16450
#
# Static dielectric constant tensor:
#      x y z
#    x 1.642640 0.000000 0.000000 
#    y 0.000000 1.610190 0.000000 
#    z 0.000000 0.000000 1.585930 
# 
# From -- ./inp_files/10318.got.cif
#   From: 2010.05.17/outbox.cif.g08.bks.cpg/sg51_6_cif.got.tgz:10318.got - 2010.06.03 11:52:47.
