data_PCOD9399548
_publ_section_title
;
Structure prediction by ZEFSAII (Michael W. Deem and Ramdas Pophale) SiO2 
 PCOD9399548
Probable space group: P M M A
;
_chemical_formula_sum "Si O2"
_cell_formula_units_Z 40
_cell_length_a 20.491303
_cell_length_b 7.699176
_cell_length_c 13.376189
_cell_angle_alpha 90.000000
_cell_angle_beta 90.000000
_cell_angle_gamma 90.000000
_cell_volume 2110.309817
_symmetry_space_group_name_H-M "P M M A"
_symmetry_group_IT_number 51
_symmetry_cell_setting 'orthorhombic'
loop_
_space_group_symop_operation_xyz
x,y,z
1/2-x,-y,z
1/2+x,-y,-z
-x,y,-z
-x,-y,-z
1/2+x,y,-z
1/2-x,y,z
x,-y,z
loop_
_atom_site_type_symbol
_atom_site_label
_atom_site_fract_x
_atom_site_fract_y
_atom_site_fract_z
Si Si1 0.078374 0.796815 0.519809
Si Si2 0.677005 0.705382 0.889858
Si Si3 0.097977 0.790019 0.304914
Si Si4 0.448016 0.787251 0.733118
Si Si5 0.433120 0.205668 0.952464
O O1 0.109353 0.723672 0.418101
O O2 0.086438 0.723268 0.631279
O O3 0.000000 0.792189 0.500000
O O4 0.097349 0.000000 0.524116
O O5 0.750000 0.778025 0.900153
O O6 0.679892 0.500000 0.904936
O O7 0.648714 0.737466 0.779326
O O8 0.625892 0.773654 0.971091
O O9 0.024654 0.738195 0.272040
O O10 0.097389 0.000000 0.309026
O O11 0.421256 0.727836 0.840039
O O12 0.445862 0.000000 0.727927
O O13 0.444397 0.000000 0.939640
O O14 0.500000 0.278952 0.000000
#
# Coordination Sequence:
#
# PCOD9399548 Si02
#       5
#     8   8   8   8   8
#     4   7  11  20  41  72 100 122 143 179 237 291
#     4  11  24  37  47  65  98 137 172 206 247 294
#     4   9  15  28  50  73  96 123 159 198 239 291
#     4   8  13  24  45  76 105 122 145 193 250 294
#     4  10  18  31  53  78 100 124 162 208 250 296
#
# _framework density 18.954563
#
# number of rings (size 3 to 8) (size 9 to 14) (size 15 to 20)
#    0.000    3.000    2.000    3.000    0.000    2.000 
#    0.000    0.000    0.000    7.800    0.000    8.400 
#    0.000    0.000    0.000    0.000    0.000    0.000 
#
# Total GULP energy -222739.401746 kJ/mol
# GULP energy per Si atom -5568.485044 kJ/mol
# Density = 1.891142 g / cm^3
# Si number density = 18.954563 Si / 1000 Ang^3
#
#
#
# Elastic Constant Matrix: (Units=GPa)
#
#
# Indices 1 2 3 4 5 6 
#
# 1 67.0894 -11.5440 58.7514 0.0000 0.0000 0.0000
# 2 -11.5440 24.7308 -1.7801 0.0000 0.0000 0.0000
# 3 58.7514 -1.7801 207.0372 0.0000 0.0000 0.0000
# 4 0.0000 0.0000 0.0000 -24.9181 0.0000 0.0000
# 5 0.0000 0.0000 0.0000 0.0000 12.1723 0.0000
# 6 0.0000 0.0000 0.0000 0.0000 0.0000 12.4332
#
#
#
# Elastic Compliance Matrix: (Units=1/GPa)
#
#
# Indices 1 2 3 4 5 6 
#
# 1 0.021984 0.009819 -0.006154 0.000000 0.000000 0.000000
# 2 0.009819 0.044846 -0.002401 0.000000 0.000000 0.000000
# 3 -0.006154 -0.002401 0.006556 0.000000 0.000000 0.000000
# 4 0.000000 0.000000 0.000000 -0.040131 0.000000 0.000000
# 5 0.000000 0.000000 0.000000 0.000000 0.082154 0.000000
# 6 0.000000 0.000000 0.000000 0.000000 0.000000 0.080430
#
#
# Mechanical properties :
#
#
# Convention : Reuss Voigt Hill
#
# Bulk Modulus (GPa) = 13.17277 43.30134 28.23706
# Shear Modulus (GPa) = 22.87132 16.83282 19.85207
#
# Velocity S-wave (km/s) = 3.47744 2.98327 3.23979
# Velocity P-wave (km/s) = 4.80502 5.89584 5.37816
#
# Compressibility (1/GPa) = 0.07591419
#
# Stress axis : x y z
#
# Youngs Moduli (GPa) = 45.48701 22.29858 152.53725
#
# Poissons Ratio (x) = -0.21895 0.93873
# Poissons Ratio (y) = -0.44664 0.36621
# Poissons Ratio (z) = 0.27993 0.05353
#
# Static dielectric constant tensor:
#      x y z
#    x 1.626290 0.000000 0.000000 
#    y 0.000000 1.697720 0.000000 
#    z 0.000000 0.000000 1.727690 
# 
# From -- ./inp_files/23726.got.cif
#   From: 2010.05.17/outbox.cif.g08.bks.cpg/sg51_12_cif.got.tgz:23726.got - 2010.06.03 11:52:47.
