data_PCOD9399208
_publ_section_title
;
Structure prediction by ZEFSAII (Michael W. Deem and Ramdas Pophale) SiO2 
 PCOD9399208
Probable space group: P M M A
;
_chemical_formula_sum "Si O2"
_cell_formula_units_Z 48
_cell_length_a 8.162306
_cell_length_b 17.554272
_cell_length_c 14.674254
_cell_angle_alpha 90.000000
_cell_angle_beta 90.000000
_cell_angle_gamma 90.000000
_cell_volume 2102.576120
_symmetry_space_group_name_H-M "P M M A"
_symmetry_group_IT_number 51
_symmetry_cell_setting 'orthorhombic'
loop_
_space_group_symop_operation_xyz
x,y,z
1/2-x,-y,z
1/2+x,-y,-z
-x,y,-z
-x,-y,-z
1/2+x,y,-z
1/2-x,y,z
x,-y,z
loop_
_atom_site_type_symbol
_atom_site_label
_atom_site_fract_x
_atom_site_fract_y
_atom_site_fract_z
Si Si1 0.428417 0.673228 0.356451
Si Si2 0.445318 0.000000 0.393631
Si Si3 0.055834 0.836892 0.605344
Si Si4 0.750000 0.588465 0.139474
Si Si5 0.447359 0.000000 0.893986
Si Si6 0.428359 0.328353 0.146058
Si Si7 0.750000 0.588849 0.363176
Si Si8 0.052219 0.835220 0.894176
O O1 0.250000 0.659467 0.398911
O O2 0.465190 0.763430 0.355576
O O3 0.418945 0.647192 0.251485
O O4 0.585854 0.630882 0.396496
O O5 0.500000 0.000000 0.500000
O O6 0.512885 0.079752 0.355732
O O7 0.250000 0.000000 0.389478
O O8 0.250000 0.825343 0.612908
O O9 0.000000 0.838476 0.500000
O O10 0.750000 0.500000 0.116424
O O11 0.585512 0.629573 0.105646
O O12 0.750000 0.595001 0.251274
O O13 0.501559 0.081974 0.856722
O O14 0.250000 0.000000 0.890735
O O15 0.500000 0.000000 0.000000
O O16 0.250000 0.342111 0.103665
O O17 0.467499 0.238600 0.146408
O O18 0.750000 0.500000 0.386266
O O19 0.250000 0.828411 0.885461
O O20 0.000000 0.834508 0.000000
#
# Coordination Sequence:
#
# PCOD9399208 Si02
#       8
#     8   4   8   4   4   8   4   8
#     4  10  20  35  54  80 109 138 175 218 261 313
#     4  10  18  30  47  72 105 136 180 222 258 303
#     4  11  20  33  53  78 105 142 180 220 263 311
#     4   9  18  34  56  79 105 135 170 215 262 311
#     4   8  16  28  45  70 101 134 174 217 253 293
#     4  10  20  34  54  80 108 137 174 216 261 312
#     4   9  18  34  56  81 105 135 172 215 264 315
#     4  10  18  31  51  76 105 140 178 218 259 308
#
# _framework density 22.829139000000001
#
# number of rings (size 3 to 8) (size 9 to 14) (size 15 to 20)
#    0.000    2.167    1.667    3.750    0.000    1.333 
#    0.000    4.167    0.000    5.000    0.000    0.000 
#    0.000    0.000    0.000    0.000    0.000    0.000 
#
# Total GULP energy -268072.493079 kJ/mol
# GULP energy per Si atom -5584.843606 kJ/mol
# Density = 2.277718 g / cm^3
# Si number density = 22.829139 Si / 1000 Ang^3
#
#
#
# Elastic Constant Matrix: (Units=GPa)
#
#
# Indices 1 2 3 4 5 6 
#
# 1 212.0571 88.3729 10.2822 0.0000 0.0000 0.0000
# 2 88.3729 145.1570 -2.3056 0.0000 0.0000 0.0000
# 3 10.2822 -2.3056 57.8239 0.0000 0.0000 0.0000
# 4 0.0000 0.0000 0.0000 16.7955 0.0000 0.0000
# 5 0.0000 0.0000 0.0000 0.0000 14.3855 0.0000
# 6 0.0000 0.0000 0.0000 0.0000 0.0000 10.4467
#
#
#
# Elastic Compliance Matrix: (Units=1/GPa)
#
#
# Indices 1 2 3 4 5 6 
#
# 1 0.006415 -0.003926 -0.001297 0.000000 0.000000 0.000000
# 2 -0.003926 0.009296 0.001069 0.000000 0.000000 0.000000
# 3 -0.001297 0.001069 0.017567 0.000000 0.000000 0.000000
# 4 0.000000 0.000000 0.000000 0.059540 0.000000 0.000000
# 5 0.000000 0.000000 0.000000 0.000000 0.069515 0.000000
# 6 0.000000 0.000000 0.000000 0.000000 0.000000 0.095724
#
#
# Mechanical properties :
#
#
# Convention : Reuss Voigt Hill
#
# Bulk Modulus (GPa) = 40.04910 67.52633 53.78772
# Shear Modulus (GPa) = 18.20244 29.57144 23.88694
#
# Velocity S-wave (km/s) = 2.82677 3.60298 3.23822
# Velocity P-wave (km/s) = 5.31369 6.85214 6.13136
#
# Compressibility (1/GPa) = 0.02496935
#
# Stress axis : x y z
#
# Youngs Moduli (GPa) = 155.89174 107.57073 56.92443
#
# Poissons Ratio (x) = 0.42232 0.07384
# Poissons Ratio (y) = 0.61202 -0.06084
# Poissons Ratio (z) = 0.20222 -0.11497
#
# Static dielectric constant tensor:
#      x y z
#    x 1.836890 0.000000 0.000000 
#    y 0.000000 1.829480 0.000000 
#    z 0.000000 0.000000 1.865690 
# 
# From -- ./inp_files/27696.got.cif
#   From: 2010.05.17/outbox.cif.g08.bks.cpg/sg51_14_cif.got.tgz:27696.got - 2010.06.03 11:52:47.
