data_PCOD9399691
_publ_section_title
;
Structure prediction by ZEFSAII (Michael W. Deem and Ramdas Pophale) SiO2 
 PCOD9399691
Probable space group: P M M A
;
_chemical_formula_sum "Si O2"
_cell_formula_units_Z 40
_cell_length_a 8.580592
_cell_length_b 12.889698
_cell_length_c 19.629454
_cell_angle_alpha 90.000000
_cell_angle_beta 90.000000
_cell_angle_gamma 90.000000
_cell_volume 2171.041944
_symmetry_space_group_name_H-M "P M M A"
_symmetry_group_IT_number 51
_symmetry_cell_setting 'orthorhombic'
loop_
_space_group_symop_operation_xyz
x,y,z
1/2-x,-y,z
1/2+x,-y,-z
-x,y,-z
-x,-y,-z
1/2+x,y,-z
1/2-x,y,z
x,-y,z
loop_
_atom_site_type_symbol
_atom_site_label
_atom_site_fract_x
_atom_site_fract_y
_atom_site_fract_z
Si Si1 0.563869 0.000000 0.577539
Si Si2 0.936069 0.500000 0.923610
Si Si3 0.437324 0.217387 0.576854
Si Si4 0.936717 0.879713 0.925037
Si Si5 0.939807 0.619152 0.310492
Si Si6 0.437236 0.305760 0.838370
O O1 0.500000 0.000000 0.500000
O O2 0.499950 0.891958 0.606366
O O3 0.750000 0.000000 0.577164
O O4 0.750000 0.500000 0.924499
O O5 0.997344 0.601222 0.884412
O O6 0.000000 0.500000 0.000000
O O7 0.500000 0.229967 0.500000
O O8 0.250000 0.212569 0.574225
O O9 0.487578 0.311349 0.625404
O O10 0.750000 0.872733 0.925977
O O11 0.003599 0.802032 0.869112
O O12 0.981084 0.000000 0.912857
O O13 0.000000 0.850490 0.000000
O O14 0.750000 0.616970 0.310782
O O15 0.993658 0.500000 0.313574
O O16 0.986861 0.671683 0.239294
O O17 0.250000 0.308360 0.840982
#
# Coordination Sequence:
#
# PCOD9399691 Si02
#       6
#     4   4   8   8   8   8
#     4  10  18  32  54  80 112 144 179 228 277 326
#     4  12  24  38  58  86 115 148 189 234 283 336
#     4  10  19  34  58  85 114 147 187 231 275 332
#     4  10  21  38  59  84 116 150 187 232 283 338
#     4   9  19  37  59  81 110 149 189 229 277 333
#     4  11  21  38  61  83 112 149 192 237 281 335
#
# _framework density 18.424332
#
# number of rings (size 3 to 8) (size 9 to 14) (size 15 to 20)
#    0.000    1.800    1.000    5.400    0.000    1.600 
#    1.800    4.000    0.000    0.000    0.000    0.000 
#    0.000    0.000    0.000    0.000    0.000    0.000 
#
# Total GULP energy -223376.865317 kJ/mol
# GULP energy per Si atom -5584.421633 kJ/mol
# Density = 1.838240 g / cm^3
# Si number density = 18.424332 Si / 1000 Ang^3
#
#
#
# Elastic Constant Matrix: (Units=GPa)
#
#
# Indices 1 2 3 4 5 6 
#
# 1 75.8522 39.9267 34.8682 0.0000 0.0000 0.0000
# 2 39.9267 153.7440 93.9765 0.0000 0.0000 0.0000
# 3 34.8682 93.9765 129.5796 0.0000 0.0000 0.0000
# 4 0.0000 0.0000 0.0000 -5.5556 0.0000 0.0000
# 5 0.0000 0.0000 0.0000 0.0000 22.7209 0.0000
# 6 0.0000 0.0000 0.0000 0.0000 0.0000 39.7997
#
#
#
# Elastic Compliance Matrix: (Units=1/GPa)
#
#
# Indices 1 2 3 4 5 6 
#
# 1 0.015633 -0.002674 -0.002268 0.000000 0.000000 0.000000
# 2 -0.002674 0.012141 -0.008086 0.000000 0.000000 0.000000
# 3 -0.002268 -0.008086 0.014192 0.000000 0.000000 0.000000
# 4 0.000000 0.000000 0.000000 -0.179999 0.000000 0.000000
# 5 0.000000 0.000000 0.000000 0.000000 0.044012 0.000000
# 6 0.000000 0.000000 0.000000 0.000000 0.000000 0.025126
#
#
# Mechanical properties :
#
#
# Convention : Reuss Voigt Hill
#
# Bulk Modulus (GPa) = 62.84678 77.41320 70.12999
# Shear Modulus (GPa) = -133.20253 24.08663 -54.55795
#
# Velocity S-wave (km/s) = -8.51199 3.61962 -5.44759
# Velocity P-wave (km/s) = 7.90067 7.71861 1.19240
#
# Compressibility (1/GPa) = 0.01591171
#
# Stress axis : x y z
#
# Youngs Moduli (GPa) = 63.96584 82.36434 70.46435
#
# Poissons Ratio (x) = 0.22023 0.15978
# Poissons Ratio (y) = 0.17104 0.56976
# Poissons Ratio (z) = 0.14504 0.66598
#
# Static dielectric constant tensor:
#      x y z
#    x 1.627030 0.000000 0.000000 
#    y 0.000000 1.643390 0.000000 
#    z 0.000000 0.000000 0.959640 
# 
# From -- ./inp_files/31423.got.cif
#   From: 2010.05.17/outbox.cif.g08.bks.cpg/sg51_16_cif.got.tgz:31423.got - 2010.06.03 11:52:47.
