data_PCOD9399095
_publ_section_title
;
Structure prediction by ZEFSAII (Michael W. Deem and Ramdas Pophale) SiO2 
 PCOD9399095
Probable space group: P M M A
;
_chemical_formula_sum "Si O2"
_cell_formula_units_Z 56
_cell_length_a 14.938516
_cell_length_b 7.684838
_cell_length_c 23.295586
_cell_angle_alpha 90.000000
_cell_angle_beta 90.000000
_cell_angle_gamma 90.000000
_cell_volume 2674.335030
_symmetry_space_group_name_H-M "P M M A"
_symmetry_group_IT_number 51
_symmetry_cell_setting 'orthorhombic'
loop_
_space_group_symop_operation_xyz
x,y,z
1/2-x,-y,z
1/2+x,-y,-z
-x,y,-z
-x,-y,-z
1/2+x,y,-z
1/2-x,y,z
x,-y,z
loop_
_atom_site_type_symbol
_atom_site_label
_atom_site_fract_x
_atom_site_fract_y
_atom_site_fract_z
Si Si1 0.653756 0.798546 0.393770
Si Si2 0.394967 0.303184 0.483839
Si Si3 0.350220 0.287454 0.898917
Si Si4 0.148424 0.791936 0.251949
Si Si5 0.963781 0.289751 0.860772
Si Si6 0.147923 0.711699 0.030590
Si Si7 0.042988 0.791876 0.362433
O O1 0.750000 0.719780 0.376388
O O2 0.649264 0.795216 0.463272
O O3 0.558619 0.721918 0.372292
O O4 0.654827 0.000000 0.375647
O O5 0.500000 0.301275 0.500000
O O6 0.361671 0.500000 0.485386
O O7 0.395884 0.238681 0.418707
O O8 0.250000 0.228922 0.883563
O O9 0.348398 0.500000 0.898588
O O10 0.433087 0.230513 0.860107
O O11 0.369498 0.234772 0.965030
O O12 0.250000 0.723349 0.249348
O O13 0.095060 0.760888 0.193427
O O14 0.091905 0.722697 0.305990
O O15 0.154532 0.000000 0.259734
O O16 0.964377 0.500000 0.862876
O O17 0.918220 0.227333 0.919963
O O18 0.250000 0.760585 0.044963
O O19 0.143778 0.500000 0.030116
O O20 0.033715 0.000000 0.357456
#
# Coordination Sequence:
#
# PCOD9399095 Si02
#       7
#     8   8   8   8   8   8   8
#     4   9  17  30  50  74  97 123 157 195 234 280
#     4   9  17  29  47  73 103 129 152 185 232 279
#     4   8  14  25  43  70 102 130 155 189 237 289
#     4  10  22  38  52  67  92 127 163 200 245 291
#     4  10  18  29  49  74  97 123 160 203 239 277
#     4   8  13  22  40  69 100 125 153 193 238 281
#     4   9  18  34  52  68  91 126 166 201 232 275
#
# _framework density 20.939785000000001
#
# number of rings (size 3 to 8) (size 9 to 14) (size 15 to 20)
#    0.000    3.000    0.000    2.143    0.000    5.714 
#    0.000    2.143    0.000    3.000    0.000    2.000 
#    0.000    0.000    0.000    0.000    0.000    0.000 
#
# Total GULP energy -312144.377467 kJ/mol
# GULP energy per Si atom -5574.006740 kJ/mol
# Density = 2.089212 g / cm^3
# Si number density = 20.939785 Si / 1000 Ang^3
#
#
#
# Elastic Constant Matrix: (Units=GPa)
#
#
# Indices 1 2 3 4 5 6 
#
# 1 171.5305 8.1577 86.9400 0.0000 0.0000 0.0000
# 2 8.1577 35.6973 -1.5209 0.0000 0.0000 0.0000
# 3 86.9400 -1.5209 70.7665 0.0000 0.0000 0.0000
# 4 0.0000 0.0000 0.0000 16.4448 0.0000 0.0000
# 5 0.0000 0.0000 0.0000 0.0000 10.0190 0.0000
# 6 0.0000 0.0000 0.0000 0.0000 0.0000 3.6843
#
#
#
# Elastic Compliance Matrix: (Units=1/GPa)
#
#
# Indices 1 2 3 4 5 6 
#
# 1 0.016155 -0.004541 -0.019944 0.000000 0.000000 0.000000
# 2 -0.004541 0.029316 0.006209 0.000000 0.000000 0.000000
# 3 -0.019944 0.006209 0.038767 0.000000 0.000000 0.000000
# 4 0.000000 0.000000 0.000000 0.060810 0.000000 0.000000
# 5 0.000000 0.000000 0.000000 0.000000 0.099810 0.000000
# 6 0.000000 0.000000 0.000000 0.000000 0.000000 0.271423
#
#
# Mechanical properties :
#
#
# Convention : Reuss Voigt Hill
#
# Bulk Modulus (GPa) = 20.97114 51.68312 36.32713
# Shear Modulus (GPa) = 8.79155 18.32412 13.55784
#
# Velocity S-wave (km/s) = 2.05125 2.96140 2.54730
# Velocity P-wave (km/s) = 3.95561 6.03560 5.10271
#
# Compressibility (1/GPa) = 0.04768457
#
# Stress axis : x y z
#
# Youngs Moduli (GPa) = 61.90200 34.11142 25.79522
#
# Poissons Ratio (x) = 0.15491 0.51447
# Poissons Ratio (y) = 0.28112 -0.16017
# Poissons Ratio (z) = 1.23459 -0.21181
#
# Static dielectric constant tensor:
#      x y z
#    x 1.797910 0.000000 0.000000 
#    y 0.000000 1.798380 0.000000 
#    z 0.000000 0.000000 1.716320 
# 
# From -- ./inp_files/33287.got.cif
#   From: 2010.05.17/outbox.cif.g08.bks.cpg/sg51_17_cif.got.tgz:33287.got - 2010.06.03 11:52:47.
