data_PCOD9399468
_publ_section_title
;
Structure prediction by ZEFSAII (Michael W. Deem and Ramdas Pophale) SiO2 
 PCOD9399468
Probable space group: P M M A
;
_chemical_formula_sum "Si O2"
_cell_formula_units_Z 64
_cell_length_a 14.699247
_cell_length_b 17.294452
_cell_length_c 12.475392
_cell_angle_alpha 90.000000
_cell_angle_beta 90.000000
_cell_angle_gamma 90.000000
_cell_volume 3171.437038
_symmetry_space_group_name_H-M "P M M A"
_symmetry_group_IT_number 51
_symmetry_cell_setting 'orthorhombic'
loop_
_space_group_symop_operation_xyz
x,y,z
1/2-x,-y,z
1/2+x,-y,-z
-x,y,-z
-x,-y,-z
1/2+x,y,-z
1/2-x,y,z
x,-y,z
loop_
_atom_site_type_symbol
_atom_site_label
_atom_site_fract_x
_atom_site_fract_y
_atom_site_fract_z
Si Si1 0.354184 0.698114 0.744830
Si Si2 0.348504 0.691388 0.401400
Si Si3 0.605264 0.142996 0.526984
Si Si4 0.994344 0.636322 0.886727
Si Si5 0.008996 0.412378 0.651911
Si Si6 0.941711 0.914238 0.760009
Si Si7 0.854580 0.238216 0.840400
Si Si8 0.648698 0.118766 0.297674
O O1 0.250000 0.676058 0.757262
O O2 0.413356 0.680473 0.850636
O O3 0.404099 0.644289 0.657179
O O4 0.359335 0.788206 0.715878
O O5 0.250000 0.655151 0.418127
O O6 0.355121 0.770800 0.466917
O O7 0.429289 0.630653 0.411715
O O8 0.354541 0.725795 0.280131
O O9 0.500000 0.153807 0.500000
O O10 0.603727 0.101375 0.642193
O O11 0.646589 0.100381 0.424755
O O12 0.976831 0.588113 0.778171
O O13 0.916615 0.700822 0.901974
O O14 0.000000 0.594110 0.000000
O O15 0.027500 0.500000 0.620430
O O16 0.903539 0.844675 0.831945
O O17 0.052150 0.910551 0.748844
O O18 0.916625 0.000000 0.796449
O O19 0.750000 0.231926 0.875926
O O20 0.750000 0.096471 0.255882
#
# Coordination Sequence:
#
# PCOD9399468 Si02
#       8
#     8   8   8   8   8   8   8   8
#     4   9  18  33  51  71  96 131 169 199 236 289
#     4   9  16  29  48  69  95 130 172 209 238 277
#     4   9  17  28  47  71  97 131 172 210 248 278
#     4   9  18  33  53  78  99 122 160 204 248 284
#     4   9  18  31  48  72 103 130 154 191 246 305
#     4  10  19  32  47  71 106 132 159 200 246 295
#     4   9  17  32  51  70  95 129 167 199 237 285
#     4  10  18  31  50  70  96 132 172 208 241 284
#
# _framework density 20.180126999999999
#
# number of rings (size 3 to 8) (size 9 to 14) (size 15 to 20)
#    0.750    2.000    1.250    1.875    0.000    4.500 
#    0.000    0.000    0.000    3.750    0.000    3.500 
#    0.000    0.000    0.000    0.000    0.000    0.000 
#
# Total GULP energy -356432.768377 kJ/mol
# GULP energy per Si atom -5569.262006 kJ/mol
# Density = 2.013420 g / cm^3
# Si number density = 20.180127 Si / 1000 Ang^3
#
#
#
# Elastic Constant Matrix: (Units=GPa)
#
#
# Indices 1 2 3 4 5 6 
#
# 1 133.3212 37.6542 1.0946 0.0000 0.0000 0.0000
# 2 37.6542 101.9483 -6.8069 0.0000 0.0000 0.0000
# 3 1.0946 -6.8069 49.9327 0.0000 0.0000 0.0000
# 4 0.0000 0.0000 0.0000 3.9041 0.0000 0.0000
# 5 0.0000 0.0000 0.0000 0.0000 -9.0273 0.0000
# 6 0.0000 0.0000 0.0000 0.0000 0.0000 -28.3069
#
#
#
# Elastic Compliance Matrix: (Units=1/GPa)
#
#
# Indices 1 2 3 4 5 6 
#
# 1 0.008393 -0.003141 -0.000612 0.000000 0.000000 0.000000
# 2 -0.003141 0.011074 0.001579 0.000000 0.000000 0.000000
# 3 -0.000612 0.001579 0.020256 0.000000 0.000000 0.000000
# 4 0.000000 0.000000 0.000000 0.256139 0.000000 0.000000
# 5 0.000000 0.000000 0.000000 0.000000 -0.110775 0.000000
# 6 0.000000 0.000000 0.000000 0.000000 0.000000 -0.035327
#
#
# Mechanical properties :
#
#
# Convention : Reuss Voigt Hill
#
# Bulk Modulus (GPa) = 28.26939 38.78735 33.52837
# Shear Modulus (GPa) = 30.13878 10.19800 20.16839
#
# Velocity S-wave (km/s) = 3.86876 2.25043 3.16479
# Velocity P-wave (km/s) = 5.83055 5.10048 5.47769
#
# Compressibility (1/GPa) = 0.03537395
#
# Stress axis : x y z
#
# Youngs Moduli (GPa) = 119.15058 90.29925 49.36917
#
# Poissons Ratio (x) = 0.28360 0.03022
# Poissons Ratio (y) = 0.37422 -0.07793
# Poissons Ratio (z) = 0.07293 -0.14254
#
# Static dielectric constant tensor:
#      x y z
#    x 1.728520 0.000000 0.000000 
#    y 0.000000 1.684590 0.000000 
#    z 0.000000 0.000000 1.770020 
# 
# From -- ./inp_files/24447.got.cif
#   From: 2010.05.17/outbox.cif.g08.bks.cpg/sg51_13_cif.got.tgz:24447.got - 2010.06.03 11:52:47.
