data_PCOD9399452
_publ_section_title
;
Structure prediction by ZEFSAII (Michael W. Deem and Ramdas Pophale) SiO2 
 PCOD9399452
Probable space group: P M M A
;
_chemical_formula_sum "Si O2"
_cell_formula_units_Z 52
_cell_length_a 9.207275
_cell_length_b 16.101422
_cell_length_c 21.850274
_cell_angle_alpha 90.000000
_cell_angle_beta 90.000000
_cell_angle_gamma 90.000000
_cell_volume 3239.307933
_symmetry_space_group_name_H-M "P M M A"
_symmetry_group_IT_number 51
_symmetry_cell_setting 'orthorhombic'
loop_
_space_group_symop_operation_xyz
x,y,z
1/2-x,-y,z
1/2+x,-y,-z
-x,y,-z
-x,-y,-z
1/2+x,y,-z
1/2-x,y,z
x,-y,z
loop_
_atom_site_type_symbol
_atom_site_label
_atom_site_fract_x
_atom_site_fract_y
_atom_site_fract_z
Si Si1 0.578109 0.160403 0.564945
Si Si2 0.581295 0.343067 0.851394
Si Si3 0.925140 0.000000 0.220867
Si Si4 0.079833 0.742329 0.666253
Si Si5 0.579850 0.000000 0.648859
Si Si6 0.426869 0.500000 0.066051
Si Si7 0.575176 0.185203 0.200231
Si Si8 0.411961 0.596884 0.287636
O O1 0.500000 0.154300 0.500000
O O2 0.750000 0.170680 0.556387
O O3 0.509616 0.230870 0.607366
O O4 0.552374 0.078689 0.605909
O O5 0.750000 0.324038 0.865243
O O6 0.530619 0.414845 0.898209
O O7 0.495845 0.256189 0.842469
O O8 0.576753 0.386575 0.784829
O O9 0.968323 0.088600 0.190680
O O10 0.985646 0.000000 0.289949
O O11 0.750000 0.000000 0.223565
O O12 0.250000 0.755716 0.656601
O O13 0.037234 0.791717 0.728840
O O14 0.038134 0.648206 0.680888
O O15 0.750000 0.000000 0.666679
O O16 0.250000 0.500000 0.063141
O O17 0.500000 0.500000 0.000000
O O18 0.750000 0.191407 0.195028
O O19 0.250000 0.627424 0.306083
O O20 0.420445 0.500000 0.299780
#
# Coordination Sequence:
#
# PCOD9399452 Si02
#       8
#     8   8   4   8   4   4   8   8
#     4  11  22  35  49  66  89 121 161 202 246 298
#     4   9  17  31  49  71 102 136 170 204 240 288
#     4  10  18  31  49  70 102 135 162 201 253 303
#     4  10  19  31  47  69  95 123 157 199 246 296
#     4  10  21  33  47  68  92 121 161 201 240 297
#     4  10  20  34  52  78 110 146 177 204 245 288
#     4   9  18  30  47  71  99 132 166 203 249 294
#     4   9  16  29  50  72  96 127 159 195 239 289
#
# _framework density 16.052813
#
# number of rings (size 3 to 8) (size 9 to 14) (size 15 to 20)
#    0.000    2.308    2.308    1.154    0.000    2.769 
#    0.000    0.000    0.000    0.462    0.000    0.538 
#    0.000    0.000    0.000    0.000    0.000    0.000 
#
# Total GULP energy -289656.560105 kJ/mol
# GULP energy per Si atom -5570.318464 kJ/mol
# Density = 1.601628 g / cm^3
# Si number density = 16.052813 Si / 1000 Ang^3
#
#
#
# Elastic Constant Matrix: (Units=GPa)
#
#
# Indices 1 2 3 4 5 6 
#
# 1 32.2251 37.6559 33.2384 0.0000 0.0000 0.0000
# 2 37.6559 114.3906 41.8516 0.0000 0.0000 0.0000
# 3 33.2384 41.8516 59.0160 0.0000 0.0000 0.0000
# 4 0.0000 0.0000 0.0000 142.9903 0.0000 0.0000
# 5 0.0000 0.0000 0.0000 0.0000 24.1820 0.0000
# 6 0.0000 0.0000 0.0000 0.0000 0.0000 24.9807
#
#
#
# Elastic Compliance Matrix: (Units=1/GPa)
#
#
# Indices 1 2 3 4 5 6 
#
# 1 0.089581 -0.014894 -0.039891 0.000000 0.000000 0.000000
# 2 -0.014894 0.014281 -0.001739 0.000000 0.000000 0.000000
# 3 -0.039891 -0.001739 0.040645 0.000000 0.000000 0.000000
# 4 0.000000 0.000000 0.000000 0.006993 0.000000 0.000000
# 5 0.000000 0.000000 0.000000 0.000000 0.041353 0.000000
# 6 0.000000 0.000000 0.000000 0.000000 0.000000 0.040031
#
#
# Mechanical properties :
#
#
# Convention : Reuss Voigt Hill
#
# Bulk Modulus (GPa) = 31.78730 47.90259 39.84495
# Shear Modulus (GPa) = 14.02842 44.62297 29.32570
#
# Velocity S-wave (km/s) = 2.95937 5.27806 4.27878
# Velocity P-wave (km/s) = 5.61443 8.18837 7.02037
#
# Compressibility (1/GPa) = 0.03145910
#
# Stress axis : x y z
#
# Youngs Moduli (GPa) = 11.16303 70.02189 24.60348
#
# Poissons Ratio (x) = 1.04293 0.98145
# Poissons Ratio (y) = 0.16627 0.04278
# Poissons Ratio (z) = 0.44530 0.12177
#
# Static dielectric constant tensor:
#      x y z
#    x 1.547040 0.000000 0.000000 
#    y 0.000000 1.597700 0.000000 
#    z 0.000000 0.000000 1.503670 
# 
# From -- ./inp_files/31852.got.cif
#   From: 2010.05.17/outbox.cif.g08.bks.cpg/sg51_16_cif.got.tgz:31852.got - 2010.06.03 11:52:47.
