data_PCOD9399901
_publ_section_title
;
Structure prediction by ZEFSAII (Michael W. Deem and Ramdas Pophale) SiO2 
 PCOD9399901
Probable space group: P M M A
;
_chemical_formula_sum "Si O2"
_cell_formula_units_Z 40
_cell_length_a 26.340651
_cell_length_b 7.634436
_cell_length_c 10.180011
_cell_angle_alpha 90.000000
_cell_angle_beta 90.000000
_cell_angle_gamma 90.000000
_cell_volume 2047.159637
_symmetry_space_group_name_H-M "P M M A"
_symmetry_group_IT_number 51
_symmetry_cell_setting 'orthorhombic'
loop_
_space_group_symop_operation_xyz
x,y,z
1/2-x,-y,z
1/2+x,-y,-z
-x,y,-z
-x,-y,-z
1/2+x,y,-z
1/2-x,y,z
x,-y,z
loop_
_atom_site_type_symbol
_atom_site_label
_atom_site_fract_x
_atom_site_fract_y
_atom_site_fract_z
Si Si1 0.449426 0.000000 0.087872
Si Si2 0.549568 0.000000 0.591548
Si Si3 0.690128 0.792674 0.712313
Si Si4 0.378189 0.698642 0.516524
Si Si5 0.191933 0.703872 0.744870
Si Si6 0.646873 0.801150 0.981117
O O1 0.456921 0.000000 0.247581
O O2 0.413019 0.163530 0.044191
O O3 0.500000 0.000000 0.000000
O O4 0.500000 0.000000 0.500000
O O5 0.580406 0.172339 0.545544
O O6 0.750000 0.783531 0.709281
O O7 0.665711 0.694786 0.591896
O O8 0.669368 0.721700 0.849444
O O9 0.675115 0.000000 0.703348
O O10 0.397096 0.500000 0.541900
O O11 0.349705 0.778024 0.643890
O O12 0.250000 0.775255 0.742098
O O13 0.196046 0.500000 0.707251
O O14 0.166682 0.713116 0.888068
O O15 0.668343 0.000000 0.990554
#
# Coordination Sequence:
#
# PCOD9399901 Si02
#       6
#     4   4   8   8   8   8
#     4  10  22  42  65  94 114 150 209 262 319 376
#     4  12  26  46  71  90 120 160 207 262 329 376
#     4  10  18  34  59  88 124 166 204 244 301 371
#     4  11  23  42  63  92 128 160 207 259 303 366
#     4  10  22  37  55  89 132 168 203 242 294 365
#     4   9  19  36  58  86 123 153 203 252 299 362
#
# _framework density 19.539266999999999
#
# number of rings (size 3 to 8) (size 9 to 14) (size 15 to 20)
#    0.600    1.200    3.000    1.200    4.200    3.600 
#    0.000    0.000    0.000    1.200    0.000    0.000 
#    0.000    0.000    0.000    0.000    0.000    0.000 
#
# Total GULP energy -222799.376383 kJ/mol
# GULP energy per Si atom -5569.984410 kJ/mol
# Density = 1.949479 g / cm^3
# Si number density = 19.539267 Si / 1000 Ang^3
#
#
#
# Elastic Constant Matrix: (Units=GPa)
#
#
# Indices 1 2 3 4 5 6 
#
# 1 102.9862 22.0113 42.3023 0.0000 0.0000 0.0000
# 2 22.0113 53.8475 1.5722 0.0000 0.0000 0.0000
# 3 42.3023 1.5722 115.4722 0.0000 0.0000 0.0000
# 4 0.0000 0.0000 0.0000 24.5856 0.0000 0.0000
# 5 0.0000 0.0000 0.0000 0.0000 58.3315 0.0000
# 6 0.0000 0.0000 0.0000 0.0000 0.0000 10.5513
#
#
#
# Elastic Compliance Matrix: (Units=1/GPa)
#
#
# Indices 1 2 3 4 5 6 
#
# 1 0.012666 -0.005044 -0.004571 0.000000 0.000000 0.000000
# 2 -0.005044 0.020587 0.001568 0.000000 0.000000 0.000000
# 3 -0.004571 0.001568 0.010313 0.000000 0.000000 0.000000
# 4 0.000000 0.000000 0.000000 0.040674 0.000000 0.000000
# 5 0.000000 0.000000 0.000000 0.000000 0.017143 0.000000
# 6 0.000000 0.000000 0.000000 0.000000 0.000000 0.094775
#
#
# Mechanical properties :
#
#
# Convention : Reuss Voigt Hill
#
# Bulk Modulus (GPa) = 36.40244 44.89750 40.64997
# Shear Modulus (GPa) = 22.58243 32.45503 27.51873
#
# Velocity S-wave (km/s) = 3.40331 4.07998 3.75691
# Velocity P-wave (km/s) = 5.84074 6.72480 6.29830
#
# Compressibility (1/GPa) = 0.02747068
#
# Stress axis : x y z
#
# Youngs Moduli (GPa) = 78.95284 48.57434 96.96101
#
# Poissons Ratio (x) = 0.24501 0.44324
# Poissons Ratio (y) = 0.39823 -0.15199
# Poissons Ratio (z) = 0.36092 -0.07614
#
# Static dielectric constant tensor:
#      x y z
#    x 1.686940 0.000000 0.000000 
#    y 0.000000 1.735190 0.000000 
#    z 0.000000 0.000000 1.717610 
# 
# From -- ./inp_files/12205.got.cif
#   From: 2010.05.17/outbox.cif.g08.bks.cpg/sg51_7_cif.got.tgz:12205.got - 2010.06.03 11:52:47.
