data_PCOD9399576
_publ_section_title
;
Structure prediction by ZEFSAII (Michael W. Deem and Ramdas Pophale) SiO2 
 PCOD9399576
Probable space group: P M M A
;
_chemical_formula_sum "Si O2"
_cell_formula_units_Z 48
_cell_length_a 19.951506
_cell_length_b 13.931605
_cell_length_c 9.474341
_cell_angle_alpha 90.000000
_cell_angle_beta 90.000000
_cell_angle_gamma 90.000000
_cell_volume 2633.454671
_symmetry_space_group_name_H-M "P M M A"
_symmetry_group_IT_number 51
_symmetry_cell_setting 'orthorhombic'
loop_
_space_group_symop_operation_xyz
x,y,z
1/2-x,-y,z
1/2+x,-y,-z
-x,y,-z
-x,-y,-z
1/2+x,y,-z
1/2-x,y,z
x,-y,z
loop_
_atom_site_type_symbol
_atom_site_label
_atom_site_fract_x
_atom_site_fract_y
_atom_site_fract_z
Si Si1 0.458398 0.609273 0.631013
Si Si2 0.324037 0.311631 0.564041
Si Si3 0.823083 0.104304 0.539421
Si Si4 0.967825 0.891260 0.656602
Si Si5 0.328593 0.384488 0.239116
Si Si6 0.537843 0.292622 0.852572
O O1 0.500000 0.653064 0.500000
O O2 0.444954 0.500000 0.593201
O O3 0.386660 0.655754 0.653463
O O4 0.504033 0.620988 0.765825
O O5 0.250000 0.344068 0.608518
O O6 0.325724 0.196622 0.558486
O O7 0.335183 0.350911 0.403686
O O8 0.750000 0.109938 0.612161
O O9 0.887400 0.109105 0.637512
O O10 0.826459 0.000000 0.467040
O O11 0.979861 0.803596 0.762522
O O12 0.000000 0.877124 0.500000
O O13 0.987969 0.000000 0.701607
O O14 0.250000 0.367825 0.201074
O O15 0.340677 0.500000 0.229998
O O16 0.383281 0.321755 0.152784
O O17 0.500000 0.284817 0.000000
#
# Coordination Sequence:
#
# PCOD9399576 Si02
#       6
#     8   8   8   8   8   8
#     4  11  21  35  55  78 107 142 187 238 280 325
#     4  10  18  31  54  82 111 140 181 237 290 334
#     4   9  16  27  49  81 110 135 171 223 276 328
#     4  10  20  36  59  84 111 145 186 231 279 330
#     4  10  20  35  56  81 109 145 191 238 281 330
#     4  12  24  37  56  83 116 153 187 226 282 341
#
# _framework density 18.227008000000001
#
# number of rings (size 3 to 8) (size 9 to 14) (size 15 to 20)
#    0.000    1.667    3.333    2.500    0.000    2.667 
#    0.000    0.833    0.000    1.000    0.000    0.000 
#    0.000    0.000    0.000    0.000    0.000    0.000 
#
# Total GULP energy -267295.759880 kJ/mol
# GULP energy per Si atom -5568.661664 kJ/mol
# Density = 1.818552 g / cm^3
# Si number density = 18.227008 Si / 1000 Ang^3
#
#
#
# Elastic Constant Matrix: (Units=GPa)
#
#
# Indices 1 2 3 4 5 6 
#
# 1 114.0992 25.5805 30.7540 0.0000 0.0000 0.0000
# 2 25.5805 95.7994 15.2866 0.0000 0.0000 0.0000
# 3 30.7540 15.2866 51.1121 0.0000 0.0000 0.0000
# 4 0.0000 0.0000 0.0000 -2.5841 0.0000 0.0000
# 5 0.0000 0.0000 0.0000 0.0000 18.4696 0.0000
# 6 0.0000 0.0000 0.0000 0.0000 0.0000 24.3160
#
#
#
# Elastic Compliance Matrix: (Units=1/GPa)
#
#
# Indices 1 2 3 4 5 6 
#
# 1 0.010793 -0.001938 -0.005914 0.000000 0.000000 0.000000
# 2 -0.001938 0.011310 -0.002216 0.000000 0.000000 0.000000
# 3 -0.005914 -0.002216 0.023786 0.000000 0.000000 0.000000
# 4 0.000000 0.000000 0.000000 -0.386980 0.000000 0.000000
# 5 0.000000 0.000000 0.000000 0.000000 0.054143 0.000000
# 6 0.000000 0.000000 0.000000 0.000000 0.000000 0.041125
#
#
# Mechanical properties :
#
#
# Convention : Reuss Voigt Hill
#
# Bulk Modulus (GPa) = 38.83313 44.91699 41.87506
# Shear Modulus (GPa) = -23.03072 20.66628 -1.18222
#
# Velocity S-wave (km/s) = -3.55850 3.37089 -0.80624
# Velocity P-wave (km/s) = 2.11367 6.31246 4.70716
#
# Compressibility (1/GPa) = 0.02575121
#
# Stress axis : x y z
#
# Youngs Moduli (GPa) = 92.65260 88.41997 42.04081
#
# Poissons Ratio (x) = 0.17138 0.24865
# Poissons Ratio (y) = 0.17958 0.09317
# Poissons Ratio (z) = 0.54799 0.19596
#
# Static dielectric constant tensor:
#      x y z
#    x 1.732650 0.000000 0.000000 
#    y 0.000000 1.681060 0.000000 
#    z 0.000000 0.000000 1.599490 
# 
# From -- ./inp_files/10812.got.cif
#   From: 2010.05.17/outbox.cif.g08.bks.cpg/sg51_6_cif.got.tgz:10812.got - 2010.06.03 11:52:47.
