data_PCOD9399623
_publ_section_title
;
Structure prediction by ZEFSAII (Michael W. Deem and Ramdas Pophale) SiO2 
 PCOD9399623
Probable space group: P M M A
;
_chemical_formula_sum "Si O2"
_cell_formula_units_Z 52
_cell_length_a 8.386055
_cell_length_b 24.966881
_cell_length_c 14.293206
_cell_angle_alpha 90.000000
_cell_angle_beta 90.000000
_cell_angle_gamma 90.000000
_cell_volume 2992.620528
_symmetry_space_group_name_H-M "P M M A"
_symmetry_group_IT_number 51
_symmetry_cell_setting 'orthorhombic'
loop_
_space_group_symop_operation_xyz
x,y,z
1/2-x,-y,z
1/2+x,-y,-z
-x,y,-z
-x,-y,-z
1/2+x,y,-z
1/2-x,y,z
x,-y,z
loop_
_atom_site_type_symbol
_atom_site_label
_atom_site_fract_x
_atom_site_fract_y
_atom_site_fract_z
Si Si1 0.940335 0.780378 0.712415
Si Si2 0.056936 0.325690 0.393048
Si Si3 0.060388 0.000000 0.391728
Si Si4 0.439445 0.886081 0.606951
Si Si5 0.058685 0.174840 0.894040
Si Si6 0.557278 0.442398 0.607713
Si Si7 0.442967 0.943102 0.892019
O O1 0.750000 0.781955 0.705002
O O2 0.999495 0.725850 0.664154
O O3 0.006565 0.833053 0.660772
O O4 0.990634 0.783629 0.820254
O O5 0.250000 0.325000 0.392934
O O6 0.004992 0.384263 0.354670
O O7 0.000000 0.321115 0.500000
O O8 0.000000 0.000000 0.500000
O O9 0.999789 0.056867 0.352521
O O10 0.250000 0.000000 0.391298
O O11 0.500000 0.882113 0.500000
O O12 0.250000 0.888519 0.607078
O O13 0.250000 0.176058 0.893063
O O14 0.004798 0.115361 0.858762
O O15 0.000000 0.181946 0.000000
O O16 0.500000 0.442408 0.500000
O O17 0.750000 0.442506 0.608970
O O18 0.503696 0.500000 0.648747
O O19 0.250000 0.943238 0.888929
O O20 0.499326 0.000000 0.850307
O O21 0.500000 0.943831 0.000000
#
# Coordination Sequence:
#
# PCOD9399623 Si02
#       7
#     8   8   4   8   8   8   8
#     4  11  22  35  49  69  97 128 164 202 239 287
#     4   9  18  30  46  69  98 132 165 200 238 276
#     4  10  18  32  52  72  93 120 155 196 244 292
#     4  11  21  35  53  73  96 125 159 199 244 290
#     4  10  20  35  53  71  92 120 154 195 244 297
#     4   8  13  23  40  63  92 126 162 195 229 272
#     4   8  14  26  45  66  85 105 130 167 217 276
#
# _framework density 17.376075
#
# number of rings (size 3 to 8) (size 9 to 14) (size 15 to 20)
#    0.000    2.462    0.000    4.385    0.000    3.077 
#    1.385    0.000    0.000    0.000    0.000    0.000 
#    0.000    0.615    0.000    1.077    0.000    1.846 
#
# Total GULP energy -289807.975178 kJ/mol
# GULP energy per Si atom -5573.230292 kJ/mol
# Density = 1.733653 g / cm^3
# Si number density = 17.376075 Si / 1000 Ang^3
#
#
#
# Elastic Constant Matrix: (Units=GPa)
#
#
# Indices 1 2 3 4 5 6 
#
# 1 55.2428 31.9251 10.1061 0.0000 0.0000 0.0000
# 2 31.9251 183.1042 62.0182 0.0000 0.0000 0.0000
# 3 10.1061 62.0182 60.0893 0.0000 0.0000 0.0000
# 4 0.0000 0.0000 0.0000 23.0136 0.0000 0.0000
# 5 0.0000 0.0000 0.0000 0.0000 16.3320 0.0000
# 6 0.0000 0.0000 0.0000 0.0000 0.0000 13.5878
#
#
#
# Elastic Compliance Matrix: (Units=1/GPa)
#
#
# Indices 1 2 3 4 5 6 
#
# 1 0.020135 -0.003634 0.000364 0.000000 0.000000 0.000000
# 2 -0.003634 0.009053 -0.008732 0.000000 0.000000 0.000000
# 3 0.000364 -0.008732 0.025593 0.000000 0.000000 0.000000
# 4 0.000000 0.000000 0.000000 0.043453 0.000000 0.000000
# 5 0.000000 0.000000 0.000000 0.000000 0.061229 0.000000
# 6 0.000000 0.000000 0.000000 0.000000 0.000000 0.073596
#
#
# Mechanical properties :
#
#
# Convention : Reuss Voigt Hill
#
# Bulk Modulus (GPa) = 32.49142 56.28169 44.38655
# Shear Modulus (GPa) = 18.70410 23.54580 21.12495
#
# Velocity S-wave (km/s) = 3.28446 3.68512 3.49054
# Velocity P-wave (km/s) = 5.75526 7.11108 6.46879
#
# Compressibility (1/GPa) = 0.03077736
#
# Stress axis : x y z
#
# Youngs Moduli (GPa) = 49.66368 110.46621 39.07341
#
# Poissons Ratio (x) = 0.40145 -0.01423
# Poissons Ratio (y) = 0.18048 0.34119
# Poissons Ratio (z) = -0.01809 0.96458
#
# Static dielectric constant tensor:
#      x y z
#    x 1.619610 0.000000 0.000000 
#    y 0.000000 1.657840 0.000000 
#    z 0.000000 0.000000 1.595440 
# 
# From -- ./inp_files/22086.got.cif
#   From: 2010.05.17/outbox.cif.g08.bks.cpg/sg51_12_cif.got.tgz:22086.got - 2010.06.03 11:52:47.
