data_PCOD9399970
_publ_section_title
;
Structure prediction by ZEFSAII (Michael W. Deem and Ramdas Pophale) SiO2 
 PCOD9399970
Probable space group: P M M A
;
_chemical_formula_sum "Si O2"
_cell_formula_units_Z 64
_cell_length_a 14.354779
_cell_length_b 18.962872
_cell_length_c 13.755924
_cell_angle_alpha 90.000000
_cell_angle_beta 90.000000
_cell_angle_gamma 90.000000
_cell_volume 3744.470315
_symmetry_space_group_name_H-M "P M M A"
_symmetry_group_IT_number 51
_symmetry_cell_setting 'orthorhombic'
loop_
_space_group_symop_operation_xyz
x,y,z
1/2-x,-y,z
1/2+x,-y,-z
-x,y,-z
-x,-y,-z
1/2+x,y,-z
1/2-x,y,z
x,-y,z
loop_
_atom_site_type_symbol
_atom_site_label
_atom_site_fract_x
_atom_site_fract_y
_atom_site_fract_z
Si Si1 0.144573 0.665318 0.113577
Si Si2 0.143054 0.214911 0.969278
Si Si3 0.958297 0.303041 0.193799
Si Si4 0.141646 0.079841 0.548441
Si Si5 0.361363 0.078682 0.878933
Si Si6 0.138393 0.420222 0.916795
Si Si7 0.857062 0.918431 0.685999
Si Si8 0.960481 0.837373 0.294182
O O1 0.250000 0.647107 0.143322
O O2 0.062879 0.667278 0.190783
O O3 0.144666 0.744376 0.069805
O O4 0.116494 0.615991 0.021392
O O5 0.250000 0.224468 0.929361
O O6 0.069946 0.254291 0.899679
O O7 0.122001 0.132362 0.968156
O O8 0.895554 0.371146 0.171487
O O9 0.946746 0.246094 0.278885
O O10 0.250000 0.088867 0.577619
O O11 0.139001 0.083912 0.431942
O O12 0.077104 0.135039 0.602926
O O13 0.112569 0.000000 0.576425
O O14 0.250000 0.073708 0.867551
O O15 0.401515 0.118972 0.785616
O O16 0.399010 0.000000 0.889765
O O17 0.250000 0.421608 0.913944
O O18 0.102445 0.500000 0.912320
O O19 0.750000 0.903840 0.715021
O O20 0.933448 0.862956 0.721180
O O21 0.879013 0.000000 0.713784
#
# Coordination Sequence:
#
# PCOD9399970 Si02
#       8
#     8   8   8   8   8   8   8   8
#     4   9  17  29  43  58  78 108 144 174 203 244
#     4   8  14  25  40  55  73  99 133 173 211 246
#     4  10  19  27  40  62  87 113 137 166 210 259
#     4   9  17  29  46  66  84 106 140 181 223 263
#     4   9  16  24  36  56  77  98 130 171 212 250
#     4   9  17  30  49  70  89 111 141 177 216 257
#     4   9  18  31  45  61  83 114 151 186 217 251
#     4  11  19  26  40  60  86 115 138 166 212 263
#
# _framework density 17.091868999999999
#
# number of rings (size 3 to 8) (size 9 to 14) (size 15 to 20)
#    0.000    2.750    0.000    5.250    0.000    5.000 
#    0.000    0.000    0.000    7.500    0.000    1.750 
#    0.000    2.000    0.000    2.750    0.000    0.625 
#
# Total GULP energy -356370.401936 kJ/mol
# GULP energy per Si atom -5568.287530 kJ/mol
# Density = 1.705297 g / cm^3
# Si number density = 17.091869 Si / 1000 Ang^3
#
#
#
# Elastic Constant Matrix: (Units=GPa)
#
#
# Indices 1 2 3 4 5 6 
#
# 1 53.9596 17.6905 -0.9584 0.0000 0.0000 0.0000
# 2 17.6905 110.4717 15.3981 0.0000 0.0000 0.0000
# 3 -0.9584 15.3981 5.8974 0.0000 0.0000 0.0000
# 4 0.0000 0.0000 0.0000 10.4369 0.0000 0.0000
# 5 0.0000 0.0000 0.0000 0.0000 4.7264 0.0000
# 6 0.0000 0.0000 0.0000 0.0000 0.0000 19.3453
#
#
#
# Elastic Compliance Matrix: (Units=1/GPa)
#
#
# Indices 1 2 3 4 5 6 
#
# 1 0.020833 -0.005987 0.019017 0.000000 0.000000 0.000000
# 2 -0.005987 0.015952 -0.042623 0.000000 0.000000 0.000000
# 3 0.019017 -0.042623 0.283945 0.000000 0.000000 0.000000
# 4 0.000000 0.000000 0.000000 0.095814 0.000000 0.000000
# 5 0.000000 0.000000 0.000000 0.000000 0.211579 0.000000
# 6 0.000000 0.000000 0.000000 0.000000 0.000000 0.051692
#
#
# Mechanical properties :
#
#
# Convention : Reuss Voigt Hill
#
# Bulk Modulus (GPa) = 3.82345 26.06546 14.94445
# Shear Modulus (GPa) = 6.05194 16.11493 11.08343
#
# Velocity S-wave (km/s) = 1.88375 3.07390 2.54926
# Velocity P-wave (km/s) = 2.64068 5.28032 4.17463
#
# Compressibility (1/GPa) = 0.26154381
#
# Stress axis : x y z
#
# Youngs Moduli (GPa) = 48.00105 62.68901 3.52181
#
# Poissons Ratio (x) = 0.37530 -0.06697
# Poissons Ratio (y) = 0.28737 0.15011
# Poissons Ratio (z) = -0.91283 2.67198
#
# Static dielectric constant tensor:
#      x y z
#    x 1.650920 0.000000 0.000000 
#    y 0.000000 1.607920 0.000000 
#    z 0.000000 0.000000 1.585230 
# 
# From -- ./inp_files/24460.got.cif
#   From: 2010.05.17/outbox.cif.g08.bks.cpg/sg51_13_cif.got.tgz:24460.got - 2010.06.03 11:52:47.
