data_PCOD9399035
_publ_section_title
;
Structure prediction by ZEFSAII (Michael W. Deem and Ramdas Pophale) SiO2 
 PCOD9399035
Probable space group: P M M A
;
_chemical_formula_sum "Si O2"
_cell_formula_units_Z 64
_cell_length_a 8.919577
_cell_length_b 18.471645
_cell_length_c 24.040711
_cell_angle_alpha 90.000000
_cell_angle_beta 90.000000
_cell_angle_gamma 90.000000
_cell_volume 3960.929752
_symmetry_space_group_name_H-M "P M M A"
_symmetry_group_IT_number 51
_symmetry_cell_setting 'orthorhombic'
loop_
_space_group_symop_operation_xyz
x,y,z
1/2-x,-y,z
1/2+x,-y,-z
-x,y,-z
-x,-y,-z
1/2+x,y,-z
1/2-x,y,z
x,-y,z
loop_
_atom_site_type_symbol
_atom_site_label
_atom_site_fract_x
_atom_site_fract_y
_atom_site_fract_z
Si Si1 0.925273 0.191789 0.845574
Si Si2 0.930479 0.706791 0.749668
Si Si3 0.926841 0.584839 0.323443
Si Si4 0.577650 0.824968 0.330582
Si Si5 0.931870 0.917568 0.938571
Si Si6 0.417863 0.916182 0.770674
Si Si7 0.076430 0.802069 0.443102
Si Si8 0.925124 0.373243 0.558726
O O1 0.750000 0.204861 0.855358
O O2 0.981604 0.262462 0.810725
O O3 0.984982 0.150668 0.900851
O O4 0.954235 0.128162 0.801211
O O5 0.750000 0.703439 0.749998
O O6 0.997308 0.632985 0.724828
O O7 0.985479 0.765925 0.704652
O O8 0.750000 0.602065 0.325861
O O9 0.945217 0.500000 0.311527
O O10 0.996927 0.600006 0.384599
O O11 0.750000 0.800245 0.334426
O O12 0.573611 0.897343 0.294121
O O13 0.508515 0.833178 0.390487
O O14 0.750000 0.915185 0.940521
O O15 0.971442 0.000000 0.917992
O O16 0.000000 0.911444 0.000000
O O17 0.250000 0.890813 0.789108
O O18 0.429802 0.000000 0.781489
O O19 0.250000 0.821221 0.442117
O O20 0.065560 0.714336 0.439616
O O21 0.000000 0.824904 0.500000
O O22 0.750000 0.393906 0.558844
O O23 0.000000 0.396639 0.500000
#
# Coordination Sequence:
#
# PCOD9399035 Si02
#       8
#     8   8   8   8   8   8   8   8
#     4   9  18  31  48  69  95 127 163 199 234 269
#     4  10  19  32  49  69  91 118 154 194 232 275
#     4  11  23  36  50  68  93 124 154 188 233 285
#     4  10  18  29  47  66  88 116 143 182 229 272
#     4   9  17  29  45  68 101 139 173 202 231 266
#     4   9  18  30  44  66  93 120 152 188 228 272
#     4  10  19  30  46  67  87 109 141 182 225 274
#     4  10  20  33  50  69  91 119 150 187 229 279
#
# _framework density 16.157821999999999
#
# number of rings (size 3 to 8) (size 9 to 14) (size 15 to 20)
#    0.000    2.250    1.250    2.250    0.000    4.500 
#    0.000    1.250    0.000    0.375    0.000    0.000 
#    0.000    0.500    0.000    1.125    0.000    2.000 
#
# Total GULP energy -356344.301571 kJ/mol
# GULP energy per Si atom -5567.879712 kJ/mol
# Density = 1.612105 g / cm^3
# Si number density = 16.157822 Si / 1000 Ang^3
#
#
#
# Elastic Constant Matrix: (Units=GPa)
#
#
# Indices 1 2 3 4 5 6 
#
# 1 50.7976 21.2240 27.5655 0.0000 0.0000 0.0000
# 2 21.2240 37.3062 35.2883 0.0000 0.0000 0.0000
# 3 27.5655 35.2883 100.0102 0.0000 0.0000 0.0000
# 4 0.0000 0.0000 0.0000 19.6494 0.0000 0.0000
# 5 0.0000 0.0000 0.0000 0.0000 23.6597 0.0000
# 6 0.0000 0.0000 0.0000 0.0000 0.0000 12.7966
#
#
#
# Elastic Compliance Matrix: (Units=1/GPa)
#
#
# Indices 1 2 3 4 5 6 
#
# 1 0.026398 -0.012212 -0.002967 0.000000 0.000000 0.000000
# 2 -0.012212 0.045883 -0.012824 0.000000 0.000000 0.000000
# 3 -0.002967 -0.012824 0.015342 0.000000 0.000000 0.000000
# 4 0.000000 0.000000 0.000000 0.050892 0.000000 0.000000
# 5 0.000000 0.000000 0.000000 0.000000 0.042266 0.000000
# 6 0.000000 0.000000 0.000000 0.000000 0.000000 0.078146
#
#
# Mechanical properties :
#
#
# Convention : Reuss Voigt Hill
#
# Bulk Modulus (GPa) = 31.62810 39.58552 35.60681
# Shear Modulus (GPa) = 15.36234 18.15687 16.75961
#
# Velocity S-wave (km/s) = 3.08680 3.35583 3.22412
# Velocity P-wave (km/s) = 5.68519 6.29031 5.99539
#
# Compressibility (1/GPa) = 0.03161746
#
# Stress axis : x y z
#
# Youngs Moduli (GPa) = 37.88113 21.79472 65.18210
#
# Poissons Ratio (x) = 0.26615 0.19341
# Poissons Ratio (y) = 0.46259 0.83587
# Poissons Ratio (z) = 0.11240 0.27949
#
# Static dielectric constant tensor:
#      x y z
#    x 1.572410 0.000000 0.000000 
#    y 0.000000 1.550500 0.000000 
#    z 0.000000 0.000000 1.548640 
# 
# From -- ./inp_files/35095.got.cif
#   From: 2010.05.17/outbox.cif.g08.bks.cpg/sg51_18_cif.got.tgz:35095.got - 2010.06.03 11:52:47.
