data_PCOD9399499
_publ_section_title
;
Structure prediction by ZEFSAII (Michael W. Deem and Ramdas Pophale) SiO2 
 PCOD9399499
Probable space group: P M M A
;
_chemical_formula_sum "Si O2"
_cell_formula_units_Z 64
_cell_length_a 8.908496
_cell_length_b 14.641867
_cell_length_c 31.740945
_cell_angle_alpha 90.000000
_cell_angle_beta 90.000000
_cell_angle_gamma 90.000000
_cell_volume 4140.194075
_symmetry_space_group_name_H-M "P M M A"
_symmetry_group_IT_number 51
_symmetry_cell_setting 'orthorhombic'
loop_
_space_group_symop_operation_xyz
x,y,z
1/2-x,-y,z
1/2+x,-y,-z
-x,y,-z
-x,-y,-z
1/2+x,y,-z
1/2-x,y,z
x,-y,z
loop_
_atom_site_type_symbol
_atom_site_label
_atom_site_fract_x
_atom_site_fract_y
_atom_site_fract_z
Si Si1 0.567538 0.895256 0.791895
Si Si2 0.429274 0.107815 0.631599
Si Si3 0.429398 0.603609 0.165401
Si Si4 0.929380 0.106495 0.045279
Si Si5 0.569101 0.788966 0.876845
Si Si6 0.922792 0.888974 0.543221
Si Si7 0.929203 0.604804 0.257556
Si Si8 0.430334 0.217199 0.291255
O O1 0.750000 0.896052 0.791661
O O2 0.522990 0.845970 0.835180
O O3 0.521236 0.838697 0.750728
O O4 0.515734 0.000000 0.790257
O O5 0.250000 0.116949 0.633200
O O6 0.489273 0.136179 0.585593
O O7 0.505540 0.166170 0.668143
O O8 0.466297 0.000000 0.637436
O O9 0.250000 0.611381 0.173527
O O10 0.460078 0.500000 0.150953
O O11 0.468918 0.683580 0.133028
O O12 0.512354 0.617997 0.209730
O O13 0.750000 0.113614 0.043007
O O14 0.993233 0.169264 0.082189
O O15 0.968270 0.000000 0.054257
O O16 0.000000 0.129541 0.000000
O O17 0.750000 0.796294 0.881000
O O18 0.750000 0.859594 0.545356
O O19 0.000000 0.857364 0.500000
O O20 0.923768 0.000000 0.541934
O O21 0.750000 0.615491 0.258702
O O22 0.966188 0.500000 0.269255
O O23 0.007167 0.680871 0.286003
O O24 0.250000 0.218128 0.292522
#
# Coordination Sequence:
#
# PCOD9399499 Si02
#       8
#     8   8   8   8   8   8   8   8
#     4   9  17  28  43  66  95 126 159 192 228 273
#     4  10  20  32  45  65  96 133 169 205 247 294
#     4   9  17  31  51  74  98 124 158 196 235 283
#     4  10  21  36  53  74  98 125 156 192 234 279
#     4  10  18  31  51  74  98 126 157 193 236 280
#     4   9  16  27  44  65  89 121 163 209 252 293
#     4  10  20  33  49  69  94 124 159 203 251 292
#     4  11  20  32  48  67  94 130 168 203 240 288
#
# _framework density 15.458213000000001
#
# number of rings (size 3 to 8) (size 9 to 14) (size 15 to 20)
#    0.000    2.250    1.250    2.625    0.000    5.250 
#    0.000    0.000    0.000    2.625    0.000    0.000 
#    0.000    0.500    0.000    1.875    0.000    2.875 
#
# Total GULP energy -356992.303947 kJ/mol
# GULP energy per Si atom -5578.004749 kJ/mol
# Density = 1.542303 g / cm^3
# Si number density = 15.458213 Si / 1000 Ang^3
#
#
#
# Elastic Constant Matrix: (Units=GPa)
#
#
# Indices 1 2 3 4 5 6 
#
# 1 54.3557 50.2053 53.6603 0.0000 0.0000 0.0000
# 2 50.2053 107.9876 77.5186 0.0000 0.0000 0.0000
# 3 53.6603 77.5186 135.0967 0.0000 0.0000 0.0000
# 4 0.0000 0.0000 0.0000 7.9619 0.0000 0.0000
# 5 0.0000 0.0000 0.0000 0.0000 29.3153 0.0000
# 6 0.0000 0.0000 0.0000 0.0000 0.0000 19.6641
#
#
#
# Elastic Compliance Matrix: (Units=1/GPa)
#
#
# Indices 1 2 3 4 5 6 
#
# 1 0.036892 -0.011278 -0.008182 0.000000 0.000000 0.000000
# 2 -0.011278 0.019194 -0.006534 0.000000 0.000000 0.000000
# 3 -0.008182 -0.006534 0.014401 0.000000 0.000000 0.000000
# 4 0.000000 0.000000 0.000000 0.125599 0.000000 0.000000
# 5 0.000000 0.000000 0.000000 0.000000 0.034112 0.000000
# 6 0.000000 0.000000 0.000000 0.000000 0.000000 0.050854
#
#
# Mechanical properties :
#
#
# Convention : Reuss Voigt Hill
#
# Bulk Modulus (GPa) = 54.05747 73.35649 63.70698
# Shear Modulus (GPa) = 14.74032 19.12530 16.93281
#
# Velocity S-wave (km/s) = 3.09133 3.52124 3.31326
# Velocity P-wave (km/s) = 6.91287 8.00562 7.47922
#
# Compressibility (1/GPa) = 0.01849883
#
# Stress axis : x y z
#
# Youngs Moduli (GPa) = 27.10650 52.09941 69.43920
#
# Poissons Ratio (x) = 0.58759 0.56814
# Poissons Ratio (y) = 0.30571 0.45371
# Poissons Ratio (z) = 0.22178 0.34041
#
# Static dielectric constant tensor:
#      x y z
#    x 1.518490 0.000000 0.000000 
#    y 0.000000 1.515780 0.000000 
#    z 0.000000 0.000000 1.485810 
# 
# From -- ./inp_files/37564.got.cif
#   From: 2010.05.17/outbox.cif.g08.bks.cpg/sg51_19_cif.got.tgz:37564.got - 2010.06.03 11:52:47.
