data_PCOD9399957
_publ_section_title
;
Structure prediction by ZEFSAII (Michael W. Deem and Ramdas Pophale) SiO2 
 PCOD9399957
Probable space group: P M M A
;
_chemical_formula_sum "Si O2"
_cell_formula_units_Z 64
_cell_length_a 27.653914
_cell_length_b 15.070274
_cell_length_c 8.353910
_cell_angle_alpha 90.000000
_cell_angle_beta 90.000000
_cell_angle_gamma 90.000000
_cell_volume 3481.509211
_symmetry_space_group_name_H-M "P M M A"
_symmetry_group_IT_number 51
_symmetry_cell_setting 'orthorhombic'
loop_
_space_group_symop_operation_xyz
x,y,z
1/2-x,-y,z
1/2+x,-y,-z
-x,y,-z
-x,-y,-z
1/2+x,y,-z
1/2-x,y,z
x,-y,z
loop_
_atom_site_type_symbol
_atom_site_label
_atom_site_fract_x
_atom_site_fract_y
_atom_site_fract_z
Si Si1 0.353972 0.765875 0.989052
Si Si2 0.916260 0.306704 0.738152
Si Si3 0.194822 0.906507 0.201023
Si Si4 0.921225 0.103689 0.211726
Si Si5 0.018657 0.261110 0.682831
Si Si6 0.364378 0.839440 0.477477
Si Si7 0.598666 0.599017 0.419152
Si Si8 0.807408 0.307675 0.330338
O O1 0.390376 0.840457 0.917564
O O2 0.324576 0.720162 0.847012
O O3 0.383872 0.699318 0.103279
O O4 0.317352 0.821617 0.096916
O O5 0.900120 0.220746 0.631169
O O6 0.907821 0.384565 0.609618
O O7 0.972995 0.301315 0.775427
O O8 0.250000 0.902890 0.252034
O O9 0.161475 0.903420 0.355314
O O10 0.187075 0.000000 0.111344
O O11 0.967553 0.165948 0.244976
O O12 0.891756 0.113016 0.378500
O O13 0.929209 0.000000 0.173828
O O14 0.065460 0.326341 0.670277
O O15 0.000000 0.252598 0.500000
O O16 0.324621 0.773222 0.554680
O O17 0.583257 0.500000 0.376150
O O18 0.654970 0.615224 0.379510
O O19 0.750000 0.324042 0.340923
#
# Coordination Sequence:
#
# PCOD9399957 Si02
#       8
#     8   8   8   8   8   8   8   8
#     4  10  20  36  51  76 113 156 182 225 277 337
#     4   9  19  35  58  77 115 144 180 231 281 326
#     4  10  19  30  47  74 106 144 195 243 278 319
#     4  11  20  33  53  79 114 154 193 229 270 327
#     4  10  18  37  56  84 108 145 187 236 283 320
#     4   9  17  34  50  77 105 147 189 237 270 320
#     4  10  20  38  63  88 108 136 185 234 284 336
#     4  10  19  35  58  81 109 147 183 221 278 335
#
# _framework density 18.382832000000001
#
# number of rings (size 3 to 8) (size 9 to 14) (size 15 to 20)
#    0.000    2.125    5.000    1.500    0.000    3.250 
#    0.000    3.125    0.000    6.750    0.000    0.000 
#    0.000    0.000    0.000    0.000    0.000    0.000 
#
# Total GULP energy -356492.381993 kJ/mol
# GULP energy per Si atom -5570.193469 kJ/mol
# Density = 1.834099 g / cm^3
# Si number density = 18.382832 Si / 1000 Ang^3
#
#
#
# Elastic Constant Matrix: (Units=GPa)
#
#
# Indices 1 2 3 4 5 6 
#
# 1 111.6300 22.5437 12.3397 0.0000 0.0000 0.0000
# 2 22.5437 69.9972 6.9734 0.0000 0.0000 0.0000
# 3 12.3397 6.9734 39.1280 0.0000 0.0000 0.0000
# 4 0.0000 0.0000 0.0000 12.4615 0.0000 0.0000
# 5 0.0000 0.0000 0.0000 0.0000 18.3635 0.0000
# 6 0.0000 0.0000 0.0000 0.0000 0.0000 5.8912
#
#
#
# Elastic Compliance Matrix: (Units=1/GPa)
#
#
# Indices 1 2 3 4 5 6 
#
# 1 0.009831 -0.002909 -0.002582 0.000000 0.000000 0.000000
# 2 -0.002909 0.015405 -0.001828 0.000000 0.000000 0.000000
# 3 -0.002582 -0.001828 0.026697 0.000000 0.000000 0.000000
# 4 0.000000 0.000000 0.000000 0.080247 0.000000 0.000000
# 5 0.000000 0.000000 0.000000 0.000000 0.054456 0.000000
# 6 0.000000 0.000000 0.000000 0.000000 0.000000 0.169745
#
#
# Mechanical properties :
#
#
# Convention : Reuss Voigt Hill
#
# Bulk Modulus (GPa) = 26.81295 33.82986 30.32141
# Shear Modulus (GPa) = 13.03946 19.26980 16.15463
#
# Velocity S-wave (km/s) = 2.66621 3.24118 2.96765
# Velocity P-wave (km/s) = 4.90874 5.69648 5.31722
#
# Compressibility (1/GPa) = 0.03729541
#
# Stress axis : x y z
#
# Youngs Moduli (GPa) = 101.71843 64.91271 37.45705
#
# Poissons Ratio (x) = 0.18883 0.09671
# Poissons Ratio (y) = 0.29590 0.06848
# Poissons Ratio (z) = 0.26263 0.11867
#
# Static dielectric constant tensor:
#      x y z
#    x 1.650930 0.000000 0.000000 
#    y 0.000000 1.637640 0.000000 
#    z 0.000000 0.000000 1.646020 
# 
# From -- ./inp_files/13258.got.cif
#   From: 2010.05.17/outbox.cif.g08.bks.cpg/sg51_7_cif.got.tgz:13258.got - 2010.06.03 11:52:47.
