data_PCOD9399593
_publ_section_title
;
Structure prediction by ZEFSAII (Michael W. Deem and Ramdas Pophale) SiO2 
 PCOD9399593
Probable space group: P M M A
;
_chemical_formula_sum "Si O2"
_cell_formula_units_Z 32
_cell_length_a 13.924080
_cell_length_b 8.210397
_cell_length_c 11.776014
_cell_angle_alpha 90.000000
_cell_angle_beta 90.000000
_cell_angle_gamma 90.000000
_cell_volume 1346.260118
_symmetry_space_group_name_H-M "P M M A"
_symmetry_group_IT_number 51
_symmetry_cell_setting 'orthorhombic'
loop_
_space_group_symop_operation_xyz
x,y,z
1/2-x,-y,z
1/2+x,-y,-z
-x,y,-z
-x,-y,-z
1/2+x,y,-z
1/2-x,y,z
x,-y,z
loop_
_atom_site_type_symbol
_atom_site_label
_atom_site_fract_x
_atom_site_fract_y
_atom_site_fract_z
Si Si1 0.366365 0.693006 0.309770
Si Si2 0.365407 0.500000 0.692998
Si Si3 0.867162 0.181631 0.440794
Si Si4 0.400251 0.821456 0.068111
Si Si5 0.889544 0.500000 0.039731
O O1 0.250000 0.706812 0.296439
O O2 0.388543 0.500000 0.313617
O O3 0.391014 0.777936 0.428610
O O4 0.412466 0.776302 0.200094
O O5 0.250000 0.500000 0.676377
O O6 0.401107 0.666220 0.634751
O O7 0.384282 0.500000 0.825893
O O8 0.750000 0.180473 0.434072
O O9 0.899725 0.000000 0.408284
O O10 0.355374 0.000000 0.059501
O O11 0.500000 0.832235 0.000000
O O12 0.349508 0.666224 0.012071
O O13 0.000000 0.500000 0.000000
#
# Coordination Sequence:
#
# PCOD9399593 Si02
#       5
#     8   4   8   8   4
#     4  10  18  31  56  88 118 148 184 230 284 342
#     4  10  20  35  56  85 115 146 186 226 272 338
#     4   9  17  31  53  83 118 148 176 223 286 342
#     4  10  21  37  57  79 109 152 198 238 280 331
#     4  10  22  39  56  76 110 152 192 235 282 331
#
# _framework density 23.769551
#
# number of rings (size 3 to 8) (size 9 to 14) (size 15 to 20)
#    0.000    2.250    2.500    0.750    0.000    3.500 
#    0.000    0.000    0.000   12.000    0.000   15.750 
#    0.000    0.000    0.000    0.000    0.000    0.500 
#
# Total GULP energy -179041.186146 kJ/mol
# GULP energy per Si atom -5595.037067 kJ/mol
# Density = 2.371545 g / cm^3
# Si number density = 23.769551 Si / 1000 Ang^3
#
#
#
# Elastic Constant Matrix: (Units=GPa)
#
#
# Indices 1 2 3 4 5 6 
#
# 1 75.3032 27.7012 -5.0993 0.0000 0.0000 0.0000
# 2 27.7012 285.3797 114.3672 0.0000 0.0000 0.0000
# 3 -5.0993 114.3672 178.3249 0.0000 0.0000 0.0000
# 4 0.0000 0.0000 0.0000 17.2512 0.0000 0.0000
# 5 0.0000 0.0000 0.0000 0.0000 36.0175 0.0000
# 6 0.0000 0.0000 0.0000 0.0000 0.0000 -30.1727
#
#
#
# Elastic Compliance Matrix: (Units=1/GPa)
#
#
# Indices 1 2 3 4 5 6 
#
# 1 0.014158 -0.002068 0.001731 0.000000 0.000000 0.000000
# 2 -0.002068 0.005018 -0.003278 0.000000 0.000000 0.000000
# 3 0.001731 -0.003278 0.007759 0.000000 0.000000 0.000000
# 4 0.000000 0.000000 0.000000 0.057967 0.000000 0.000000
# 5 0.000000 0.000000 0.000000 0.000000 0.027764 0.000000
# 6 0.000000 0.000000 0.000000 0.000000 0.000000 -0.033143
#
#
# Mechanical properties :
#
#
# Convention : Reuss Voigt Hill
#
# Bulk Modulus (GPa) = 50.74512 90.32733 70.53622
# Shear Modulus (GPa) = 53.57803 31.42177 42.49990
#
# Velocity S-wave (km/s) = 4.75285 3.63979 4.23306
# Velocity P-wave (km/s) = 7.17736 7.46645 7.32333
#
# Compressibility (1/GPa) = 0.01970633
#
# Stress axis : x y z
#
# Youngs Moduli (GPa) = 70.63335 199.26815 128.87730
#
# Poissons Ratio (x) = 0.41209 -0.22311
# Poissons Ratio (y) = 0.14607 0.42241
# Poissons Ratio (z) = -0.12228 0.65313
#
# Static dielectric constant tensor:
#      x y z
#    x 1.884610 0.000000 0.000000 
#    y 0.000000 1.918240 0.000000 
#    z 0.000000 0.000000 1.807970 
# 
# From -- ./inp_files/15950.got.cif
#   From: 2010.05.17/outbox.cif.g08.bks.cpg/sg51_8_cif.got.tgz:15950.got - 2010.06.03 11:52:47.
