data_PCOD9399293
_publ_section_title
;
Structure prediction by ZEFSAII (Michael W. Deem and Ramdas Pophale) SiO2 
 PCOD9399293
Probable space group: P M M A
;
_chemical_formula_sum "Si O2"
_cell_formula_units_Z 56
_cell_length_a 7.876066
_cell_length_b 19.281905
_cell_length_c 19.696282
_cell_angle_alpha 90.000000
_cell_angle_beta 90.000000
_cell_angle_gamma 90.000000
_cell_volume 2991.186825
_symmetry_space_group_name_H-M "P M M A"
_symmetry_group_IT_number 51
_symmetry_cell_setting 'orthorhombic'
loop_
_space_group_symop_operation_xyz
x,y,z
1/2-x,-y,z
1/2+x,-y,-z
-x,y,-z
-x,-y,-z
1/2+x,y,-z
1/2-x,y,z
x,-y,z
loop_
_atom_site_type_symbol
_atom_site_label
_atom_site_fract_x
_atom_site_fract_y
_atom_site_fract_z
Si Si1 0.048249 0.422852 0.288198
Si Si2 0.047286 0.651070 0.575247
Si Si3 0.545564 0.189067 0.424830
Si Si4 0.045993 0.784873 0.076899
Si Si5 0.456777 0.288927 0.210589
Si Si6 0.449900 0.146728 0.717648
Si Si7 0.049456 0.076269 0.146351
O O1 0.250000 0.426618 0.275910
O O2 0.976566 0.500000 0.279099
O O3 0.981348 0.362142 0.239239
O O4 0.022777 0.395860 0.364705
O O5 0.250000 0.652446 0.581525
O O6 0.983340 0.730918 0.581084
O O7 0.000000 0.626318 0.500000
O O8 0.500000 0.163662 0.500000
O O9 0.750000 0.191405 0.420348
O O10 0.484615 0.145748 0.359699
O O11 0.250000 0.787706 0.081133
O O12 0.991130 0.729543 0.133775
O O13 0.978603 0.860184 0.101686
O O14 0.000000 0.769511 0.000000
O O15 0.250000 0.287135 0.214347
O O16 0.522668 0.225654 0.256643
O O17 0.250000 0.131154 0.717762
O O18 0.531398 0.098482 0.774942
O O19 0.250000 0.072823 0.131662
O O20 0.975371 0.000000 0.134276
#
# Coordination Sequence:
#
# PCOD9399293 Si02
#       7
#     8   8   8   8   8   8   8
#     4  10  20  33  50  71  94 126 168 210 251 295
#     4  10  19  32  47  67  96 130 165 204 251 299
#     4   9  18  29  44  68  95 123 159 204 248 288
#     4   9  18  32  51  76 101 129 160 193 233 279
#     4   9  18  33  51  70  96 128 162 199 242 292
#     4  10  18  30  49  74  99 124 162 207 246 284
#     4   9  19  35  52  73 103 136 165 191 228 284
#
# _framework density 18.721665000000002
#
# number of rings (size 3 to 8) (size 9 to 14) (size 15 to 20)
#    0.000    2.571    1.429    1.714    0.000    5.143 
#    0.000    0.000    0.000    0.857    0.000    0.000 
#    0.000    0.000    0.000    0.000    0.000    0.286 
#
# Total GULP energy -312228.503529 kJ/mol
# GULP energy per Si atom -5575.508992 kJ/mol
# Density = 1.867905 g / cm^3
# Si number density = 18.721665 Si / 1000 Ang^3
#
#
#
# Elastic Constant Matrix: (Units=GPa)
#
#
# Indices 1 2 3 4 5 6 
#
# 1 16.4114 -0.9239 -11.1430 0.0000 0.0000 0.0000
# 2 -0.9239 61.3056 33.7147 0.0000 0.0000 0.0000
# 3 -11.1430 33.7147 127.1269 0.0000 0.0000 0.0000
# 4 0.0000 0.0000 0.0000 13.1895 0.0000 0.0000
# 5 0.0000 0.0000 0.0000 0.0000 25.0450 0.0000
# 6 0.0000 0.0000 0.0000 0.0000 0.0000 34.8260
#
#
#
# Elastic Compliance Matrix: (Units=1/GPa)
#
#
# Indices 1 2 3 4 5 6 
#
# 1 0.065121 -0.002526 0.006378 0.000000 0.000000 0.000000
# 2 -0.002526 0.019195 -0.005312 0.000000 0.000000 0.000000
# 3 0.006378 -0.005312 0.009834 0.000000 0.000000 0.000000
# 4 0.000000 0.000000 0.000000 0.075818 0.000000 0.000000
# 5 0.000000 0.000000 0.000000 0.000000 0.039928 0.000000
# 6 0.000000 0.000000 0.000000 0.000000 0.000000 0.028714
#
#
# Mechanical properties :
#
#
# Convention : Reuss Voigt Hill
#
# Bulk Modulus (GPa) = 10.96130 27.57106 19.26618
# Shear Modulus (GPa) = 18.38636 26.82518 22.60577
#
# Velocity S-wave (km/s) = 3.13723 3.78940 3.47863
# Velocity P-wave (km/s) = 4.35781 5.82278 5.14273
#
# Compressibility (1/GPa) = 0.09123003
#
# Stress axis : x y z
#
# Youngs Moduli (GPa) = 15.35594 52.09695 101.68828
#
# Poissons Ratio (x) = 0.13160 -0.64857
# Poissons Ratio (y) = 0.03879 0.54017
# Poissons Ratio (z) = -0.09794 0.27674
#
# Static dielectric constant tensor:
#      x y z
#    x 1.673000 0.000000 0.000000 
#    y 0.000000 1.659070 0.000000 
#    z 0.000000 0.000000 1.653310 
# 
# From -- ./inp_files/28251.got.cif
#   From: 2010.05.17/outbox.cif.g08.bks.cpg/sg51_15_cif.got.tgz:28251.got - 2010.06.03 11:52:47.
