data_PCOD9399458
_publ_section_title
;
Structure prediction by ZEFSAII (Michael W. Deem and Ramdas Pophale) SiO2 
 PCOD9399458
Probable space group: P M M A
;
_chemical_formula_sum "Si O2"
_cell_formula_units_Z 48
_cell_length_a 18.882559
_cell_length_b 15.245908
_cell_length_c 8.162970
_cell_angle_alpha 90.000000
_cell_angle_beta 90.000000
_cell_angle_gamma 90.000000
_cell_volume 2349.970149
_symmetry_space_group_name_H-M "P M M A"
_symmetry_group_IT_number 51
_symmetry_cell_setting 'orthorhombic'
loop_
_space_group_symop_operation_xyz
x,y,z
1/2-x,-y,z
1/2+x,-y,-z
-x,y,-z
-x,-y,-z
1/2+x,y,-z
1/2-x,y,z
x,-y,z
loop_
_atom_site_type_symbol
_atom_site_label
_atom_site_fract_x
_atom_site_fract_y
_atom_site_fract_z
Si Si1 0.332321 0.217838 0.986885
Si Si2 0.832721 0.000000 0.360113
Si Si3 0.166579 0.194934 0.602610
Si Si4 0.566341 0.328317 0.592673
Si Si5 0.832962 0.596824 0.856128
Si Si6 0.974723 0.000000 0.189518
Si Si7 0.038665 0.174519 0.173292
O O1 0.250000 0.200321 0.015247
O O2 0.347790 0.197024 0.798120
O O3 0.346031 0.321016 0.023775
O O4 0.380072 0.165957 0.116407
O O5 0.844096 0.093181 0.450612
O O6 0.890923 0.000000 0.215699
O O7 0.750000 0.000000 0.305272
O O8 0.250000 0.215905 0.578034
O O9 0.117452 0.266258 0.516332
O O10 0.500000 0.370914 0.500000
O O11 0.616480 0.390028 0.700378
O O12 0.530644 0.258917 0.716405
O O13 0.750000 0.602851 0.808006
O O14 0.844292 0.500000 0.928719
O O15 0.007473 0.088942 0.258897
O O16 0.000000 0.000000 0.000000
O O17 0.000000 0.188334 0.000000
#
# Coordination Sequence:
#
# PCOD9399458 Si02
#       7
#     8   4   8   8   8   4   8
#     4   9  18  34  56  76  99 134 177 220 264 318
#     4  10  20  33  51  73 106 146 183 218 256 308
#     4  10  20  35  54  79 108 141 180 220 261 307
#     4  11  21  33  54  79 108 141 173 215 265 318
#     4   9  19  37  58  78 102 135 174 218 269 322
#     4  10  18  31  49  73 103 136 181 228 265 302
#     4  10  20  34  51  74 106 142 180 219 262 312
#
# _framework density 20.425791
#
# number of rings (size 3 to 8) (size 9 to 14) (size 15 to 20)
#    0.000    2.167    0.000    4.500    0.000    1.667 
#    0.000    2.917    0.000   20.000    0.000    0.000 
#    0.000    0.000    0.000    0.000    0.000    0.000 
#
# Total GULP energy -267794.762999 kJ/mol
# GULP energy per Si atom -5579.057562 kJ/mol
# Density = 2.037930 g / cm^3
# Si number density = 20.425791 Si / 1000 Ang^3
#
#
#
# Elastic Constant Matrix: (Units=GPa)
#
#
# Indices 1 2 3 4 5 6 
#
# 1 63.1731 35.1535 13.3007 0.0000 0.0000 0.0000
# 2 35.1535 74.4277 6.3104 0.0000 0.0000 0.0000
# 3 13.3007 6.3104 24.6246 0.0000 0.0000 0.0000
# 4 0.0000 0.0000 0.0000 5.4044 0.0000 0.0000
# 5 0.0000 0.0000 0.0000 0.0000 30.2831 0.0000
# 6 0.0000 0.0000 0.0000 0.0000 0.0000 20.0512
#
#
#
# Elastic Compliance Matrix: (Units=1/GPa)
#
#
# Indices 1 2 3 4 5 6 
#
# 1 0.023726 -0.010344 -0.010164 0.000000 0.000000 0.000000
# 2 -0.010344 0.018244 0.000912 0.000000 0.000000 0.000000
# 3 -0.010164 0.000912 0.045866 0.000000 0.000000 0.000000
# 4 0.000000 0.000000 0.000000 0.185035 0.000000 0.000000
# 5 0.000000 0.000000 0.000000 0.000000 0.033022 0.000000
# 6 0.000000 0.000000 0.000000 0.000000 0.000000 0.049872
#
#
# Mechanical properties :
#
#
# Convention : Reuss Voigt Hill
#
# Bulk Modulus (GPa) = 20.55792 30.19496 25.37644
# Shear Modulus (GPa) = 12.16031 18.31178 15.23605
#
# Velocity S-wave (km/s) = 2.44261 2.99741 2.73412
# Velocity P-wave (km/s) = 4.24755 5.17631 4.73476
#
# Compressibility (1/GPa) = 0.04864304
#
# Stress axis : x y z
#
# Youngs Moduli (GPa) = 42.14825 54.81161 21.80250
#
# Poissons Ratio (x) = 0.56699 0.22161
# Poissons Ratio (y) = 0.43599 -0.01988
# Poissons Ratio (z) = 0.42841 -0.04999
#
# Static dielectric constant tensor:
#      x y z
#    x 1.786600 0.000000 0.000000 
#    y 0.000000 1.740420 0.000000 
#    z 0.000000 0.000000 1.725080 
# 
# From -- ./inp_files/9723.got.cif
#   From: 2010.05.17/outbox.cif.g08.bks.cpg/sg51_5_cif.got.tgz:9723.got - 2010.06.03 11:52:47.
