data_PCOD9399496
_publ_section_title
;
Structure prediction by ZEFSAII (Michael W. Deem and Ramdas Pophale) SiO2 
 PCOD9399496
Probable space group: P M M A
;
_chemical_formula_sum "Si O2"
_cell_formula_units_Z 56
_cell_length_a 8.997772
_cell_length_b 19.509068
_cell_length_c 18.926669
_cell_angle_alpha 90.000000
_cell_angle_beta 90.000000
_cell_angle_gamma 90.000000
_cell_volume 3322.352382
_symmetry_space_group_name_H-M "P M M A"
_symmetry_group_IT_number 51
_symmetry_cell_setting 'orthorhombic'
loop_
_space_group_symop_operation_xyz
x,y,z
1/2-x,-y,z
1/2+x,-y,-z
-x,y,-z
-x,-y,-z
1/2+x,y,-z
1/2-x,y,z
x,-y,z
loop_
_atom_site_type_symbol
_atom_site_label
_atom_site_fract_x
_atom_site_fract_y
_atom_site_fract_z
Si Si1 0.927410 0.578254 0.356994
Si Si2 0.927892 0.159530 0.073227
Si Si3 0.426924 0.714883 0.147975
Si Si4 0.572567 0.201676 0.708970
Si Si5 0.428161 0.709467 0.425089
Si Si6 0.072231 0.577895 0.811257
Si Si7 0.428744 0.921664 0.784761
O O1 0.750000 0.587955 0.366609
O O2 0.963768 0.500000 0.377487
O O3 0.957960 0.584847 0.272966
O O4 0.015741 0.635036 0.399801
O O5 0.750000 0.162355 0.067556
O O6 0.967845 0.109244 0.138189
O O7 0.992189 0.234052 0.094048
O O8 0.000000 0.136837 0.000000
O O9 0.250000 0.716676 0.137016
O O10 0.459693 0.746842 0.225765
O O11 0.488021 0.637936 0.148260
O O12 0.750000 0.192097 0.707454
O O13 0.526016 0.237179 0.636202
O O14 0.495806 0.130226 0.727709
O O15 0.500000 0.726248 0.500000
O O16 0.250000 0.709434 0.429909
O O17 0.250000 0.585394 0.820184
O O18 0.031367 0.500000 0.831588
O O19 0.250000 0.920060 0.779710
O O20 0.478831 0.000000 0.777472
#
# Coordination Sequence:
#
# PCOD9399496 Si02
#       7
#     8   8   8   8   8   8   8
#     4   9  18  32  49  70  98 133 172 213 260 311
#     4  10  20  34  52  77 109 142 171 202 242 292
#     4  10  18  31  51  74 100 132 172 215 255 299
#     4   9  19  34  51  74 102 130 167 211 253 299
#     4  11  22  35  50  72 100 134 174 217 262 310
#     4   9  17  29  47  72 100 130 168 214 261 306
#     4   9  19  35  56  82 108 135 167 201 242 294
#
# _framework density 16.855526999999999
#
# number of rings (size 3 to 8) (size 9 to 14) (size 15 to 20)
#    0.000    2.429    1.429    2.143    0.000    3.714 
#    0.000    1.429    0.000    0.857    0.000    0.000 
#    0.000    0.000    0.000    0.000    0.000    0.000 
#
# Total GULP energy -312402.645694 kJ/mol
# GULP energy per Si atom -5578.618673 kJ/mol
# Density = 1.681716 g / cm^3
# Si number density = 16.855527 Si / 1000 Ang^3
#
#
#
# Elastic Constant Matrix: (Units=GPa)
#
#
# Indices 1 2 3 4 5 6 
#
# 1 30.6692 39.2852 26.3208 0.0000 0.0000 0.0000
# 2 39.2852 128.7212 43.4199 0.0000 0.0000 0.0000
# 3 26.3208 43.4199 62.7975 0.0000 0.0000 0.0000
# 4 0.0000 0.0000 0.0000 13.4224 0.0000 0.0000
# 5 0.0000 0.0000 0.0000 0.0000 23.7718 0.0000
# 6 0.0000 0.0000 0.0000 0.0000 0.0000 27.4954
#
#
#
# Elastic Compliance Matrix: (Units=1/GPa)
#
#
# Indices 1 2 3 4 5 6 
#
# 1 0.066084 -0.014118 -0.017937 0.000000 0.000000 0.000000
# 2 -0.014118 0.013148 -0.003173 0.000000 0.000000 0.000000
# 3 -0.017937 -0.003173 0.025636 0.000000 0.000000 0.000000
# 4 0.000000 0.000000 0.000000 0.074503 0.000000 0.000000
# 5 0.000000 0.000000 0.000000 0.000000 0.042067 0.000000
# 6 0.000000 0.000000 0.000000 0.000000 0.000000 0.036370
#
#
# Mechanical properties :
#
#
# Convention : Reuss Voigt Hill
#
# Bulk Modulus (GPa) = 29.05971 48.91552 38.98762
# Shear Modulus (GPa) = 14.71738 20.48203 17.59970
#
# Velocity S-wave (km/s) = 2.95811 3.48969 3.23484
# Velocity P-wave (km/s) = 5.38007 6.73206 6.09368
#
# Compressibility (1/GPa) = 0.03441191
#
# Stress axis : x y z
#
# Youngs Moduli (GPa) = 15.13224 76.05709 39.00725
#
# Poissons Ratio (x) = 1.07380 0.69965
# Poissons Ratio (y) = 0.21364 0.12379
# Poissons Ratio (z) = 0.27142 0.24136
#
# Static dielectric constant tensor:
#      x y z
#    x 1.558250 0.000000 0.000000 
#    y 0.000000 1.558200 0.000000 
#    z 0.000000 0.000000 1.561150 
# 
# From -- ./inp_files/28208.got.cif
#   From: 2010.05.17/outbox.cif.g08.bks.cpg/sg51_15_cif.got.tgz:28208.got - 2010.06.03 11:52:47.
