data_PCOD9399885
_publ_section_title
;
Structure prediction by ZEFSAII (Michael W. Deem and Ramdas Pophale) SiO2 
 PCOD9399885
Probable space group: P M M A
;
_chemical_formula_sum "Si O2"
_cell_formula_units_Z 48
_cell_length_a 14.572351
_cell_length_b 11.966630
_cell_length_c 17.045402
_cell_angle_alpha 90.000000
_cell_angle_beta 90.000000
_cell_angle_gamma 90.000000
_cell_volume 2972.410144
_symmetry_space_group_name_H-M "P M M A"
_symmetry_group_IT_number 51
_symmetry_cell_setting 'orthorhombic'
loop_
_space_group_symop_operation_xyz
x,y,z
1/2-x,-y,z
1/2+x,-y,-z
-x,y,-z
-x,-y,-z
1/2+x,y,-z
1/2-x,y,z
x,-y,z
loop_
_atom_site_type_symbol
_atom_site_label
_atom_site_fract_x
_atom_site_fract_y
_atom_site_fract_z
Si Si1 0.574997 0.733198 0.069493
Si Si2 0.250000 0.134434 0.150272
Si Si3 0.982369 0.864777 0.629791
Si Si4 0.609265 0.500000 0.004958
Si Si5 0.646359 0.135057 0.483965
Si Si6 0.750000 0.131343 0.034774
Si Si7 0.432895 0.740853 0.211223
Si Si8 0.855588 0.500000 0.818247
O O1 0.626231 0.614917 0.050931
O O2 0.656427 0.821270 0.069778
O O3 0.514303 0.740888 0.147326
O O4 0.500000 0.751030 0.000000
O O5 0.157437 0.189659 0.184214
O O6 0.250000 0.000000 0.162263
O O7 0.250000 0.159970 0.057707
O O8 0.902915 0.837751 0.566230
O O9 0.966356 0.796344 0.708489
O O10 0.077802 0.834502 0.586560
O O11 0.980903 0.000000 0.643253
O O12 0.500000 0.500000 0.000000
O O13 0.641724 0.500000 0.914562
O O14 0.750000 0.178078 0.477923
O O15 0.649967 0.000000 0.482335
O O16 0.750000 0.000000 0.042199
O O17 0.402490 0.611713 0.213515
O O18 0.750000 0.500000 0.795163
#
# Coordination Sequence:
#
# PCOD9399885 Si02
#       8
#     8   4   8   4   8   4   8   4
#     4  11  21  37  56  75 103 145 191 235 280 317
#     4  11  22  33  51  77 104 141 183 222 273 330
#     4   9  19  33  53  84 114 142 176 219 276 330
#     4  10  18  34  58  76  92 131 195 244 276 304
#     4   8  15  32  57  81 107 142 183 222 263 319
#     4  11  24  37  49  73 106 149 191 218 271 346
#     4  12  22  36  54  81 113 141 179 231 283 329
#     4  12  22  34  56  82 109 139 181 240 291 323
#
# _framework density 16.148510999999999
#
# number of rings (size 3 to 8) (size 9 to 14) (size 15 to 20)
#    0.000    1.667    5.833    1.500    2.333    1.667 
#    1.500    0.000    0.000    2.000    0.000    1.167 
#    0.000    0.000    0.000    0.000    0.000    0.000 
#
# Total GULP energy -267545.064369 kJ/mol
# GULP energy per Si atom -5573.855508 kJ/mol
# Density = 1.611176 g / cm^3
# Si number density = 16.148511 Si / 1000 Ang^3
#
#
#
# Elastic Constant Matrix: (Units=GPa)
#
#
# Indices 1 2 3 4 5 6 
#
# 1 127.2824 45.6408 65.7760 0.0000 0.0000 0.0000
# 2 45.6408 25.5877 82.8934 0.0000 0.0000 0.0000
# 3 65.7760 82.8934 116.5054 0.0000 0.0000 0.0000
# 4 0.0000 0.0000 0.0000 21.8440 0.0000 0.0000
# 5 0.0000 0.0000 0.0000 0.0000 -29.7081 0.0000
# 6 0.0000 0.0000 0.0000 0.0000 0.0000 25.1777
#
#
#
# Elastic Compliance Matrix: (Units=1/GPa)
#
#
# Indices 1 2 3 4 5 6 
#
# 1 0.011088 -0.000385 -0.005986 0.000000 0.000000 0.000000
# 2 -0.000385 -0.029935 0.021516 0.000000 0.000000 0.000000
# 3 -0.005986 0.021516 -0.003346 0.000000 0.000000 0.000000
# 4 0.000000 0.000000 0.000000 0.045779 0.000000 0.000000
# 5 0.000000 0.000000 0.000000 0.000000 -0.033661 0.000000
# 6 0.000000 0.000000 0.000000 0.000000 0.000000 0.039718
#
#
# Mechanical properties :
#
#
# Convention : Reuss Voigt Hill
#
# Bulk Modulus (GPa) = 123.49837 73.11065 98.30451
# Shear Modulus (GPa) = 2435.92564 8.46709 1222.19636
#
# Velocity S-wave (km/s) = 38.88093 2.29230 27.54071
# Velocity P-wave (km/s) = 45.74143 7.23729 32.74643
#
# Compressibility (1/GPa) = 0.00809727
#
# Stress axis : x y z
#
# Youngs Moduli (GPa) = 90.18716 -33.40568 -298.90207
#
# Poissons Ratio (x) = -0.01285 -1.78931
# Poissons Ratio (y) = 0.03470 6.43116
# Poissons Ratio (z) = 0.53988 0.71876
#
# Static dielectric constant tensor:
#      x y z
#    x 1.541940 0.000000 0.000000 
#    y 0.000000 1.587590 0.000000 
#    z 0.000000 0.000000 1.530980 
# 
# From -- ./inp_files/24141.got.cif
#   From: 2010.05.17/outbox.cif.g08.bks.cpg/sg51_13_cif.got.tgz:24141.got - 2010.06.03 11:52:47.
