data_PCOD9399560
_publ_section_title
;
Structure prediction by ZEFSAII (Michael W. Deem and Ramdas Pophale) SiO2 
 PCOD9399560
Probable space group: P M M A
;
_chemical_formula_sum "Si O2"
_cell_formula_units_Z 64
_cell_length_a 19.758505
_cell_length_b 19.412387
_cell_length_c 9.961009
_cell_angle_alpha 90.000000
_cell_angle_beta 90.000000
_cell_angle_gamma 90.000000
_cell_volume 3820.642078
_symmetry_space_group_name_H-M "P M M A"
_symmetry_group_IT_number 51
_symmetry_cell_setting 'orthorhombic'
loop_
_space_group_symop_operation_xyz
x,y,z
1/2-x,-y,z
1/2+x,-y,-z
-x,y,-z
-x,-y,-z
1/2+x,y,-z
1/2-x,y,z
x,-y,z
loop_
_atom_site_type_symbol
_atom_site_label
_atom_site_fract_x
_atom_site_fract_y
_atom_site_fract_z
Si Si1 0.329133 0.324698 0.360875
Si Si2 0.044977 0.159504 0.127149
Si Si3 0.172702 0.826972 0.485503
Si Si4 0.922022 0.322021 0.889464
Si Si5 0.543566 0.204521 0.364231
Si Si6 0.569686 0.656404 0.191920
Si Si7 0.829407 0.581566 0.385869
Si Si8 0.173523 0.917943 0.223998
O O1 0.250000 0.332962 0.337071
O O2 0.340118 0.246483 0.411790
O O3 0.368174 0.336860 0.224324
O O4 0.348280 0.376431 0.479995
O O5 0.062325 0.240308 0.110807
O O6 0.113635 0.116762 0.140321
O O7 0.001859 0.158364 0.264851
O O8 0.000000 0.138343 0.000000
O O9 0.250000 0.825279 0.538291
O O10 0.113065 0.832015 0.592543
O O11 0.168251 0.885646 0.372959
O O12 0.991157 0.359870 0.842489
O O13 0.900821 0.336280 0.041801
O O14 0.500000 0.220021 0.500000
O O15 0.563791 0.273492 0.281104
O O16 0.617222 0.605068 0.273751
O O17 0.750000 0.598975 0.353931
O O18 0.832750 0.500000 0.407335
O O19 0.250000 0.900817 0.175932
O O20 0.166597 0.000000 0.226830
#
# Coordination Sequence:
#
# PCOD9399560 Si02
#       8
#     8   8   8   8   8   8   8   8
#     4  10  19  33  57  81 104 143 191 234 274 324
#     4  11  20  35  55  83 119 150 182 233 289 330
#     4  10  18  31  53  81 108 139 190 242 277 325
#     4  10  19  35  53  83 116 141 183 235 279 328
#     4  11  18  31  55  85 110 142 184 234 280 329
#     4  10  20  33  54  81 112 148 179 226 284 334
#     4  10  22  39  56  80 115 147 184 235 286 339
#     4  10  21  37  57  82 115 154 192 232 284 340
#
# _framework density 16.751111000000002
#
# number of rings (size 3 to 8) (size 9 to 14) (size 15 to 20)
#    0.000    1.750    6.250    0.750    0.000    0.750 
#    0.000    5.000    0.000    1.500    0.000    1.750 
#    0.000    0.000    0.000    0.000    0.000    0.000 
#
# Total GULP energy -356634.500115 kJ/mol
# GULP energy per Si atom -5572.414064 kJ/mol
# Density = 1.671299 g / cm^3
# Si number density = 16.751111 Si / 1000 Ang^3
#
#
#
# Elastic Constant Matrix: (Units=GPa)
#
#
# Indices 1 2 3 4 5 6 
#
# 1 84.0776 30.5416 68.1451 0.0000 0.0000 0.0000
# 2 30.5416 46.9385 29.7947 0.0000 0.0000 0.0000
# 3 68.1451 29.7947 122.1315 0.0000 0.0000 0.0000
# 4 0.0000 0.0000 0.0000 24.6635 0.0000 0.0000
# 5 0.0000 0.0000 0.0000 0.0000 31.7173 0.0000
# 6 0.0000 0.0000 0.0000 0.0000 0.0000 15.8223
#
#
#
# Elastic Compliance Matrix: (Units=1/GPa)
#
#
# Indices 1 2 3 4 5 6 
#
# 1 0.024288 -0.008521 -0.011473 0.000000 0.000000 0.000000
# 2 -0.008521 0.028197 -0.002125 0.000000 0.000000 0.000000
# 3 -0.011473 -0.002125 0.015108 0.000000 0.000000 0.000000
# 4 0.000000 0.000000 0.000000 0.040546 0.000000 0.000000
# 5 0.000000 0.000000 0.000000 0.000000 0.031529 0.000000
# 6 0.000000 0.000000 0.000000 0.000000 0.000000 0.063202
#
#
# Mechanical properties :
#
#
# Convention : Reuss Voigt Hill
#
# Bulk Modulus (GPa) = 42.81549 56.67894 49.74721
# Shear Modulus (GPa) = 19.61615 22.75169 21.18392
#
# Velocity S-wave (km/s) = 3.42575 3.68940 3.56002
# Velocity P-wave (km/s) = 6.42363 7.21514 6.83086
#
# Compressibility (1/GPa) = 0.02335603
#
# Stress axis : x y z
#
# Youngs Moduli (GPa) = 41.17252 35.46433 66.19087
#
# Poissons Ratio (x) = 0.30219 0.75942
# Poissons Ratio (y) = 0.35082 0.14063
# Poissons Ratio (z) = 0.47238 0.07535
#
# Static dielectric constant tensor:
#      x y z
#    x 1.592710 0.000000 0.000000 
#    y 0.000000 1.547590 0.000000 
#    z 0.000000 0.000000 1.573050 
# 
# From -- ./inp_files/11168.got.cif
#   From: 2010.05.17/outbox.cif.g08.bks.cpg/sg51_6_cif.got.tgz:11168.got - 2010.06.03 11:52:47.
