data_PCOD9399933
_publ_section_title
;
Structure prediction by ZEFSAII (Michael W. Deem and Ramdas Pophale) SiO2 
 PCOD9399933
Probable space group: P M M A
;
_chemical_formula_sum "Si O2"
_cell_formula_units_Z 44
_cell_length_a 8.245129
_cell_length_b 14.169438
_cell_length_c 19.292107
_cell_angle_alpha 90.000000
_cell_angle_beta 90.000000
_cell_angle_gamma 90.000000
_cell_volume 2253.874562
_symmetry_space_group_name_H-M "P M M A"
_symmetry_group_IT_number 51
_symmetry_cell_setting 'orthorhombic'
loop_
_space_group_symop_operation_xyz
x,y,z
1/2-x,-y,z
1/2+x,-y,-z
-x,y,-z
-x,-y,-z
1/2+x,y,-z
1/2-x,y,z
x,-y,z
loop_
_atom_site_type_symbol
_atom_site_label
_atom_site_fract_x
_atom_site_fract_y
_atom_site_fract_z
Si Si1 0.557305 0.500000 0.078995
Si Si2 0.053685 0.309656 0.156254
Si Si3 0.052197 0.606310 0.299854
Si Si4 0.558398 0.104617 0.837593
Si Si5 0.938969 0.892217 0.317658
Si Si6 0.943517 0.733872 0.578655
O O1 0.750000 0.500000 0.082818
O O2 0.496068 0.597035 0.114370
O O3 0.500000 0.500000 0.000000
O O4 0.250000 0.306361 0.155576
O O5 0.000002 0.329076 0.235620
O O6 0.994694 0.205170 0.133103
O O7 0.250000 0.606032 0.299027
O O8 0.996733 0.500000 0.287953
O O9 0.999584 0.646346 0.373791
O O10 0.750000 0.101207 0.853064
O O11 0.535931 0.114630 0.754481
O O12 0.489632 0.000000 0.856402
O O13 0.750000 0.873904 0.301855
O O14 0.998091 0.823665 0.377581
O O15 0.954182 0.000000 0.341722
O O16 0.750000 0.733732 0.578522
O O17 0.000000 0.731999 0.500000
#
# Coordination Sequence:
#
# PCOD9399933 Si02
#       6
#     4   8   8   8   8   8
#     4  12  26  42  62  94 127 158 191 232 279 333
#     4  10  18  35  62  89 119 156 191 233 283 337
#     4   9  17  32  55  79 104 139 183 224 276 338
#     4   9  17  31  55  87 119 153 193 233 280 340
#     4  10  20  33  50  74 105 140 181 234 288 337
#     4  11  22  36  52  72  99 140 186 236 292 348
#
# _framework density 19.521940000000001
#
# number of rings (size 3 to 8) (size 9 to 14) (size 15 to 20)
#    0.000    2.000    2.727    1.909    0.000    2.545 
#    0.000    0.000    0.000    0.545    0.000    0.000 
#    0.000    0.000    0.000    0.000    0.000    0.000 
#
# Total GULP energy -245298.126833 kJ/mol
# GULP energy per Si atom -5574.957428 kJ/mol
# Density = 1.947751 g / cm^3
# Si number density = 19.521940 Si / 1000 Ang^3
#
#
#
# Elastic Constant Matrix: (Units=GPa)
#
#
# Indices 1 2 3 4 5 6 
#
# 1 14.3698 14.8429 -7.4069 0.0000 0.0000 0.0000
# 2 14.8429 175.2428 27.0832 0.0000 0.0000 0.0000
# 3 -7.4069 27.0832 40.4919 0.0000 0.0000 0.0000
# 4 0.0000 0.0000 0.0000 16.7784 0.0000 0.0000
# 5 0.0000 0.0000 0.0000 0.0000 23.0098 0.0000
# 6 0.0000 0.0000 0.0000 0.0000 0.0000 14.5408
#
#
#
# Elastic Compliance Matrix: (Units=1/GPa)
#
#
# Indices 1 2 3 4 5 6 
#
# 1 0.095051 -0.011976 0.025397 0.000000 0.000000 0.000000
# 2 -0.011976 0.007873 -0.007457 0.000000 0.000000 0.000000
# 3 0.025397 -0.007457 0.034329 0.000000 0.000000 0.000000
# 4 0.000000 0.000000 0.000000 0.059601 0.000000 0.000000
# 5 0.000000 0.000000 0.000000 0.000000 0.043460 0.000000
# 6 0.000000 0.000000 0.000000 0.000000 0.000000 0.068772
#
#
# Mechanical properties :
#
#
# Convention : Reuss Voigt Hill
#
# Bulk Modulus (GPa) = 6.70315 33.23809 19.97062
# Shear Modulus (GPa) = 14.41401 23.90480 19.15940
#
# Velocity S-wave (km/s) = 2.72021 3.50310 3.13618
# Velocity P-wave (km/s) = 3.64789 5.78145 4.83386
#
# Compressibility (1/GPa) = 0.14918362
#
# Stress axis : x y z
#
# Youngs Moduli (GPa) = 10.52063 127.01462 29.12947
#
# Poissons Ratio (x) = 1.52110 -0.73981
# Poissons Ratio (y) = 0.12599 0.21721
# Poissons Ratio (z) = -0.26720 0.94710
#
# Static dielectric constant tensor:
#      x y z
#    x 1.678110 0.000000 0.000000 
#    y 0.000000 1.744720 0.000000 
#    z 0.000000 0.000000 1.426790 
# 
# From -- ./inp_files/27402.got.cif
#   From: 2010.05.17/outbox.cif.g08.bks.cpg/sg51_14_cif.got.tgz:27402.got - 2010.06.03 11:52:47.
