data_PCOD9399314
_publ_section_title
;
Structure prediction by ZEFSAII (Michael W. Deem and Ramdas Pophale) SiO2 
 PCOD9399314
Probable space group: P M M A
;
_chemical_formula_sum "Si O2"
_cell_formula_units_Z 48
_cell_length_a 16.439003
_cell_length_b 18.640929
_cell_length_c 9.454896
_cell_angle_alpha 90.000000
_cell_angle_beta 90.000000
_cell_angle_gamma 90.000000
_cell_volume 2897.342141
_symmetry_space_group_name_H-M "P M M A"
_symmetry_group_IT_number 51
_symmetry_cell_setting 'orthorhombic'
loop_
_space_group_symop_operation_xyz
x,y,z
1/2-x,-y,z
1/2+x,-y,-z
-x,y,-z
-x,-y,-z
1/2+x,y,-z
1/2-x,y,z
x,-y,z
loop_
_atom_site_type_symbol
_atom_site_label
_atom_site_fract_x
_atom_site_fract_y
_atom_site_fract_z
Si Si1 0.500722 0.164152 0.335998
Si Si2 0.583655 0.327442 0.919141
Si Si3 0.842096 0.175995 0.850779
Si Si4 0.584444 0.082084 0.089133
Si Si5 0.480633 0.335396 0.660159
Si Si6 0.345699 0.584501 0.829462
O O1 0.500000 0.141914 0.500000
O O2 0.411184 0.157058 0.265044
O O3 0.562399 0.120383 0.236487
O O4 0.523703 0.248637 0.330571
O O5 0.638301 0.257679 0.895830
O O6 0.552412 0.356516 0.769006
O O7 0.500000 0.304450 0.000000
O O8 0.626959 0.384836 0.018309
O O9 0.750000 0.169108 0.798819
O O10 0.855709 0.127093 0.989324
O O11 0.610546 0.000000 0.109079
O O12 0.500000 0.081709 0.000000
O O13 0.500000 0.355003 0.500000
O O14 0.399155 0.371986 0.716732
O O15 0.250000 0.595816 0.809485
O O16 0.363180 0.500000 0.820517
#
# Coordination Sequence:
#
# PCOD9399314 Si02
#       6
#     8   8   8   8   8   8
#     4   9  18  34  51  71  99 130 166 200 237 292
#     4   9  17  31  52  72  93 124 162 198 238 291
#     4  10  18  30  50  73  97 124 159 205 248 284
#     4   9  17  30  49  71  95 126 161 194 233 284
#     4   9  18  33  51  71  97 129 162 198 240 292
#     4  10  20  33  49  71  98 126 160 203 247 289
#
# _framework density 16.566908000000002
#
# number of rings (size 3 to 8) (size 9 to 14) (size 15 to 20)
#    0.000    2.667    0.000    4.000    0.000    4.000 
#    0.000    9.167    0.000    2.000    0.000    0.000 
#    0.000    0.000    0.000    0.000    0.000    0.000 
#
# Total GULP energy -267517.569742 kJ/mol
# GULP energy per Si atom -5573.282703 kJ/mol
# Density = 1.652920 g / cm^3
# Si number density = 16.566908 Si / 1000 Ang^3
#
#
#
# Elastic Constant Matrix: (Units=GPa)
#
#
# Indices 1 2 3 4 5 6 
#
# 1 83.3627 49.1395 46.0551 0.0000 0.0000 0.0000
# 2 49.1395 60.6210 53.6801 0.0000 0.0000 0.0000
# 3 46.0551 53.6801 153.3397 0.0000 0.0000 0.0000
# 4 0.0000 0.0000 0.0000 8.8910 0.0000 0.0000
# 5 0.0000 0.0000 0.0000 0.0000 9.5808 0.0000
# 6 0.0000 0.0000 0.0000 0.0000 0.0000 -2.2836
#
#
#
# Elastic Compliance Matrix: (Units=1/GPa)
#
#
# Indices 1 2 3 4 5 6 
#
# 1 0.023005 -0.018158 -0.000553 0.000000 0.000000 0.000000
# 2 -0.018158 0.038240 -0.007933 0.000000 0.000000 0.000000
# 3 -0.000553 -0.007933 0.009465 0.000000 0.000000 0.000000
# 4 0.000000 0.000000 0.000000 0.112473 0.000000 0.000000
# 5 0.000000 0.000000 0.000000 0.000000 0.104376 0.000000
# 6 0.000000 0.000000 0.000000 0.000000 0.000000 -0.437902
#
#
# Mechanical properties :
#
#
# Convention : Reuss Voigt Hill
#
# Bulk Modulus (GPa) = 57.40111 66.11919 61.76015
# Shear Modulus (GPa) = -54.79559 13.13421 -20.83069
#
# Velocity S-wave (km/s) = -5.75735 2.81872 -3.54978
# Velocity P-wave (km/s) = 3.07781 7.11271 4.53419
#
# Compressibility (1/GPa) = 0.01742127
#
# Stress axis : x y z
#
# Youngs Moduli (GPa) = 43.46896 26.15069 105.65730
#
# Poissons Ratio (x) = 0.47486 0.05839
# Poissons Ratio (y) = 0.78933 0.83817
# Poissons Ratio (z) = 0.02402 0.20745
#
# Static dielectric constant tensor:
#      x y z
#    x 1.546870 0.000000 0.000000 
#    y 0.000000 1.551010 0.000000 
#    z 0.000000 0.000000 1.560290 
# 
# From -- ./inp_files/8287.got.cif
#   From: 2010.05.17/outbox.cif.g08.bks.cpg/sg51_5_cif.got.tgz:8287.got - 2010.06.03 11:52:47.
