data_PCOD9399423
_publ_section_title
;
Structure prediction by ZEFSAII (Michael W. Deem and Ramdas Pophale) SiO2 
 PCOD9399423
Probable space group: P M M A
;
_chemical_formula_sum "Si O2"
_cell_formula_units_Z 64
_cell_length_a 29.936705
_cell_length_b 8.935783
_cell_length_c 12.727208
_cell_angle_alpha 90.000000
_cell_angle_beta 90.000000
_cell_angle_gamma 90.000000
_cell_volume 3404.628680
_symmetry_space_group_name_H-M "P M M A"
_symmetry_group_IT_number 51
_symmetry_cell_setting 'orthorhombic'
loop_
_space_group_symop_operation_xyz
x,y,z
1/2-x,-y,z
1/2+x,-y,-z
-x,y,-z
-x,-y,-z
1/2+x,y,-z
1/2-x,y,z
x,-y,z
loop_
_atom_site_type_symbol
_atom_site_label
_atom_site_fract_x
_atom_site_fract_y
_atom_site_fract_z
Si Si1 0.393014 0.178199 0.370631
Si Si2 0.559941 0.321912 0.829423
Si Si3 0.677707 0.675985 0.333883
Si Si4 0.700377 0.178256 0.117781
Si Si5 0.585748 0.177785 0.393587
Si Si6 0.965232 0.177607 0.192887
Si Si7 0.109674 0.678590 0.954021
Si Si8 0.700606 0.321294 0.574036
O O1 0.417818 0.255432 0.274687
O O2 0.416914 0.211754 0.482770
O O3 0.342031 0.236360 0.379739
O O4 0.393353 0.000000 0.356732
O O5 0.556076 0.500000 0.820430
O O6 0.510902 0.252926 0.842774
O O7 0.590246 0.288335 0.930752
O O8 0.681407 0.500000 0.309511
O O9 0.697680 0.770464 0.239182
O O10 0.626478 0.725475 0.348522
O O11 0.699045 0.702645 0.448027
O O12 0.750000 0.216369 0.077452
O O13 0.659462 0.259591 0.060996
O O14 0.694381 0.000000 0.111458
O O15 0.543923 0.203679 0.317309
O O16 0.597017 0.000000 0.384778
O O17 0.923549 0.244202 0.129077
O O18 0.967332 0.000000 0.175942
O O19 0.109208 0.500000 0.937447
O O20 0.750000 0.276915 0.612720
O O21 0.695119 0.500000 0.590977
#
# Coordination Sequence:
#
# PCOD9399423 Si02
#       8
#     8   8   8   8   8   8   8   8
#     4  10  21  38  59  84 117 155 198 243 292 348
#     4  11  25  43  61  84 116 154 200 249 297 348
#     4  10  18  30  53  84 119 156 192 232 283 344
#     4  11  23  37  56  85 120 155 191 236 292 351
#     4   9  19  35  56  86 123 156 187 233 289 342
#     4  11  22  38  64  93 121 153 191 238 297 355
#     4  11  24  42  63  87 117 153 196 247 294 344
#     4   9  18  33  54  82 116 154 196 240 288 344
#
# _framework density 18.797940000000001
#
# number of rings (size 3 to 8) (size 9 to 14) (size 15 to 20)
#    0.000    1.750    1.250    3.000    0.000    7.250 
#    0.000    3.125    0.000    0.750    0.000    0.000 
#    0.000    0.000    0.000    0.000    0.000    0.000 
#
# Total GULP energy -357468.522064 kJ/mol
# GULP energy per Si atom -5585.445657 kJ/mol
# Density = 1.875515 g / cm^3
# Si number density = 18.797940 Si / 1000 Ang^3
#
#
#
# Elastic Constant Matrix: (Units=GPa)
#
#
# Indices 1 2 3 4 5 6 
#
# 1 118.3711 47.7849 59.4461 0.0000 0.0000 0.0000
# 2 47.7849 53.6225 51.7143 0.0000 0.0000 0.0000
# 3 59.4461 51.7143 90.4234 0.0000 0.0000 0.0000
# 4 0.0000 0.0000 0.0000 27.8016 0.0000 0.0000
# 5 0.0000 0.0000 0.0000 0.0000 15.1290 0.0000
# 6 0.0000 0.0000 0.0000 0.0000 0.0000 33.6032
#
#
#
# Elastic Compliance Matrix: (Units=1/GPa)
#
#
# Indices 1 2 3 4 5 6 
#
# 1 0.014008 -0.008032 -0.004616 0.000000 0.000000 0.000000
# 2 -0.008032 0.046191 -0.021137 0.000000 0.000000 0.000000
# 3 -0.004616 -0.021137 0.026182 0.000000 0.000000 0.000000
# 4 0.000000 0.000000 0.000000 0.035969 0.000000 0.000000
# 5 0.000000 0.000000 0.000000 0.000000 0.066098 0.000000
# 6 0.000000 0.000000 0.000000 0.000000 0.000000 0.029759
#
#
# Mechanical properties :
#
#
# Convention : Reuss Voigt Hill
#
# Bulk Modulus (GPa) = 53.15667 64.47864 58.81765
# Shear Modulus (GPa) = 17.12041 22.20487 19.66264
#
# Velocity S-wave (km/s) = 3.02115 3.44064 3.23770
# Velocity P-wave (km/s) = 6.36468 7.08233 6.73307
#
# Compressibility (1/GPa) = 0.01881231
#
# Stress axis : x y z
#
# Youngs Moduli (GPa) = 71.38542 21.64914 38.19369
#
# Poissons Ratio (x) = 0.17388 0.17630
# Poissons Ratio (y) = 0.57335 0.80731
# Poissons Ratio (z) = 0.32952 0.45760
#
# Static dielectric constant tensor:
#      x y z
#    x 1.649320 0.000000 0.000000 
#    y 0.000000 1.623300 0.000000 
#    z 0.000000 0.000000 1.645590 
# 
# From -- ./inp_files/19585.got.cif
#   From: 2010.05.17/outbox.cif.g08.bks.cpg/sg51_10_cif.got.tgz:19585.got - 2010.06.03 11:52:47.
