data_PCOD9399961
_publ_section_title
;
Structure prediction by ZEFSAII (Michael W. Deem and Ramdas Pophale) SiO2 
 PCOD9399961
Probable space group: P M M A
;
_chemical_formula_sum "Si O2"
_cell_formula_units_Z 32
_cell_length_a 11.415495
_cell_length_b 15.465785
_cell_length_c 8.887650
_cell_angle_alpha 90.000000
_cell_angle_beta 90.000000
_cell_angle_gamma 90.000000
_cell_volume 1569.110975
_symmetry_space_group_name_H-M "P M M A"
_symmetry_group_IT_number 51
_symmetry_cell_setting 'orthorhombic'
loop_
_space_group_symop_operation_xyz
x,y,z
1/2-x,-y,z
1/2+x,-y,-z
-x,y,-z
-x,-y,-z
1/2+x,y,-z
1/2-x,y,z
x,-y,z
loop_
_atom_site_type_symbol
_atom_site_label
_atom_site_fract_x
_atom_site_fract_y
_atom_site_fract_z
Si Si1 0.437793 0.500000 0.751851
Si Si2 0.250000 0.500000 0.491831
Si Si3 0.884254 0.807393 0.391073
Si Si4 0.119031 0.000000 0.596172
Si Si5 0.250000 0.654220 0.254094
Si Si6 0.750000 0.500000 0.986053
Si Si7 0.510209 0.313838 0.821133
O O1 0.361028 0.500000 0.602237
O O2 0.508549 0.412501 0.763197
O O3 0.358725 0.500000 0.901293
O O4 0.250000 0.588201 0.394913
O O5 0.750000 0.793565 0.450964
O O6 0.000000 0.799911 0.500000
O O7 0.908409 0.738210 0.260830
O O8 0.885494 0.905859 0.327321
O O9 0.000000 0.000000 0.500000
O O10 0.250000 0.000000 0.519834
O O11 0.250000 0.586484 0.112845
O O12 0.137008 0.714321 0.236429
O O13 0.500000 0.310034 0.000000
#
# Coordination Sequence:
#
# PCOD9399961 Si02
#       7
#     4   2   8   4   4   2   8
#     4  11  23  39  59  82 118 169 212 261 317 369
#     4  10  26  38  62  84 114 160 216 274 316 360
#     4  10  24  42  69  98 129 162 209 263 321 380
#     4   8  16  40  67  94 124 162 200 254 321 384
#     4  11  24  40  58  87 124 162 218 270 307 374
#     4  10  18  40  60  76 114 172 224 250 308 372
#     4  12  26  40  61  88 126 173 219 256 315 373
#
# _framework density 20.393713000000002
#
# number of rings (size 3 to 8) (size 9 to 14) (size 15 to 20)
#    0.000    1.500    2.500    1.875   10.500    1.000 
#    0.000    0.625    0.000    0.000    0.000    0.000 
#    0.000    0.000    0.000    0.000    0.000    0.000 
#
# Total GULP energy -178409.492503 kJ/mol
# GULP energy per Si atom -5575.296641 kJ/mol
# Density = 2.034730 g / cm^3
# Si number density = 20.393713 Si / 1000 Ang^3
#
#
#
# Elastic Constant Matrix: (Units=GPa)
#
#
# Indices 1 2 3 4 5 6 
#
# 1 149.3986 27.2827 37.6392 0.0000 0.0000 0.0000
# 2 27.2827 82.2300 26.0980 0.0000 0.0000 0.0000
# 3 37.6392 26.0980 95.2398 0.0000 0.0000 0.0000
# 4 0.0000 0.0000 0.0000 -5.5918 0.0000 0.0000
# 5 0.0000 0.0000 0.0000 0.0000 16.1246 0.0000
# 6 0.0000 0.0000 0.0000 0.0000 0.0000 31.9353
#
#
#
# Elastic Compliance Matrix: (Units=1/GPa)
#
#
# Indices 1 2 3 4 5 6 
#
# 1 0.007652 -0.001729 -0.002550 0.000000 0.000000 0.000000
# 2 -0.001729 0.013710 -0.003073 0.000000 0.000000 0.000000
# 3 -0.002550 -0.003073 0.012350 0.000000 0.000000 0.000000
# 4 0.000000 0.000000 0.000000 -0.178832 0.000000 0.000000
# 5 0.000000 0.000000 0.000000 0.000000 0.062017 0.000000
# 6 0.000000 0.000000 0.000000 0.000000 0.000000 0.031313
#
#
# Mechanical properties :
#
#
# Convention : Reuss Voigt Hill
#
# Bulk Modulus (GPa) = 52.61528 56.54536 54.58032
# Shear Modulus (GPa) = -162.60964 24.21684 -69.19640
#
# Velocity S-wave (km/s) = -8.93914 3.44970 -5.83129
# Velocity P-wave (km/s) = 8.98268 6.60714 4.30316
#
# Compressibility (1/GPa) = 0.01900589
#
# Stress axis : x y z
#
# Youngs Moduli (GPa) = 130.68833 72.93809 80.97276
#
# Poissons Ratio (x) = 0.12614 0.20649
# Poissons Ratio (y) = 0.22601 0.24887
# Poissons Ratio (z) = 0.33327 0.22417
#
# Static dielectric constant tensor:
#      x y z
#    x 1.844710 0.000000 0.000000 
#    y 0.000000 1.755780 0.000000 
#    z 0.000000 0.000000 1.708500 
# 
# From -- ./inp_files/6795.got.cif
#   From: 2010.05.17/outbox.cif.g08.bks.cpg/sg51_4_cif.got.tgz:6795.got - 2010.06.03 11:52:47.
