data_PCOD9399554
_publ_section_title
;
Structure prediction by ZEFSAII (Michael W. Deem and Ramdas Pophale) SiO2 
 PCOD9399554
Probable space group: P M M A
;
_chemical_formula_sum "Si O2"
_cell_formula_units_Z 56
_cell_length_a 16.221823
_cell_length_b 7.914151
_cell_length_c 20.843444
_cell_angle_alpha 90.000000
_cell_angle_beta 90.000000
_cell_angle_gamma 90.000000
_cell_volume 2675.922125
_symmetry_space_group_name_H-M "P M M A"
_symmetry_group_IT_number 51
_symmetry_cell_setting 'orthorhombic'
loop_
_space_group_symop_operation_xyz
x,y,z
1/2-x,-y,z
1/2+x,-y,-z
-x,y,-z
-x,-y,-z
1/2+x,y,-z
1/2-x,y,z
x,-y,z
loop_
_atom_site_type_symbol
_atom_site_label
_atom_site_fract_x
_atom_site_fract_y
_atom_site_fract_z
Si Si1 0.339636 0.191532 0.884935
Si Si2 0.344444 0.704429 0.170072
Si Si3 0.838312 0.698878 0.390908
Si Si4 0.010220 0.808675 0.430250
Si Si5 0.055826 0.797707 0.291886
Si Si6 0.014471 0.697219 0.070495
Si Si7 0.377443 0.308565 0.754223
O O1 0.250000 0.260213 0.905820
O O2 0.423027 0.289833 0.900566
O O3 0.342314 0.189128 0.808039
O O4 0.346774 0.000000 0.909570
O O5 0.250000 0.758210 0.155909
O O6 0.346254 0.500000 0.168769
O O7 0.371362 0.757464 0.242130
O O8 0.414181 0.765596 0.118481
O O9 0.750000 0.747693 0.418704
O O10 0.853763 0.500000 0.405988
O O11 0.836202 0.710150 0.314355
O O12 0.915137 0.809999 0.409681
O O13 0.057107 0.737530 0.366841
O O14 0.000000 0.722508 0.500000
O O15 0.042287 0.000000 0.440441
O O16 0.974222 0.720696 0.259118
O O17 0.045556 0.000000 0.295292
O O18 0.036617 0.500000 0.061477
O O19 0.000000 0.775364 0.000000
O O20 0.363994 0.500000 0.776642
#
# Coordination Sequence:
#
# PCOD9399554 Si02
#       7
#     8   8   8   8   8   8   8
#     4  11  23  36  53  82 118 151 183 224 277 337
#     4  10  21  38  60  86 116 152 195 243 293 347
#     4   9  18  31  48  74 105 135 172 218 267 325
#     4   9  19  35  53  75 106 144 184 227 278 337
#     4  10  19  33  56  83 110 144 187 234 284 337
#     4  10  22  40  62  86 113 150 194 241 292 345
#     4  10  18  31  53  79 109 143 177 218 272 329
#
# _framework density 20.927365000000002
#
# number of rings (size 3 to 8) (size 9 to 14) (size 15 to 20)
#    0.000    2.143    1.429    1.714    0.000    4.571 
#    0.000    2.143    0.000    4.286    0.000    0.000 
#    0.000    0.000    0.000    0.000    0.000    0.000 
#
# Total GULP energy -311817.094793 kJ/mol
# GULP energy per Si atom -5568.162407 kJ/mol
# Density = 2.087973 g / cm^3
# Si number density = 20.927365 Si / 1000 Ang^3
#
#
#
# Elastic Constant Matrix: (Units=GPa)
#
#
# Indices 1 2 3 4 5 6 
#
# 1 115.1046 3.3480 50.2061 0.0000 0.0000 0.0000
# 2 3.3480 28.0763 9.8012 0.0000 0.0000 0.0000
# 3 50.2061 9.8012 127.2748 0.0000 0.0000 0.0000
# 4 0.0000 0.0000 0.0000 13.3866 0.0000 0.0000
# 5 0.0000 0.0000 0.0000 0.0000 0.3736 0.0000
# 6 0.0000 0.0000 0.0000 0.0000 0.0000 1.0979
#
#
#
# Elastic Compliance Matrix: (Units=1/GPa)
#
#
# Indices 1 2 3 4 5 6 
#
# 1 0.010494 0.000199 -0.004155 0.000000 0.000000 0.000000
# 2 0.000199 0.036605 -0.002897 0.000000 0.000000 0.000000
# 3 -0.004155 -0.002897 0.009719 0.000000 0.000000 0.000000
# 4 0.000000 0.000000 0.000000 0.074701 0.000000 0.000000
# 5 0.000000 0.000000 0.000000 0.000000 2.676959 0.000000
# 6 0.000000 0.000000 0.000000 0.000000 0.000000 0.910848
#
#
# Mechanical properties :
#
#
# Convention : Reuss Voigt Hill
#
# Bulk Modulus (GPa) = 23.19554 44.12960 33.66257
# Shear Modulus (GPa) = 1.33426 16.77831 9.05628
#
# Velocity S-wave (km/s) = 0.79934 2.83457 2.08252
# Velocity P-wave (km/s) = 3.45830 5.64322 4.68005
#
# Compressibility (1/GPa) = 0.04311174
#
# Stress axis : x y z
#
# Youngs Moduli (GPa) = 95.28997 27.31866 102.88950
#
# Poissons Ratio (x) = -0.00544 0.42751
# Poissons Ratio (y) = -0.01897 0.29811
# Poissons Ratio (z) = 0.39593 0.07915
#
# Static dielectric constant tensor:
#      x y z
#    x 1.764680 0.000000 0.000000 
#    y 0.000000 1.782640 0.000000 
#    z 0.000000 0.000000 1.824910 
# 
# From -- ./inp_files/33424.got.cif
#   From: 2010.05.17/outbox.cif.g08.bks.cpg/sg51_17_cif.got.tgz:33424.got - 2010.06.03 11:52:47.
