data_PCOD9399276
_publ_section_title
;
Structure prediction by ZEFSAII (Michael W. Deem and Ramdas Pophale) SiO2 
 PCOD9399276
Probable space group: P M M A
;
_chemical_formula_sum "Si O2"
_cell_formula_units_Z 56
_cell_length_a 8.593558
_cell_length_b 19.554441
_cell_length_c 19.236539
_cell_angle_alpha 90.000000
_cell_angle_beta 90.000000
_cell_angle_gamma 90.000000
_cell_volume 3232.550774
_symmetry_space_group_name_H-M "P M M A"
_symmetry_group_IT_number 51
_symmetry_cell_setting 'orthorhombic'
loop_
_space_group_symop_operation_xyz
x,y,z
1/2-x,-y,z
1/2+x,-y,-z
-x,y,-z
-x,-y,-z
1/2+x,y,-z
1/2-x,y,z
x,-y,z
loop_
_atom_site_type_symbol
_atom_site_label
_atom_site_fract_x
_atom_site_fract_y
_atom_site_fract_z
Si Si1 0.560901 0.292172 0.289007
Si Si2 0.938469 0.577807 0.203621
Si Si3 0.063404 0.074010 0.420997
Si Si4 0.935951 0.783374 0.422021
Si Si5 0.935531 0.338710 0.924022
Si Si6 0.936551 0.078744 0.922503
Si Si7 0.436883 0.792158 0.845254
O O1 0.750000 0.291790 0.290079
O O2 0.512062 0.366342 0.261055
O O3 0.508564 0.271945 0.365872
O O4 0.514630 0.236021 0.230858
O O5 0.750000 0.580284 0.199298
O O6 0.984886 0.500000 0.218048
O O7 0.006068 0.605492 0.131352
O O8 0.250000 0.080572 0.422581
O O9 0.000000 0.071720 0.500000
O O10 0.988678 0.142751 0.392331
O O11 0.024184 0.000000 0.388701
O O12 0.750000 0.782685 0.426540
O O13 0.000000 0.774723 0.500000
O O14 0.750000 0.335875 0.924585
O O15 0.001902 0.265732 0.898213
O O16 0.000000 0.353988 0.000000
O O17 0.750000 0.082441 0.924176
O O18 0.999798 0.134570 0.868681
O O19 0.981713 0.000000 0.906147
O O20 0.000000 0.094195 0.000000
O O21 0.250000 0.793030 0.847676
#
# Coordination Sequence:
#
# PCOD9399276 Si02
#       7
#     8   8   8   8   8   8   8
#     4   8  17  33  52  74  97 124 159 198 241 294
#     4   9  18  35  57  77  98 127 163 201 241 286
#     4   9  16  26  41  63  91 121 153 189 230 276
#     4  10  18  30  49  72  98 126 160 200 241 288
#     4  11  21  33  50  74 104 134 165 200 240 287
#     4  10  20  33  49  71  99 132 171 213 256 298
#     4  10  19  34  53  71  95 128 169 211 251 295
#
# _framework density 17.323782000000001
#
# number of rings (size 3 to 8) (size 9 to 14) (size 15 to 20)
#    0.000    2.429    0.000    5.143    0.000    2.286 
#    0.000    7.857    0.000    4.714    0.000    0.000 
#    0.000    0.000    0.000    0.000    0.000    0.571 
#
# Total GULP energy -312182.239693 kJ/mol
# GULP energy per Si atom -5574.682852 kJ/mol
# Density = 1.728435 g / cm^3
# Si number density = 17.323782 Si / 1000 Ang^3
#
#
#
# Elastic Constant Matrix: (Units=GPa)
#
#
# Indices 1 2 3 4 5 6 
#
# 1 53.5707 34.8862 26.6785 0.0000 0.0000 0.0000
# 2 34.8862 136.6056 77.7226 0.0000 0.0000 0.0000
# 3 26.6785 77.7226 101.9197 0.0000 0.0000 0.0000
# 4 0.0000 0.0000 0.0000 12.4729 0.0000 0.0000
# 5 0.0000 0.0000 0.0000 0.0000 16.9243 0.0000
# 6 0.0000 0.0000 0.0000 0.0000 0.0000 21.5794
#
#
#
# Elastic Compliance Matrix: (Units=1/GPa)
#
#
# Indices 1 2 3 4 5 6 
#
# 1 0.022803 -0.004288 -0.002699 0.000000 0.000000 0.000000
# 2 -0.004288 0.013737 -0.009353 0.000000 0.000000 0.000000
# 3 -0.002699 -0.009353 0.017651 0.000000 0.000000 0.000000
# 4 0.000000 0.000000 0.000000 0.080174 0.000000 0.000000
# 5 0.000000 0.000000 0.000000 0.000000 0.059087 0.000000
# 6 0.000000 0.000000 0.000000 0.000000 0.000000 0.046341
#
#
# Mechanical properties :
#
#
# Convention : Reuss Voigt Hill
#
# Bulk Modulus (GPa) = 46.48844 63.40786 54.94815
# Shear Modulus (GPa) = 17.87996 20.38257 19.13126
#
# Velocity S-wave (km/s) = 3.21612 3.43383 3.32676
# Velocity P-wave (km/s) = 6.37845 7.23897 6.82229
#
# Compressibility (1/GPa) = 0.02151072
#
# Stress axis : x y z
#
# Youngs Moduli (GPa) = 43.85309 72.79639 56.65450
#
# Poissons Ratio (x) = 0.31213 0.15292
# Poissons Ratio (y) = 0.18803 0.52990
# Poissons Ratio (z) = 0.11837 0.68088
#
# Static dielectric constant tensor:
#      x y z
#    x 1.585380 0.000000 0.000000 
#    y 0.000000 1.612570 0.000000 
#    z 0.000000 0.000000 1.603820 
# 
# From -- ./inp_files/32253.got.cif
#   From: 2010.05.17/outbox.cif.g08.bks.cpg/sg51_17_cif.got.tgz:32253.got - 2010.06.03 11:52:47.
