data_PCOD9399564
_publ_section_title
;
Structure prediction by ZEFSAII (Michael W. Deem and Ramdas Pophale) SiO2 
 PCOD9399564
Probable space group: P M M A
;
_chemical_formula_sum "Si O2"
_cell_formula_units_Z 58
_cell_length_a 7.710871
_cell_length_b 27.085256
_cell_length_c 13.913472
_cell_angle_alpha 90.000000
_cell_angle_beta 90.000000
_cell_angle_gamma 90.000000
_cell_volume 2905.841358
_symmetry_space_group_name_H-M "P M M A"
_symmetry_group_IT_number 51
_symmetry_cell_setting 'orthorhombic'
loop_
_space_group_symop_operation_xyz
x,y,z
1/2-x,-y,z
1/2+x,-y,-z
-x,y,-z
-x,-y,-z
1/2+x,y,-z
1/2-x,y,z
x,-y,z
loop_
_atom_site_type_symbol
_atom_site_label
_atom_site_fract_x
_atom_site_fract_y
_atom_site_fract_z
Si Si1 0.457265 0.054906 0.790510
Si Si2 0.952940 0.583042 0.684684
Si Si3 0.044532 0.152649 0.107426
Si Si4 0.543334 0.884610 0.392268
Si Si5 0.042609 0.557680 0.893168
Si Si6 0.954742 0.212559 0.712241
Si Si7 0.042226 0.690770 0.388866
Si Si8 0.250000 0.500000 0.646611
O O1 0.250000 0.051038 0.781574
O O2 0.489972 0.096549 0.869997
O O3 0.523440 0.078147 0.689974
O O4 0.526037 0.000000 0.809585
O O5 0.750000 0.572647 0.656680
O O6 0.009104 0.636217 0.644603
O O7 0.960409 0.583598 0.801302
O O8 0.094342 0.542772 0.651972
O O9 0.250000 0.153329 0.117694
O O10 0.970290 0.188393 0.190412
O O11 0.000000 0.167576 0.000000
O O12 0.500000 0.899814 0.500000
O O13 0.750000 0.881858 0.383029
O O14 0.472977 0.830233 0.367580
O O15 0.250000 0.558078 0.880411
O O16 0.985964 0.500000 0.889916
O O17 0.000000 0.576526 0.000000
O O18 0.750000 0.220478 0.728551
O O19 0.029217 0.264098 0.674803
O O20 0.250000 0.691613 0.379762
O O21 0.000000 0.698757 0.500000
#
# Coordination Sequence:
#
# PCOD9399564 Si02
#       8
#     8   8   8   8   8   8   8   2
#     4   9  19  35  52  73 107 149 195 244 288 336
#     4  11  22  39  61  87 122 157 197 248 292 343
#     4  10  20  35  58  83 114 148 189 235 285 348
#     4  10  19  31  50  78 108 142 188 235 289 348
#     4  10  18  31  53  83 113 149 189 231 277 330
#     4   9  19  38  59  84 110 144 184 233 287 341
#     4  10  23  40  63  86 115 148 186 233 287 341
#     4  12  22  40  64  86 120 162 204 238 294 352
#
# _framework density 19.959796000000001
#
# number of rings (size 3 to 8) (size 9 to 14) (size 15 to 20)
#    0.000    2.069    1.379    1.862    0.966    4.138 
#    0.000    1.034    0.000    1.655    0.000    0.000 
#    0.000    0.000    0.000    0.000    0.000    0.000 
#
# Total GULP energy -323081.694627 kJ/mol
# GULP energy per Si atom -5570.374045 kJ/mol
# Density = 1.991437 g / cm^3
# Si number density = 19.959796 Si / 1000 Ang^3
#
#
#
# Elastic Constant Matrix: (Units=GPa)
#
#
# Indices 1 2 3 4 5 6 
#
# 1 67.1824 36.7518 -0.4738 0.0000 0.0000 0.0000
# 2 36.7518 148.2617 47.2997 0.0000 0.0000 0.0000
# 3 -0.4738 47.2997 79.5784 0.0000 0.0000 0.0000
# 4 0.0000 0.0000 0.0000 15.4118 0.0000 0.0000
# 5 0.0000 0.0000 0.0000 0.0000 25.2680 0.0000
# 6 0.0000 0.0000 0.0000 0.0000 0.0000 15.0862
#
#
#
# Elastic Compliance Matrix: (Units=1/GPa)
#
#
# Indices 1 2 3 4 5 6 
#
# 1 0.017932 -0.005527 0.003392 0.000000 0.000000 0.000000
# 2 -0.005527 0.010027 -0.005993 0.000000 0.000000 0.000000
# 3 0.003392 -0.005993 0.016148 0.000000 0.000000 0.000000
# 4 0.000000 0.000000 0.000000 0.064885 0.000000 0.000000
# 5 0.000000 0.000000 0.000000 0.000000 0.039576 0.000000
# 6 0.000000 0.000000 0.000000 0.000000 0.000000 0.066286
#
#
# Mechanical properties :
#
#
# Convention : Reuss Voigt Hill
#
# Bulk Modulus (GPa) = 35.90426 51.35311 43.62868
# Shear Modulus (GPa) = 20.79918 25.24953 23.02436
#
# Velocity S-wave (km/s) = 3.23159 3.56057 3.40006
# Velocity P-wave (km/s) = 5.65257 6.53358 6.10898
#
# Compressibility (1/GPa) = 0.02785185
#
# Stress axis : x y z
#
# Youngs Moduli (GPa) = 55.76470 99.73277 61.92599
#
# Poissons Ratio (x) = 0.55126 -0.21006
# Poissons Ratio (y) = 0.30823 0.37110
# Poissons Ratio (z) = -0.18916 0.59766
#
# Static dielectric constant tensor:
#      x y z
#    x 1.729630 0.000000 0.000000 
#    y 0.000000 1.707960 0.000000 
#    z 0.000000 0.000000 1.714280 
# 
# From -- ./inp_files/22135.got.cif
#   From: 2010.05.17/outbox.cif.g08.bks.cpg/sg51_12_cif.got.tgz:22135.got - 2010.06.03 11:52:47.
