data_PCOD9399651
_publ_section_title
;
Structure prediction by ZEFSAII (Michael W. Deem and Ramdas Pophale) SiO2 
 PCOD9399651
Probable space group: P M M A
;
_chemical_formula_sum "Si O2"
_cell_formula_units_Z 56
_cell_length_a 21.372333
_cell_length_b 7.559874
_cell_length_c 15.551208
_cell_angle_alpha 90.000000
_cell_angle_beta 90.000000
_cell_angle_gamma 90.000000
_cell_volume 2512.642027
_symmetry_space_group_name_H-M "P M M A"
_symmetry_group_IT_number 51
_symmetry_cell_setting 'orthorhombic'
loop_
_space_group_symop_operation_xyz
x,y,z
1/2-x,-y,z
1/2+x,-y,-z
-x,y,-z
-x,-y,-z
1/2+x,y,-z
1/2-x,y,z
x,-y,z
loop_
_atom_site_type_symbol
_atom_site_label
_atom_site_fract_x
_atom_site_fract_y
_atom_site_fract_z
Si Si1 0.250000 0.287161 0.781949
Si Si2 0.610949 0.200991 0.669889
Si Si3 0.614135 0.785110 0.475622
Si Si4 0.971509 0.708804 0.311455
Si Si5 0.119416 0.713380 0.838508
Si Si6 0.750000 0.790413 0.417596
Si Si7 0.822301 0.293612 0.842493
Si Si8 0.430154 0.712086 0.026405
O O1 0.250000 0.500000 0.793429
O O2 0.312576 0.214078 0.821175
O O3 0.250000 0.245591 0.682475
O O4 0.606158 0.278218 0.573469
O O5 0.538725 0.203283 0.697310
O O6 0.654522 0.283153 0.743396
O O7 0.633904 0.000000 0.660932
O O8 0.563663 0.731837 0.403131
O O9 0.683678 0.722618 0.450891
O O10 0.611447 0.000000 0.475493
O O11 0.982158 0.500000 0.299517
O O12 0.927731 0.777664 0.234653
O O13 0.120012 0.500000 0.826394
O O14 0.103668 0.741899 0.936428
O O15 0.750000 0.000000 0.435578
O O16 0.750000 0.223447 0.851850
O O17 0.818194 0.500000 0.867114
O O18 0.881329 0.221367 0.899906
O O19 0.438712 0.500000 0.044539
O O20 0.500000 0.778856 0.000000
#
# Coordination Sequence:
#
# PCOD9399651 Si02
#       8
#     4   8   8   8   8   4   8   8
#     4  10  18  32  52  81 114 144 186 229 278 339
#     4  11  24  40  60  81 111 155 200 239 284 345
#     4  10  22  38  57  81 112 152 197 237 282 343
#     4  11  21  36  59  88 120 149 185 238 294 343
#     4   9  18  30  53  85 115 147 180 224 281 343
#     4  10  20  36  56  77 108 148 190 235 278 331
#     4  10  22  39  60  88 118 149 194 250 297 340
#     4   9  17  32  56  85 117 151 186 230 287 349
#
# _framework density 22.287298
#
# number of rings (size 3 to 8) (size 9 to 14) (size 15 to 20)
#    0.000    2.000    1.429    2.143    2.000    5.429 
#    0.000    0.000    0.000    5.571    0.000    0.000 
#    0.000    0.000    0.000    0.000    0.000    0.000 
#
# Total GULP energy -312279.396876 kJ/mol
# GULP energy per Si atom -5576.417801 kJ/mol
# Density = 2.223657 g / cm^3
# Si number density = 22.287298 Si / 1000 Ang^3
#
#
#
# Elastic Constant Matrix: (Units=GPa)
#
#
# Indices 1 2 3 4 5 6 
#
# 1 102.5648 -5.3488 -2.9050 0.0000 0.0000 0.0000
# 2 -5.3488 55.4558 -8.3305 0.0000 0.0000 0.0000
# 3 -2.9050 -8.3305 16.7103 0.0000 0.0000 0.0000
# 4 0.0000 0.0000 0.0000 30.7378 0.0000 0.0000
# 5 0.0000 0.0000 0.0000 0.0000 -64.6201 0.0000
# 6 0.0000 0.0000 0.0000 0.0000 0.0000 5.1311
#
#
#
# Elastic Compliance Matrix: (Units=1/GPa)
#
#
# Indices 1 2 3 4 5 6 
#
# 1 0.009885 0.001310 0.002371 0.000000 0.000000 0.000000
# 2 0.001310 0.019666 0.010032 0.000000 0.000000 0.000000
# 3 0.002371 0.010032 0.065256 0.000000 0.000000 0.000000
# 4 0.000000 0.000000 0.000000 0.032533 0.000000 0.000000
# 5 0.000000 0.000000 0.000000 0.000000 -0.015475 0.000000
# 6 0.000000 0.000000 0.000000 0.000000 0.000000 0.194891
#
#
# Mechanical properties :
#
#
# Convention : Reuss Voigt Hill
#
# Bulk Modulus (GPa) = 8.18111 15.72915 11.95513
# Shear Modulus (GPa) = 15.62129 7.00410 11.31270
#
# Velocity S-wave (km/s) = 2.65033 1.77467 2.25541
# Velocity P-wave (km/s) = 3.61171 3.35739 3.48687
#
# Compressibility (1/GPa) = 0.12223282
#
# Stress axis : x y z
#
# Youngs Moduli (GPa) = 101.15928 50.85016 15.32415
#
# Poissons Ratio (x) = -0.06660 -0.03634
# Poissons Ratio (y) = -0.13249 -0.15372
# Poissons Ratio (z) = -0.23989 -0.51010
#
# Static dielectric constant tensor:
#      x y z
#    x 1.789840 0.000000 0.000000 
#    y 0.000000 1.852440 0.000000 
#    z 0.000000 0.000000 1.687020 
# 
# From -- ./inp_files/25907.got.cif
#   From: 2010.05.17/outbox.cif.g08.bks.cpg/sg51_13_cif.got.tgz:25907.got - 2010.06.03 11:52:47.
