data_PCOD9399139
_publ_section_title
;
Structure prediction by ZEFSAII (Michael W. Deem and Ramdas Pophale) SiO2 
 PCOD9399139
Probable space group: P M M A
;
_chemical_formula_sum "Si O2"
_cell_formula_units_Z 60
_cell_length_a 8.774589
_cell_length_b 17.404882
_cell_length_c 23.758488
_cell_angle_alpha 90.000000
_cell_angle_beta 90.000000
_cell_angle_gamma 90.000000
_cell_volume 3628.412589
_symmetry_space_group_name_H-M "P M M A"
_symmetry_group_IT_number 51
_symmetry_cell_setting 'orthorhombic'
loop_
_space_group_symop_operation_xyz
x,y,z
1/2-x,-y,z
1/2+x,-y,-z
-x,y,-z
-x,-y,-z
1/2+x,y,-z
1/2-x,y,z
x,-y,z
loop_
_atom_site_type_symbol
_atom_site_label
_atom_site_fract_x
_atom_site_fract_y
_atom_site_fract_z
Si Si1 0.932101 0.660584 0.937380
Si Si2 0.426047 0.174874 0.261920
Si Si3 0.933595 0.913520 0.361525
Si Si4 0.933440 0.414298 0.243438
Si Si5 0.932406 0.731120 0.166482
Si Si6 0.567553 0.769355 0.437935
Si Si7 0.574113 0.673807 0.658064
Si Si8 0.933245 0.500000 0.063268
O O1 0.750000 0.654244 0.940734
O O2 0.985836 0.724942 0.893535
O O3 0.003103 0.580237 0.914166
O O4 0.000000 0.672397 0.000000
O O5 0.250000 0.158191 0.249577
O O6 0.500162 0.109856 0.300821
O O7 0.515069 0.198427 0.205602
O O8 0.431680 0.250761 0.301704
O O9 0.750000 0.910378 0.358195
O O10 0.981181 0.848784 0.406709
O O11 0.979372 0.000000 0.377134
O O12 0.750000 0.413333 0.245092
O O13 0.982978 0.500000 0.226534
O O14 0.978887 0.346069 0.201169
O O15 0.996095 0.392085 0.304889
O O16 0.750000 0.730851 0.159790
O O17 0.500000 0.765453 0.500000
O O18 0.750000 0.768404 0.440177
O O19 0.509907 0.700039 0.398445
O O20 0.750000 0.655686 0.646920
O O21 0.750000 0.500000 0.064507
O O22 0.000000 0.500000 0.000000
#
# Coordination Sequence:
#
# PCOD9399139 Si02
#       8
#     8   8   8   8   8   8   8   4
#     4  11  21  33  46  64  89 122 160 200 242 286
#     4   9  17  30  47  68  93 121 155 194 233 275
#     4   9  18  32  49  70  98 130 159 188 226 273
#     4   9  18  31  47  68  91 117 149 190 239 286
#     4  10  19  31  48  68  92 124 158 196 237 282
#     4  10  19  31  48  69  94 125 159 192 225 269
#     4   9  17  30  47  66  89 118 152 191 232 276
#     4  10  18  30  44  58  80 114 154 192 233 280
#
# _framework density 16.536156999999999
#
# number of rings (size 3 to 8) (size 9 to 14) (size 15 to 20)
#    0.000    2.400    0.000    4.200    0.933    5.067 
#    0.000    0.000    0.000    0.400    0.000    0.000 
#    0.000    0.533    0.000    2.000    0.000    3.067 
#
# Total GULP energy -334467.944390 kJ/mol
# GULP energy per Si atom -5574.465740 kJ/mol
# Density = 1.649852 g / cm^3
# Si number density = 16.536157 Si / 1000 Ang^3
#
#
#
# Elastic Constant Matrix: (Units=GPa)
#
#
# Indices 1 2 3 4 5 6 
#
# 1 62.1289 1.8342 35.5698 0.0000 0.0000 0.0000
# 2 1.8342 14.5423 14.6806 0.0000 0.0000 0.0000
# 3 35.5698 14.6806 104.9531 0.0000 0.0000 0.0000
# 4 0.0000 0.0000 0.0000 18.7646 0.0000 0.0000
# 5 0.0000 0.0000 0.0000 0.0000 27.7100 0.0000
# 6 0.0000 0.0000 0.0000 0.0000 0.0000 15.4997
#
#
#
# Elastic Compliance Matrix: (Units=1/GPa)
#
#
# Indices 1 2 3 4 5 6 
#
# 1 0.020291 0.005104 -0.007591 0.000000 0.000000 0.000000
# 2 0.005104 0.081355 -0.013109 0.000000 0.000000 0.000000
# 3 -0.007591 -0.013109 0.013934 0.000000 0.000000 0.000000
# 4 0.000000 0.000000 0.000000 0.053292 0.000000 0.000000
# 5 0.000000 0.000000 0.000000 0.000000 0.036088 0.000000
# 6 0.000000 0.000000 0.000000 0.000000 0.000000 0.064517
#
#
# Mechanical properties :
#
#
# Convention : Reuss Voigt Hill
#
# Bulk Modulus (GPa) = 11.85014 31.75484 21.80249
# Shear Modulus (GPa) = 15.20684 21.03086 18.11885
#
# Velocity S-wave (km/s) = 3.03580 3.57011 3.31374
# Velocity P-wave (km/s) = 4.41247 6.01990 5.27774
#
# Compressibility (1/GPa) = 0.08438722
#
# Stress axis : x y z
#
# Youngs Moduli (GPa) = 49.28381 12.29177 71.76524
#
# Poissons Ratio (x) = -0.06273 0.54474
# Poissons Ratio (y) = -0.25152 0.94080
# Poissons Ratio (z) = 0.37409 0.16114
#
# Static dielectric constant tensor:
#      x y z
#    x 1.552060 0.000000 0.000000 
#    y 0.000000 1.565450 0.000000 
#    z 0.000000 0.000000 1.537110 
# 
# From -- ./inp_files/32426.got.cif
#   From: 2010.05.17/outbox.cif.g08.bks.cpg/sg51_17_cif.got.tgz:32426.got - 2010.06.03 11:52:47.
