data_PCOD9399764
_publ_section_title
;
Structure prediction by ZEFSAII (Michael W. Deem and Ramdas Pophale) SiO2 
 PCOD9399764
Probable space group: P M M A
;
_chemical_formula_sum "Si O2"
_cell_formula_units_Z 48
_cell_length_a 10.424241
_cell_length_b 15.393758
_cell_length_c 17.851288
_cell_angle_alpha 90.000000
_cell_angle_beta 90.000000
_cell_angle_gamma 90.000000
_cell_volume 2864.564826
_symmetry_space_group_name_H-M "P M M A"
_symmetry_group_IT_number 51
_symmetry_cell_setting 'orthorhombic'
loop_
_space_group_symop_operation_xyz
x,y,z
1/2-x,-y,z
1/2+x,-y,-z
-x,y,-z
-x,-y,-z
1/2+x,y,-z
1/2-x,y,z
x,-y,z
loop_
_atom_site_type_symbol
_atom_site_label
_atom_site_fract_x
_atom_site_fract_y
_atom_site_fract_z
Si Si1 0.500000 0.656320 0.000000
Si Si2 0.900315 0.397900 0.566990
Si Si3 0.014039 0.901377 0.241687
Si Si4 0.750000 0.902126 0.152098
Si Si5 0.250000 0.901848 0.126466
Si Si6 0.750000 0.226167 0.013196
Si Si7 0.595885 0.276902 0.709001
Si Si8 0.596286 0.402786 0.843247
O O1 0.623900 0.715481 0.013189
O O2 0.471247 0.605137 0.076480
O O3 0.750000 0.383448 0.545868
O O4 0.911054 0.500000 0.587727
O O5 0.930786 0.337093 0.637590
O O6 0.000000 0.381556 0.500000
O O7 0.125016 0.892831 0.178685
O O8 0.035653 0.818802 0.294710
O O9 0.876706 0.893369 0.202268
O O10 0.025490 0.000000 0.273022
O O11 0.750000 0.834732 0.085265
O O12 0.750000 0.000000 0.120504
O O13 0.250000 0.000000 0.095358
O O14 0.250000 0.831854 0.061516
O O15 0.750000 0.267120 0.713527
O O16 0.555276 0.328838 0.784335
O O17 0.750000 0.392863 0.854649
O O18 0.575340 0.500000 0.812176
#
# Coordination Sequence:
#
# PCOD9399764 Si02
#       8
#     4   8   8   4   4   4   8   8
#     4  12  23  34  49  70  98 136 171 218 270 310
#     4   9  18  34  57  85 115 142 168 205 255 308
#     4  10  20  34  52  74 102 132 169 215 261 306
#     4  10  21  34  46  67 100 135 169 215 272 319
#     4  10  19  32  50  71  94 127 173 223 264 305
#     4  12  21  32  49  68  94 128 172 216 268 322
#     4  10  18  32  57  82 103 134 178 217 252 302
#     4  10  20  35  52  72  98 133 180 224 259 302
#
# _framework density 16.756471000000001
#
# number of rings (size 3 to 8) (size 9 to 14) (size 15 to 20)
#    0.000    1.833    1.667    4.000    0.000    2.000 
#    1.500    3.333    0.000    0.500    0.000    0.000 
#    0.000    0.000    0.000    0.000    0.000    0.000 
#
# Total GULP energy -267804.972691 kJ/mol
# GULP energy per Si atom -5579.270264 kJ/mol
# Density = 1.671833 g / cm^3
# Si number density = 16.756471 Si / 1000 Ang^3
#
#
#
# Elastic Constant Matrix: (Units=GPa)
#
#
# Indices 1 2 3 4 5 6 
#
# 1 88.2427 40.7008 30.2059 0.0000 0.0000 0.0000
# 2 40.7008 120.9576 56.8464 0.0000 0.0000 0.0000
# 3 30.2059 56.8464 73.9745 0.0000 0.0000 0.0000
# 4 0.0000 0.0000 0.0000 73.4236 0.0000 0.0000
# 5 0.0000 0.0000 0.0000 0.0000 20.7199 0.0000
# 6 0.0000 0.0000 0.0000 0.0000 0.0000 10.0181
#
#
#
# Elastic Compliance Matrix: (Units=1/GPa)
#
#
# Indices 1 2 3 4 5 6 
#
# 1 0.013898 -0.003146 -0.003258 0.000000 0.000000 0.000000
# 2 -0.003146 0.013653 -0.009207 0.000000 0.000000 0.000000
# 3 -0.003258 -0.009207 0.021924 0.000000 0.000000 0.000000
# 4 0.000000 0.000000 0.000000 0.013620 0.000000 0.000000
# 5 0.000000 0.000000 0.000000 0.000000 0.048263 0.000000
# 6 0.000000 0.000000 0.000000 0.000000 0.000000 0.099819
#
#
# Mechanical properties :
#
#
# Convention : Reuss Voigt Hill
#
# Bulk Modulus (GPa) = 54.78323 59.85343 57.31833
# Shear Modulus (GPa) = 20.12208 31.19375 25.65792
#
# Velocity S-wave (km/s) = 3.46909 4.31930 3.91733
# Velocity P-wave (km/s) = 6.98648 7.78924 7.39876
#
# Compressibility (1/GPa) = 0.01825376
#
# Stress axis : x y z
#
# Youngs Moduli (GPa) = 71.95060 73.24417 45.61224
#
# Poissons Ratio (x) = 0.23039 0.14860
# Poissons Ratio (y) = 0.22632 0.41997
# Poissons Ratio (z) = 0.23441 0.67438
#
# Static dielectric constant tensor:
#      x y z
#    x 1.548010 0.000000 0.000000 
#    y 0.000000 1.594130 0.000000 
#    z 0.000000 0.000000 1.532000 
# 
# From -- ./inp_files/27717.got.cif
#   From: 2010.05.17/outbox.cif.g08.bks.cpg/sg51_14_cif.got.tgz:27717.got - 2010.06.03 11:52:47.
