data_PCOD9399230
_publ_section_title
;
Structure prediction by ZEFSAII (Michael W. Deem and Ramdas Pophale) SiO2 
 PCOD9399230
Probable space group: P M M A
;
_chemical_formula_sum "Si O2"
_cell_formula_units_Z 64
_cell_length_a 29.458202
_cell_length_b 8.830165
_cell_length_c 15.957816
_cell_angle_alpha 90.000000
_cell_angle_beta 90.000000
_cell_angle_gamma 90.000000
_cell_volume 4150.959613
_symmetry_space_group_name_H-M "P M M A"
_symmetry_group_IT_number 51
_symmetry_cell_setting 'orthorhombic'
loop_
_space_group_symop_operation_xyz
x,y,z
1/2-x,-y,z
1/2+x,-y,-z
-x,y,-z
-x,-y,-z
1/2+x,y,-z
1/2-x,y,z
x,-y,z
loop_
_atom_site_type_symbol
_atom_site_label
_atom_site_fract_x
_atom_site_fract_y
_atom_site_fract_z
Si Si1 0.303221 0.819026 0.317735
Si Si2 0.354246 0.183461 0.836857
Si Si3 0.949490 0.816457 0.095809
Si Si4 0.194911 0.674438 0.493438
Si Si5 0.302887 0.682539 0.996439
Si Si6 0.357958 0.681443 0.163622
Si Si7 0.696871 0.182402 0.331165
Si Si8 0.948743 0.183107 0.899876
O O1 0.250000 0.775208 0.306837
O O2 0.318515 0.762124 0.409345
O O3 0.332852 0.746982 0.244481
O O4 0.305850 0.000000 0.314331
O O5 0.406297 0.233866 0.850745
O O6 0.325237 0.244412 0.914722
O O7 0.332246 0.231423 0.749012
O O8 0.353177 0.000000 0.839318
O O9 0.999917 0.768734 0.123084
O O10 0.950151 0.000000 0.097156
O O11 0.942564 0.774696 0.998152
O O12 0.250000 0.679451 0.494915
O O13 0.180820 0.500000 0.488545
O O14 0.180511 0.748330 0.581093
O O15 0.250000 0.724680 0.003448
O O16 0.305574 0.500000 0.989481
O O17 0.330106 0.727985 0.080001
O O18 0.358067 0.500000 0.167506
O O19 0.408798 0.743245 0.152956
O O20 0.750000 0.223814 0.318312
O O21 0.694982 0.000000 0.337254
O O22 0.945807 0.000000 0.894386
#
# Coordination Sequence:
#
# PCOD9399230 Si02
#       8
#     8   8   8   8   8   8   8   8
#     4  10  20  33  50  71  94 122 157 195 232 274
#     4  10  18  30  48  69  91 121 161 198 232 273
#     4   8  15  28  48  69  90 118 155 201 245 278
#     4   9  17  30  48  68  91 121 154 189 230 274
#     4  10  21  33  42  58  91 130 160 188 226 271
#     4  11  21  32  46  67  95 127 159 194 235 280
#     4   9  17  28  43  66  95 123 153 191 229 268
#     4   9  16  30  49  67  89 120 158 200 241 281
#
# _framework density 15.418122
#
# number of rings (size 3 to 8) (size 9 to 14) (size 15 to 20)
#    0.000    2.500    1.250    2.625    0.000    4.500 
#    0.000    3.125    0.000    0.000    0.000    0.875 
#    0.000    7.000    0.000    0.000    0.000    0.000 
#
# Total GULP energy -356786.800546 kJ/mol
# GULP energy per Si atom -5574.793759 kJ/mol
# Density = 1.538303 g / cm^3
# Si number density = 15.418122 Si / 1000 Ang^3
#
#
#
# Elastic Constant Matrix: (Units=GPa)
#
#
# Indices 1 2 3 4 5 6 
#
# 1 110.7890 29.1969 69.9021 0.0000 0.0000 0.0000
# 2 29.1969 25.7906 36.8706 0.0000 0.0000 0.0000
# 3 69.9021 36.8706 133.7552 0.0000 0.0000 0.0000
# 4 0.0000 0.0000 0.0000 23.5004 0.0000 0.0000
# 5 0.0000 0.0000 0.0000 0.0000 8.1554 0.0000
# 6 0.0000 0.0000 0.0000 0.0000 0.0000 15.0215
#
#
#
# Elastic Compliance Matrix: (Units=1/GPa)
#
#
# Indices 1 2 3 4 5 6 
#
# 1 0.014717 -0.009350 -0.005114 0.000000 0.000000 0.000000
# 2 -0.009350 0.069932 -0.014391 0.000000 0.000000 0.000000
# 3 -0.005114 -0.014391 0.014116 0.000000 0.000000 0.000000
# 4 0.000000 0.000000 0.000000 0.042552 0.000000 0.000000
# 5 0.000000 0.000000 0.000000 0.000000 0.122619 0.000000
# 6 0.000000 0.000000 0.000000 0.000000 0.000000 0.066571
#
#
# Mechanical properties :
#
#
# Convention : Reuss Voigt Hill
#
# Bulk Modulus (GPa) = 24.35718 60.25269 42.30493
# Shear Modulus (GPa) = 12.44086 18.29314 15.36700
#
# Velocity S-wave (km/s) = 2.84368 3.44825 3.16046
# Velocity P-wave (km/s) = 5.15888 7.41741 6.38874
#
# Compressibility (1/GPa) = 0.04105565
#
# Stress axis : x y z
#
# Youngs Moduli (GPa) = 67.95001 14.29958 70.84210
#
# Poissons Ratio (x) = 0.13370 0.36227
# Poissons Ratio (y) = 0.63531 1.01949
# Poissons Ratio (z) = 0.34749 0.20579
#
# Static dielectric constant tensor:
#      x y z
#    x 1.513000 0.000000 0.000000 
#    y 0.000000 1.515140 0.000000 
#    z 0.000000 0.000000 1.491450 
# 
# From -- ./inp_files/26569.got.cif
#   From: 2010.05.17/outbox.cif.g08.bks.cpg/sg51_14_cif.got.tgz:26569.got - 2010.06.03 11:52:47.
