data_PCOD9399397
_publ_section_title
;
Structure prediction by ZEFSAII (Michael W. Deem and Ramdas Pophale) SiO2 
 PCOD9399397
Probable space group: P M M A
;
_chemical_formula_sum "Si O2"
_cell_formula_units_Z 64
_cell_length_a 8.627659
_cell_length_b 15.755546
_cell_length_c 25.442302
_cell_angle_alpha 90.000000
_cell_angle_beta 90.000000
_cell_angle_gamma 90.000000
_cell_volume 3458.460605
_symmetry_space_group_name_H-M "P M M A"
_symmetry_group_IT_number 51
_symmetry_cell_setting 'orthorhombic'
loop_
_space_group_symop_operation_xyz
x,y,z
1/2-x,-y,z
1/2+x,-y,-z
-x,y,-z
-x,-y,-z
1/2+x,y,-z
1/2-x,y,z
x,-y,z
loop_
_atom_site_type_symbol
_atom_site_label
_atom_site_fract_x
_atom_site_fract_y
_atom_site_fract_z
Si Si1 0.564758 0.645000 0.209221
Si Si2 0.935493 0.772632 0.943690
Si Si3 0.566405 0.825119 0.760412
Si Si4 0.564149 0.097565 0.558426
Si Si5 0.437145 0.591849 0.098982
Si Si6 0.563655 0.219437 0.352083
Si Si7 0.063083 0.408029 0.672797
Si Si8 0.934714 0.904858 0.140149
O O1 0.750000 0.658430 0.205705
O O2 0.478870 0.734783 0.213832
O O3 0.504393 0.598634 0.157753
O O4 0.533965 0.598934 0.264603
O O5 0.750000 0.773328 0.944647
O O6 0.989353 0.676164 0.931397
O O7 0.992641 0.835002 0.898076
O O8 0.000000 0.799577 0.000000
O O9 0.750000 0.834103 0.756513
O O10 0.493455 0.822107 0.702473
O O11 0.497029 0.892484 0.800822
O O12 0.500000 0.113480 0.500000
O O13 0.750000 0.102626 0.557775
O O14 0.497987 0.164706 0.599637
O O15 0.520748 0.000000 0.572640
O O16 0.250000 0.594815 0.101914
O O17 0.482392 0.500000 0.076230
O O18 0.750000 0.220092 0.352087
O O19 0.508718 0.318479 0.351681
O O20 0.250000 0.408586 0.666376
O O21 0.003970 0.500000 0.653675
O O22 0.750000 0.893901 0.140608
O O23 0.971807 0.000000 0.121697
#
# Coordination Sequence:
#
# PCOD9399397 Si02
#       8
#     8   8   8   8   8   8   8   8
#     4  10  18  30  52  80 111 148 190 231 276 332
#     4  11  24  42  63  84 111 147 185 233 283 337
#     4  11  21  35  56  83 118 155 188 228 281 339
#     4  10  21  38  60  85 114 150 193 242 294 347
#     4  10  21  36  55  82 114 147 184 228 280 336
#     4  10  20  34  56  86 119 156 195 239 284 335
#     4   8  15  28  47  76 113 150 189 230 273 323
#     4  11  24  42  64  88 113 143 183 233 286 344
#
# _framework density 18.505343
#
# number of rings (size 3 to 8) (size 9 to 14) (size 15 to 20)
#    0.000    1.875    1.250    4.125    0.000    4.000 
#    0.000    0.000    0.000    7.875    0.000    0.000 
#    0.000    0.000    0.000    0.000    0.000    0.000 
#
# Total GULP energy -357239.726778 kJ/mol
# GULP energy per Si atom -5581.870731 kJ/mol
# Density = 1.846322 g / cm^3
# Si number density = 18.505343 Si / 1000 Ang^3
#
#
#
# Elastic Constant Matrix: (Units=GPa)
#
#
# Indices 1 2 3 4 5 6 
#
# 1 45.1733 37.3232 22.8721 0.0000 0.0000 0.0000
# 2 37.3232 119.8423 66.5004 0.0000 0.0000 0.0000
# 3 22.8721 66.5004 95.1111 0.0000 0.0000 0.0000
# 4 0.0000 0.0000 0.0000 -1.3759 0.0000 0.0000
# 5 0.0000 0.0000 0.0000 0.0000 31.1410 0.0000
# 6 0.0000 0.0000 0.0000 0.0000 0.0000 18.8392
#
#
#
# Elastic Compliance Matrix: (Units=1/GPa)
#
#
# Indices 1 2 3 4 5 6 
#
# 1 0.029878 -0.008689 -0.001109 0.000000 0.000000 0.000000
# 2 -0.008689 0.016161 -0.009210 0.000000 0.000000 0.000000
# 3 -0.001109 -0.009210 0.017220 0.000000 0.000000 0.000000
# 4 0.000000 0.000000 0.000000 -0.726811 0.000000 0.000000
# 5 0.000000 0.000000 0.000000 0.000000 0.032112 0.000000
# 6 0.000000 0.000000 0.000000 0.000000 0.000000 0.053081
#
#
# Mechanical properties :
#
#
# Convention : Reuss Voigt Hill
#
# Bulk Modulus (GPa) = 39.61698 57.05756 48.33727
# Shear Modulus (GPa) = -9.39980 18.61626 4.60823
#
# Velocity S-wave (km/s) = -2.25622 3.17518 1.57975
# Velocity P-wave (km/s) = 3.82982 6.65900 5.43184
#
# Compressibility (1/GPa) = 0.02524170
#
# Stress axis : x y z
#
# Youngs Moduli (GPa) = 33.46924 61.87681 58.07083
#
# Poissons Ratio (x) = 0.53768 0.06443
# Poissons Ratio (y) = 0.29083 0.53483
# Poissons Ratio (z) = 0.03713 0.56989
#
# Static dielectric constant tensor:
#      x y z
#    x 1.681450 0.000000 0.000000 
#    y 0.000000 1.687770 0.000000 
#    z 0.000000 0.000000 1.598500 
# 
# From -- ./inp_files/35002.got.cif
#   From: 2010.05.17/outbox.cif.g08.bks.cpg/sg51_18_cif.got.tgz:35002.got - 2010.06.03 11:52:47.
