data_PCOD9399818
_publ_section_title
;
Structure prediction by ZEFSAII (Michael W. Deem and Ramdas Pophale) SiO2 
 PCOD9399818
Probable space group: P M M A
;
_chemical_formula_sum "Si O2"
_cell_formula_units_Z 64
_cell_length_a 7.889272
_cell_length_b 20.758828
_cell_length_c 20.533591
_cell_angle_alpha 90.000000
_cell_angle_beta 90.000000
_cell_angle_gamma 90.000000
_cell_volume 3362.828097
_symmetry_space_group_name_H-M "P M M A"
_symmetry_group_IT_number 51
_symmetry_cell_setting 'orthorhombic'
loop_
_space_group_symop_operation_xyz
x,y,z
1/2-x,-y,z
1/2+x,-y,-z
-x,y,-z
-x,-y,-z
1/2+x,y,-z
1/2-x,y,z
x,-y,z
loop_
_atom_site_type_symbol
_atom_site_label
_atom_site_fract_x
_atom_site_fract_y
_atom_site_fract_z
Si Si1 0.047607 0.114794 0.429486
Si Si2 0.057235 0.601139 0.570567
Si Si3 0.448595 0.829945 0.182080
Si Si4 0.550391 0.071173 0.288700
Si Si5 0.045275 0.072496 0.074922
Si Si6 0.046070 0.741499 0.400122
Si Si7 0.543772 0.291739 0.748286
Si Si8 0.051221 0.569741 0.286753
O O1 0.250000 0.114305 0.422893
O O2 0.989201 0.189570 0.426367
O O3 0.000000 0.087619 0.500000
O O4 0.974960 0.080769 0.365755
O O5 0.250000 0.582469 0.581299
O O6 0.000000 0.577306 0.500000
O O7 0.040037 0.678799 0.569914
O O8 0.958581 0.578994 0.634879
O O9 0.250000 0.820232 0.167460
O O10 0.461680 0.873600 0.246957
O O11 0.521896 0.873180 0.123917
O O12 0.520887 0.759526 0.199045
O O13 0.750000 0.074827 0.274586
O O14 0.486783 0.000000 0.270219
O O15 0.250000 0.071363 0.080435
O O16 0.983857 0.000000 0.091279
O O17 0.000000 0.085284 0.000000
O O18 0.250000 0.735284 0.408878
O O19 0.009440 0.737592 0.323116
O O20 0.750000 0.294510 0.753396
O O21 0.479164 0.365230 0.745695
O O22 0.250000 0.568105 0.269889
O O23 0.975738 0.500000 0.270180
#
# Coordination Sequence:
#
# PCOD9399818 Si02
#       8
#     8   8   8   8   8   8   8   8
#     4  11  22  36  53  70  90 120 159 208 261 313
#     4  11  21  31  45  65  89 118 153 195 242 299
#     4  10  18  33  56  79 101 131 170 210 248 292
#     4  11  24  38  51  71  98 127 163 207 254 305
#     4   9  18  31  49  75 108 144 176 204 241 291
#     4   9  17  32  50  69  91 116 150 195 249 302
#     4   8  14  28  50  74  95 117 153 198 242 287
#     4   9  18  33  50  67  92 124 154 192 245 302
#
# _framework density 19.031600000000001
#
# number of rings (size 3 to 8) (size 9 to 14) (size 15 to 20)
#    0.000    2.250    1.250    3.375    0.000    4.750 
#    0.000    1.250    0.000    0.000    0.000    0.000 
#    0.000    0.500    0.000    0.375    0.000    0.750 
#
# Total GULP energy -357174.879188 kJ/mol
# GULP energy per Si atom -5580.857487 kJ/mol
# Density = 1.898828 g / cm^3
# Si number density = 19.031600 Si / 1000 Ang^3
#
#
#
# Elastic Constant Matrix: (Units=GPa)
#
#
# Indices 1 2 3 4 5 6 
#
# 1 23.4932 -0.7079 -3.4591 0.0000 0.0000 0.0000
# 2 -0.7079 140.8719 55.1443 0.0000 0.0000 0.0000
# 3 -3.4591 55.1443 79.6061 0.0000 0.0000 0.0000
# 4 0.0000 0.0000 0.0000 34.5484 0.0000 0.0000
# 5 0.0000 0.0000 0.0000 0.0000 16.2153 0.0000
# 6 0.0000 0.0000 0.0000 0.0000 0.0000 -13.0379
#
#
#
# Elastic Compliance Matrix: (Units=1/GPa)
#
#
# Indices 1 2 3 4 5 6 
#
# 1 0.042891 -0.000705 0.002352 0.000000 0.000000 0.000000
# 2 -0.000705 0.009751 -0.006785 0.000000 0.000000 0.000000
# 3 0.002352 -0.006785 0.017364 0.000000 0.000000 0.000000
# 4 0.000000 0.000000 0.000000 0.028945 0.000000 0.000000
# 5 0.000000 0.000000 0.000000 0.000000 0.061670 0.000000
# 6 0.000000 0.000000 0.000000 0.000000 0.000000 -0.076699
#
#
# Mechanical properties :
#
#
# Convention : Reuss Voigt Hill
#
# Bulk Modulus (GPa) = 16.74219 38.43621 27.58920
# Shear Modulus (GPa) = 43.81794 20.41144 32.11469
#
# Velocity S-wave (km/s) = 4.80352 3.27846 4.11230
# Velocity P-wave (km/s) = 6.29136 5.87970 6.08901
#
# Compressibility (1/GPa) = 0.05972933
#
# Stress axis : x y z
#
# Youngs Moduli (GPa) = 23.31514 102.55060 57.58886
#
# Poissons Ratio (x) = 0.07232 -0.13546
# Poissons Ratio (y) = 0.01644 0.39077
# Poissons Ratio (z) = -0.05484 0.69586
#
# Static dielectric constant tensor:
#      x y z
#    x 1.683080 0.000000 0.000000 
#    y 0.000000 1.722300 0.000000 
#    z 0.000000 0.000000 1.645040 
# 
# From -- ./inp_files/32550.got.cif
#   From: 2010.05.17/outbox.cif.g08.bks.cpg/sg51_17_cif.got.tgz:32550.got - 2010.06.03 11:52:47.
