data_PCOD9399209
_publ_section_title
;
Structure prediction by ZEFSAII (Michael W. Deem and Ramdas Pophale) SiO2 
 PCOD9399209
Probable space group: P M M A
;
_chemical_formula_sum "Si O2"
_cell_formula_units_Z 32
_cell_length_a 14.559034
_cell_length_b 17.363144
_cell_length_c 4.931290
_cell_angle_alpha 90.000000
_cell_angle_beta 90.000000
_cell_angle_gamma 90.000000
_cell_volume 1246.583777
_symmetry_space_group_name_H-M "P M M A"
_symmetry_group_IT_number 51
_symmetry_cell_setting 'orthorhombic'
loop_
_space_group_symop_operation_xyz
x,y,z
1/2-x,-y,z
1/2+x,-y,-z
-x,y,-z
-x,-y,-z
1/2+x,y,-z
1/2-x,y,z
x,-y,z
loop_
_atom_site_type_symbol
_atom_site_label
_atom_site_fract_x
_atom_site_fract_y
_atom_site_fract_z
Si Si1 0.388415 0.085581 0.982688
Si Si2 0.403645 0.318965 0.122212
Si Si3 0.111291 0.176935 0.478058
Si Si4 0.355097 0.413069 0.600201
O O1 0.358372 0.152798 0.776959
O O2 0.360540 0.000000 0.899070
O O3 0.500000 0.085923 0.000000
O O4 0.360597 0.106851 0.284888
O O5 0.360179 0.252643 0.311447
O O6 0.414991 0.386193 0.344090
O O7 0.500000 0.289478 0.000000
O O8 0.358535 0.355737 0.856559
O O9 0.000000 0.182546 0.500000
O O10 0.250000 0.412695 0.497066
O O11 0.377496 0.500000 0.687351
#
# Coordination Sequence:
#
# PCOD9399209 Si02
#       4
#     8   8   8   8
#     4   9  16  26  43  69 108 157 194 222 274 345
#     4  12  23  38  62  90 120 154 193 241 296 353
#     4  10  18  30  47  75 115 151 186 234 288 335
#     4  11  25  44  63  85 117 154 193 242 296 351
#
# _framework density 25.670158000000001
#
# number of rings (size 3 to 8) (size 9 to 14) (size 15 to 20)
#    0.000    1.500    0.000    8.250    0.000    8.000 
#    0.000    0.000    0.000    0.000    0.000    0.000 
#    0.000   70.000    0.000    0.000    0.000    0.000 
#
# Total GULP energy -178860.773491 kJ/mol
# GULP energy per Si atom -5589.399172 kJ/mol
# Density = 2.561173 g / cm^3
# Si number density = 25.670158 Si / 1000 Ang^3
#
#
#
# Elastic Constant Matrix: (Units=GPa)
#
#
# Indices 1 2 3 4 5 6 
#
# 1 77.8928 2.2536 10.8218 0.0000 0.0000 0.0000
# 2 2.2536 130.1098 46.0271 0.0000 0.0000 0.0000
# 3 10.8218 46.0271 171.7041 0.0000 0.0000 0.0000
# 4 0.0000 0.0000 0.0000 57.1611 0.0000 0.0000
# 5 0.0000 0.0000 0.0000 0.0000 5.4276 0.0000
# 6 0.0000 0.0000 0.0000 0.0000 0.0000 -38.8837
#
#
#
# Elastic Compliance Matrix: (Units=1/GPa)
#
#
# Indices 1 2 3 4 5 6 
#
# 1 0.012952 0.000071 -0.000835 0.000000 0.000000 0.000000
# 2 0.000071 0.008491 -0.002281 0.000000 0.000000 0.000000
# 3 -0.000835 -0.002281 0.006488 0.000000 0.000000 0.000000
# 4 0.000000 0.000000 0.000000 0.017494 0.000000 0.000000
# 5 0.000000 0.000000 0.000000 0.000000 0.184243 0.000000
# 6 0.000000 0.000000 0.000000 0.000000 0.000000 -0.025718
#
#
# Mechanical properties :
#
#
# Convention : Reuss Voigt Hill
#
# Bulk Modulus (GPa) = 45.78394 55.32351 50.55373
# Shear Modulus (GPa) = 23.00734 26.11460 24.56097
#
# Velocity S-wave (km/s) = 2.99702 3.19300 3.09656
# Velocity P-wave (km/s) = 5.46355 5.93229 5.70274
#
# Compressibility (1/GPa) = 0.02184172
#
# Stress axis : x y z
#
# Youngs Moduli (GPa) = 77.20720 117.76628 154.13093
#
# Poissons Ratio (x) = -0.00838 0.12876
# Poissons Ratio (y) = -0.00550 0.35153
# Poissons Ratio (z) = 0.06450 0.26859
#
# Static dielectric constant tensor:
#      x y z
#    x 1.822930 0.000000 0.000000 
#    y 0.000000 2.036050 0.000000 
#    z 0.000000 0.000000 1.902230 
# 
# From -- ./inp_files/1255.got.cif
#   From: 2010.05.17/outbox.cif.g08.bks.cpg/sg51_1_cif.got.tgz:1255.got - 2010.06.03 11:52:47.
