data_PCOD9399732
_publ_section_title
;
Structure prediction by ZEFSAII (Michael W. Deem and Ramdas Pophale) SiO2 
 PCOD9399732
Probable space group: P M M A
;
_chemical_formula_sum "Si O2"
_cell_formula_units_Z 44
_cell_length_a 8.590181
_cell_length_b 29.769205
_cell_length_c 9.230079
_cell_angle_alpha 90.000000
_cell_angle_beta 90.000000
_cell_angle_gamma 90.000000
_cell_volume 2360.342192
_symmetry_space_group_name_H-M "P M M A"
_symmetry_group_IT_number 51
_symmetry_cell_setting 'orthorhombic'
loop_
_space_group_symop_operation_xyz
x,y,z
1/2-x,-y,z
1/2+x,-y,-z
-x,y,-z
-x,-y,-z
1/2+x,y,-z
1/2-x,y,z
x,-y,z
loop_
_atom_site_type_symbol
_atom_site_label
_atom_site_fract_x
_atom_site_fract_y
_atom_site_fract_z
Si Si1 0.937266 0.179075 0.837455
Si Si2 0.062771 0.353410 0.835585
Si Si3 0.064054 0.093891 0.664163
Si Si4 0.063966 0.000000 0.334992
Si Si5 0.937925 0.451805 0.164808
Si Si6 0.563587 0.731427 0.661983
O O1 0.750000 0.176039 0.838015
O O2 0.983060 0.224298 0.751950
O O3 0.006351 0.135891 0.756627
O O4 0.000000 0.181307 0.000000
O O5 0.250000 0.351352 0.839563
O O6 0.014624 0.402965 0.776020
O O7 0.998915 0.312991 0.740385
O O8 0.000000 0.349422 0.000000
O O9 0.250000 0.092056 0.658697
O O10 0.000000 0.098644 0.500000
O O11 0.999393 0.046777 0.727197
O O12 0.000000 0.000000 0.500000
O O13 0.250000 0.000000 0.336223
O O14 0.750000 0.451864 0.161650
O O15 0.988245 0.500000 0.230932
O O16 0.000000 0.451979 0.000000
O O17 0.500000 0.734447 0.500000
O O18 0.750000 0.729718 0.658650
#
# Coordination Sequence:
#
# PCOD9399732 Si02
#       6
#     8   8   8   4   8   8
#     4  11  24  41  60  84 112 145 182 224 275 329
#     4  10  19  32  53  80 111 144 180 223 271 322
#     4  11  21  36  59  87 118 152 190 232 275 322
#     4  10  18  32  55  84 117 152 191 232 272 320
#     4   8  14  25  43  70 103 138 175 216 262 313
#     4  11  24  40  59  81 108 141 181 226 274 329
#
# _framework density 18.641365
#
# number of rings (size 3 to 8) (size 9 to 14) (size 15 to 20)
#    0.000    1.818    0.000    6.273    0.000    6.545 
#    0.000    0.455    0.000    0.545    0.000    0.000 
#    0.000    0.000    0.000    0.000    0.000    0.000 
#
# Total GULP energy -245567.344209 kJ/mol
# GULP energy per Si atom -5581.076005 kJ/mol
# Density = 1.859894 g / cm^3
# Si number density = 18.641365 Si / 1000 Ang^3
#
#
#
# Elastic Constant Matrix: (Units=GPa)
#
#
# Indices 1 2 3 4 5 6 
#
# 1 89.7518 71.5482 37.0103 0.0000 0.0000 0.0000
# 2 71.5482 245.5103 91.1648 0.0000 0.0000 0.0000
# 3 37.0103 91.1648 95.5467 0.0000 0.0000 0.0000
# 4 0.0000 0.0000 0.0000 28.4140 0.0000 0.0000
# 5 0.0000 0.0000 0.0000 0.0000 27.5462 0.0000
# 6 0.0000 0.0000 0.0000 0.0000 0.0000 28.5616
#
#
#
# Elastic Compliance Matrix: (Units=1/GPa)
#
#
# Indices 1 2 3 4 5 6 
#
# 1 0.014896 -0.003405 -0.002521 0.000000 0.000000 0.000000
# 2 -0.003405 0.007086 -0.005442 0.000000 0.000000 0.000000
# 3 -0.002521 -0.005442 0.016636 0.000000 0.000000 0.000000
# 4 0.000000 0.000000 0.000000 0.035194 0.000000 0.000000
# 5 0.000000 0.000000 0.000000 0.000000 0.036303 0.000000
# 6 0.000000 0.000000 0.000000 0.000000 0.000000 0.035012
#
#
# Mechanical properties :
#
#
# Convention : Reuss Voigt Hill
#
# Bulk Modulus (GPa) = 62.97004 92.25062 77.61033
# Shear Modulus (GPa) = 28.87554 32.31006 30.59280
#
# Velocity S-wave (km/s) = 3.94001 4.16774 4.05547
# Velocity P-wave (km/s) = 7.38588 8.52963 7.97828
#
# Compressibility (1/GPa) = 0.01588057
#
# Stress axis : x y z
#
# Youngs Moduli (GPa) = 67.13327 141.11648 60.11208
#
# Poissons Ratio (x) = 0.48047 0.15156
# Poissons Ratio (y) = 0.22858 0.32716
# Poissons Ratio (z) = 0.16926 0.76803
#
# Static dielectric constant tensor:
#      x y z
#    x 1.628600 0.000000 0.000000 
#    y 0.000000 1.691930 0.000000 
#    z 0.000000 0.000000 1.627930 
# 
# From -- ./inp_files/5717.got.cif
#   From: 2010.05.17/outbox.cif.g08.bks.cpg/sg51_3_cif.got.tgz:5717.got - 2010.06.03 11:52:47.
