data_PCOD9399527
_publ_section_title
;
Structure prediction by ZEFSAII (Michael W. Deem and Ramdas Pophale) SiO2 
 PCOD9399527
Probable space group: P M M A
;
_chemical_formula_sum "Si O2"
_cell_formula_units_Z 64
_cell_length_a 20.288769
_cell_length_b 8.825566
_cell_length_c 20.166492
_cell_angle_alpha 90.000000
_cell_angle_beta 90.000000
_cell_angle_gamma 90.000000
_cell_volume 3611.009433
_symmetry_space_group_name_H-M "P M M A"
_symmetry_group_IT_number 51
_symmetry_cell_setting 'orthorhombic'
loop_
_space_group_symop_operation_xyz
x,y,z
1/2-x,-y,z
1/2+x,-y,-z
-x,y,-z
-x,-y,-z
1/2+x,y,-z
1/2-x,y,z
x,-y,z
loop_
_atom_site_type_symbol
_atom_site_label
_atom_site_fract_x
_atom_site_fract_y
_atom_site_fract_z
Si Si1 0.672598 0.825244 0.667202
Si Si2 0.082592 0.180051 0.456048
Si Si3 0.173770 0.817366 0.993799
Si Si4 0.558765 0.178399 0.271140
Si Si5 0.943606 0.680565 0.409446
Si Si6 0.925026 0.328675 0.757478
Si Si7 0.061417 0.675581 0.086594
Si Si8 0.577848 0.182432 0.121116
O O1 0.750000 0.810217 0.664498
O O2 0.640554 0.795761 0.595961
O O3 0.640948 0.713594 0.720102
O O4 0.656276 0.000000 0.685353
O O5 0.095456 0.254032 0.527400
O O6 0.017036 0.253933 0.424009
O O7 0.071717 0.000000 0.463753
O O8 0.250000 0.765594 0.001887
O O9 0.119294 0.753667 0.044778
O O10 0.174196 0.000000 0.999841
O O11 0.142035 0.779625 0.922076
O O12 0.581021 0.261925 0.337974
O O13 0.480780 0.212458 0.266164
O O14 0.583347 0.231313 0.198242
O O15 0.571300 0.000000 0.277721
O O16 0.945521 0.500000 0.411116
O O17 0.946929 0.500000 0.741089
O O18 0.918304 0.317752 0.836158
O O19 0.055697 0.500000 0.066580
O O20 0.988297 0.749986 0.086993
O O21 0.569839 0.000000 0.121529
#
# Coordination Sequence:
#
# PCOD9399527 Si02
#       8
#     8   8   8   8   8   8   8   8
#     4  10  21  35  51  71  99 136 174 210 248 298
#     4  10  19  32  50  72 100 133 170 208 252 300
#     4  10  21  37  56  78 105 138 177 221 267 318
#     4  10  18  31  52  76 102 131 164 209 262 311
#     4  11  20  30  49  76 105 130 162 210 257 302
#     4  10  20  33  49  72 102 133 167 208 252 300
#     4  10  21  35  53  79 109 140 175 217 264 316
#     4   9  19  35  56  80 105 136 176 220 267 318
#
# _framework density 17.723576000000001
#
# number of rings (size 3 to 8) (size 9 to 14) (size 15 to 20)
#    0.000    2.000    1.250    3.750    0.000    5.500 
#    0.000    2.500    0.000    0.750    0.000    3.500 
#    0.000    0.000    0.000    0.000    0.000    0.000 
#
# Total GULP energy -356931.389615 kJ/mol
# GULP energy per Si atom -5577.052963 kJ/mol
# Density = 1.768324 g / cm^3
# Si number density = 17.723576 Si / 1000 Ang^3
#
#
#
# Elastic Constant Matrix: (Units=GPa)
#
#
# Indices 1 2 3 4 5 6 
#
# 1 50.5705 17.0214 29.2987 0.0000 0.0000 0.0000
# 2 17.0214 59.0429 31.5818 0.0000 0.0000 0.0000
# 3 29.2987 31.5818 77.2474 0.0000 0.0000 0.0000
# 4 0.0000 0.0000 0.0000 21.9620 0.0000 0.0000
# 5 0.0000 0.0000 0.0000 0.0000 15.4405 0.0000
# 6 0.0000 0.0000 0.0000 0.0000 0.0000 -2.8977
#
#
#
# Elastic Compliance Matrix: (Units=1/GPa)
#
#
# Indices 1 2 3 4 5 6 
#
# 1 0.025703 -0.002810 -0.008600 0.000000 0.000000 0.000000
# 2 -0.002810 0.021985 -0.007922 0.000000 0.000000 0.000000
# 3 -0.008600 -0.007922 0.019446 0.000000 0.000000 0.000000
# 4 0.000000 0.000000 0.000000 0.045533 0.000000 0.000000
# 5 0.000000 0.000000 0.000000 0.000000 0.064765 0.000000
# 6 0.000000 0.000000 0.000000 0.000000 0.000000 -0.345101
#
#
# Mechanical properties :
#
#
# Convention : Reuss Voigt Hill
#
# Bulk Modulus (GPa) = 35.12564 38.07384 36.59974
# Shear Modulus (GPa) = -41.83532 14.16489 -13.83522
#
# Velocity S-wave (km/s) = -4.86370 2.83010 -2.79697
# Velocity P-wave (km/s) = 3.41748 5.67521 3.20381
#
# Compressibility (1/GPa) = 0.02846923
#
# Stress axis : x y z
#
# Youngs Moduli (GPa) = 38.90666 45.48656 51.42397
#
# Poissons Ratio (x) = 0.12781 0.44224
# Poissons Ratio (y) = 0.10932 0.40740
# Poissons Ratio (z) = 0.33459 0.36036
#
# Static dielectric constant tensor:
#      x y z
#    x 1.583290 0.000000 0.000000 
#    y 0.000000 1.613460 0.000000 
#    z 0.000000 0.000000 1.639360 
# 
# From -- ./inp_files/34175.got.cif
#   From: 2010.05.17/outbox.cif.g08.bks.cpg/sg51_18_cif.got.tgz:34175.got - 2010.06.03 11:52:47.
