data_PCOD9399522
_publ_section_title
;
Structure prediction by ZEFSAII (Michael W. Deem and Ramdas Pophale) SiO2 
 PCOD9399522
Probable space group: P M M A
;
_chemical_formula_sum "Si O2"
_cell_formula_units_Z 64
_cell_length_a 18.387234
_cell_length_b 7.569374
_cell_length_c 22.424922
_cell_angle_alpha 90.000000
_cell_angle_beta 90.000000
_cell_angle_gamma 90.000000
_cell_volume 3121.097302
_symmetry_space_group_name_H-M "P M M A"
_symmetry_group_IT_number 51
_symmetry_cell_setting 'orthorhombic'
loop_
_space_group_symop_operation_xyz
x,y,z
1/2-x,-y,z
1/2+x,-y,-z
-x,y,-z
-x,-y,-z
1/2+x,y,-z
1/2-x,y,z
x,-y,z
loop_
_atom_site_type_symbol
_atom_site_label
_atom_site_fract_x
_atom_site_fract_y
_atom_site_fract_z
Si Si1 0.069623 0.293621 0.384489
Si Si2 0.596149 0.203517 0.380177
Si Si3 0.970805 0.205877 0.061553
Si Si4 0.093028 0.214279 0.751550
Si Si5 0.553365 0.293255 0.821363
Si Si6 0.830452 0.216131 0.129461
Si Si7 0.166480 0.214511 0.498490
Si Si8 0.666406 0.716488 0.727270
O O1 0.055182 0.500000 0.373212
O O2 0.115298 0.274703 0.444817
O O3 0.118924 0.226040 0.329766
O O4 0.990833 0.206266 0.389306
O O5 0.609301 0.281635 0.314577
O O6 0.635653 0.279800 0.438038
O O7 0.620946 0.000000 0.376958
O O8 0.895621 0.281475 0.087545
O O9 0.028112 0.213246 0.115952
O O10 0.955291 0.000000 0.049452
O O11 0.000000 0.284612 0.000000
O O12 0.149250 0.267333 0.802921
O O13 0.013805 0.270434 0.775340
O O14 0.091493 0.000000 0.749537
O O15 0.563411 0.500000 0.832618
O O16 0.624441 0.225567 0.787055
O O17 0.750000 0.273627 0.112587
O O18 0.831762 0.000000 0.128543
O O19 0.250000 0.269071 0.489543
O O20 0.164264 0.000000 0.498475
O O21 0.750000 0.773288 0.723748
O O22 0.666243 0.500000 0.726781
#
# Coordination Sequence:
#
# PCOD9399522 Si02
#       8
#     8   8   8   8   8   8   8   8
#     4  11  21  35  55  76  99 132 176 218 257 311
#     4  10  20  34  53  75 101 133 168 212 262 315
#     4   9  18  33  52  74 103 138 171 207 249 294
#     4   9  17  30  50  74 100 130 163 203 251 301
#     4  10  18  31  52  75 100 129 165 206 247 298
#     4   8  14  26  47  74  99 127 167 207 241 285
#     4  10  22  38  52  71 102 137 173 216 266 314
#     4   9  18  32  50  73 100 130 165 207 255 302
#
# _framework density 20.505610000000001
#
# number of rings (size 3 to 8) (size 9 to 14) (size 15 to 20)
#    0.000    2.500    1.250    2.250    0.000    3.500 
#    0.000    3.125    0.000   10.500    0.000    3.500 
#    0.000    0.000    0.000    0.000    0.000    0.000 
#
# Total GULP energy -357192.818565 kJ/mol
# GULP energy per Si atom -5581.137790 kJ/mol
# Density = 2.045894 g / cm^3
# Si number density = 20.505610 Si / 1000 Ang^3
#
#
#
# Elastic Constant Matrix: (Units=GPa)
#
#
# Indices 1 2 3 4 5 6 
#
# 1 52.9235 -0.5722 40.7506 0.0000 0.0000 0.0000
# 2 -0.5722 46.7434 -4.0625 0.0000 0.0000 0.0000
# 3 40.7506 -4.0625 146.4136 0.0000 0.0000 0.0000
# 4 0.0000 0.0000 0.0000 110.6182 0.0000 0.0000
# 5 0.0000 0.0000 0.0000 0.0000 17.7506 0.0000
# 6 0.0000 0.0000 0.0000 0.0000 0.0000 299.4582
#
#
#
# Elastic Compliance Matrix: (Units=1/GPa)
#
#
# Indices 1 2 3 4 5 6 
#
# 1 0.024053 -0.000288 -0.006703 0.000000 0.000000 0.000000
# 2 -0.000288 0.021449 0.000675 0.000000 0.000000 0.000000
# 3 -0.006703 0.000675 0.008714 0.000000 0.000000 0.000000
# 4 0.000000 0.000000 0.000000 0.009040 0.000000 0.000000
# 5 0.000000 0.000000 0.000000 0.000000 0.056336 0.000000
# 6 0.000000 0.000000 0.000000 0.000000 0.000000 0.003339
#
#
# Mechanical properties :
#
#
# Convention : Reuss Voigt Hill
#
# Bulk Modulus (GPa) = 24.04707 35.36803 29.70755
# Shear Modulus (GPa) = 33.46195 99.56306 66.51250
#
# Velocity S-wave (km/s) = 4.04399 6.97563 5.70146
# Velocity P-wave (km/s) = 5.79290 9.06447 7.60665
#
# Compressibility (1/GPa) = 0.04158510
#
# Stress axis : x y z
#
# Youngs Moduli (GPa) = 41.57496 46.62321 114.75547
#
# Poissons Ratio (x) = 0.01343 0.76915
# Poissons Ratio (y) = 0.01198 -0.07749
# Poissons Ratio (z) = 0.27866 -0.03148
#
# Static dielectric constant tensor:
#      x y z
#    x 1.702670 0.000000 0.000000 
#    y 0.000000 1.795070 0.000000 
#    z 0.000000 0.000000 1.724990 
# 
# From -- ./inp_files/33787.got.cif
#   From: 2010.05.17/outbox.cif.g08.bks.cpg/sg51_17_cif.got.tgz:33787.got - 2010.06.03 11:52:47.
