data_PCOD9399255
_publ_section_title
;
Structure prediction by ZEFSAII (Michael W. Deem and Ramdas Pophale) SiO2 
 PCOD9399255
Probable space group: P M M A
;
_chemical_formula_sum "Si O2"
_cell_formula_units_Z 64
_cell_length_a 24.136386
_cell_length_b 7.845890
_cell_length_c 15.762700
_cell_angle_alpha 90.000000
_cell_angle_beta 90.000000
_cell_angle_gamma 90.000000
_cell_volume 2985.005033
_symmetry_space_group_name_H-M "P M M A"
_symmetry_group_IT_number 51
_symmetry_cell_setting 'orthorhombic'
loop_
_space_group_symop_operation_xyz
x,y,z
1/2-x,-y,z
1/2+x,-y,-z
-x,y,-z
-x,-y,-z
1/2+x,y,-z
1/2-x,y,z
x,-y,z
loop_
_atom_site_type_symbol
_atom_site_label
_atom_site_fract_x
_atom_site_fract_y
_atom_site_fract_z
Si Si1 0.312716 0.206840 0.756032
Si Si2 0.311115 0.204436 0.450379
Si Si3 0.125308 0.800105 0.292683
Si Si4 0.861341 0.804751 0.069728
Si Si5 0.503998 0.704227 0.670618
Si Si6 0.022117 0.699839 0.867984
Si Si7 0.897829 0.792666 0.895464
Si Si8 0.108062 0.701468 0.600955
O O1 0.250000 0.258160 0.734081
O O2 0.329134 0.271282 0.849978
O O3 0.356712 0.263378 0.686001
O O4 0.314556 0.000000 0.757489
O O5 0.250000 0.268495 0.474063
O O6 0.331407 0.273819 0.359607
O O7 0.356382 0.237336 0.521984
O O8 0.307818 0.000000 0.442758
O O9 0.121079 0.728722 0.197266
O O10 0.064574 0.783518 0.334884
O O11 0.137794 0.000000 0.282209
O O12 0.926015 0.801574 0.096341
O O13 0.841808 0.000000 0.062253
O O14 0.861809 0.729778 0.975092
O O15 0.510527 0.500000 0.659479
O O16 0.484018 0.733162 0.767481
O O17 0.454421 0.770172 0.611595
O O18 0.033815 0.500000 0.880462
O O19 0.962117 0.741669 0.906253
O O20 0.896501 0.000000 0.895392
O O21 0.102010 0.500000 0.592659
#
# Coordination Sequence:
#
# PCOD9399255 Si02
#       8
#     8   8   8   8   8   8   8   8
#     4  10  21  36  53  75 106 144 182 221 267 318
#     4  10  22  40  59  80 106 137 177 223 268 316
#     4   9  19  36  57  79 106 141 180 219 262 317
#     4  10  19  31  49  73 104 140 176 216 260 307
#     4   9  19  34  52  78 112 142 170 213 268 320
#     4  10  18  30  48  74 107 141 175 212 256 309
#     4   9  18  32  50  75 105 137 176 216 258 308
#     4  11  22  37  57  82 109 138 175 218 268 325
#
# _framework density 21.440501000000001
#
# number of rings (size 3 to 8) (size 9 to 14) (size 15 to 20)
#    0.000    2.250    1.250    1.500    0.000    6.500 
#    0.000    3.125    0.000    3.750    0.000    0.000 
#    0.000    5.000    0.000    0.000    0.000    0.000 
#
# Total GULP energy -357237.487723 kJ/mol
# GULP energy per Si atom -5581.835746 kJ/mol
# Density = 2.139170 g / cm^3
# Si number density = 21.440501 Si / 1000 Ang^3
#
#
#
# Elastic Constant Matrix: (Units=GPa)
#
#
# Indices 1 2 3 4 5 6 
#
# 1 -15.9722 13.0012 3.6938 0.0000 0.0000 0.0000
# 2 13.0012 16.3017 8.6082 0.0000 0.0000 0.0000
# 3 3.6938 8.6082 62.4374 0.0000 0.0000 0.0000
# 4 0.0000 0.0000 0.0000 -8.9666 0.0000 0.0000
# 5 0.0000 0.0000 0.0000 0.0000 25.4004 0.0000
# 6 0.0000 0.0000 0.0000 0.0000 0.0000 63.7727
#
#
#
# Elastic Compliance Matrix: (Units=1/GPa)
#
#
# Indices 1 2 3 4 5 6 
#
# 1 -0.037715 0.031170 -0.002066 0.000000 0.000000 0.000000
# 2 0.031170 0.040399 -0.007414 0.000000 0.000000 0.000000
# 3 -0.002066 -0.007414 0.017160 0.000000 0.000000 0.000000
# 4 0.000000 0.000000 0.000000 -0.111525 0.000000 0.000000
# 5 0.000000 0.000000 0.000000 0.000000 0.039369 0.000000
# 6 0.000000 0.000000 0.000000 0.000000 0.000000 0.015681
#
#
# Mechanical properties :
#
#
# Convention : Reuss Voigt Hill
#
# Bulk Modulus (GPa) = 15.81668 12.59703 14.20686
# Shear Modulus (GPa) = -84.83810 18.53891 -33.14960
#
# Velocity S-wave (km/s) = -6.29722 2.94371 -3.93634
# Velocity P-wave (km/s) = 6.74391 4.17637 3.74421
#
# Compressibility (1/GPa) = 0.06322439
#
# Stress axis : x y z
#
# Youngs Moduli (GPa) = -26.51474 24.75305 58.27368
#
# Poissons Ratio (x) = -0.77155 0.12040
# Poissons Ratio (y) = 0.82646 0.43203
# Poissons Ratio (z) = -0.05478 0.18351
#
# Static dielectric constant tensor:
#      x y z
#    x 1.769640 0.000000 0.000000 
#    y 0.000000 1.784980 0.000000 
#    z 0.000000 0.000000 1.817570 
# 
# From -- ./inp_files/26249.got.cif
#   From: 2010.05.17/outbox.cif.g08.bks.cpg/sg51_14_cif.got.tgz:26249.got - 2010.06.03 11:52:47.
