data_PCOD9399743
_publ_section_title
;
Structure prediction by ZEFSAII (Michael W. Deem and Ramdas Pophale) SiO2 
 PCOD9399743
Probable space group: P M M A
;
_chemical_formula_sum "Si O2"
_cell_formula_units_Z 48
_cell_length_a 7.638505
_cell_length_b 14.962902
_cell_length_c 20.980503
_cell_angle_alpha 90.000000
_cell_angle_beta 90.000000
_cell_angle_gamma 90.000000
_cell_volume 2397.949843
_symmetry_space_group_name_H-M "P M M A"
_symmetry_group_IT_number 51
_symmetry_cell_setting 'orthorhombic'
loop_
_space_group_symop_operation_xyz
x,y,z
1/2-x,-y,z
1/2+x,-y,-z
-x,y,-z
-x,-y,-z
1/2+x,y,-z
1/2-x,y,z
x,-y,z
loop_
_atom_site_type_symbol
_atom_site_label
_atom_site_fract_x
_atom_site_fract_y
_atom_site_fract_z
Si Si1 0.037009 0.598086 0.894523
Si Si2 0.960638 0.898403 0.427643
Si Si3 0.541820 0.791582 0.069595
Si Si4 0.046690 0.222151 0.685635
Si Si5 0.536442 0.401751 0.255042
Si Si6 0.955103 0.101811 0.803728
O O1 0.250000 0.596919 0.898585
O O2 0.975710 0.500000 0.917391
O O3 0.973016 0.689142 0.926740
O O4 0.990438 0.606359 0.819658
O O5 0.750000 0.902324 0.420815
O O6 0.030402 0.831752 0.373847
O O7 0.000000 0.870924 0.500000
O O8 0.027130 0.000000 0.418713
O O9 0.750000 0.787679 0.077306
O O10 0.474625 0.849893 0.128304
O O11 0.500000 0.829068 0.000000
O O12 0.250000 0.239068 0.669706
O O13 0.969118 0.317655 0.705423
O O14 0.041531 0.160037 0.748269
O O15 0.750000 0.399539 0.256061
O O16 0.481275 0.500000 0.277445
O O17 0.750000 0.098984 0.788177
O O18 0.022053 0.000000 0.805932
#
# Coordination Sequence:
#
# PCOD9399743 Si02
#       6
#     8   8   8   8   8   8
#     4   8  14  27  49  76 103 130 162 202 250 303
#     4   9  18  31  48  73 105 138 173 211 252 301
#     4  11  22  37  56  76 101 135 171 212 258 305
#     4  10  18  32  56  82 104 133 172 213 254 297
#     4   8  13  24  47  78 105 128 161 205 251 301
#     4  11  24  39  54  75 102 132 169 213 260 310
#
# _framework density 20.017099000000002
#
# number of rings (size 3 to 8) (size 9 to 14) (size 15 to 20)
#    0.000    2.500    1.667    2.500    0.000    3.333 
#    0.000    1.667    0.000    3.500    0.000    0.000 
#    0.000    0.000    0.000    0.000    0.000    0.000 
#
# Total GULP energy -267862.703677 kJ/mol
# GULP energy per Si atom -5580.472993 kJ/mol
# Density = 1.997154 g / cm^3
# Si number density = 20.017099 Si / 1000 Ang^3
#
#
#
# Elastic Constant Matrix: (Units=GPa)
#
#
# Indices 1 2 3 4 5 6 
#
# 1 41.4666 -6.2362 -14.4460 0.0000 0.0000 0.0000
# 2 -6.2362 138.9257 68.9075 0.0000 0.0000 0.0000
# 3 -14.4460 68.9075 115.2653 0.0000 0.0000 0.0000
# 4 0.0000 0.0000 0.0000 -14.9567 0.0000 0.0000
# 5 0.0000 0.0000 0.0000 0.0000 15.8690 0.0000
# 6 0.0000 0.0000 0.0000 0.0000 0.0000 78.8231
#
#
#
# Elastic Compliance Matrix: (Units=1/GPa)
#
#
# Indices 1 2 3 4 5 6 
#
# 1 0.025254 -0.000620 0.003536 0.000000 0.000000 0.000000
# 2 -0.000620 0.010247 -0.006204 0.000000 0.000000 0.000000
# 3 0.003536 -0.006204 0.012827 0.000000 0.000000 0.000000
# 4 0.000000 0.000000 0.000000 -0.066860 0.000000 0.000000
# 5 0.000000 0.000000 0.000000 0.000000 0.063016 0.000000
# 6 0.000000 0.000000 0.000000 0.000000 0.000000 0.012687
#
#
# Mechanical properties :
#
#
# Convention : Reuss Voigt Hill
#
# Bulk Modulus (GPa) = 23.95040 43.56759 33.75900
# Shear Modulus (GPa) = 64.37842 32.44257 48.41049
#
# Velocity S-wave (km/s) = 5.67728 4.03021 4.92312
# Velocity P-wave (km/s) = 7.41393 6.59312 7.01554
#
# Compressibility (1/GPa) = 0.04175295
#
# Stress axis : x y z
#
# Youngs Moduli (GPa) = 39.59720 97.58641 77.95769
#
# Poissons Ratio (x) = 0.06052 -0.27564
# Poissons Ratio (y) = 0.02456 0.48363
# Poissons Ratio (z) = -0.14001 0.60540
#
# Static dielectric constant tensor:
#      x y z
#    x 1.750130 0.000000 0.000000 
#    y 0.000000 1.738920 0.000000 
#    z 0.000000 0.000000 1.696720 
# 
# From -- ./inp_files/31614.got.cif
#   From: 2010.05.17/outbox.cif.g08.bks.cpg/sg51_16_cif.got.tgz:31614.got - 2010.06.03 11:52:47.
