data_PCOD9399371
_publ_section_title
;
Structure prediction by ZEFSAII (Michael W. Deem and Ramdas Pophale) SiO2 
 PCOD9399371
Probable space group: P M M A
;
_chemical_formula_sum "Si O2"
_cell_formula_units_Z 64
_cell_length_a 24.748138
_cell_length_b 7.468586
_cell_length_c 15.198065
_cell_angle_alpha 90.000000
_cell_angle_beta 90.000000
_cell_angle_gamma 90.000000
_cell_volume 2809.113021
_symmetry_space_group_name_H-M "P M M A"
_symmetry_group_IT_number 51
_symmetry_cell_setting 'orthorhombic'
loop_
_space_group_symop_operation_xyz
x,y,z
1/2-x,-y,z
1/2+x,-y,-z
-x,y,-z
-x,-y,-z
1/2+x,y,-z
1/2-x,y,z
x,-y,z
loop_
_atom_site_type_symbol
_atom_site_label
_atom_site_fract_x
_atom_site_fract_y
_atom_site_fract_z
Si Si1 0.489354 0.288801 0.282883
Si Si2 0.192703 0.212949 0.774745
Si Si3 0.027798 0.281048 0.908092
Si Si4 0.129002 0.716739 0.319916
Si Si5 0.604225 0.216219 0.357713
Si Si6 0.687814 0.281261 0.857966
Si Si7 0.311160 0.209408 0.498026
Si Si8 0.353631 0.714012 0.954297
O O1 0.480535 0.500000 0.270723
O O2 0.502181 0.218007 0.184156
O O3 0.433287 0.220077 0.323692
O O4 0.542251 0.269300 0.343544
O O5 0.250000 0.282719 0.739611
O O6 0.139709 0.281212 0.725575
O O7 0.188677 0.247782 0.877920
O O8 0.192761 0.000000 0.760936
O O9 0.026753 0.500000 0.905230
O O10 0.089276 0.218765 0.918237
O O11 0.000000 0.229475 0.000000
O O12 0.130024 0.500000 0.323613
O O13 0.153387 0.773237 0.226267
O O14 0.167058 0.777913 0.399015
O O15 0.640420 0.280721 0.439986
O O16 0.602689 0.000000 0.359768
O O17 0.750000 0.225831 0.850231
O O18 0.687355 0.500000 0.859475
O O19 0.662958 0.218362 0.950158
O O20 0.250000 0.284036 0.506739
O O21 0.306756 0.000000 0.521812
O O22 0.358621 0.500000 0.962666
#
# Coordination Sequence:
#
# PCOD9399371 Si02
#       8
#     8   8   8   8   8   8   8   8
#     4  10  20  35  55  83 115 146 185 229 274 327
#     4  10  20  34  52  75 106 142 177 218 272 329
#     4   9  16  28  49  76 108 146 184 222 263 312
#     4  10  21  37  58  83 113 148 184 227 280 333
#     4  10  21  38  59  80 108 145 183 224 276 334
#     4   9  17  30  50  78 110 143 182 226 272 324
#     4  10  22  41  63  85 108 140 186 233 278 334
#     4  10  18  30  51  79 108 140 181 225 267 318
#
# _framework density 22.782992
#
# number of rings (size 3 to 8) (size 9 to 14) (size 15 to 20)
#    0.000    2.250    1.250    1.875    0.000    7.500 
#    0.000    3.125    0.000    7.500    0.000    0.000 
#    0.000    0.000    0.000    0.000    0.000    0.000 
#
# Total GULP energy -357418.365596 kJ/mol
# GULP energy per Si atom -5584.661962 kJ/mol
# Density = 2.273114 g / cm^3
# Si number density = 22.782992 Si / 1000 Ang^3
#
#
#
# Elastic Constant Matrix: (Units=GPa)
#
#
# Indices 1 2 3 4 5 6 
#
# 1 119.8477 -3.3565 34.9049 0.0000 0.0000 0.0000
# 2 -3.3565 62.6725 -4.7829 0.0000 0.0000 0.0000
# 3 34.9049 -4.7829 96.5237 0.0000 0.0000 0.0000
# 4 0.0000 0.0000 0.0000 1.3748 0.0000 0.0000
# 5 0.0000 0.0000 0.0000 0.0000 36.5044 0.0000
# 6 0.0000 0.0000 0.0000 0.0000 0.0000 12.1472
#
#
#
# Elastic Compliance Matrix: (Units=1/GPa)
#
#
# Indices 1 2 3 4 5 6 
#
# 1 0.009330 0.000243 -0.003362 0.000000 0.000000 0.000000
# 2 0.000243 0.016023 0.000706 0.000000 0.000000 0.000000
# 3 -0.003362 0.000706 0.011611 0.000000 0.000000 0.000000
# 4 0.000000 0.000000 0.000000 0.727384 0.000000 0.000000
# 5 0.000000 0.000000 0.000000 0.000000 0.027394 0.000000
# 6 0.000000 0.000000 0.000000 0.000000 0.000000 0.082324
#
#
# Mechanical properties :
#
#
# Convention : Reuss Voigt Hill
#
# Bulk Modulus (GPa) = 31.11559 36.95276 34.03418
# Shear Modulus (GPa) = 5.62048 26.82384 16.22216
#
# Velocity S-wave (km/s) = 1.57236 3.43499 2.67128
# Velocity P-wave (km/s) = 4.12110 5.65570 4.94825
#
# Compressibility (1/GPa) = 0.03213823
#
# Stress axis : x y z
#
# Youngs Moduli (GPa) = 107.18306 62.41078 86.12652
#
# Poissons Ratio (x) = -0.01517 0.28954
# Poissons Ratio (y) = -0.02606 -0.06081
# Poissons Ratio (z) = 0.36033 -0.04406
#
# Static dielectric constant tensor:
#      x y z
#    x 1.853350 0.000000 0.000000 
#    y 0.000000 1.892100 0.000000 
#    z 0.000000 0.000000 1.824680 
# 
# From -- ./inp_files/26317.got.cif
#   From: 2010.05.17/outbox.cif.g08.bks.cpg/sg51_14_cif.got.tgz:26317.got - 2010.06.03 11:52:47.
