data_PCOD9399352
_publ_section_title
;
Structure prediction by ZEFSAII (Michael W. Deem and Ramdas Pophale) SiO2 
 PCOD9399352
Probable space group: P M M A
;
_chemical_formula_sum "Si O2"
_cell_formula_units_Z 40
_cell_length_a 19.963083
_cell_length_b 9.261271
_cell_length_c 12.848914
_cell_angle_alpha 90.000000
_cell_angle_beta 90.000000
_cell_angle_gamma 90.000000
_cell_volume 2375.552470
_symmetry_space_group_name_H-M "P M M A"
_symmetry_group_IT_number 51
_symmetry_cell_setting 'orthorhombic'
loop_
_space_group_symop_operation_xyz
x,y,z
1/2-x,-y,z
1/2+x,-y,-z
-x,y,-z
-x,-y,-z
1/2+x,y,-z
1/2-x,y,z
x,-y,z
loop_
_atom_site_type_symbol
_atom_site_label
_atom_site_fract_x
_atom_site_fract_y
_atom_site_fract_z
Si Si1 0.896569 0.169410 0.679386
Si Si2 0.054595 0.829913 0.730786
Si Si3 0.171109 0.828455 0.105276
Si Si4 0.920024 0.333949 0.475189
Si Si5 0.427352 0.671789 0.947659
O O1 0.851220 0.210675 0.777485
O O2 0.886298 0.262168 0.575808
O O3 0.974137 0.185500 0.714966
O O4 0.886130 0.000000 0.655654
O O5 0.088179 0.757858 0.629672
O O6 0.074170 0.749041 0.836108
O O7 0.069400 0.000000 0.736738
O O8 0.250000 0.806834 0.091474
O O9 0.156280 0.000000 0.092939
O O10 0.128045 0.738735 0.023494
O O11 0.900082 0.500000 0.460789
O O12 0.000000 0.331959 0.500000
O O13 0.418914 0.500000 0.936231
O O14 0.500000 0.698148 0.000000
#
# Coordination Sequence:
#
# PCOD9399352 Si02
#       5
#     8   8   8   8   8
#     4   9  17  30  49  74 103 135 172 214 261 314
#     4  10  18  30  51  76 104 137 174 219 267 313
#     4  10  21  37  56  78 106 142 182 222 266 320
#     4   9  17  28  45  72 105 135 165 207 260 314
#     4  11  22  34  52  78 109 142 179 224 273 322
#
# _framework density 16.838190000000001
#
# number of rings (size 3 to 8) (size 9 to 14) (size 15 to 20)
#    0.000    2.200    2.000    1.800    0.000    5.200 
#    0.000    0.000    0.000    1.200    0.000    2.800 
#    0.000    0.000    0.000    0.000    0.000    0.000 
#
# Total GULP energy -223180.744419 kJ/mol
# GULP energy per Si atom -5579.518610 kJ/mol
# Density = 1.679987 g / cm^3
# Si number density = 16.838190 Si / 1000 Ang^3
#
#
#
# Elastic Constant Matrix: (Units=GPa)
#
#
# Indices 1 2 3 4 5 6 
#
# 1 45.3181 51.4416 49.6175 0.0000 0.0000 0.0000
# 2 51.4416 118.4501 109.3063 0.0000 0.0000 0.0000
# 3 49.6175 109.3063 175.4179 0.0000 0.0000 0.0000
# 4 0.0000 0.0000 0.0000 27.9056 0.0000 0.0000
# 5 0.0000 0.0000 0.0000 0.0000 17.0209 0.0000
# 6 0.0000 0.0000 0.0000 0.0000 0.0000 13.7044
#
#
#
# Elastic Compliance Matrix: (Units=1/GPa)
#
#
# Indices 1 2 3 4 5 6 
#
# 1 0.043638 -0.017792 -0.001257 0.000000 0.000000 0.000000
# 2 -0.017792 0.027119 -0.011866 0.000000 0.000000 0.000000
# 3 -0.001257 -0.011866 0.013450 0.000000 0.000000 0.000000
# 4 0.000000 0.000000 0.000000 0.035835 0.000000 0.000000
# 5 0.000000 0.000000 0.000000 0.000000 0.058751 0.000000
# 6 0.000000 0.000000 0.000000 0.000000 0.000000 0.072969
#
#
# Mechanical properties :
#
#
# Convention : Reuss Voigt Hill
#
# Bulk Modulus (GPa) = 44.68631 84.43522 64.56077
# Shear Modulus (GPa) = 15.57381 20.31421 17.94401
#
# Velocity S-wave (km/s) = 3.04453 3.47715 3.26801
# Velocity P-wave (km/s) = 6.24141 8.14707 7.25706
#
# Compressibility (1/GPa) = 0.02237822
#
# Stress axis : x y z
#
# Youngs Moduli (GPa) = 22.91573 36.87419 74.34880
#
# Poissons Ratio (x) = 0.65606 0.09344
# Poissons Ratio (y) = 0.40771 0.88223
# Poissons Ratio (z) = 0.02880 0.43755
#
# Static dielectric constant tensor:
#      x y z
#    x 1.549950 0.000000 0.000000 
#    y 0.000000 1.563180 0.000000 
#    z 0.000000 0.000000 1.548540 
# 
# From -- ./inp_files/17057.got.cif
#   From: 2010.05.17/outbox.cif.g08.bks.cpg/sg51_9_cif.got.tgz:17057.got - 2010.06.03 11:52:47.
