data_PCOD9399430
_publ_section_title
;
Structure prediction by ZEFSAII (Michael W. Deem and Ramdas Pophale) SiO2 
 PCOD9399430
Probable space group: P M M A
;
_chemical_formula_sum "Si O2"
_cell_formula_units_Z 48
_cell_length_a 15.132709
_cell_length_b 15.854186
_cell_length_c 9.890263
_cell_angle_alpha 90.000000
_cell_angle_beta 90.000000
_cell_angle_gamma 90.000000
_cell_volume 2372.840084
_symmetry_space_group_name_H-M "P M M A"
_symmetry_group_IT_number 51
_symmetry_cell_setting 'orthorhombic'
loop_
_space_group_symop_operation_xyz
x,y,z
1/2-x,-y,z
1/2+x,-y,-z
-x,y,-z
-x,-y,-z
1/2+x,y,-z
1/2-x,y,z
x,-y,z
loop_
_atom_site_type_symbol
_atom_site_label
_atom_site_fract_x
_atom_site_fract_y
_atom_site_fract_z
Si Si1 0.345559 0.000000 0.673380
Si Si2 0.147068 0.838772 0.218846
Si Si3 0.397209 0.165933 0.521933
Si Si4 0.603488 0.500000 0.976878
Si Si5 0.142038 0.683027 0.723682
Si Si6 0.855560 0.315542 0.965163
Si Si7 0.350973 0.500000 0.710545
Si Si8 0.974413 0.000000 0.843380
O O1 0.351702 0.916906 0.581952
O O2 0.432384 0.000000 0.765387
O O3 0.500000 0.000000 0.000000
O O4 0.250000 0.858065 0.185185
O O5 0.142250 0.813442 0.375844
O O6 0.113991 0.760628 0.128372
O O7 0.084280 0.918670 0.194368
O O8 0.500000 0.146500 0.500000
O O9 0.387498 0.241829 0.627848
O O10 0.625499 0.590045 0.912038
O O11 0.500000 0.500000 0.000000
O O12 0.649812 0.500000 0.124673
O O13 0.250000 0.681618 0.724657
O O14 0.109760 0.590760 0.673888
O O15 0.111841 0.692769 0.879795
O O16 0.750000 0.308469 0.971325
O O17 0.250000 0.500000 0.661700
O O18 0.750000 0.000000 0.254166
#
# Coordination Sequence:
#
# PCOD9399430 Si02
#       8
#     4   8   8   4   8   8   4   4
#     4  12  26  47  71  92 122 169 220 256 304 382
#     4  11  24  43  66  94 132 170 206 259 331 386
#     4  12  24  42  64  93 129 167 208 262 316 377
#     4  10  18  30  55  86 125 164 210 259 315 367
#     4   9  18  36  63  90 118 163 219 262 302 369
#     4   9  20  38  62  90 123 167 213 259 314 376
#     4   8  16  34  58  84 116 158 212 263 305 356
#     4  12  28  46  68  99 130 161 207 266 318 380
#
# _framework density 20.228923000000002
#
# number of rings (size 3 to 8) (size 9 to 14) (size 15 to 20)
#    0.000    1.667    1.667    4.250    2.333    4.000 
#    0.000    1.250    0.000    2.000    0.000    0.000 
#    0.000    0.000    0.000    0.000    0.000    0.000 
#
# Total GULP energy -268034.090878 kJ/mol
# GULP energy per Si atom -5584.043560 kJ/mol
# Density = 2.018288 g / cm^3
# Si number density = 20.228923 Si / 1000 Ang^3
#
#
#
# Elastic Constant Matrix: (Units=GPa)
#
#
# Indices 1 2 3 4 5 6 
#
# 1 91.4900 35.0206 18.8761 0.0000 0.0000 0.0000
# 2 35.0206 203.6195 76.6688 0.0000 0.0000 0.0000
# 3 18.8761 76.6688 98.0577 0.0000 0.0000 0.0000
# 4 0.0000 0.0000 0.0000 -10.7383 0.0000 0.0000
# 5 0.0000 0.0000 0.0000 0.0000 21.9858 0.0000
# 6 0.0000 0.0000 0.0000 0.0000 0.0000 43.1843
#
#
#
# Elastic Compliance Matrix: (Units=1/GPa)
#
#
# Indices 1 2 3 4 5 6 
#
# 1 0.011765 -0.001659 -0.000967 0.000000 0.000000 0.000000
# 2 -0.001659 0.007194 -0.005306 0.000000 0.000000 0.000000
# 3 -0.000967 -0.005306 0.014533 0.000000 0.000000 0.000000
# 4 0.000000 0.000000 0.000000 -0.093125 0.000000 0.000000
# 5 0.000000 0.000000 0.000000 0.000000 0.045484 0.000000
# 6 0.000000 0.000000 0.000000 0.000000 0.000000 0.023157
#
#
# Mechanical properties :
#
#
# Convention : Reuss Voigt Hill
#
# Bulk Modulus (GPa) = 56.73037 72.69980 64.71508
# Shear Modulus (GPa) = 162.61349 28.39313 95.50331
#
# Velocity S-wave (km/s) = 8.97559 3.75052 6.87850
# Velocity P-wave (km/s) = 11.64130 7.40079 9.75427
#
# Compressibility (1/GPa) = 0.01762724
#
# Stress axis : x y z
#
# Youngs Moduli (GPa) = 84.99889 139.00120 68.81083
#
# Poissons Ratio (x) = 0.23063 0.06657
# Poissons Ratio (y) = 0.14103 0.36508
# Poissons Ratio (z) = 0.08223 0.73748
#
# Static dielectric constant tensor:
#      x y z
#    x 1.731870 0.000000 0.000000 
#    y 0.000000 2.002290 0.000000 
#    z 0.000000 0.000000 1.696230 
# 
# From -- ./inp_files/9759.got.cif
#   From: 2010.05.17/outbox.cif.g08.bks.cpg/sg51_5_cif.got.tgz:9759.got - 2010.06.03 11:52:47.
