data_PCOD9399391
_publ_section_title
;
Structure prediction by ZEFSAII (Michael W. Deem and Ramdas Pophale) SiO2 
 PCOD9399391
Probable space group: P M M A
;
_chemical_formula_sum "Si O2"
_cell_formula_units_Z 64
_cell_length_a 20.033051
_cell_length_b 7.533526
_cell_length_c 19.586249
_cell_angle_alpha 90.000000
_cell_angle_beta 90.000000
_cell_angle_gamma 90.000000
_cell_volume 2955.947113
_symmetry_space_group_name_H-M "P M M A"
_symmetry_group_IT_number 51
_symmetry_cell_setting 'orthorhombic'
loop_
_space_group_symop_operation_xyz
x,y,z
1/2-x,-y,z
1/2+x,-y,-z
-x,y,-z
-x,-y,-z
1/2+x,y,-z
1/2-x,y,z
x,-y,z
loop_
_atom_site_type_symbol
_atom_site_label
_atom_site_fract_x
_atom_site_fract_y
_atom_site_fract_z
Si Si1 0.568208 0.790324 0.356855
Si Si2 0.179414 0.284395 0.317500
Si Si3 0.623724 0.285051 0.821184
Si Si4 0.527659 0.206207 0.207656
Si Si5 0.571416 0.285896 0.577122
Si Si6 0.550528 0.792918 0.057885
Si Si7 0.326121 0.707725 0.537611
Si Si8 0.826127 0.715294 0.969044
O O1 0.550711 0.718160 0.280950
O O2 0.505131 0.761707 0.407983
O O3 0.636215 0.719447 0.390001
O O4 0.576069 0.000000 0.351070
O O5 0.250000 0.224982 0.347888
O O6 0.178784 0.500000 0.321067
O O7 0.174129 0.234803 0.238681
O O8 0.114226 0.226462 0.357370
O O9 0.620333 0.500000 0.822990
O O10 0.552053 0.216855 0.798163
O O11 0.645646 0.224656 0.895669
O O12 0.549237 0.285491 0.134199
O O13 0.549024 0.000000 0.207962
O O14 0.570035 0.500000 0.571913
O O15 0.618145 0.218313 0.515199
O O16 0.530627 0.000000 0.065467
O O17 0.500000 0.716353 0.000000
O O18 0.623717 0.779683 0.026616
O O19 0.250000 0.779863 0.536260
O O20 0.319832 0.500000 0.519652
O O21 0.750000 0.772386 0.977743
O O22 0.827153 0.500000 0.969004
#
# Coordination Sequence:
#
# PCOD9399391 Si02
#       8
#     8   8   8   8   8   8   8   8
#     4  11  23  38  58  83 114 149 184 228 280 329
#     4   9  16  27  47  77 111 145 180 216 258 314
#     4  10  18  30  52  79 109 145 182 218 265 327
#     4  10  21  37  55  79 110 142 184 233 273 318
#     4  10  19  34  58  86 113 144 183 227 271 323
#     4  10  20  36  58  79 103 142 188 228 267 319
#     4  10  22  40  61  85 112 144 186 234 279 325
#     4  10  21  35  52  81 117 145 175 222 277 330
#
# _framework density 21.651267000000001
#
# number of rings (size 3 to 8) (size 9 to 14) (size 15 to 20)
#    0.000    2.000    2.500    1.500    0.000    6.750 
#    0.000    0.625    0.000    6.750    0.000    0.000 
#    0.000    0.000    0.000    0.000    0.000    0.000 
#
# Total GULP energy -357111.308252 kJ/mol
# GULP energy per Si atom -5579.864191 kJ/mol
# Density = 2.160199 g / cm^3
# Si number density = 21.651267 Si / 1000 Ang^3
#
#
#
# Elastic Constant Matrix: (Units=GPa)
#
#
# Indices 1 2 3 4 5 6 
#
# 1 113.3538 -5.5715 78.1447 0.0000 0.0000 0.0000
# 2 -5.5715 54.6194 1.6226 0.0000 0.0000 0.0000
# 3 78.1447 1.6226 138.6020 0.0000 0.0000 0.0000
# 4 0.0000 0.0000 0.0000 -10.1110 0.0000 0.0000
# 5 0.0000 0.0000 0.0000 0.0000 23.8664 0.0000
# 6 0.0000 0.0000 0.0000 0.0000 0.0000 21.6038
#
#
#
# Elastic Compliance Matrix: (Units=1/GPa)
#
#
# Indices 1 2 3 4 5 6 
#
# 1 0.014593 0.001734 -0.008248 0.000000 0.000000 0.000000
# 2 0.001734 0.018521 -0.001194 0.000000 0.000000 0.000000
# 3 -0.008248 -0.001194 0.011879 0.000000 0.000000 0.000000
# 4 0.000000 0.000000 0.000000 -0.098902 0.000000 0.000000
# 5 0.000000 0.000000 0.000000 0.000000 0.041900 0.000000
# 6 0.000000 0.000000 0.000000 0.000000 0.000000 0.046288
#
#
# Mechanical properties :
#
#
# Convention : Reuss Voigt Hill
#
# Bulk Modulus (GPa) = 33.81128 50.55185 42.18157
# Shear Modulus (GPa) = 83.95570 22.56380 53.25975
#
# Velocity S-wave (km/s) = 6.23382 3.23173 4.96511
# Velocity P-wave (km/s) = 8.21366 6.10937 7.23839
#
# Compressibility (1/GPa) = 0.02957592
#
# Stress axis : x y z
#
# Youngs Moduli (GPa) = 68.52478 53.99324 84.18078
#
# Poissons Ratio (x) = -0.09360 0.69433
# Poissons Ratio (y) = -0.11880 0.10053
# Poissons Ratio (z) = 0.56520 0.06448
#
# Static dielectric constant tensor:
#      x y z
#    x 1.758630 0.000000 0.000000 
#    y 0.000000 1.834410 0.000000 
#    z 0.000000 0.000000 1.830370 
# 
# From -- ./inp_files/33974.got.cif
#   From: 2010.05.17/outbox.cif.g08.bks.cpg/sg51_17_cif.got.tgz:33974.got - 2010.06.03 11:52:47.
