data_PCOD9399728
_publ_section_title
;
Structure prediction by ZEFSAII (Michael W. Deem and Ramdas Pophale) SiO2 
 PCOD9399728
Probable space group: P M M A
;
_chemical_formula_sum "Si O2"
_cell_formula_units_Z 48
_cell_length_a 8.587198
_cell_length_b 31.479262
_cell_length_c 9.428824
_cell_angle_alpha 90.000000
_cell_angle_beta 90.000000
_cell_angle_gamma 90.000000
_cell_volume 2548.787028
_symmetry_space_group_name_H-M "P M M A"
_symmetry_group_IT_number 51
_symmetry_cell_setting 'orthorhombic'
loop_
_space_group_symop_operation_xyz
x,y,z
1/2-x,-y,z
1/2+x,-y,-z
-x,y,-z
-x,-y,-z
1/2+x,y,-z
1/2-x,y,z
x,-y,z
loop_
_atom_site_type_symbol
_atom_site_label
_atom_site_fract_x
_atom_site_fract_y
_atom_site_fract_z
Si Si1 0.062337 0.344551 0.341851
Si Si2 0.063779 0.000000 0.338445
Si Si3 0.563858 0.088889 0.339352
Si Si4 0.563863 0.578930 0.159324
Si Si5 0.062440 0.832582 0.158682
Si Si6 0.063638 0.500000 0.340029
Si Si7 0.062776 0.752809 0.343997
O O1 0.250000 0.347745 0.341361
O O2 0.016207 0.295669 0.310035
O O3 0.000000 0.354437 0.500000
O O4 0.991515 0.377170 0.230258
O O5 0.000000 0.000000 0.500000
O O6 0.000076 0.955783 0.277659
O O7 0.250000 0.000000 0.339349
O O8 0.500000 0.093196 0.500000
O O9 0.750000 0.087528 0.344016
O O10 0.504282 0.128340 0.248641
O O11 0.750000 0.576608 0.157690
O O12 0.496786 0.541144 0.255971
O O13 0.500000 0.575091 0.000000
O O14 0.250000 0.834617 0.159656
O O15 0.012648 0.788401 0.232839
O O16 0.000000 0.834494 0.000000
O O17 0.250000 0.500000 0.342972
O O18 0.000000 0.500000 0.500000
O O19 0.250000 0.753315 0.350001
O O20 0.000000 0.763363 0.500000
#
# Coordination Sequence:
#
# PCOD9399728 Si02
#       7
#     8   4   8   8   8   4   8
#     4  10  20  38  61  89 120 155 195 240 288 342
#     4  10  18  32  55  84 113 144 183 232 280 332
#     4  11  21  36  58  85 114 148 187 233 282 337
#     4  12  25  42  62  89 122 159 197 241 292 348
#     4  11  23  39  56  81 114 152 192 236 287 343
#     4  12  25  44  67  92 120 156 198 244 291 344
#     4   9  20  37  60  86 115 149 193 240 287 339
#
# _framework density 18.832488000000001
#
# number of rings (size 3 to 8) (size 9 to 14) (size 15 to 20)
#    0.000    1.333    0.000    7.750    0.000    4.000 
#    0.000    2.083    0.000    0.000    0.000    0.000 
#    0.000    0.000    0.000    0.000    0.000    0.000 
#
# Total GULP energy -268364.626312 kJ/mol
# GULP energy per Si atom -5590.929715 kJ/mol
# Density = 1.878962 g / cm^3
# Si number density = 18.832488 Si / 1000 Ang^3
#
#
#
# Elastic Constant Matrix: (Units=GPa)
#
#
# Indices 1 2 3 4 5 6 
#
# 1 147.8596 63.9709 62.4030 0.0000 0.0000 0.0000
# 2 63.9709 145.8854 108.8558 0.0000 0.0000 0.0000
# 3 62.4030 108.8558 147.9212 0.0000 0.0000 0.0000
# 4 0.0000 0.0000 0.0000 19.7407 0.0000 0.0000
# 5 0.0000 0.0000 0.0000 0.0000 34.4494 0.0000
# 6 0.0000 0.0000 0.0000 0.0000 0.0000 14.0969
#
#
#
# Elastic Compliance Matrix: (Units=1/GPa)
#
#
# Indices 1 2 3 4 5 6 
#
# 1 0.008578 -0.002354 -0.001887 0.000000 0.000000 0.000000
# 2 -0.002354 0.015848 -0.010670 0.000000 0.000000 0.000000
# 3 -0.001887 -0.010670 0.015408 0.000000 0.000000 0.000000
# 4 0.000000 0.000000 0.000000 0.050657 0.000000 0.000000
# 5 0.000000 0.000000 0.000000 0.000000 0.029028 0.000000
# 6 0.000000 0.000000 0.000000 0.000000 0.000000 0.070938
#
#
# Mechanical properties :
#
#
# Convention : Reuss Voigt Hill
#
# Bulk Modulus (GPa) = 99.85998 101.34730 100.60364
# Shear Modulus (GPa) = 22.35982 27.41983 24.88982
#
# Velocity S-wave (km/s) = 3.44946 3.81988 3.63938
# Velocity P-wave (km/s) = 8.30696 8.56664 8.43780
#
# Compressibility (1/GPa) = 0.01001402
#
# Stress axis : x y z
#
# Youngs Moduli (GPa) = 116.58175 63.09770 64.89964
#
# Poissons Ratio (x) = 0.14850 0.12244
# Poissons Ratio (y) = 0.27438 0.69248
# Poissons Ratio (z) = 0.21995 0.67326
#
# Static dielectric constant tensor:
#      x y z
#    x 1.629050 0.000000 0.000000 
#    y 0.000000 1.667510 0.000000 
#    z 0.000000 0.000000 1.692580 
# 
# From -- ./inp_files/6126.got.cif
#   From: 2010.05.17/outbox.cif.g08.bks.cpg/sg51_4_cif.got.tgz:6126.got - 2010.06.03 11:52:47.
