data_PCOD9399396
_publ_section_title
;
Structure prediction by ZEFSAII (Michael W. Deem and Ramdas Pophale) SiO2 
 PCOD9399396
Probable space group: P M M A
;
_chemical_formula_sum "Si O2"
_cell_formula_units_Z 64
_cell_length_a 8.638316
_cell_length_b 15.788688
_cell_length_c 25.248965
_cell_angle_alpha 90.000000
_cell_angle_beta 90.000000
_cell_angle_gamma 90.000000
_cell_volume 3443.647662
_symmetry_space_group_name_H-M "P M M A"
_symmetry_group_IT_number 51
_symmetry_cell_setting 'orthorhombic'
loop_
_space_group_symop_operation_xyz
x,y,z
1/2-x,-y,z
1/2+x,-y,-z
-x,y,-z
-x,-y,-z
1/2+x,y,-z
1/2-x,y,z
x,-y,z
loop_
_atom_site_type_symbol
_atom_site_label
_atom_site_fract_x
_atom_site_fract_y
_atom_site_fract_z
Si Si1 0.934643 0.774029 0.644544
Si Si2 0.433847 0.366392 0.792510
Si Si3 0.935388 0.903489 0.441114
Si Si4 0.565481 0.095350 0.141960
Si Si5 0.063925 0.226676 0.056799
Si Si6 0.435007 0.813455 0.235353
Si Si7 0.935806 0.409309 0.904768
Si Si8 0.063256 0.406748 0.672237
O O1 0.750000 0.772686 0.639601
O O2 0.973633 0.813145 0.702434
O O3 0.004490 0.833243 0.599399
O O4 0.994446 0.676957 0.645189
O O5 0.250000 0.377492 0.798962
O O6 0.479592 0.268105 0.789018
O O7 0.518892 0.404188 0.842994
O O8 0.478395 0.402113 0.734790
O O9 0.750000 0.900739 0.442696
O O10 0.000000 0.888349 0.500000
O O11 0.982497 0.000000 0.425680
O O12 0.750000 0.106752 0.144914
O O13 0.494636 0.163969 0.102246
O O14 0.492948 0.109449 0.200016
O O15 0.532757 0.000000 0.123433
O O16 0.250000 0.226560 0.056752
O O17 0.006939 0.322799 0.068511
O O18 0.000000 0.199662 0.000000
O O19 0.250000 0.803130 0.230135
O O20 0.750000 0.408501 0.908968
O O21 0.993511 0.500000 0.926112
O O22 0.250000 0.401172 0.669317
O O23 0.016091 0.500000 0.651925
#
# Coordination Sequence:
#
# PCOD9399396 Si02
#       8
#     8   8   8   8   8   8   8   8
#     4  10  21  35  55  85 120 157 197 238 284 339
#     4  10  18  30  52  80 111 147 188 230 274 327
#     4  10  21  38  61  87 116 152 195 243 293 343
#     4  11  24  41  62  87 113 143 182 230 283 340
#     4  11  24  42  63  83 109 144 183 230 281 335
#     4  10  20  35  55  82 117 154 188 226 278 334
#     4  10  21  36  55  81 112 145 181 223 274 333
#     4   9  18  32  50  77 115 156 197 239 282 330
#
# _framework density 18.584944
#
# number of rings (size 3 to 8) (size 9 to 14) (size 15 to 20)
#    0.000    1.875    1.250    2.625    0.000    6.250 
#    0.000    2.500    0.000    0.375    0.000    0.000 
#    0.000    0.000    0.000    0.000    0.000    0.000 
#
# Total GULP energy -357271.044462 kJ/mol
# GULP energy per Si atom -5582.360070 kJ/mol
# Density = 1.854264 g / cm^3
# Si number density = 18.584944 Si / 1000 Ang^3
#
#
#
# Elastic Constant Matrix: (Units=GPa)
#
#
# Indices 1 2 3 4 5 6 
#
# 1 28.8814 35.8905 25.0496 0.0000 0.0000 0.0000
# 2 35.8905 127.6542 64.8745 0.0000 0.0000 0.0000
# 3 25.0496 64.8745 86.5353 0.0000 0.0000 0.0000
# 4 0.0000 0.0000 0.0000 -0.3520 0.0000 0.0000
# 5 0.0000 0.0000 0.0000 0.0000 28.9323 0.0000
# 6 0.0000 0.0000 0.0000 0.0000 0.0000 20.0361
#
#
#
# Elastic Compliance Matrix: (Units=1/GPa)
#
#
# Indices 1 2 3 4 5 6 
#
# 1 0.055788 -0.012081 -0.007092 0.000000 0.000000 0.000000
# 2 -0.012081 0.015271 -0.007952 0.000000 0.000000 0.000000
# 3 -0.007092 -0.007952 0.019570 0.000000 0.000000 0.000000
# 4 0.000000 0.000000 0.000000 -2.840791 0.000000 0.000000
# 5 0.000000 0.000000 0.000000 0.000000 0.034563 0.000000
# 6 0.000000 0.000000 0.000000 0.000000 0.000000 0.049910
#
#
# Mechanical properties :
#
#
# Convention : Reuss Voigt Hill
#
# Bulk Modulus (GPa) = 27.48732 54.96668 41.22700
# Shear Modulus (GPa) = -1.92359 17.54036 7.80839
#
# Velocity S-wave (km/s) = -1.01847 3.07546 2.05197
# Velocity P-wave (km/s) = 3.66595 6.50011 5.27686
#
# Compressibility (1/GPa) = 0.03638041
#
# Stress axis : x y z
#
# Youngs Moduli (GPa) = 17.92485 65.48222 51.09780
#
# Poissons Ratio (x) = 0.79108 0.36240
# Poissons Ratio (y) = 0.21655 0.40631
# Poissons Ratio (z) = 0.12713 0.52069
#
# Static dielectric constant tensor:
#      x y z
#    x 1.622920 0.000000 0.000000 
#    y 0.000000 1.691610 0.000000 
#    z 0.000000 0.000000 1.613680 
# 
# From -- ./inp_files/34935.got.cif
#   From: 2010.05.17/outbox.cif.g08.bks.cpg/sg51_18_cif.got.tgz:34935.got - 2010.06.03 11:52:47.
