data_PCOD9399787
_publ_section_title
;
Structure prediction by ZEFSAII (Michael W. Deem and Ramdas Pophale) SiO2 
 PCOD9399787
Probable space group: P M M A
;
_chemical_formula_sum "Si O2"
_cell_formula_units_Z 52
_cell_length_a 7.770682
_cell_length_b 20.408790
_cell_length_c 15.879012
_cell_angle_alpha 90.000000
_cell_angle_beta 90.000000
_cell_angle_gamma 90.000000
_cell_volume 2518.255960
_symmetry_space_group_name_H-M "P M M A"
_symmetry_group_IT_number 51
_symmetry_cell_setting 'orthorhombic'
loop_
_space_group_symop_operation_xyz
x,y,z
1/2-x,-y,z
1/2+x,-y,-z
-x,y,-z
-x,-y,-z
1/2+x,y,-z
1/2-x,y,z
x,-y,z
loop_
_atom_site_type_symbol
_atom_site_label
_atom_site_fract_x
_atom_site_fract_y
_atom_site_fract_z
Si Si1 0.045183 0.424918 0.138428
Si Si2 0.543981 0.500000 0.595218
Si Si3 0.053360 0.769787 0.598599
Si Si4 0.457342 0.074858 0.904574
Si Si5 0.954619 0.368409 0.673388
Si Si6 0.956057 0.182555 0.226365
Si Si7 0.544553 0.289564 0.910466
O O1 0.250000 0.430677 0.120571
O O2 0.977126 0.500000 0.132741
O O3 0.030114 0.392344 0.230686
O O4 0.969471 0.363775 0.086964
O O5 0.750000 0.500000 0.614455
O O6 0.500000 0.500000 0.500000
O O7 0.473420 0.567633 0.628626
O O8 0.250000 0.790668 0.595489
O O9 0.972260 0.810024 0.678235
O O10 0.000000 0.772156 0.500000
O O11 0.039712 0.696112 0.635785
O O12 0.250000 0.074210 0.898628
O O13 0.523512 0.123494 0.832132
O O14 0.519682 0.000000 0.894307
O O15 0.500000 0.095852 0.000000
O O16 0.750000 0.359327 0.657208
O O17 0.750000 0.174674 0.233444
O O18 0.984338 0.247653 0.169660
O O19 0.750000 0.293597 0.903063
O O20 0.500000 0.257471 0.000000
#
# Coordination Sequence:
#
# PCOD9399787 Si02
#       7
#     8   4   8   8   8   8   8
#     4   9  17  32  53  73  96 133 177 221 271 324
#     4  10  20  30  46  68  93 122 160 213 268 329
#     4  11  23  37  54  77 106 138 176 221 267 317
#     4   9  18  34  57  86 118 149 179 212 256 310
#     4  10  18  33  53  72  95 127 170 218 271 325
#     4  10  21  37  57  82 112 143 179 223 266 313
#     4  11  22  35  55  79 106 141 180 223 271 323
#
# _framework density 20.649211000000001
#
# number of rings (size 3 to 8) (size 9 to 14) (size 15 to 20)
#    0.000    2.000    2.308    1.846    0.000    4.615 
#    0.000    0.000    0.000    3.692    0.000    0.000 
#    0.000    0.000    0.000    0.000    0.000    0.154 
#
# Total GULP energy -289600.381876 kJ/mol
# GULP energy per Si atom -5569.238113 kJ/mol
# Density = 2.060221 g / cm^3
# Si number density = 20.649211 Si / 1000 Ang^3
#
#
#
# Elastic Constant Matrix: (Units=GPa)
#
#
# Indices 1 2 3 4 5 6 
#
# 1 31.7586 2.0746 9.6849 0.0000 0.0000 0.0000
# 2 2.0746 122.6215 62.1126 0.0000 0.0000 0.0000
# 3 9.6849 62.1126 139.4997 0.0000 0.0000 0.0000
# 4 0.0000 0.0000 0.0000 39.6366 0.0000 0.0000
# 5 0.0000 0.0000 0.0000 0.0000 -4.0015 0.0000
# 6 0.0000 0.0000 0.0000 0.0000 0.0000 12.0817
#
#
#
# Elastic Compliance Matrix: (Units=1/GPa)
#
#
# Indices 1 2 3 4 5 6 
#
# 1 0.032223 0.000759 -0.002575 0.000000 0.000000 0.000000
# 2 0.000759 0.010548 -0.004749 0.000000 0.000000 0.000000
# 3 -0.002575 -0.004749 0.009462 0.000000 0.000000 0.000000
# 4 0.000000 0.000000 0.000000 0.025229 0.000000 0.000000
# 5 0.000000 0.000000 0.000000 0.000000 -0.249908 0.000000
# 6 0.000000 0.000000 0.000000 0.000000 0.000000 0.082770
#
#
# Mechanical properties :
#
#
# Convention : Reuss Voigt Hill
#
# Bulk Modulus (GPa) = 25.57366 49.06935 37.32150
# Shear Modulus (GPa) = -78.72582 24.21055 -27.25764
#
# Velocity S-wave (km/s) = -6.18127 3.42785 -3.63717
# Velocity P-wave (km/s) = 6.20745 6.28345 0.68895
#
# Compressibility (1/GPa) = 0.03910273
#
# Stress axis : x y z
#
# Youngs Moduli (GPa) = 31.03354 94.80469 105.68742
#
# Poissons Ratio (x) = -0.07198 0.27216
# Poissons Ratio (y) = -0.02356 0.50193
# Poissons Ratio (z) = 0.07992 0.45025
#
# Static dielectric constant tensor:
#      x y z
#    x 1.768510 0.000000 0.000000 
#    y 0.000000 1.754960 0.000000 
#    z 0.000000 0.000000 1.807450 
# 
# From -- ./inp_files/21629.got.cif
#   From: 2010.05.17/outbox.cif.g08.bks.cpg/sg51_11_cif.got.tgz:21629.got - 2010.06.03 11:52:47.
