data_PCOD9399288
_publ_section_title
;
Structure prediction by ZEFSAII (Michael W. Deem and Ramdas Pophale) SiO2 
 PCOD9399288
Probable space group: P M M A
;
_chemical_formula_sum "Si O2"
_cell_formula_units_Z 40
_cell_length_a 8.601604
_cell_length_b 26.614314
_cell_length_c 9.853922
_cell_angle_alpha 90.000000
_cell_angle_beta 90.000000
_cell_angle_gamma 90.000000
_cell_volume 2255.816876
_symmetry_space_group_name_H-M "P M M A"
_symmetry_group_IT_number 51
_symmetry_cell_setting 'orthorhombic'
loop_
_space_group_symop_operation_xyz
x,y,z
1/2-x,-y,z
1/2+x,-y,-z
-x,y,-z
-x,-y,-z
1/2+x,y,-z
1/2-x,y,z
x,-y,z
loop_
_atom_site_type_symbol
_atom_site_label
_atom_site_fract_x
_atom_site_fract_y
_atom_site_fract_z
Si Si1 0.935726 0.000000 0.345545
Si Si2 0.062820 0.690821 0.151705
Si Si3 0.937077 0.194496 0.849859
Si Si4 0.564442 0.394930 0.346655
Si Si5 0.435799 0.500000 0.345726
Si Si6 0.437061 0.895035 0.346855
O O1 0.000000 0.000000 0.500000
O O2 0.999082 0.947653 0.287330
O O3 0.750000 0.000000 0.347044
O O4 0.250000 0.687174 0.152503
O O5 0.017660 0.748382 0.187539
O O6 0.992058 0.651099 0.255490
O O7 0.000000 0.681403 0.000000
O O8 0.750000 0.193380 0.854952
O O9 0.987396 0.152272 0.743485
O O10 0.000000 0.184042 0.000000
O O11 0.500000 0.389339 0.500000
O O12 0.750000 0.397476 0.352243
O O13 0.498988 0.447644 0.287669
O O14 0.250000 0.500000 0.346701
O O15 0.500000 0.500000 0.500000
O O16 0.500000 0.889658 0.500000
O O17 0.250000 0.897462 0.351568
#
# Coordination Sequence:
#
# PCOD9399288 Si02
#       6
#     4   8   8   8   4   8
#     4  10  18  30  49  74 101 134 168 206 254 306
#     4  10  20  37  56  78 106 140 177 216 262 315
#     4   9  20  36  55  76 103 136 173 212 257 307
#     4  11  21  35  55  81 109 141 177 218 261 309
#     4  10  18  32  53  78 107 140 173 214 262 312
#     4  10  19  33  52  77 104 134 169 211 255 303
#
# _framework density 17.731936000000001
#
# number of rings (size 3 to 8) (size 9 to 14) (size 15 to 20)
#    0.000    2.000    0.000    7.200    0.000    3.200 
#    0.000    3.000    0.000    0.000    0.000    0.000 
#    0.000    0.000    0.000    0.000    0.000    0.000 
#
# Total GULP energy -223196.826535 kJ/mol
# GULP energy per Si atom -5579.920663 kJ/mol
# Density = 1.769158 g / cm^3
# Si number density = 17.731936 Si / 1000 Ang^3
#
#
#
# Elastic Constant Matrix: (Units=GPa)
#
#
# Indices 1 2 3 4 5 6 
#
# 1 117.0164 65.7086 36.4669 0.0000 0.0000 0.0000
# 2 65.7086 192.3167 95.2466 0.0000 0.0000 0.0000
# 3 36.4669 95.2466 68.8947 0.0000 0.0000 0.0000
# 4 0.0000 0.0000 0.0000 -34.2443 0.0000 0.0000
# 5 0.0000 0.0000 0.0000 0.0000 27.1946 0.0000
# 6 0.0000 0.0000 0.0000 0.0000 0.0000 14.6796
#
#
#
# Elastic Compliance Matrix: (Units=1/GPa)
#
#
# Indices 1 2 3 4 5 6 
#
# 1 0.010655 -0.002687 -0.001925 0.000000 0.000000 0.000000
# 2 -0.002687 0.017169 -0.022314 0.000000 0.000000 0.000000
# 3 -0.001925 -0.022314 0.046382 0.000000 0.000000 0.000000
# 4 0.000000 0.000000 0.000000 -0.029202 0.000000 0.000000
# 5 0.000000 0.000000 0.000000 0.000000 0.036772 0.000000
# 6 0.000000 0.000000 0.000000 0.000000 0.000000 0.068122
#
#
# Mechanical properties :
#
#
# Convention : Reuss Voigt Hill
#
# Bulk Modulus (GPa) = 49.12847 85.89688 67.51267
# Shear Modulus (GPa) = 23.74928 13.57970 18.66449
#
# Velocity S-wave (km/s) = 3.66368 2.77037 3.24789
# Velocity P-wave (km/s) = 6.75745 7.66683 7.22646
#
# Compressibility (1/GPa) = 0.02035480
#
# Stress axis : x y z
#
# Youngs Moduli (GPa) = 93.85694 58.24500 21.56005
#
# Poissons Ratio (x) = 0.15651 0.04150
# Poissons Ratio (y) = 0.25220 0.48108
# Poissons Ratio (z) = 0.18064 1.29965
#
# Static dielectric constant tensor:
#      x y z
#    x 1.593660 0.000000 0.000000 
#    y 0.000000 1.643280 0.000000 
#    z 0.000000 0.000000 1.604620 
# 
# From -- ./inp_files/5584.got.cif
#   From: 2010.05.17/outbox.cif.g08.bks.cpg/sg51_3_cif.got.tgz:5584.got - 2010.06.03 11:52:47.
