data_PCOD9399778
_publ_section_title
;
Structure prediction by ZEFSAII (Michael W. Deem and Ramdas Pophale) SiO2 
 PCOD9399778
Probable space group: P M M A
;
_chemical_formula_sum "Si O2"
_cell_formula_units_Z 64
_cell_length_a 32.049639
_cell_length_b 7.556578
_cell_length_c 12.088639
_cell_angle_alpha 90.000000
_cell_angle_beta 90.000000
_cell_angle_gamma 90.000000
_cell_volume 2927.694253
_symmetry_space_group_name_H-M "P M M A"
_symmetry_group_IT_number 51
_symmetry_cell_setting 'orthorhombic'
loop_
_space_group_symop_operation_xyz
x,y,z
1/2-x,-y,z
1/2+x,-y,-z
-x,y,-z
-x,-y,-z
1/2+x,y,-z
1/2-x,y,z
x,-y,z
loop_
_atom_site_type_symbol
_atom_site_label
_atom_site_fract_x
_atom_site_fract_y
_atom_site_fract_z
Si Si1 0.670212 0.286317 0.005779
Si Si2 0.537591 0.795940 0.247398
Si Si3 0.073276 0.285222 0.986789
Si Si4 0.372665 0.284909 0.391019
Si Si5 0.204641 0.792316 0.760167
Si Si6 0.702582 0.715974 0.765034
Si Si7 0.554691 0.704817 0.768883
Si Si8 0.878250 0.792873 0.352946
O O1 0.671620 0.500000 0.006152
O O2 0.621961 0.235337 0.023374
O O3 0.686734 0.227277 0.886359
O O4 0.697159 0.221946 0.108691
O O5 0.492789 0.712560 0.270313
O O6 0.578165 0.716528 0.307976
O O7 0.533444 0.000000 0.280695
O O8 0.547579 0.783990 0.117009
O O9 0.069981 0.500000 0.981859
O O10 0.058056 0.221224 0.106843
O O11 0.373164 0.500000 0.395691
O O12 0.330577 0.229701 0.327637
O O13 0.411984 0.221783 0.317733
O O14 0.375342 0.220257 0.515839
O O15 0.250000 0.715526 0.731398
O O16 0.163580 0.714689 0.701720
O O17 0.205965 0.000000 0.730419
O O18 0.750000 0.773518 0.745439
O O19 0.702432 0.500000 0.766161
O O20 0.567242 0.500000 0.781968
O O21 0.879363 0.000000 0.319308
#
# Coordination Sequence:
#
# PCOD9399778 Si02
#       8
#     8   8   8   8   8   8   8   8
#     4  10  18  32  58  88 115 144 179 221 273 331
#     4  11  23  38  57  82 112 146 186 227 274 328
#     4  10  19  34  58  85 115 147 177 219 276 333
#     4  10  21  38  59  82 108 144 188 230 273 326
#     4  10  21  38  58  80 112 152 187 223 274 330
#     4   9  17  32  56  86 117 144 174 221 278 327
#     4  10  21  38  58  83 115 145 179 224 278 333
#     4  10  23  41  56  76 109 147 186 232 279 320
#
# _framework density 21.860206999999999
#
# number of rings (size 3 to 8) (size 9 to 14) (size 15 to 20)
#    0.000    2.000    2.500    1.125    0.000    5.750 
#    0.000    3.125    0.000    0.750    0.000    0.000 
#    0.000    0.000    0.000    0.000    0.000    0.000 
#
# Total GULP energy -357613.746239 kJ/mol
# GULP energy per Si atom -5587.714785 kJ/mol
# Density = 2.181045 g / cm^3
# Si number density = 21.860207 Si / 1000 Ang^3
#
#
#
# Elastic Constant Matrix: (Units=GPa)
#
#
# Indices 1 2 3 4 5 6 
#
# 1 148.4674 -7.6706 42.2351 0.0000 0.0000 0.0000
# 2 -7.6706 47.7842 -17.3720 0.0000 0.0000 0.0000
# 3 42.2351 -17.3720 103.9750 0.0000 0.0000 0.0000
# 4 0.0000 0.0000 0.0000 26.2282 0.0000 0.0000
# 5 0.0000 0.0000 0.0000 0.0000 2.4612 0.0000
# 6 0.0000 0.0000 0.0000 0.0000 0.0000 3.1758
#
#
#
# Elastic Compliance Matrix: (Units=1/GPa)
#
#
# Indices 1 2 3 4 5 6 
#
# 1 0.007616 0.000104 -0.003076 0.000000 0.000000 0.000000
# 2 0.000104 0.022282 0.003681 0.000000 0.000000 0.000000
# 3 -0.003076 0.003681 0.011482 0.000000 0.000000 0.000000
# 4 0.000000 0.000000 0.000000 0.038127 0.000000 0.000000
# 5 0.000000 0.000000 0.000000 0.000000 0.406312 0.000000
# 6 0.000000 0.000000 0.000000 0.000000 0.000000 0.314885
#
#
# Mechanical properties :
#
#
# Convention : Reuss Voigt Hill
#
# Bulk Modulus (GPa) = 23.36587 37.17906 30.27247
# Shear Modulus (GPa) = 6.14588 25.24196 15.69392
#
# Velocity S-wave (km/s) = 1.67856 3.40177 2.68231
# Velocity P-wave (km/s) = 3.80378 5.69859 4.84472
#
# Compressibility (1/GPa) = 0.04279746
#
# Stress axis : x y z
#
# Youngs Moduli (GPa) = 131.30286 44.87883 87.09114
#
# Poissons Ratio (x) = -0.00468 0.26791
# Poissons Ratio (y) = -0.01368 -0.32054
# Poissons Ratio (z) = 0.40392 -0.16518
#
# Static dielectric constant tensor:
#      x y z
#    x 1.801450 0.000000 0.000000 
#    y 0.000000 1.819440 0.000000 
#    z 0.000000 0.000000 1.743410 
# 
# From -- ./inp_files/19430.got.cif
#   From: 2010.05.17/outbox.cif.g08.bks.cpg/sg51_10_cif.got.tgz:19430.got - 2010.06.03 11:52:47.
