data_PCOD9399132
_publ_section_title
;
Structure prediction by ZEFSAII (Michael W. Deem and Ramdas Pophale) SiO2 
 PCOD9399132
Probable space group: P M M A
;
_chemical_formula_sum "Si O2"
_cell_formula_units_Z 40
_cell_length_a 19.694482
_cell_length_b 8.875644
_cell_length_c 13.353266
_cell_angle_alpha 90.000000
_cell_angle_beta 90.000000
_cell_angle_gamma 90.000000
_cell_volume 2334.167068
_symmetry_space_group_name_H-M "P M M A"
_symmetry_group_IT_number 51
_symmetry_cell_setting 'orthorhombic'
loop_
_space_group_symop_operation_xyz
x,y,z
1/2-x,-y,z
1/2+x,-y,-z
-x,y,-z
-x,-y,-z
1/2+x,y,-z
1/2-x,y,z
x,-y,z
loop_
_atom_site_type_symbol
_atom_site_label
_atom_site_fract_x
_atom_site_fract_y
_atom_site_fract_z
Si Si1 0.071692 0.319699 0.213809
Si Si2 0.917605 0.173531 0.992019
Si Si3 0.172277 0.316500 0.389495
Si Si4 0.578039 0.180822 0.212323
Si Si5 0.830744 0.320367 0.383739
O O1 0.066167 0.500000 0.216757
O O2 0.099823 0.269375 0.105408
O O3 0.120943 0.268041 0.303212
O O4 0.996953 0.249457 0.225787
O O5 0.896667 0.000000 0.976828
O O6 0.894740 0.227416 0.101758
O O7 0.000000 0.174752 0.000000
O O8 0.250000 0.267550 0.371372
O O9 0.172987 0.500000 0.389268
O O10 0.151916 0.272307 0.502397
O O11 0.626466 0.235441 0.300418
O O12 0.572496 0.000000 0.210296
O O13 0.750000 0.296838 0.371187
O O14 0.843408 0.500000 0.375473
#
# Coordination Sequence:
#
# PCOD9399132 Si02
#       5
#     8   8   8   8   8
#     4  10  18  29  51  77  97 122 161 204 239 281
#     4   8  16  31  47  65  95 131 159 190 239 287
#     4   8  16  32  51  71  97 127 156 193 245 291
#     4  10  20  33  49  70 100 132 159 194 240 289
#     4   9  18  34  54  72  93 124 162 201 238 281
#
# _framework density 17.136733
#
# number of rings (size 3 to 8) (size 9 to 14) (size 15 to 20)
#    0.000    3.000    0.000    3.600    0.000    5.600 
#    0.000    7.000    0.000    8.400    0.000    0.000 
#    0.000    0.000    0.000    0.000    0.000    0.000 
#
# Total GULP energy -222835.583831 kJ/mol
# GULP energy per Si atom -5570.889596 kJ/mol
# Density = 1.709773 g / cm^3
# Si number density = 17.136733 Si / 1000 Ang^3
#
#
#
# Elastic Constant Matrix: (Units=GPa)
#
#
# Indices 1 2 3 4 5 6 
#
# 1 46.0292 31.4996 76.8232 0.0000 0.0000 0.0000
# 2 31.4996 39.9913 53.5932 0.0000 0.0000 0.0000
# 3 76.8232 53.5932 186.3772 0.0000 0.0000 0.0000
# 4 0.0000 0.0000 0.0000 -26.9261 0.0000 0.0000
# 5 0.0000 0.0000 0.0000 0.0000 -34.0385 0.0000
# 6 0.0000 0.0000 0.0000 0.0000 0.0000 -1.8773
#
#
#
# Elastic Compliance Matrix: (Units=1/GPa)
#
#
# Indices 1 2 3 4 5 6 
#
# 1 0.092922 -0.035569 -0.028074 0.000000 0.000000 0.000000
# 2 -0.035569 0.054298 -0.000952 0.000000 0.000000 0.000000
# 3 -0.028074 -0.000952 0.017211 0.000000 0.000000 0.000000
# 4 0.000000 0.000000 0.000000 -0.037139 0.000000 0.000000
# 5 0.000000 0.000000 0.000000 0.000000 -0.029379 0.000000
# 6 0.000000 0.000000 0.000000 0.000000 0.000000 -0.532672
#
#
# Mechanical properties :
#
#
# Convention : Reuss Voigt Hill
#
# Bulk Modulus (GPa) = 28.37599 66.24774 47.31187
# Shear Modulus (GPa) = -17.01711 -5.20293 -11.11002
#
# Velocity S-wave (km/s) = -3.15464 -1.74434 -2.54897
# Velocity P-wave (km/s) = 1.82360 5.88942 4.35952
#
# Compressibility (1/GPa) = 0.03524106
#
# Stress axis : x y z
#
# Youngs Moduli (GPa) = 10.76172 18.41697 58.10205
#
# Poissons Ratio (x) = 0.65507 1.63115
# Poissons Ratio (y) = 0.38278 0.05533
# Poissons Ratio (z) = 0.30212 0.01754
#
# Static dielectric constant tensor:
#      x y z
#    x 1.555660 0.000000 0.000000 
#    y 0.000000 1.576240 0.000000 
#    z 0.000000 0.000000 1.603440 
# 
# From -- ./inp_files/17898.got.cif
#   From: 2010.05.17/outbox.cif.g08.bks.cpg/sg51_9_cif.got.tgz:17898.got - 2010.06.03 11:52:47.
