data_PCOD9399936
_publ_section_title
;
Structure prediction by ZEFSAII (Michael W. Deem and Ramdas Pophale) SiO2 
 PCOD9399936
Probable space group: P M M A
;
_chemical_formula_sum "Si O2"
_cell_formula_units_Z 48
_cell_length_a 15.203422
_cell_length_b 9.746695
_cell_length_c 17.280522
_cell_angle_alpha 90.000000
_cell_angle_beta 90.000000
_cell_angle_gamma 90.000000
_cell_volume 2560.681617
_symmetry_space_group_name_H-M "P M M A"
_symmetry_group_IT_number 51
_symmetry_cell_setting 'orthorhombic'
loop_
_space_group_symop_operation_xyz
x,y,z
1/2-x,-y,z
1/2+x,-y,-z
-x,y,-z
-x,-y,-z
1/2+x,y,-z
1/2-x,y,z
x,-y,z
loop_
_atom_site_type_symbol
_atom_site_label
_atom_site_fract_x
_atom_site_fract_y
_atom_site_fract_z
Si Si1 0.482450 0.656315 0.747205
Si Si2 0.499443 0.778906 0.591810
Si Si3 0.349671 0.000000 0.590410
Si Si4 0.649567 0.000000 0.595290
Si Si5 0.155406 0.666343 0.162328
Si Si6 0.353215 0.840738 0.840350
Si Si7 0.605197 0.658744 0.010786
O O1 0.465518 0.500000 0.773223
O O2 0.494938 0.661075 0.655209
O O3 0.571595 0.708566 0.788325
O O4 0.406667 0.755989 0.776814
O O5 0.500000 0.745069 0.500000
O O6 0.412371 0.870824 0.607319
O O7 0.586444 0.869465 0.611032
O O8 0.341498 0.000000 0.497619
O O9 0.250000 0.000000 0.623094
O O10 0.750000 0.000000 0.626837
O O11 0.250000 0.716257 0.191155
O O12 0.155603 0.500000 0.165570
O O13 0.144244 0.700988 0.072081
O O14 0.250000 0.838410 0.823150
O O15 0.381647 0.000000 0.844597
O O16 0.368902 0.760815 0.921041
O O17 0.631505 0.500000 0.027464
O O18 0.500000 0.659129 0.000000
#
# Coordination Sequence:
#
# PCOD9399936 Si02
#       7
#     8   8   4   4   8   8   8
#     4  11  23  39  58  82 118 156 194 244 294 345
#     4   9  19  34  55  84 113 147 195 240 288 346
#     4   8  15  31  56  81 107 142 181 232 288 346
#     4   8  15  31  56  83 111 142 181 230 286 348
#     4   9  18  34  57  83 111 149 192 229 276 343
#     4  11  25  41  59  85 118 156 196 241 292 343
#     4  10  18  35  63  89 114 148 191 235 284 346
#
# _framework density 18.745010000000001
#
# number of rings (size 3 to 8) (size 9 to 14) (size 15 to 20)
#    0.000    2.333    1.667    2.000    2.333    4.000 
#    0.000    0.000    0.000    0.000    0.000    7.000 
#    0.000    0.000    0.000    0.000    0.000    0.000 
#
# Total GULP energy -267531.135024 kJ/mol
# GULP energy per Si atom -5573.565313 kJ/mol
# Density = 1.870235 g / cm^3
# Si number density = 18.745010 Si / 1000 Ang^3
#
#
#
# Elastic Constant Matrix: (Units=GPa)
#
#
# Indices 1 2 3 4 5 6 
#
# 1 124.7918 40.1632 30.2131 0.0000 0.0000 0.0000
# 2 40.1632 85.2547 41.9226 0.0000 0.0000 0.0000
# 3 30.2131 41.9226 96.8949 0.0000 0.0000 0.0000
# 4 0.0000 0.0000 0.0000 17.1522 0.0000 0.0000
# 5 0.0000 0.0000 0.0000 0.0000 -10.3198 0.0000
# 6 0.0000 0.0000 0.0000 0.0000 0.0000 10.9786
#
#
#
# Elastic Compliance Matrix: (Units=1/GPa)
#
#
# Indices 1 2 3 4 5 6 
#
# 1 0.009575 -0.003865 -0.001313 0.000000 0.000000 0.000000
# 2 -0.003865 0.016460 -0.005916 0.000000 0.000000 0.000000
# 3 -0.001313 -0.005916 0.013290 0.000000 0.000000 0.000000
# 4 0.000000 0.000000 0.000000 0.058302 0.000000 0.000000
# 5 0.000000 0.000000 0.000000 0.000000 -0.096901 0.000000
# 6 0.000000 0.000000 0.000000 0.000000 0.000000 0.091087
#
#
# Mechanical properties :
#
#
# Convention : Reuss Voigt Hill
#
# Bulk Modulus (GPa) = 58.35955 59.05991 58.70973
# Shear Modulus (GPa) = 41.76652 16.53835 29.15243
#
# Velocity S-wave (km/s) = 4.72544 2.97354 3.94789
# Velocity P-wave (km/s) = 7.80859 6.58519 7.22283
#
# Compressibility (1/GPa) = 0.01713516
#
# Stress axis : x y z
#
# Youngs Moduli (GPa) = 104.43581 60.75493 75.24604
#
# Poissons Ratio (x) = 0.23482 0.09883
# Poissons Ratio (y) = 0.40364 0.44517
# Poissons Ratio (z) = 0.13717 0.35944
#
# Static dielectric constant tensor:
#      x y z
#    x 1.680520 0.000000 0.000000 
#    y 0.000000 1.635000 0.000000 
#    z 0.000000 0.000000 1.649940 
# 
# From -- ./inp_files/29601.got.cif
#   From: 2010.05.17/outbox.cif.g08.bks.cpg/sg51_15_cif.got.tgz:29601.got - 2010.06.03 11:52:47.
