data_PCOD9399410
_publ_section_title
;
Structure prediction by ZEFSAII (Michael W. Deem and Ramdas Pophale) SiO2 
 PCOD9399410
Probable space group: P M M A
;
_chemical_formula_sum "Si O2"
_cell_formula_units_Z 40
_cell_length_a 8.539192
_cell_length_b 27.505977
_cell_length_c 9.274366
_cell_angle_alpha 90.000000
_cell_angle_beta 90.000000
_cell_angle_gamma 90.000000
_cell_volume 2178.352131
_symmetry_space_group_name_H-M "P M M A"
_symmetry_group_IT_number 51
_symmetry_cell_setting 'orthorhombic'
loop_
_space_group_symop_operation_xyz
x,y,z
1/2-x,-y,z
1/2+x,-y,-z
-x,y,-z
-x,-y,-z
1/2+x,y,-z
1/2-x,y,z
x,-y,z
loop_
_atom_site_type_symbol
_atom_site_label
_atom_site_fract_x
_atom_site_fract_y
_atom_site_fract_z
Si Si1 0.939078 0.395500 0.335474
Si Si2 0.439604 0.500000 0.665388
Si Si3 0.562081 0.101635 0.663450
Si Si4 0.563476 0.000000 0.335377
Si Si5 0.561733 0.289175 0.336093
Si Si6 0.062401 0.197274 0.161553
O O1 0.750000 0.395598 0.337417
O O2 0.990391 0.447680 0.270458
O O3 0.987526 0.342697 0.276494
O O4 0.000000 0.395633 0.500000
O O5 0.250000 0.500000 0.663220
O O6 0.500000 0.500000 0.500000
O O7 0.500000 0.106573 0.500000
O O8 0.750000 0.099291 0.658686
O O9 0.498664 0.050767 0.726943
O O10 0.511997 0.148557 0.753978
O O11 0.500000 0.000000 0.500000
O O12 0.750000 0.000000 0.337286
O O13 0.500000 0.285127 0.500000
O O14 0.750000 0.287163 0.338862
O O15 0.497740 0.244949 0.243387
O O16 0.250000 0.198049 0.160749
O O17 0.000000 0.196453 0.000000
#
# Coordination Sequence:
#
# PCOD9399410 Si02
#       6
#     8   4   8   4   8   8
#     4   8  14  23  38  62  92 126 160 198 243 292
#     4   8  12  20  34  56  89 124 157 192 238 292
#     4  10  20  35  56  81 107 135 168 205 246 293
#     4  10  18  30  53  82 109 136 166 202 244 288
#     4  10  19  32  51  75 103 134 171 212 254 301
#     4  11  24  39  55  75 101 135 172 213 260 307
#
# _framework density 18.362501999999999
#
# number of rings (size 3 to 8) (size 9 to 14) (size 15 to 20)
#    0.000    2.400    0.000    4.500    0.000    5.600 
#    0.000    0.500    0.000    0.000    0.000    0.700 
#    0.000    0.000    0.000    0.000    0.000    0.000 
#
# Total GULP energy -222855.753965 kJ/mol
# GULP energy per Si atom -5571.393849 kJ/mol
# Density = 1.832071 g / cm^3
# Si number density = 18.362502 Si / 1000 Ang^3
#
#
#
# Elastic Constant Matrix: (Units=GPa)
#
#
# Indices 1 2 3 4 5 6 
#
# 1 44.2083 45.8659 16.2455 0.0000 0.0000 0.0000
# 2 45.8659 255.3993 70.0847 0.0000 0.0000 0.0000
# 3 16.2455 70.0847 54.2944 0.0000 0.0000 0.0000
# 4 0.0000 0.0000 0.0000 -5.6469 0.0000 0.0000
# 5 0.0000 0.0000 0.0000 0.0000 19.9631 0.0000
# 6 0.0000 0.0000 0.0000 0.0000 0.0000 18.7548
#
#
#
# Elastic Compliance Matrix: (Units=1/GPa)
#
#
# Indices 1 2 3 4 5 6 
#
# 1 0.028098 -0.004241 -0.002933 0.000000 0.000000 0.000000
# 2 -0.004241 0.006703 -0.007384 0.000000 0.000000 0.000000
# 3 -0.002933 -0.007384 0.028827 0.000000 0.000000 0.000000
# 4 0.000000 0.000000 0.000000 -0.177087 0.000000 0.000000
# 5 0.000000 0.000000 0.000000 0.000000 0.050092 0.000000
# 6 0.000000 0.000000 0.000000 0.000000 0.000000 0.053320
#
#
# Mechanical properties :
#
#
# Convention : Reuss Voigt Hill
#
# Bulk Modulus (GPa) = 28.97457 68.69935 48.83696
# Shear Modulus (GPa) = 163.54708 21.39459 92.47084
#
# Velocity S-wave (km/s) = 9.44771 3.41709 7.10407
# Velocity P-wave (km/s) = 11.61144 7.28442 9.69248
#
# Compressibility (1/GPa) = 0.03451303
#
# Stress axis : x y z
#
# Youngs Moduli (GPa) = 35.58958 149.18009 34.69001
#
# Poissons Ratio (x) = 0.63271 0.10173
# Poissons Ratio (y) = 0.15095 0.25614
# Poissons Ratio (z) = 0.10437 1.10151
#
# Static dielectric constant tensor:
#      x y z
#    x 1.624330 0.000000 0.000000 
#    y 0.000000 1.717100 0.000000 
#    z 0.000000 0.000000 1.564720 
# 
# From -- ./inp_files/5599.got.cif
#   From: 2010.05.17/outbox.cif.g08.bks.cpg/sg51_3_cif.got.tgz:5599.got - 2010.06.03 11:52:47.
