data_PCOD9399615
_publ_section_title
;
Structure prediction by ZEFSAII (Michael W. Deem and Ramdas Pophale) SiO2 
 PCOD9399615
Probable space group: P M M A
;
_chemical_formula_sum "Si O2"
_cell_formula_units_Z 28
_cell_length_a 8.719001
_cell_length_b 12.854829
_cell_length_c 15.789447
_cell_angle_alpha 90.000000
_cell_angle_beta 90.000000
_cell_angle_gamma 90.000000
_cell_volume 1769.701224
_symmetry_space_group_name_H-M "P M M A"
_symmetry_group_IT_number 51
_symmetry_cell_setting 'orthorhombic'
loop_
_space_group_symop_operation_xyz
x,y,z
1/2-x,-y,z
1/2+x,-y,-z
-x,y,-z
-x,-y,-z
1/2+x,y,-z
1/2-x,y,z
x,-y,z
loop_
_atom_site_type_symbol
_atom_site_label
_atom_site_fract_x
_atom_site_fract_y
_atom_site_fract_z
Si Si1 0.066380 0.377219 0.913310
Si Si2 0.066449 0.000000 0.595642
Si Si3 0.434726 0.623703 0.725438
Si Si4 0.432634 0.784488 0.405346
O O1 0.250000 0.371045 0.917206
O O2 0.024662 0.500000 0.912660
O O3 0.018888 0.338905 0.820185
O O4 0.000000 0.330966 0.000000
O O5 0.000000 0.000000 0.500000
O O6 0.003293 0.108233 0.631766
O O7 0.250000 0.000000 0.594399
O O8 0.250000 0.636000 0.717871
O O9 0.466116 0.500000 0.718560
O O10 0.517730 0.689666 0.653922
O O11 0.500000 0.770126 0.500000
O O12 0.250000 0.794127 0.411211
#
# Coordination Sequence:
#
# PCOD9399615 Si02
#       4
#     8   4   8   8
#     4   8  14  25  42  63  88 118 151 188 227 266
#     4  10  18  32  52  70  89 114 149 192 234 272
#     4   9  18  32  47  66  95 128 159 190 227 273
#     4  11  21  33  49  69  93 121 155 193 232 273
#
# _framework density 15.82188
#
# number of rings (size 3 to 8) (size 9 to 14) (size 15 to 20)
#    0.000    2.571    0.000    7.286    0.000    2.286 
#    0.000    2.857    0.000    0.000    0.000    1.000 
#    0.000    0.000    0.000    0.000    0.000    0.000 
#
# Total GULP energy -155905.486316 kJ/mol
# GULP energy per Si atom -5568.053083 kJ/mol
# Density = 1.578587 g / cm^3
# Si number density = 15.821880 Si / 1000 Ang^3
#
#
#
# Elastic Constant Matrix: (Units=GPa)
#
#
# Indices 1 2 3 4 5 6 
#
# 1 93.9429 39.8592 45.9117 0.0000 0.0000 0.0000
# 2 39.8592 60.4999 43.8688 0.0000 0.0000 0.0000
# 3 45.9117 43.8688 105.5971 0.0000 0.0000 0.0000
# 4 0.0000 0.0000 0.0000 -1.8791 0.0000 0.0000
# 5 0.0000 0.0000 0.0000 0.0000 26.5152 0.0000
# 6 0.0000 0.0000 0.0000 0.0000 0.0000 22.3080
#
#
#
# Elastic Compliance Matrix: (Units=1/GPa)
#
#
# Indices 1 2 3 4 5 6 
#
# 1 0.015683 -0.007711 -0.003615 0.000000 0.000000 0.000000
# 2 -0.007711 0.027446 -0.008049 0.000000 0.000000 0.000000
# 3 -0.003615 -0.008049 0.014386 0.000000 0.000000 0.000000
# 4 0.000000 0.000000 0.000000 -0.532172 0.000000 0.000000
# 5 0.000000 0.000000 0.000000 0.000000 0.037714 0.000000
# 6 0.000000 0.000000 0.000000 0.000000 0.000000 0.044827
#
#
# Mechanical properties :
#
#
# Convention : Reuss Voigt Hill
#
# Bulk Modulus (GPa) = 53.29519 57.70212 55.49866
# Shear Modulus (GPa) = -14.40469 18.08217 1.83874
#
# Velocity S-wave (km/s) = -3.02060 3.38429 1.07920
# Velocity P-wave (km/s) = 4.64674 7.19862 6.05856
#
# Compressibility (1/GPa) = 0.01876342
#
# Stress axis : x y z
#
# Youngs Moduli (GPa) = 63.76133 36.43520 69.51287
#
# Poissons Ratio (x) = 0.28096 0.25131
# Poissons Ratio (y) = 0.49168 0.55953
# Poissons Ratio (z) = 0.23052 0.29328
#
# Static dielectric constant tensor:
#      x y z
#    x 1.530030 0.000000 0.000000 
#    y 0.000000 1.535730 0.000000 
#    z 0.000000 0.000000 1.555560 
# 
# From -- ./inp_files/19989.got.cif
#   From: 2010.05.17/outbox.cif.g08.bks.cpg/sg51_10_cif.got.tgz:19989.got - 2010.06.03 11:52:47.
