data_PCOD9399817
_publ_section_title
;
Structure prediction by ZEFSAII (Michael W. Deem and Ramdas Pophale) SiO2 
 PCOD9399817
Probable space group: P M M A
;
_chemical_formula_sum "Si O2"
_cell_formula_units_Z 64
_cell_length_a 14.133933
_cell_length_b 18.603012
_cell_length_c 13.037616
_cell_angle_alpha 90.000000
_cell_angle_beta 90.000000
_cell_angle_gamma 90.000000
_cell_volume 3428.028943
_symmetry_space_group_name_H-M "P M M A"
_symmetry_group_IT_number 51
_symmetry_cell_setting 'orthorhombic'
loop_
_space_group_symop_operation_xyz
x,y,z
1/2-x,-y,z
1/2+x,-y,-z
-x,y,-z
-x,-y,-z
1/2+x,y,-z
1/2-x,y,z
x,-y,z
loop_
_atom_site_type_symbol
_atom_site_label
_atom_site_fract_x
_atom_site_fract_y
_atom_site_fract_z
Si Si1 0.440616 0.646651 0.262748
Si Si2 0.144296 0.318152 0.660932
Si Si3 0.510050 0.915283 0.875473
Si Si4 0.889289 0.418120 0.526656
Si Si5 0.864586 0.581130 0.946420
Si Si6 0.137228 0.786670 0.172015
Si Si7 0.138250 0.180058 0.770507
Si Si8 0.363137 0.282284 0.952327
O O1 0.553050 0.646028 0.285314
O O2 0.385920 0.609115 0.356849
O O3 0.410873 0.606365 0.159380
O O4 0.407261 0.729560 0.250710
O O5 0.250000 0.329230 0.708423
O O6 0.147973 0.357078 0.550819
O O7 0.128109 0.231235 0.669584
O O8 0.593993 0.865835 0.831203
O O9 0.421162 0.889210 0.805245
O O10 0.525608 0.000000 0.864041
O O11 0.500000 0.902400 0.000000
O O12 0.852739 0.500000 0.513973
O O13 0.000000 0.422119 0.500000
O O14 0.750000 0.587517 0.933654
O O15 0.887452 0.500000 0.971248
O O16 0.893392 0.635905 0.035982
O O17 0.250000 0.787072 0.183510
O O18 0.113231 0.754720 0.059611
O O19 0.250000 0.164446 0.780530
O O20 0.103112 0.236402 0.857709
O O21 0.250000 0.280882 0.944454
#
# Coordination Sequence:
#
# PCOD9399817 Si02
#       8
#     8   8   8   8   8   8   8   8
#     4  10  18  33  56  78 105 141 181 220 273 331
#     4  10  21  34  52  76 104 144 184 218 264 321
#     4  11  22  34  54  83 111 144 179 217 274 329
#     4   9  19  35  53  77 109 140 177 231 282 318
#     4   9  17  29  47  73 100 131 179 232 271 309
#     4  10  19  33  52  79 110 142 179 220 266 324
#     4  10  19  35  54  74 103 143 183 216 258 317
#     4   8  15  28  48  70  98 136 176 218 262 306
#
# _framework density 18.669620999999999
#
# number of rings (size 3 to 8) (size 9 to 14) (size 15 to 20)
#    0.000    2.375    2.500    1.500    0.000    2.250 
#    0.000    1.875    0.000    3.000    0.000    1.750 
#    0.000    2.000    0.000    0.000    0.000    0.000 
#
# Total GULP energy -356521.081284 kJ/mol
# GULP energy per Si atom -5570.641895 kJ/mol
# Density = 1.862713 g / cm^3
# Si number density = 18.669621 Si / 1000 Ang^3
#
#
#
# Elastic Constant Matrix: (Units=GPa)
#
#
# Indices 1 2 3 4 5 6 
#
# 1 95.9291 26.6837 4.6419 0.0000 0.0000 0.0000
# 2 26.6837 127.5095 27.9409 0.0000 0.0000 0.0000
# 3 4.6419 27.9409 54.6562 0.0000 0.0000 0.0000
# 4 0.0000 0.0000 0.0000 26.2802 0.0000 0.0000
# 5 0.0000 0.0000 0.0000 0.0000 15.8556 0.0000
# 6 0.0000 0.0000 0.0000 0.0000 0.0000 -1.5048
#
#
#
# Elastic Compliance Matrix: (Units=1/GPa)
#
#
# Indices 1 2 3 4 5 6 
#
# 1 0.011072 -0.002377 0.000275 0.000000 0.000000 0.000000
# 2 -0.002377 0.009342 -0.004574 0.000000 0.000000 0.000000
# 3 0.000275 -0.004574 0.020611 0.000000 0.000000 0.000000
# 4 0.000000 0.000000 0.000000 0.038051 0.000000 0.000000
# 5 0.000000 0.000000 0.000000 0.000000 0.063069 0.000000
# 6 0.000000 0.000000 0.000000 0.000000 0.000000 -0.664553
#
#
# Mechanical properties :
#
#
# Convention : Reuss Voigt Hill
#
# Bulk Modulus (GPa) = 36.13627 44.06976 40.10302
# Shear Modulus (GPa) = -10.00342 22.71477 6.35567
#
# Velocity S-wave (km/s) = -2.31727 3.49186 1.84707
# Velocity P-wave (km/s) = 3.49828 6.31774 5.10646
#
# Compressibility (1/GPa) = 0.02767303
#
# Stress axis : x y z
#
# Youngs Moduli (GPa) = 90.31514 107.03944 48.51749
#
# Poissons Ratio (x) = 0.25447 -0.01334
# Poissons Ratio (y) = 0.21471 0.22192
# Poissons Ratio (z) = -0.02483 0.48960
#
# Static dielectric constant tensor:
#      x y z
#    x 1.708280 0.000000 0.000000 
#    y 0.000000 1.658480 0.000000 
#    z 0.000000 0.000000 1.661160 
# 
# From -- ./inp_files/24471.got.cif
#   From: 2010.05.17/outbox.cif.g08.bks.cpg/sg51_13_cif.got.tgz:24471.got - 2010.06.03 11:52:47.
