data_PCOD9399404
_publ_section_title
;
Structure prediction by ZEFSAII (Michael W. Deem and Ramdas Pophale) SiO2 
 PCOD9399404
Probable space group: P M M A
;
_chemical_formula_sum "Si O2"
_cell_formula_units_Z 56
_cell_length_a 22.463619
_cell_length_b 8.558295
_cell_length_c 15.025937
_cell_angle_alpha 90.000000
_cell_angle_beta 90.000000
_cell_angle_gamma 90.000000
_cell_volume 2888.740568
_symmetry_space_group_name_H-M "P M M A"
_symmetry_group_IT_number 51
_symmetry_cell_setting 'orthorhombic'
loop_
_space_group_symop_operation_xyz
x,y,z
1/2-x,-y,z
1/2+x,-y,-z
-x,y,-z
-x,-y,-z
1/2+x,y,-z
1/2-x,y,z
x,-y,z
loop_
_atom_site_type_symbol
_atom_site_label
_atom_site_fract_x
_atom_site_fract_y
_atom_site_fract_z
Si Si1 0.250000 0.680003 0.178614
Si Si2 0.933141 0.179214 0.037502
Si Si3 0.416940 0.312786 0.766031
Si Si4 0.957115 0.311634 0.692850
Si Si5 0.750000 0.824956 0.642353
Si Si6 0.878121 0.688336 0.861864
Si Si7 0.874812 0.818334 0.538978
Si Si8 0.680545 0.189043 0.357882
O O1 0.250000 0.500000 0.148719
O O2 0.250000 0.691471 0.284718
O O3 0.188209 0.753006 0.149714
O O4 0.928684 0.261581 0.132629
O O5 0.913025 0.000000 0.046794
O O6 0.898675 0.266228 0.959342
O O7 0.000000 0.178124 0.000000
O O8 0.413635 0.500000 0.761762
O O9 0.474632 0.260302 0.707904
O O10 0.356061 0.241246 0.728321
O O11 0.956949 0.500000 0.693598
O O12 0.919742 0.256312 0.780093
O O13 0.923538 0.258700 0.603361
O O14 0.810173 0.812953 0.586336
O O15 0.750000 0.000000 0.683401
O O16 0.877290 0.500000 0.854021
O O17 0.859162 0.751984 0.441591
O O18 0.891971 0.000000 0.529480
O O19 0.750000 0.240400 0.361001
O O20 0.681752 0.000000 0.363585
#
# Coordination Sequence:
#
# PCOD9399404 Si02
#       8
#     4   8   8   8   4   8   8   8
#     4  10  20  34  54  83 118 155 194 237 288 350
#     4  11  23  39  63  90 114 149 198 246 297 358
#     4  11  24  42  63  88 119 155 198 246 298 354
#     4  10  21  36  58  89 124 158 192 239 294 349
#     4  10  18  30  52  83 116 153 194 237 286 344
#     4  10  20  36  57  84 120 159 195 238 296 354
#     4  10  20  35  59  88 119 156 197 240 291 349
#     4  10  22  43  66  87 117 158 203 249 296 347
#
# _framework density 19.385611000000001
#
# number of rings (size 3 to 8) (size 9 to 14) (size 15 to 20)
#    0.000    1.714    3.571    0.857    0.000    4.286 
#    1.286    2.857    0.000    0.000    0.000    0.000 
#    0.000    0.000    0.000    0.000    0.000    0.000 
#
# Total GULP energy -312360.912654 kJ/mol
# GULP energy per Si atom -5577.873440 kJ/mol
# Density = 1.934149 g / cm^3
# Si number density = 19.385611 Si / 1000 Ang^3
#
#
#
# Elastic Constant Matrix: (Units=GPa)
#
#
# Indices 1 2 3 4 5 6 
#
# 1 91.1361 17.9112 46.2214 0.0000 0.0000 0.0000
# 2 17.9112 10.2757 8.8188 0.0000 0.0000 0.0000
# 3 46.2214 8.8188 101.5705 0.0000 0.0000 0.0000
# 4 0.0000 0.0000 0.0000 26.2402 0.0000 0.0000
# 5 0.0000 0.0000 0.0000 0.0000 18.6170 0.0000
# 6 0.0000 0.0000 0.0000 0.0000 0.0000 -331.6289
#
#
#
# Elastic Compliance Matrix: (Units=1/GPa)
#
#
# Indices 1 2 3 4 5 6 
#
# 1 0.020084 -0.029351 -0.006591 0.000000 0.000000 0.000000
# 2 -0.029351 0.148046 0.000503 0.000000 0.000000 0.000000
# 3 -0.006591 0.000503 0.012801 0.000000 0.000000 0.000000
# 4 0.000000 0.000000 0.000000 0.038110 0.000000 0.000000
# 5 0.000000 0.000000 0.000000 0.000000 0.053714 0.000000
# 6 0.000000 0.000000 0.000000 0.000000 0.000000 -0.003015
#
#
# Mechanical properties :
#
#
# Convention : Reuss Voigt Hill
#
# Bulk Modulus (GPa) = 9.08660 38.76500 23.92580
# Shear Modulus (GPa) = 13.25200 -48.68562 -17.71681
#
# Velocity S-wave (km/s) = 2.61741 -5.01685 -3.02638
# Velocity P-wave (km/s) = 3.71913 3.67672 0.39603
#
# Compressibility (1/GPa) = 0.11005221
#
# Stress axis : x y z
#
# Youngs Moduli (GPa) = 49.79149 6.75467 78.11802
#
# Poissons Ratio (x) = 0.19825 0.51488
# Poissons Ratio (y) = 1.46141 -0.03926
# Poissons Ratio (z) = 0.32818 -0.00339
#
# Static dielectric constant tensor:
#      x y z
#    x 1.610100 0.000000 0.000000 
#    y 0.000000 1.682320 0.000000 
#    z 0.000000 0.000000 1.683910 
# 
# From -- ./inp_files/25842.got.cif
#   From: 2010.05.17/outbox.cif.g08.bks.cpg/sg51_13_cif.got.tgz:25842.got - 2010.06.03 11:52:47.
