data_PCOD9399362
_publ_section_title
;
Structure prediction by ZEFSAII (Michael W. Deem and Ramdas Pophale) SiO2 
 PCOD9399362
Probable space group: P M M A
;
_chemical_formula_sum "Si O2"
_cell_formula_units_Z 32
_cell_length_a 8.422876
_cell_length_b 21.826670
_cell_length_c 9.378652
_cell_angle_alpha 90.000000
_cell_angle_beta 90.000000
_cell_angle_gamma 90.000000
_cell_volume 1724.202661
_symmetry_space_group_name_H-M "P M M A"
_symmetry_group_IT_number 51
_symmetry_cell_setting 'orthorhombic'
loop_
_space_group_symop_operation_xyz
x,y,z
1/2-x,-y,z
1/2+x,-y,-z
-x,y,-z
-x,-y,-z
1/2+x,y,-z
1/2-x,y,z
x,-y,z
loop_
_atom_site_type_symbol
_atom_site_label
_atom_site_fract_x
_atom_site_fract_y
_atom_site_fract_z
Si Si1 0.559792 0.629249 0.662686
Si Si2 0.442205 0.133559 0.337032
Si Si3 0.438650 0.500000 0.663506
Si Si4 0.558542 0.000000 0.663303
Si Si5 0.557975 0.748200 0.838813
O O1 0.500000 0.635337 0.500000
O O2 0.750000 0.627918 0.659138
O O3 0.500393 0.564253 0.724291
O O4 0.505593 0.687432 0.754152
O O5 0.500000 0.139764 0.500000
O O6 0.250000 0.134440 0.339269
O O7 0.497465 0.190619 0.243030
O O8 0.493756 0.066378 0.278953
O O9 0.750000 0.500000 0.336888
O O10 0.500000 0.500000 0.500000
O O11 0.500000 0.000000 0.500000
O O12 0.750000 0.000000 0.665644
O O13 0.750000 0.748500 0.837652
O O14 0.500000 0.747439 0.000000
#
# Coordination Sequence:
#
# PCOD9399362 Si02
#       5
#     8   8   4   4   8
#     4  10  19  33  53  77 101 128 162 203 246 292
#     4   9  17  31  51  76 100 128 164 204 247 293
#     4  10  18  30  51  78 103 128 158 198 244 292
#     4   8  14  26  47  72 100 126 156 200 247 290
#     4  10  22  36  50  70 100 134 169 205 245 290
#
# _framework density 18.559303
#
# number of rings (size 3 to 8) (size 9 to 14) (size 15 to 20)
#    0.000    2.500    0.000    4.125    0.000    3.000 
#    0.000    1.250    0.000    0.000    0.000    0.000 
#    0.000    0.000    0.000    0.000    0.000    0.000 
#
# Total GULP energy -178376.816443 kJ/mol
# GULP energy per Si atom -5574.275514 kJ/mol
# Density = 1.851706 g / cm^3
# Si number density = 18.559303 Si / 1000 Ang^3
#
#
#
# Elastic Constant Matrix: (Units=GPa)
#
#
# Indices 1 2 3 4 5 6 
#
# 1 31.7485 33.7314 11.1449 0.0000 0.0000 0.0000
# 2 33.7314 249.0395 88.5159 0.0000 0.0000 0.0000
# 3 11.1449 88.5159 78.2230 0.0000 0.0000 0.0000
# 4 0.0000 0.0000 0.0000 -5.4392 0.0000 0.0000
# 5 0.0000 0.0000 0.0000 0.0000 24.3808 0.0000
# 6 0.0000 0.0000 0.0000 0.0000 0.0000 14.0542
#
#
#
# Elastic Compliance Matrix: (Units=1/GPa)
#
#
# Indices 1 2 3 4 5 6 
#
# 1 0.036813 -0.005222 0.000665 0.000000 0.000000 0.000000
# 2 -0.005222 0.007458 -0.007695 0.000000 0.000000 0.000000
# 3 0.000665 -0.007695 0.021397 0.000000 0.000000 0.000000
# 4 0.000000 0.000000 0.000000 -0.183851 0.000000 0.000000
# 5 0.000000 0.000000 0.000000 0.000000 0.041016 0.000000
# 6 0.000000 0.000000 0.000000 0.000000 0.000000 0.071153
#
#
# Mechanical properties :
#
#
# Convention : Reuss Voigt Hill
#
# Bulk Modulus (GPa) = 24.29436 69.53283 46.91360
# Shear Modulus (GPa) = 155.22225 21.64042 88.43133
#
# Velocity S-wave (km/s) = 9.15518 3.41840 6.91024
# Velocity P-wave (km/s) = 11.17475 7.28884 9.43404
#
# Compressibility (1/GPa) = 0.04116181
#
# Stress axis : x y z
#
# Youngs Moduli (GPa) = 27.16449 134.08700 46.73567
#
# Poissons Ratio (x) = 0.70025 -0.03106
# Poissons Ratio (y) = 0.14186 0.35964
# Poissons Ratio (z) = -0.01805 1.03181
#
# Static dielectric constant tensor:
#      x y z
#    x 1.632520 0.000000 0.000000 
#    y 0.000000 1.709320 0.000000 
#    z 0.000000 0.000000 1.578490 
# 
# From -- ./inp_files/5175.got.cif
#   From: 2010.05.17/outbox.cif.g08.bks.cpg/sg51_3_cif.got.tgz:5175.got - 2010.06.03 11:52:47.
