data_PCOD9399949
_publ_section_title
;
Structure prediction by ZEFSAII (Michael W. Deem and Ramdas Pophale) SiO2 
 PCOD9399949
Probable space group: P M M A
;
_chemical_formula_sum "Si O2"
_cell_formula_units_Z 48
_cell_length_a 16.848066
_cell_length_b 7.623989
_cell_length_c 16.035248
_cell_angle_alpha 90.000000
_cell_angle_beta 90.000000
_cell_angle_gamma 90.000000
_cell_volume 2059.719105
_symmetry_space_group_name_H-M "P M M A"
_symmetry_group_IT_number 51
_symmetry_cell_setting 'orthorhombic'
loop_
_space_group_symop_operation_xyz
x,y,z
1/2-x,-y,z
1/2+x,-y,-z
-x,y,-z
-x,-y,-z
1/2+x,y,-z
1/2-x,y,z
x,-y,z
loop_
_atom_site_type_symbol
_atom_site_label
_atom_site_fract_x
_atom_site_fract_y
_atom_site_fract_z
Si Si1 0.161151 0.210899 0.296401
Si Si2 0.886110 0.707065 0.361281
Si Si3 0.916778 0.796826 0.534117
Si Si4 0.750000 0.301619 0.044159
Si Si5 0.250000 0.793799 0.767782
Si Si6 0.424907 0.285215 0.943262
Si Si7 0.998959 0.709804 0.771925
O O1 0.250000 0.276378 0.279694
O O2 0.127847 0.279332 0.385767
O O3 0.094349 0.252462 0.227834
O O4 0.165711 0.000000 0.302104
O O5 0.891084 0.500000 0.375315
O O6 0.865417 0.789703 0.449563
O O7 0.823390 0.743607 0.289616
O O8 0.966543 0.774783 0.316721
O O9 0.000000 0.716470 0.500000
O O10 0.932658 0.000000 0.553205
O O11 0.750000 0.500000 0.009901
O O12 0.750000 0.305515 0.145088
O O13 0.662264 0.223063 0.026600
O O14 0.250000 0.000000 0.786130
O O15 0.420237 0.500000 0.942043
O O16 0.450156 0.224915 0.850391
O O17 0.500000 0.237636 0.000000
O O18 0.008552 0.500000 0.771741
#
# Coordination Sequence:
#
# PCOD9399949 Si02
#       7
#     8   8   8   4   4   8   8
#     4  10  22  39  56  77 113 158 199 236 285 344
#     4  11  22  36  55  83 115 149 190 242 302 346
#     4  10  20  35  55  79 108 149 198 243 284 339
#     4  10  18  36  62  88 121 154 187 238 295 348
#     4  12  24  36  56  84 115 150 191 238 293 358
#     4   9  18  35  60  90 120 151 189 236 292 350
#     4  10  20  36  59  84 112 144 189 242 290 346
#
# _framework density 23.304148000000001
#
# number of rings (size 3 to 8) (size 9 to 14) (size 15 to 20)
#    0.000    1.833    3.333    1.250    1.167    2.000 
#    1.500    0.000    0.000    2.000    0.000    0.000 
#    0.000    0.000    0.000    0.000    0.000    0.000 
#
# Total GULP energy -267913.630391 kJ/mol
# GULP energy per Si atom -5581.533966 kJ/mol
# Density = 2.325111 g / cm^3
# Si number density = 23.304148 Si / 1000 Ang^3
#
#
#
# Elastic Constant Matrix: (Units=GPa)
#
#
# Indices 1 2 3 4 5 6 
#
# 1 175.7860 -1.3571 25.9098 0.0000 0.0000 0.0000
# 2 -1.3571 71.1170 2.1241 0.0000 0.0000 0.0000
# 3 25.9098 2.1241 45.8193 0.0000 0.0000 0.0000
# 4 0.0000 0.0000 0.0000 31.0221 0.0000 0.0000
# 5 0.0000 0.0000 0.0000 0.0000 37.4500 0.0000
# 6 0.0000 0.0000 0.0000 0.0000 0.0000 17.0774
#
#
#
# Elastic Compliance Matrix: (Units=1/GPa)
#
#
# Indices 1 2 3 4 5 6 
#
# 1 0.006210 0.000224 -0.003522 0.000000 0.000000 0.000000
# 2 0.000224 0.014089 -0.000780 0.000000 0.000000 0.000000
# 3 -0.003522 -0.000780 0.023852 0.000000 0.000000 0.000000
# 4 0.000000 0.000000 0.000000 0.032235 0.000000 0.000000
# 5 0.000000 0.000000 0.000000 0.000000 0.026702 0.000000
# 6 0.000000 0.000000 0.000000 0.000000 0.000000 0.058557
#
#
# Mechanical properties :
#
#
# Convention : Reuss Voigt Hill
#
# Bulk Modulus (GPa) = 27.78121 38.45289 33.11705
# Shear Modulus (GPa) = 27.50287 34.84624 31.17455
#
# Velocity S-wave (km/s) = 3.43909 3.87108 3.66146
# Velocity P-wave (km/s) = 5.26467 6.04290 5.66716
#
# Compressibility (1/GPa) = 0.03599555
#
# Stress axis : x y z
#
# Youngs Moduli (GPa) = 161.04240 70.97787 41.92436
#
# Poissons Ratio (x) = -0.01588 0.14765
# Poissons Ratio (y) = -0.03602 0.03269
# Poissons Ratio (z) = 0.56715 0.05534
#
# Static dielectric constant tensor:
#      x y z
#    x 1.978890 0.000000 0.000000 
#    y 0.000000 1.859240 0.000000 
#    z 0.000000 0.000000 1.881460 
# 
# From -- ./inp_files/29567.got.cif
#   From: 2010.05.17/outbox.cif.g08.bks.cpg/sg51_15_cif.got.tgz:29567.got - 2010.06.03 11:52:47.
