data_PCOD9399311
_publ_section_title
;
Structure prediction by ZEFSAII (Michael W. Deem and Ramdas Pophale) SiO2 
 PCOD9399311
Probable space group: P M M A
;
_chemical_formula_sum "Si O2"
_cell_formula_units_Z 40
_cell_length_a 20.108366
_cell_length_b 7.891344
_cell_length_c 14.649720
_cell_angle_alpha 90.000000
_cell_angle_beta 90.000000
_cell_angle_gamma 90.000000
_cell_volume 2324.647358
_symmetry_space_group_name_H-M "P M M A"
_symmetry_group_IT_number 51
_symmetry_cell_setting 'orthorhombic'
loop_
_space_group_symop_operation_xyz
x,y,z
1/2-x,-y,z
1/2+x,-y,-z
-x,y,-z
-x,-y,-z
1/2+x,y,-z
1/2-x,y,z
x,-y,z
loop_
_atom_site_type_symbol
_atom_site_label
_atom_site_fract_x
_atom_site_fract_y
_atom_site_fract_z
Si Si1 0.065066 0.698435 0.553758
Si Si2 0.091579 0.500000 0.086837
Si Si3 0.894786 0.196849 0.782311
Si Si4 0.568622 0.500000 0.119900
Si Si5 0.946013 0.188328 0.244468
Si Si6 0.326403 0.795331 0.408781
O O1 0.053186 0.500000 0.573698
O O2 0.074204 0.787665 0.650533
O O3 0.127060 0.719604 0.486777
O O4 0.000000 0.764534 0.500000
O O5 0.117395 0.331558 0.137665
O O6 0.011262 0.500000 0.101570
O O7 0.102779 0.500000 0.978707
O O8 0.855245 0.246702 0.691063
O O9 0.973502 0.204112 0.758844
O O10 0.879342 0.000000 0.805236
O O11 0.582694 0.665952 0.179993
O O12 0.928642 0.000000 0.212380
O O13 0.250000 0.742543 0.417097
O O14 0.329821 0.000000 0.416517
#
# Coordination Sequence:
#
# PCOD9399311 Si02
#       6
#     8   4   8   4   8   8
#     4  11  21  31  51  77 105 142 182 220 261 315
#     4   9  18  30  50  67 101 134 162 210 262 310
#     4   9  18  31  49  73 100 136 174 208 257 315
#     4   9  18  32  44  74 102 127 168 216 260 305
#     4  10  18  30  50  73 103 138 173 212 258 309
#     4  10  21  35  50  74 109 142 176 219 261 312
#
# _framework density 17.206910000000001
#
# number of rings (size 3 to 8) (size 9 to 14) (size 15 to 20)
#    0.000    2.200    3.000    0.600    1.400    2.000 
#    0.000    4.000    0.000    0.000    0.000    2.800 
#    0.000    3.200    0.000    0.000    0.000    0.000 
#
# Total GULP energy -223149.596987 kJ/mol
# GULP energy per Si atom -5578.739925 kJ/mol
# Density = 1.716775 g / cm^3
# Si number density = 17.206910 Si / 1000 Ang^3
#
#
#
# Elastic Constant Matrix: (Units=GPa)
#
#
# Indices 1 2 3 4 5 6 
#
# 1 40.4826 24.2533 31.1874 0.0000 0.0000 0.0000
# 2 24.2533 98.1721 69.8251 0.0000 0.0000 0.0000
# 3 31.1874 69.8251 138.0035 0.0000 0.0000 0.0000
# 4 0.0000 0.0000 0.0000 10.3309 0.0000 0.0000
# 5 0.0000 0.0000 0.0000 0.0000 11.6519 0.0000
# 6 0.0000 0.0000 0.0000 0.0000 0.0000 7.2756
#
#
#
# Elastic Compliance Matrix: (Units=1/GPa)
#
#
# Indices 1 2 3 4 5 6 
#
# 1 0.030967 -0.004176 -0.004886 0.000000 0.000000 0.000000
# 2 -0.004176 0.016476 -0.007392 0.000000 0.000000 0.000000
# 3 -0.004886 -0.007392 0.012091 0.000000 0.000000 0.000000
# 4 0.000000 0.000000 0.000000 0.096797 0.000000 0.000000
# 5 0.000000 0.000000 0.000000 0.000000 0.085823 0.000000
# 6 0.000000 0.000000 0.000000 0.000000 0.000000 0.137446
#
#
# Mechanical properties :
#
#
# Convention : Reuss Voigt Hill
#
# Bulk Modulus (GPa) = 37.55675 58.57665 48.06670
# Shear Modulus (GPa) = 11.86571 15.94451 13.90511
#
# Velocity S-wave (km/s) = 2.62885 3.04737 2.84582
# Velocity P-wave (km/s) = 5.57570 6.81897 6.22843
#
# Compressibility (1/GPa) = 0.02662637
#
# Stress axis : x y z
#
# Youngs Moduli (GPa) = 32.29200 60.69551 82.70857
#
# Poissons Ratio (x) = 0.25344 0.40408
# Poissons Ratio (y) = 0.13484 0.61142
# Poissons Ratio (z) = 0.15777 0.44869
#
# Static dielectric constant tensor:
#      x y z
#    x 1.559590 0.000000 0.000000 
#    y 0.000000 1.610450 0.000000 
#    z 0.000000 0.000000 1.554990 
# 
# From -- ./inp_files/17960.got.cif
#   From: 2010.05.17/outbox.cif.g08.bks.cpg/sg51_9_cif.got.tgz:17960.got - 2010.06.03 11:52:47.
