data_PCOD9399334
_publ_section_title
;
Structure prediction by ZEFSAII (Michael W. Deem and Ramdas Pophale) SiO2 
 PCOD9399334
Probable space group: P M M A
;
_chemical_formula_sum "Si O2"
_cell_formula_units_Z 56
_cell_length_a 21.019382
_cell_length_b 7.350586
_cell_length_c 15.008318
_cell_angle_alpha 90.000000
_cell_angle_beta 90.000000
_cell_angle_gamma 90.000000
_cell_volume 2318.856797
_symmetry_space_group_name_H-M "P M M A"
_symmetry_group_IT_number 51
_symmetry_cell_setting 'orthorhombic'
loop_
_space_group_symop_operation_xyz
x,y,z
1/2-x,-y,z
1/2+x,-y,-z
-x,y,-z
-x,-y,-z
1/2+x,y,-z
1/2-x,y,z
x,-y,z
loop_
_atom_site_type_symbol
_atom_site_label
_atom_site_fract_x
_atom_site_fract_y
_atom_site_fract_z
Si Si1 0.250000 0.297517 0.795966
Si Si2 0.593558 0.295846 0.713468
Si Si3 0.632172 0.787772 0.527016
Si Si4 0.963856 0.719636 0.377906
Si Si5 0.115420 0.721421 0.786634
Si Si6 0.750000 0.778630 0.408291
Si Si7 0.824919 0.277861 0.884216
Si Si8 0.430774 0.721127 0.971972
O O1 0.250000 0.500000 0.837063
O O2 0.316153 0.208023 0.815969
O O3 0.250000 0.305812 0.688852
O O4 0.575210 0.500000 0.743743
O O5 0.634287 0.303245 0.623029
O O6 0.528505 0.213064 0.670943
O O7 0.635838 0.220398 0.794600
O O8 0.565226 0.767586 0.474373
O O9 0.687788 0.722185 0.462598
O O10 0.642632 0.000000 0.542893
O O11 0.969506 0.500000 0.380215
O O12 0.909398 0.780685 0.308429
O O13 0.119908 0.500000 0.780963
O O14 0.071719 0.769239 0.868295
O O15 0.750000 0.000000 0.398632
O O16 0.750000 0.220228 0.887373
O O17 0.822781 0.500000 0.883239
O O18 0.870499 0.222395 0.967242
O O19 0.429807 0.500000 0.977090
O O20 0.500000 0.784797 0.000000
#
# Coordination Sequence:
#
# PCOD9399334 Si02
#       8
#     4   8   8   8   8   4   8   8
#     4  10  18  30  50  77 104 132 170 213 254 303
#     4  10  21  35  53  76 104 138 177 218 261 308
#     4  11  23  37  54  76 103 136 176 219 264 314
#     4  10  19  34  53  77 108 138 170 213 261 314
#     4   9  17  27  46  74 104 136 168 202 250 307
#     4  10  22  38  52  71 102 136 172 215 262 313
#     4   9  18  31  47  71 105 141 178 220 263 310
#     4   9  16  27  45  71 106 143 172 206 259 315
#
# _framework density 24.149830999999999
#
# number of rings (size 3 to 8) (size 9 to 14) (size 15 to 20)
#    0.000    2.286    1.429    1.714    2.000    6.286 
#    0.000    0.000    0.000    0.000    0.000    2.000 
#    0.000    5.143    0.000    0.000    0.000    0.000 
#
# Total GULP energy -312461.085970 kJ/mol
# GULP energy per Si atom -5579.662249 kJ/mol
# Density = 2.409487 g / cm^3
# Si number density = 24.149831 Si / 1000 Ang^3
#
#
#
# Elastic Constant Matrix: (Units=GPa)
#
#
# Indices 1 2 3 4 5 6 
#
# 1 82.9227 -11.2753 -5.4966 0.0000 0.0000 0.0000
# 2 -11.2753 92.4098 -12.0293 0.0000 0.0000 0.0000
# 3 -5.4966 -12.0293 87.9121 0.0000 0.0000 0.0000
# 4 0.0000 0.0000 0.0000 259.5106 0.0000 0.0000
# 5 0.0000 0.0000 0.0000 0.0000 46.6749 0.0000
# 6 0.0000 0.0000 0.0000 0.0000 0.0000 6.2756
#
#
#
# Elastic Compliance Matrix: (Units=1/GPa)
#
#
# Indices 1 2 3 4 5 6 
#
# 1 0.012348 0.001636 0.000996 0.000000 0.000000 0.000000
# 2 0.001636 0.011234 0.001640 0.000000 0.000000 0.000000
# 3 0.000996 0.001640 0.011662 0.000000 0.000000 0.000000
# 4 0.000000 0.000000 0.000000 0.003853 0.000000 0.000000
# 5 0.000000 0.000000 0.000000 0.000000 0.021425 0.000000
# 6 0.000000 0.000000 0.000000 0.000000 0.000000 0.159348
#
#
# Mechanical properties :
#
#
# Convention : Reuss Voigt Hill
#
# Bulk Modulus (GPa) = 22.83759 22.84915 22.84337
# Shear Modulus (GPa) = 22.13145 81.96194 52.04669
#
# Velocity S-wave (km/s) = 3.03053 5.83203 4.64740
# Velocity P-wave (km/s) = 4.66076 7.40487 6.18687
#
# Compressibility (1/GPa) = 0.04378745
#
# Stress axis : x y z
#
# Youngs Moduli (GPa) = 80.98526 89.01208 85.75147
#
# Poissons Ratio (x) = -0.14565 -0.08540
# Poissons Ratio (y) = -0.13251 -0.14059
# Poissons Ratio (z) = -0.08066 -0.14594
#
# Static dielectric constant tensor:
#      x y z
#    x 2.003850 0.000000 0.000000 
#    y 0.000000 2.007980 0.000000 
#    z 0.000000 0.000000 1.853270 
# 
# From -- ./inp_files/25909.got.cif
#   From: 2010.05.17/outbox.cif.g08.bks.cpg/sg51_13_cif.got.tgz:25909.got - 2010.06.03 11:52:47.
