data_PCOD9399990
_publ_section_title
;
Structure prediction by ZEFSAII (Michael W. Deem and Ramdas Pophale) SiO2 
 PCOD9399990
Probable space group: P M M A
;
_chemical_formula_sum "Si O2"
_cell_formula_units_Z 64
_cell_length_a 18.703513
_cell_length_b 9.117150
_cell_length_c 27.001197
_cell_angle_alpha 90.000000
_cell_angle_beta 90.000000
_cell_angle_gamma 90.000000
_cell_volume 4604.317922
_symmetry_space_group_name_H-M "P M M A"
_symmetry_group_IT_number 51
_symmetry_cell_setting 'orthorhombic'
loop_
_space_group_symop_operation_xyz
x,y,z
1/2-x,-y,z
1/2+x,-y,-z
-x,y,-z
-x,-y,-z
1/2+x,y,-z
1/2-x,y,z
x,-y,z
loop_
_atom_site_type_symbol
_atom_site_label
_atom_site_fract_x
_atom_site_fract_y
_atom_site_fract_z
Si Si1 0.044430 0.831102 0.551732
Si Si2 0.835067 0.825977 0.805250
Si Si3 0.407895 0.323224 0.101786
Si Si4 0.418046 0.323878 0.397677
Si Si5 0.167535 0.676255 0.497493
Si Si6 0.833946 0.324877 0.701052
Si Si7 0.166225 0.174546 0.007221
Si Si8 0.451479 0.331548 0.950091
O O1 0.117806 0.749616 0.538822
O O2 0.000000 0.826208 0.500000
O O3 0.993572 0.751468 0.591080
O O4 0.056229 0.000000 0.564777
O O5 0.750000 0.802093 0.813794
O O6 0.878661 0.742050 0.847411
O O7 0.851503 0.761995 0.750990
O O8 0.848211 0.000000 0.807444
O O9 0.402056 0.500000 0.100274
O O10 0.491347 0.285705 0.091492
O O11 0.361724 0.254999 0.056811
O O12 0.426746 0.500000 0.398361
O O13 0.365257 0.286317 0.443486
O O14 0.381833 0.282320 0.345895
O O15 0.250000 0.720763 0.500495
O O16 0.163339 0.500000 0.502169
O O17 0.750000 0.299680 0.689433
O O18 0.842246 0.500000 0.709460
O O19 0.250000 0.205419 0.999611
O O20 0.116273 0.232154 0.962641
O O21 0.157114 0.000000 0.013324
O O22 0.429085 0.500000 0.941683
O O23 0.500000 0.330562 0.000000
#
# Coordination Sequence:
#
# PCOD9399990 Si02
#       8
#     8   8   8   8   8   8   8   8
#     4   9  17  27  38  55  80 108 136 166 201 241
#     4  10  20  31  42  59  83 109 138 171 205 241
#     4  10  19  30  44  60  79 107 142 174 204 239
#     4   9  16  27  43  60  79 106 139 171 203 240
#     4   9  16  26  41  60  81 106 137 171 204 239
#     4   9  17  29  44  61  81 106 137 172 207 240
#     4  10  19  28  40  61  86 110 137 167 200 241
#     4   8  16  29  42  58  79 104 136 170 202 238
#
# _framework density 13.899996
#
# number of rings (size 3 to 8) (size 9 to 14) (size 15 to 20)
#    0.000    2.750    0.000    3.000    0.000    9.750 
#    0.000    0.000    0.000    2.250    0.000    0.000 
#    0.000    1.000    0.000    5.500    0.000    4.125 
#
# Total GULP energy -356552.211453 kJ/mol
# GULP energy per Si atom -5571.128304 kJ/mol
# Density = 1.386836 g / cm^3
# Si number density = 13.899996 Si / 1000 Ang^3
#
#
#
# Elastic Constant Matrix: (Units=GPa)
#
#
# Indices 1 2 3 4 5 6 
#
# 1 111.5337 58.5066 61.8579 0.0000 0.0000 0.0000
# 2 58.5066 55.8015 46.1698 0.0000 0.0000 0.0000
# 3 61.8579 46.1698 88.0931 0.0000 0.0000 0.0000
# 4 0.0000 0.0000 0.0000 16.2180 0.0000 0.0000
# 5 0.0000 0.0000 0.0000 0.0000 27.6399 0.0000
# 6 0.0000 0.0000 0.0000 0.0000 0.0000 18.8538
#
#
#
# Elastic Compliance Matrix: (Units=1/GPa)
#
#
# Indices 1 2 3 4 5 6 
#
# 1 0.021475 -0.017726 -0.005789 0.000000 0.000000 0.000000
# 2 -0.017726 0.046274 -0.011805 0.000000 0.000000 0.000000
# 3 -0.005789 -0.011805 0.021604 0.000000 0.000000 0.000000
# 4 0.000000 0.000000 0.000000 0.061660 0.000000 0.000000
# 5 0.000000 0.000000 0.000000 0.000000 0.036180 0.000000
# 6 0.000000 0.000000 0.000000 0.000000 0.000000 0.053040
#
#
# Mechanical properties :
#
#
# Convention : Reuss Voigt Hill
#
# Bulk Modulus (GPa) = 53.44256 65.38852 59.41554
# Shear Modulus (GPa) = 15.76738 18.46860 17.11799
#
# Velocity S-wave (km/s) = 3.37166 3.64906 3.51310
# Velocity P-wave (km/s) = 7.32726 8.05595 7.70023
#
# Compressibility (1/GPa) = 0.01871168
#
# Stress axis : x y z
#
# Youngs Moduli (GPa) = 46.56498 21.61054 46.28825
#
# Poissons Ratio (x) = 0.38308 0.26798
# Poissons Ratio (y) = 0.82543 0.54643
# Poissons Ratio (z) = 0.26958 0.25511
#
# Static dielectric constant tensor:
#      x y z
#    x 1.451760 0.000000 0.000000 
#    y 0.000000 1.463260 0.000000 
#    z 0.000000 0.000000 1.437950 
# 
# From -- ./inp_files/35914.got.cif
#   From: 2010.05.17/outbox.cif.g08.bks.cpg/sg51_18_cif.got.tgz:35914.got - 2010.06.03 11:52:47.
