data_PCOD9399827
_publ_section_title
;
Structure prediction by ZEFSAII (Michael W. Deem and Ramdas Pophale) SiO2 
 PCOD9399827
Probable space group: P M M A
;
_chemical_formula_sum "Si O2"
_cell_formula_units_Z 64
_cell_length_a 14.973325
_cell_length_b 8.443275
_cell_length_c 25.301097
_cell_angle_alpha 90.000000
_cell_angle_beta 90.000000
_cell_angle_gamma 90.000000
_cell_volume 3198.663373
_symmetry_space_group_name_H-M "P M M A"
_symmetry_group_IT_number 51
_symmetry_cell_setting 'orthorhombic'
loop_
_space_group_symop_operation_xyz
x,y,z
1/2-x,-y,z
1/2+x,-y,-z
-x,y,-z
-x,-y,-z
1/2+x,y,-z
1/2-x,y,z
x,-y,z
loop_
_atom_site_type_symbol
_atom_site_label
_atom_site_fract_x
_atom_site_fract_y
_atom_site_fract_z
Si Si1 0.353261 0.688317 0.521508
Si Si2 0.605486 0.184463 0.988481
Si Si3 0.150023 0.187947 0.403278
Si Si4 0.972417 0.815707 0.182150
Si Si5 0.037370 0.690846 0.622717
Si Si6 0.148171 0.309706 0.724071
Si Si7 0.850329 0.193452 0.868878
Si Si8 0.149882 0.317180 0.902461
O O1 0.250000 0.707168 0.539191
O O2 0.368283 0.500000 0.512850
O O3 0.363125 0.772013 0.465304
O O4 0.419646 0.745076 0.567130
O O5 0.627811 0.240204 0.929397
O O6 0.633709 0.000000 0.992635
O O7 0.500000 0.191175 0.000000
O O8 0.648837 0.283395 0.035363
O O9 0.250000 0.247502 0.389049
O O10 0.065486 0.259533 0.373253
O O11 0.149265 0.000000 0.396226
O O12 0.913409 0.731914 0.226260
O O13 0.919440 0.794624 0.127104
O O14 0.071711 0.752094 0.170447
O O15 0.978443 0.000000 0.196020
O O16 0.041527 0.500000 0.622012
O O17 0.098338 0.747929 0.671137
O O18 0.250000 0.249603 0.728865
O O19 0.153340 0.500000 0.720673
O O20 0.750000 0.242290 0.855105
O O21 0.853669 0.000000 0.868677
O O22 0.250000 0.290001 0.881831
O O23 0.125967 0.500000 0.892310
#
# Coordination Sequence:
#
# PCOD9399827 Si02
#       8
#     8   8   8   8   8   8   8   8
#     4   9  17  31  53  81 112 147 187 227 271 330
#     4  10  18  33  56  82 109 140 179 222 267 320
#     4  10  21  35  51  77 115 154 188 226 273 320
#     4  11  22  38  59  82 107 139 185 230 269 320
#     4  10  20  35  57  82 108 143 186 230 276 330
#     4  10  22  41  62  84 111 140 173 221 282 336
#     4   9  18  34  56  80 108 142 178 219 268 320
#     4  11  23  36  52  78 112 147 180 218 270 325
#
# _framework density 20.008358000000001
#
# number of rings (size 3 to 8) (size 9 to 14) (size 15 to 20)
#    0.000    2.000    1.250    2.625    0.000    8.250 
#    0.000    0.625    0.000    6.750    0.000    0.000 
#    0.000    0.000    0.000    0.000    0.000    0.000 
#
# Total GULP energy -357341.492453 kJ/mol
# GULP energy per Si atom -5583.460820 kJ/mol
# Density = 1.996282 g / cm^3
# Si number density = 20.008358 Si / 1000 Ang^3
#
#
#
# Elastic Constant Matrix: (Units=GPa)
#
#
# Indices 1 2 3 4 5 6 
#
# 1 154.2906 14.9170 52.8440 0.0000 0.0000 0.0000
# 2 14.9170 7.1127 1.4706 0.0000 0.0000 0.0000
# 3 52.8440 1.4706 56.3217 0.0000 0.0000 0.0000
# 4 0.0000 0.0000 0.0000 34.7048 0.0000 0.0000
# 5 0.0000 0.0000 0.0000 0.0000 28.6137 0.0000
# 6 0.0000 0.0000 0.0000 0.0000 0.0000 19.6949
#
#
#
# Elastic Compliance Matrix: (Units=1/GPa)
#
#
# Indices 1 2 3 4 5 6 
#
# 1 0.012689 -0.024282 -0.011272 0.000000 0.000000 0.000000
# 2 -0.024282 0.187822 0.017878 0.000000 0.000000 0.000000
# 3 -0.011272 0.017878 0.027864 0.000000 0.000000 0.000000
# 4 0.000000 0.000000 0.000000 0.028814 0.000000 0.000000
# 5 0.000000 0.000000 0.000000 0.000000 0.034948 0.000000
# 6 0.000000 0.000000 0.000000 0.000000 0.000000 0.050775
#
#
# Mechanical properties :
#
#
# Convention : Reuss Voigt Hill
#
# Bulk Modulus (GPa) = 5.18069 39.57648 22.37858
# Shear Modulus (GPa) = 11.29673 26.50224 18.89948
#
# Velocity S-wave (km/s) = 2.37871 3.64340 3.07674
# Velocity P-wave (km/s) = 3.18422 6.12552 4.88166
#
# Compressibility (1/GPa) = 0.19302461
#
# Stress axis : x y z
#
# Youngs Moduli (GPa) = 78.80535 5.32419 35.88830
#
# Poissons Ratio (x) = 0.12928 0.40453
# Poissons Ratio (y) = 1.91356 -0.64163
# Poissons Ratio (z) = 0.88829 -0.09519
#
# Static dielectric constant tensor:
#      x y z
#    x 1.738840 0.000000 0.000000 
#    y 0.000000 1.695170 0.000000 
#    z 0.000000 0.000000 1.692810 
# 
# From -- ./inp_files/35873.got.cif
#   From: 2010.05.17/outbox.cif.g08.bks.cpg/sg51_18_cif.got.tgz:35873.got - 2010.06.03 11:52:47.
