data_PCOD9399492
_publ_section_title
;
Structure prediction by ZEFSAII (Michael W. Deem and Ramdas Pophale) SiO2 
 PCOD9399492
Probable space group: P M M A
;
_chemical_formula_sum "Si O2"
_cell_formula_units_Z 40
_cell_length_a 20.723366
_cell_length_b 8.746239
_cell_length_c 13.110828
_cell_angle_alpha 90.000000
_cell_angle_beta 90.000000
_cell_angle_gamma 90.000000
_cell_volume 2376.357398
_symmetry_space_group_name_H-M "P M M A"
_symmetry_group_IT_number 51
_symmetry_cell_setting 'orthorhombic'
loop_
_space_group_symop_operation_xyz
x,y,z
1/2-x,-y,z
1/2+x,-y,-z
-x,y,-z
-x,-y,-z
1/2+x,y,-z
1/2-x,y,z
x,-y,z
loop_
_atom_site_type_symbol
_atom_site_label
_atom_site_fract_x
_atom_site_fract_y
_atom_site_fract_z
Si Si1 0.569349 0.315236 0.548087
Si Si2 0.545163 0.818907 0.763993
Si Si3 0.403653 0.314572 0.808728
Si Si4 0.176950 0.686323 0.614446
Si Si5 0.576245 0.677115 0.970367
O O1 0.500000 0.271253 0.500000
O O2 0.569985 0.500000 0.554618
O O3 0.574890 0.247555 0.660683
O O4 0.626529 0.265708 0.472561
O O5 0.473126 0.749124 0.774941
O O6 0.582845 0.769756 0.866466
O O7 0.540669 0.000000 0.758507
O O8 0.408806 0.500000 0.809542
O O9 0.351335 0.269303 0.724773
O O10 0.389964 0.267523 0.925592
O O11 0.250000 0.739247 0.598654
O O12 0.177437 0.500000 0.612972
O O13 0.593087 0.500000 0.951446
O O14 0.500000 0.681225 0.000000
#
# Coordination Sequence:
#
# PCOD9399492 Si02
#       5
#     8   8   8   8   8
#     4  10  18  31  51  71  96 129 162 198 245 293
#     4  11  20  28  44  71 101 128 161 202 239 279
#     4   9  16  30  49  70  97 126 157 195 245 294
#     4   9  17  30  51  76  97 121 159 204 246 290
#     4   8  15  27  45  67  94 126 156 189 236 289
#
# _framework density 16.832484000000001
#
# number of rings (size 3 to 8) (size 9 to 14) (size 15 to 20)
#    0.000    2.600    2.000    3.000    0.000    4.000 
#    0.000    0.000    0.000    3.600    0.000    5.600 
#    0.000    0.000    0.000    0.000    0.000    0.000 
#
# Total GULP energy -222883.517894 kJ/mol
# GULP energy per Si atom -5572.087947 kJ/mol
# Density = 1.679417 g / cm^3
# Si number density = 16.832484 Si / 1000 Ang^3
#
#
#
# Elastic Constant Matrix: (Units=GPa)
#
#
# Indices 1 2 3 4 5 6 
#
# 1 92.5527 17.1220 73.0031 0.0000 0.0000 0.0000
# 2 17.1220 20.9294 34.7324 0.0000 0.0000 0.0000
# 3 73.0031 34.7324 178.3417 0.0000 0.0000 0.0000
# 4 0.0000 0.0000 0.0000 -7.5046 0.0000 0.0000
# 5 0.0000 0.0000 0.0000 0.0000 17.6005 0.0000
# 6 0.0000 0.0000 0.0000 0.0000 0.0000 2.3399
#
#
#
# Elastic Compliance Matrix: (Units=1/GPa)
#
#
# Indices 1 2 3 4 5 6 
#
# 1 0.016110 -0.003303 -0.005951 0.000000 0.000000 0.000000
# 2 -0.003303 0.071273 -0.012528 0.000000 0.000000 0.000000
# 3 -0.005951 -0.012528 0.010483 0.000000 0.000000 0.000000
# 4 0.000000 0.000000 0.000000 -0.133252 0.000000 0.000000
# 5 0.000000 0.000000 0.000000 0.000000 0.056817 0.000000
# 6 0.000000 0.000000 0.000000 0.000000 0.000000 0.427372
#
#
# Mechanical properties :
#
#
# Convention : Reuss Voigt Hill
#
# Bulk Modulus (GPa) = 18.41605 60.17096 39.29351
# Shear Modulus (GPa) = 9.79493 13.61825 11.70659
#
# Velocity S-wave (km/s) = 2.41489 2.84746 2.64005
# Velocity P-wave (km/s) = 4.32899 6.82900 5.71731
#
# Compressibility (1/GPa) = 0.05430047
#
# Stress axis : x y z
#
# Youngs Moduli (GPa) = 62.07378 14.03057 95.39054
#
# Poissons Ratio (x) = 0.04635 0.56768
# Poissons Ratio (y) = 0.20504 1.19509
# Poissons Ratio (z) = 0.36941 0.17578
#
# Static dielectric constant tensor:
#      x y z
#    x 1.552160 0.000000 0.000000 
#    y 0.000000 1.552600 0.000000 
#    z 0.000000 0.000000 1.596090 
# 
# From -- ./inp_files/17877.got.cif
#   From: 2010.05.17/outbox.cif.g08.bks.cpg/sg51_9_cif.got.tgz:17877.got - 2010.06.03 11:52:47.
