data_PCOD9399781
_publ_section_title
;
Structure prediction by ZEFSAII (Michael W. Deem and Ramdas Pophale) SiO2 
 PCOD9399781
Probable space group: P M M A
;
_chemical_formula_sum "Si O2"
_cell_formula_units_Z 38
_cell_length_a 19.840840
_cell_length_b 7.766977
_cell_length_c 13.392591
_cell_angle_alpha 90.000000
_cell_angle_beta 90.000000
_cell_angle_gamma 90.000000
_cell_volume 2063.843111
_symmetry_space_group_name_H-M "P M M A"
_symmetry_group_IT_number 51
_symmetry_cell_setting 'orthorhombic'
loop_
_space_group_symop_operation_xyz
x,y,z
1/2-x,-y,z
1/2+x,-y,-z
-x,y,-z
-x,-y,-z
1/2+x,y,-z
1/2-x,y,z
x,-y,z
loop_
_atom_site_type_symbol
_atom_site_label
_atom_site_fract_x
_atom_site_fract_y
_atom_site_fract_z
Si Si1 0.169427 0.698415 0.379902
Si Si2 0.171709 0.792584 0.606101
Si Si3 0.984807 0.000000 0.117462
Si Si4 0.250000 0.700432 0.935775
Si Si5 0.750000 0.000000 0.903090
Si Si6 0.387685 0.697135 0.813393
Si Si7 0.621850 0.000000 0.758054
O O1 0.250000 0.734854 0.370290
O O2 0.157961 0.500000 0.352166
O O3 0.152730 0.726021 0.496534
O O4 0.130014 0.832662 0.311857
O O5 0.250000 0.741694 0.623664
O O6 0.126861 0.723754 0.696121
O O7 0.168729 0.000000 0.605590
O O8 0.941153 0.166754 0.146942
O O9 0.053252 0.000000 0.180592
O O10 0.000000 0.000000 0.000000
O O11 0.250000 0.500000 0.967799
O O12 0.316522 0.729361 0.869270
O O13 0.250000 0.832204 0.026797
O O14 0.684175 0.000000 0.834494
O O15 0.407714 0.500000 0.832415
#
# Coordination Sequence:
#
# PCOD9399781 Si02
#       7
#     8   8   4   4   2   8   4
#     4  10  20  37  63  96 131 161 197 249 311 374
#     4  10  18  32  64 101 133 162 196 244 311 380
#     4  12  28  46  63  85 121 174 215 261 317 369
#     4  10  22  38  63  95 122 151 203 266 317 364
#     4  12  24  40  66  84 118 154 212 278 314 354
#     4  11  22  40  65  96 127 161 205 253 313 374
#     4  12  24  43  63  87 120 163 220 256 305 375
#
# _framework density 18.412251999999999
#
# number of rings (size 3 to 8) (size 9 to 14) (size 15 to 20)
#    0.000    1.263    4.211    2.526    0.000    2.947 
#    0.000    2.105    0.000    2.526    0.000    0.000 
#    0.000    0.000    0.000    0.000    0.000    0.000 
#
# Total GULP energy -212446.591643 kJ/mol
# GULP energy per Si atom -5590.699780 kJ/mol
# Density = 1.837034 g / cm^3
# Si number density = 18.412252 Si / 1000 Ang^3
#
#
#
# Elastic Constant Matrix: (Units=GPa)
#
#
# Indices 1 2 3 4 5 6 
#
# 1 116.0488 83.7062 76.0826 0.0000 0.0000 0.0000
# 2 83.7062 128.2047 84.1306 0.0000 0.0000 0.0000
# 3 76.0826 84.1306 150.0025 0.0000 0.0000 0.0000
# 4 0.0000 0.0000 0.0000 -12.6466 0.0000 0.0000
# 5 0.0000 0.0000 0.0000 0.0000 17.8258 0.0000
# 6 0.0000 0.0000 0.0000 0.0000 0.0000 17.5347
#
#
#
# Elastic Compliance Matrix: (Units=1/GPa)
#
#
# Indices 1 2 3 4 5 6 
#
# 1 0.017644 -0.008936 -0.003937 0.000000 0.000000 0.000000
# 2 -0.008936 0.016869 -0.004928 0.000000 0.000000 0.000000
# 3 -0.003937 -0.004928 0.011428 0.000000 0.000000 0.000000
# 4 0.000000 0.000000 0.000000 -0.079073 0.000000 0.000000
# 5 0.000000 0.000000 0.000000 0.000000 0.056099 0.000000
# 6 0.000000 0.000000 0.000000 0.000000 0.000000 0.057030
#
#
# Mechanical properties :
#
#
# Convention : Reuss Voigt Hill
#
# Bulk Modulus (GPa) = 96.74339 98.01053 97.37696
# Shear Modulus (GPa) = 42.00054 14.56521 28.28288
#
# Velocity S-wave (km/s) = 4.78129 2.81563 3.92355
# Velocity P-wave (km/s) = 9.11800 7.99482 8.57482
#
# Compressibility (1/GPa) = 0.01033662
#
# Stress axis : x y z
#
# Youngs Moduli (GPa) = 56.67604 59.28089 87.50642
#
# Poissons Ratio (x) = 0.52976 0.34453
# Poissons Ratio (y) = 0.50648 0.43127
# Poissons Ratio (z) = 0.22314 0.29217
#
# Static dielectric constant tensor:
#      x y z
#    x 1.605540 0.000000 0.000000 
#    y 0.000000 1.626770 0.000000 
#    z 0.000000 0.000000 1.613790 
# 
# From -- ./inp_files/17127.got.cif
#   From: 2010.05.17/outbox.cif.g08.bks.cpg/sg51_9_cif.got.tgz:17127.got - 2010.06.03 11:52:47.
