data_PCOD9399162
_publ_section_title
;
Structure prediction by ZEFSAII (Michael W. Deem and Ramdas Pophale) SiO2 
 PCOD9399162
Probable space group: P M M A
;
_chemical_formula_sum "Si O2"
_cell_formula_units_Z 52
_cell_length_a 8.742501
_cell_length_b 27.133862
_cell_length_c 13.890688
_cell_angle_alpha 90.000000
_cell_angle_beta 90.000000
_cell_angle_gamma 90.000000
_cell_volume 3295.118665
_symmetry_space_group_name_H-M "P M M A"
_symmetry_group_IT_number 51
_symmetry_cell_setting 'orthorhombic'
loop_
_space_group_symop_operation_xyz
x,y,z
1/2-x,-y,z
1/2+x,-y,-z
-x,y,-z
-x,-y,-z
1/2+x,y,-z
1/2-x,y,z
x,-y,z
loop_
_atom_site_type_symbol
_atom_site_label
_atom_site_fract_x
_atom_site_fract_y
_atom_site_fract_z
Si Si1 0.567698 0.849786 0.702957
Si Si2 0.933002 0.602210 0.891686
Si Si3 0.932654 0.754424 0.397252
Si Si4 0.067213 0.205705 0.101876
Si Si5 0.566781 0.698747 0.201831
Si Si6 0.067033 0.943747 0.606555
Si Si7 0.066502 0.500000 0.891320
O O1 0.750000 0.850726 0.690592
O O2 0.499325 0.807458 0.633969
O O3 0.533253 0.832127 0.811543
O O4 0.498642 0.902309 0.676286
O O5 0.750000 0.598840 0.897727
O O6 0.985897 0.648542 0.829010
O O7 0.002199 0.551188 0.850368
O O8 0.000000 0.608782 0.000000
O O9 0.750000 0.758172 0.403248
O O10 0.970318 0.716993 0.310103
O O11 0.000000 0.739698 0.500000
O O12 0.250000 0.211933 0.096005
O O13 0.991343 0.257456 0.132620
O O14 0.000000 0.189756 0.000000
O O15 0.750000 0.693801 0.193078
O O16 0.250000 0.940004 0.602350
O O17 0.000000 0.935023 0.500000
O O18 0.026376 0.000000 0.634185
O O19 0.250000 0.500000 0.892775
O O20 0.000000 0.500000 0.000000
#
# Coordination Sequence:
#
# PCOD9399162 Si02
#       7
#     8   8   8   8   8   8   4
#     4  10  20  33  50  71  96 125 157 191 231 278
#     4  11  20  31  47  68  96 128 160 196 235 278
#     4  10  20  33  50  70  96 126 157 193 233 278
#     4  10  20  33  49  70  95 125 158 194 233 275
#     4  10  20  33  48  69  95 126 160 194 233 277
#     4  10  20  33  50  72  97 124 154 190 233 279
#     4  10  18  30  46  66  93 124 159 196 234 280
#
# _framework density 15.780919000000001
#
# number of rings (size 3 to 8) (size 9 to 14) (size 15 to 20)
#    0.000    1.846    0.000    6.231    0.000    4.615 
#    0.000    0.000    0.000    0.462    0.000    0.538 
#    0.000    0.000    0.000    0.000    0.000    0.000 
#
# Total GULP energy -290292.394852 kJ/mol
# GULP energy per Si atom -5582.546055 kJ/mol
# Density = 1.574500 g / cm^3
# Si number density = 15.780919 Si / 1000 Ang^3
#
#
#
# Elastic Constant Matrix: (Units=GPa)
#
#
# Indices 1 2 3 4 5 6 
#
# 1 97.3477 63.0310 45.6772 0.0000 0.0000 0.0000
# 2 63.0310 137.9062 54.4662 0.0000 0.0000 0.0000
# 3 45.6772 54.4662 81.3617 0.0000 0.0000 0.0000
# 4 0.0000 0.0000 0.0000 16.6726 0.0000 0.0000
# 5 0.0000 0.0000 0.0000 0.0000 26.5734 0.0000
# 6 0.0000 0.0000 0.0000 0.0000 0.0000 29.3724
#
#
#
# Elastic Compliance Matrix: (Units=1/GPa)
#
#
# Indices 1 2 3 4 5 6 
#
# 1 0.016307 -0.005217 -0.005663 0.000000 0.000000 0.000000
# 2 -0.005217 0.011527 -0.004787 0.000000 0.000000 0.000000
# 3 -0.005663 -0.004787 0.018675 0.000000 0.000000 0.000000
# 4 0.000000 0.000000 0.000000 0.059979 0.000000 0.000000
# 5 0.000000 0.000000 0.000000 0.000000 0.037632 0.000000
# 6 0.000000 0.000000 0.000000 0.000000 0.000000 0.034046
#
#
# Mechanical properties :
#
#
# Convention : Reuss Voigt Hill
#
# Bulk Modulus (GPa) = 65.89986 71.44049 68.67017
# Shear Modulus (GPa) = 23.30386 24.75310 24.02848
#
# Velocity S-wave (km/s) = 3.84697 3.96478 3.90632
# Velocity P-wave (km/s) = 7.84743 8.14419 7.99718
#
# Compressibility (1/GPa) = 0.01517454
#
# Stress axis : x y z
#
# Youngs Moduli (GPa) = 61.32203 86.75648 53.54821
#
# Poissons Ratio (x) = 0.45260 0.30323
# Poissons Ratio (y) = 0.31991 0.25636
# Poissons Ratio (z) = 0.34725 0.41534
#
# Static dielectric constant tensor:
#      x y z
#    x 1.525250 0.000000 0.000000 
#    y 0.000000 1.527670 0.000000 
#    z 0.000000 0.000000 1.516020 
# 
# From -- ./inp_files/14598.got.cif
#   From: 2010.05.17/outbox.cif.g08.bks.cpg/sg51_8_cif.got.tgz:14598.got - 2010.06.03 11:52:47.
