data_PCOD9399013
_publ_section_title
;
Structure prediction by ZEFSAII (Michael W. Deem and Ramdas Pophale) SiO2 
 PCOD9399013
Probable space group: P M M A
;
_chemical_formula_sum "Si O2"
_cell_formula_units_Z 48
_cell_length_a 21.870038
_cell_length_b 8.948806
_cell_length_c 15.599899
_cell_angle_alpha 90.000000
_cell_angle_beta 90.000000
_cell_angle_gamma 90.000000
_cell_volume 3053.067579
_symmetry_space_group_name_H-M "P M M A"
_symmetry_group_IT_number 51
_symmetry_cell_setting 'orthorhombic'
loop_
_space_group_symop_operation_xyz
x,y,z
1/2-x,-y,z
1/2+x,-y,-z
-x,y,-z
-x,-y,-z
1/2+x,y,-z
1/2-x,y,z
x,-y,z
loop_
_atom_site_type_symbol
_atom_site_label
_atom_site_fract_x
_atom_site_fract_y
_atom_site_fract_z
Si Si1 0.820452 0.679715 0.700521
Si Si2 0.955298 0.820124 0.386330
Si Si3 0.083611 0.320297 0.445395
Si Si4 0.457121 0.821439 0.807765
Si Si5 0.901532 0.821791 0.847609
Si Si6 0.427231 0.672679 0.978913
O O1 0.750000 0.726442 0.693911
O O2 0.822387 0.500000 0.709750
O O3 0.859615 0.716600 0.615749
O O4 0.853913 0.751339 0.781876
O O5 0.913054 0.749091 0.459711
O O6 0.937280 0.784381 0.288751
O O7 0.022477 0.751272 0.404171
O O8 0.958356 0.000000 0.395325
O O9 0.076780 0.500000 0.450091
O O10 0.529320 0.782325 0.816854
O O11 0.421443 0.741971 0.884587
O O12 0.452712 0.000000 0.819621
O O13 0.896644 0.000000 0.846959
O O14 0.895100 0.760758 0.944091
O O15 0.409213 0.500000 0.980132
O O16 0.500000 0.681426 0.000000
#
# Coordination Sequence:
#
# PCOD9399013 Si02
#       6
#     8   8   8   8   8   8
#     4  10  21  35  49  66  92 126 162 200 238 277
#     4  10  18  29  46  67  95 125 153 188 238 288
#     4  10  19  30  45  66  91 121 158 196 236 282
#     4   9  17  28  43  66  94 124 152 184 230 280
#     4  10  18  30  46  65  92 123 156 192 231 278
#     4   9  17  27  42  65  92 122 152 183 223 271
#
# _framework density 15.721892
#
# number of rings (size 3 to 8) (size 9 to 14) (size 15 to 20)
#    0.000    2.333    1.667    3.000    0.000    5.000 
#    0.000    0.000    0.000    0.000    0.000    1.167 
#    0.000    4.000    0.000    0.000    0.000    0.000 
#
# Total GULP energy -267576.814904 kJ/mol
# GULP energy per Si atom -5574.516977 kJ/mol
# Density = 1.568611 g / cm^3
# Si number density = 15.721892 Si / 1000 Ang^3
#
#
#
# Elastic Constant Matrix: (Units=GPa)
#
#
# Indices 1 2 3 4 5 6 
#
# 1 66.9362 32.1433 55.7013 0.0000 0.0000 0.0000
# 2 32.1433 49.0056 59.5326 0.0000 0.0000 0.0000
# 3 55.7013 59.5326 173.3100 0.0000 0.0000 0.0000
# 4 0.0000 0.0000 0.0000 32.3289 0.0000 0.0000
# 5 0.0000 0.0000 0.0000 0.0000 14.0087 0.0000
# 6 0.0000 0.0000 0.0000 0.0000 0.0000 9.0168
#
#
#
# Elastic Compliance Matrix: (Units=1/GPa)
#
#
# Indices 1 2 3 4 5 6 
#
# 1 0.023198 -0.010569 -0.003825 0.000000 0.000000 0.000000
# 2 -0.010569 0.039834 -0.010286 0.000000 0.000000 0.000000
# 3 -0.003825 -0.010286 0.010533 0.000000 0.000000 0.000000
# 4 0.000000 0.000000 0.000000 0.030932 0.000000 0.000000
# 5 0.000000 0.000000 0.000000 0.000000 0.071384 0.000000
# 6 0.000000 0.000000 0.000000 0.000000 0.000000 0.110904
#
#
# Mechanical properties :
#
#
# Convention : Reuss Voigt Hill
#
# Bulk Modulus (GPa) = 41.31552 64.88958 53.10255
# Shear Modulus (GPa) = 14.52582 20.52917 17.52749
#
# Velocity S-wave (km/s) = 3.04291 3.61746 3.34255
# Velocity P-wave (km/s) = 6.21946 7.66884 6.98186
#
# Compressibility (1/GPa) = 0.02420398
#
# Stress axis : x y z
#
# Youngs Moduli (GPa) = 43.10690 25.10415 94.94068
#
# Poissons Ratio (x) = 0.26532 0.36319
# Poissons Ratio (y) = 0.45559 0.97660
# Poissons Ratio (z) = 0.16490 0.25823
#
# Static dielectric constant tensor:
#      x y z
#    x 1.493540 0.000000 0.000000 
#    y 0.000000 1.525850 0.000000 
#    z 0.000000 0.000000 1.538730 
# 
# From -- ./inp_files/25491.got.cif
#   From: 2010.05.17/outbox.cif.g08.bks.cpg/sg51_13_cif.got.tgz:25491.got - 2010.06.03 11:52:47.
