data_PCOD9399274
_publ_section_title
;
Structure prediction by ZEFSAII (Michael W. Deem and Ramdas Pophale) SiO2 
 PCOD9399274
Probable space group: P M M A
;
_chemical_formula_sum "Si O2"
_cell_formula_units_Z 44
_cell_length_a 8.446160
_cell_length_b 29.003027
_cell_length_c 9.862033
_cell_angle_alpha 90.000000
_cell_angle_beta 90.000000
_cell_angle_gamma 90.000000
_cell_volume 2415.845089
_symmetry_space_group_name_H-M "P M M A"
_symmetry_group_IT_number 51
_symmetry_cell_setting 'orthorhombic'
loop_
_space_group_symop_operation_xyz
x,y,z
1/2-x,-y,z
1/2+x,-y,-z
-x,y,-z
-x,-y,-z
1/2+x,y,-z
1/2-x,y,z
x,-y,z
loop_
_atom_site_type_symbol
_atom_site_label
_atom_site_fract_x
_atom_site_fract_y
_atom_site_fract_z
Si Si1 0.941255 0.716059 0.151275
Si Si2 0.560092 0.097213 0.345837
Si Si3 0.441176 0.179117 0.849026
Si Si4 0.941486 0.366006 0.346698
Si Si5 0.061632 0.000000 0.344653
Si Si6 0.558822 0.447238 0.149545
O O1 0.750000 0.715425 0.148742
O O2 0.992998 0.768479 0.183562
O O3 0.994653 0.678753 0.261256
O O4 0.000000 0.704601 0.000000
O O5 0.500000 0.101562 0.500000
O O6 0.750000 0.096203 0.348541
O O7 0.505030 0.140499 0.256746
O O8 0.500643 0.048295 0.286844
O O9 0.250000 0.178883 0.849093
O O10 0.500000 0.168463 0.000000
O O11 0.750000 0.365951 0.348021
O O12 0.994294 0.411261 0.263334
O O13 0.000000 0.365648 0.500000
O O14 0.000000 0.000000 0.500000
O O15 0.250000 0.000000 0.344962
O O16 0.750000 0.446901 0.147381
O O17 0.506327 0.500000 0.174949
O O18 0.500000 0.433590 0.000000
#
# Coordination Sequence:
#
# PCOD9399274 Si02
#       6
#     8   8   8   8   4   8
#     4   9  18  34  53  73  96 126 164 203 243 290
#     4  10  19  32  50  73  99 128 161 199 241 286
#     4   9  19  34  52  73  99 128 160 200 245 291
#     4  10  21  34  49  72 103 133 163 203 248 293
#     4  10  18  30  49  72  97 128 164 200 238 284
#     4   9  18  33  52  74  99 129 167 208 247 291
#
# _framework density 18.213087999999999
#
# number of rings (size 3 to 8) (size 9 to 14) (size 15 to 20)
#    0.000    2.545    0.000    3.000    0.000    4.000 
#    0.000    0.455    0.000    0.000    0.000    0.000 
#    0.000    0.000    0.000    0.000    0.000    0.000 
#
# Total GULP energy -245412.083597 kJ/mol
# GULP energy per Si atom -5577.547354 kJ/mol
# Density = 1.817163 g / cm^3
# Si number density = 18.213088 Si / 1000 Ang^3
#
#
#
# Elastic Constant Matrix: (Units=GPa)
#
#
# Indices 1 2 3 4 5 6 
#
# 1 22.9323 26.3016 17.6977 0.0000 0.0000 0.0000
# 2 26.3016 160.9114 122.2341 0.0000 0.0000 0.0000
# 3 17.6977 122.2341 136.1065 0.0000 0.0000 0.0000
# 4 0.0000 0.0000 0.0000 42.4564 0.0000 0.0000
# 5 0.0000 0.0000 0.0000 0.0000 30.0634 0.0000
# 6 0.0000 0.0000 0.0000 0.0000 0.0000 1190.0628
#
#
#
# Elastic Compliance Matrix: (Units=1/GPa)
#
#
# Indices 1 2 3 4 5 6 
#
# 1 0.054017 -0.010994 0.002850 0.000000 0.000000 0.000000
# 2 -0.010994 0.021793 -0.018143 0.000000 0.000000 0.000000
# 3 0.002850 -0.018143 0.023270 0.000000 0.000000 0.000000
# 4 0.000000 0.000000 0.000000 0.023554 0.000000 0.000000
# 5 0.000000 0.000000 0.000000 0.000000 0.033263 0.000000
# 6 0.000000 0.000000 0.000000 0.000000 0.000000 0.000840
#
#
# Mechanical properties :
#
#
# Convention : Reuss Voigt Hill
#
# Bulk Modulus (GPa) = 21.50237 72.49078 46.99658
# Shear Modulus (GPa) = 22.24070 262.76429 142.50249
#
# Velocity S-wave (km/s) = 3.49827 12.02437 8.85504
# Velocity P-wave (km/s) = 5.30555 15.25347 11.41966
#
# Compressibility (1/GPa) = 0.04650650
#
# Stress axis : x y z
#
# Youngs Moduli (GPa) = 18.51278 45.88541 42.97360
#
# Poissons Ratio (x) = 0.50447 -0.12247
# Poissons Ratio (y) = 0.20353 0.77965
# Poissons Ratio (z) = -0.05276 0.83248
#
# Static dielectric constant tensor:
#      x y z
#    x 1.620410 0.000000 0.000000 
#    y 0.000000 1.662200 0.000000 
#    z 0.000000 0.000000 1.580130 
# 
# From -- ./inp_files/5706.got.cif
#   From: 2010.05.17/outbox.cif.g08.bks.cpg/sg51_3_cif.got.tgz:5706.got - 2010.06.03 11:52:47.
