data_PCOD9399453
_publ_section_title
;
Structure prediction by ZEFSAII (Michael W. Deem and Ramdas Pophale) SiO2 
 PCOD9399453
Probable space group: P M M A
;
_chemical_formula_sum "Si O2"
_cell_formula_units_Z 64
_cell_length_a 8.831973
_cell_length_b 20.276167
_cell_length_c 20.507074
_cell_angle_alpha 90.000000
_cell_angle_beta 90.000000
_cell_angle_gamma 90.000000
_cell_volume 3672.377271
_symmetry_space_group_name_H-M "P M M A"
_symmetry_group_IT_number 51
_symmetry_cell_setting 'orthorhombic'
loop_
_space_group_symop_operation_xyz
x,y,z
1/2-x,-y,z
1/2+x,-y,-z
-x,y,-z
-x,-y,-z
1/2+x,y,-z
1/2-x,y,z
x,-y,z
loop_
_atom_site_type_symbol
_atom_site_label
_atom_site_fract_x
_atom_site_fract_y
_atom_site_fract_z
Si Si1 0.430567 0.706679 0.933253
Si Si2 0.071358 0.243696 0.701374
Si Si3 0.568995 0.573515 0.883738
Si Si4 0.567346 0.428924 0.607980
Si Si5 0.067113 0.180610 0.831595
Si Si6 0.571696 0.605065 0.254913
Si Si7 0.930959 0.283701 0.567153
Si Si8 0.569806 0.077864 0.930069
O O1 0.250000 0.704821 0.937449
O O2 0.492605 0.633461 0.921623
O O3 0.473266 0.754348 0.873675
O O4 0.500000 0.733316 0.000000
O O5 0.250000 0.233421 0.688784
O O6 0.018855 0.192380 0.756756
O O7 0.057251 0.316148 0.734373
O O8 0.985920 0.247235 0.632674
O O9 0.750000 0.579548 0.887573
O O10 0.525479 0.500000 0.906323
O O11 0.514993 0.581922 0.809103
O O12 0.750000 0.426742 0.611480
O O13 0.523230 0.500000 0.578659
O O14 0.499161 0.425838 0.680382
O O15 0.517588 0.360686 0.574633
O O16 0.250000 0.175733 0.831739
O O17 0.998229 0.119820 0.870932
O O18 0.750000 0.589765 0.249016
O O19 0.750000 0.282368 0.564025
O O20 0.000000 0.257468 0.500000
O O21 0.750000 0.086972 0.932789
O O22 0.537249 0.000000 0.921519
O O23 0.500000 0.097926 0.000000
#
# Coordination Sequence:
#
# PCOD9399453 Si02
#       8
#     8   8   8   8   8   8   8   8
#     4  11  23  39  55  75  99 128 167 214 265 318
#     4   9  18  34  53  75 102 130 166 214 259 309
#     4  11  23  36  50  68  91 123 164 212 267 323
#     4   9  18  31  45  64  91 122 160 205 255 318
#     4  10  20  36  58  83 109 139 177 219 263 308
#     4  10  18  31  49  70  94 121 157 206 262 317
#     4  10  20  33  49  70  96 132 169 210 264 319
#     4  10  21  36  55  83 119 157 192 222 256 303
#
# _framework density 17.427403000000002
#
# number of rings (size 3 to 8) (size 9 to 14) (size 15 to 20)
#    0.000    2.000    1.250    2.625    0.000    7.500 
#    0.000    0.000    0.000    0.000    0.000    0.000 
#    0.000    0.500    0.000    1.625    0.000    2.375 
#
# Total GULP energy -357264.840445 kJ/mol
# GULP energy per Si atom -5582.263132 kJ/mol
# Density = 1.738774 g / cm^3
# Si number density = 17.427403 Si / 1000 Ang^3
#
#
#
# Elastic Constant Matrix: (Units=GPa)
#
#
# Indices 1 2 3 4 5 6 
#
# 1 26.5889 26.2127 37.6035 0.0000 0.0000 0.0000
# 2 26.2127 63.7871 45.9923 0.0000 0.0000 0.0000
# 3 37.6035 45.9923 131.3813 0.0000 0.0000 0.0000
# 4 0.0000 0.0000 0.0000 430.2885 0.0000 0.0000
# 5 0.0000 0.0000 0.0000 0.0000 26.9417 0.0000
# 6 0.0000 0.0000 0.0000 0.0000 0.0000 20.6912
#
#
#
# Elastic Compliance Matrix: (Units=1/GPa)
#
#
# Indices 1 2 3 4 5 6 
#
# 1 0.081596 -0.022328 -0.015538 0.000000 0.000000 0.000000
# 2 -0.022328 0.027080 -0.003089 0.000000 0.000000 0.000000
# 3 -0.015538 -0.003089 0.013140 0.000000 0.000000 0.000000
# 4 0.000000 0.000000 0.000000 0.002324 0.000000 0.000000
# 5 0.000000 0.000000 0.000000 0.000000 0.037117 0.000000
# 6 0.000000 0.000000 0.000000 0.000000 0.000000 0.048330
#
#
# Mechanical properties :
#
#
# Convention : Reuss Voigt Hill
#
# Bulk Modulus (GPa) = 25.05877 49.04161 37.05019
# Shear Modulus (GPa) = 16.40424 103.04755 59.72589
#
# Velocity S-wave (km/s) = 3.07137 7.69792 5.86052
# Velocity P-wave (km/s) = 5.19499 10.35433 8.19146
#
# Compressibility (1/GPa) = 0.03990619
#
# Stress axis : x y z
#
# Youngs Moduli (GPa) = 12.25547 36.92762 76.10305
#
# Poissons Ratio (x) = 0.82452 1.18248
# Poissons Ratio (y) = 0.27364 0.23510
# Poissons Ratio (z) = 0.19042 0.11408
#
# Static dielectric constant tensor:
#      x y z
#    x 1.578520 0.000000 0.000000 
#    y 0.000000 1.602490 0.000000 
#    z 0.000000 0.000000 1.624480 
# 
# From -- ./inp_files/32386.got.cif
#   From: 2010.05.17/outbox.cif.g08.bks.cpg/sg51_17_cif.got.tgz:32386.got - 2010.06.03 11:52:47.
