data_PCOD9399669
_publ_section_title
;
Structure prediction by ZEFSAII (Michael W. Deem and Ramdas Pophale) SiO2 
 PCOD9399669
Probable space group: P M M A
;
_chemical_formula_sum "Si O2"
_cell_formula_units_Z 40
_cell_length_a 8.659236
_cell_length_b 13.261155
_cell_length_c 19.718163
_cell_angle_alpha 90.000000
_cell_angle_beta 90.000000
_cell_angle_gamma 90.000000
_cell_volume 2264.265658
_symmetry_space_group_name_H-M "P M M A"
_symmetry_group_IT_number 51
_symmetry_cell_setting 'orthorhombic'
loop_
_space_group_symop_operation_xyz
x,y,z
1/2-x,-y,z
1/2+x,-y,-z
-x,y,-z
-x,-y,-z
1/2+x,y,-z
1/2-x,y,z
x,-y,z
loop_
_atom_site_type_symbol
_atom_site_label
_atom_site_fract_x
_atom_site_fract_y
_atom_site_fract_z
Si Si1 0.564444 0.500000 0.576200
Si Si2 0.065687 0.883482 0.679944
Si Si3 0.435928 0.279082 0.423371
Si Si4 0.065408 0.500000 0.076908
Si Si5 0.565372 0.883263 0.829765
Si Si6 0.066082 0.290449 0.923829
O O1 0.750000 0.500000 0.573627
O O2 0.500000 0.500000 0.500000
O O3 0.518555 0.390790 0.604818
O O4 0.250000 0.873043 0.686761
O O5 0.002960 0.807417 0.623966
O O6 0.987591 0.864171 0.752666
O O7 0.031972 0.000000 0.661384
O O8 0.500000 0.270526 0.500000
O O9 0.250000 0.272845 0.425348
O O10 0.250000 0.500000 0.075980
O O11 0.003037 0.394832 0.106228
O O12 0.000000 0.500000 0.000000
O O13 0.750000 0.872727 0.834999
O O14 0.484628 0.804367 0.879262
O O15 0.524929 0.000000 0.845730
O O16 0.250000 0.299140 0.927459
O O17 0.000000 0.278750 0.000000
#
# Coordination Sequence:
#
# PCOD9399669 Si02
#       6
#     4   8   8   4   8   8
#     4   8  16  30  49  74 103 134 167 207 255 305
#     4  10  21  37  55  76 104 138 175 216 264 316
#     4  10  19  33  54  79 106 136 173 215 260 310
#     4  10  18  32  53  78 109 142 177 217 265 315
#     4  10  21  38  58  79 105 139 178 220 269 321
#     4  11  21  35  56  82 111 142 179 220 264 314
#
# _framework density 17.665772
#
# number of rings (size 3 to 8) (size 9 to 14) (size 15 to 20)
#    0.000    2.000    0.000    5.700    0.000    4.000 
#    0.000    1.000    0.000    1.200    0.000    0.000 
#    0.000    0.000    0.000    0.000    0.000    0.000 
#
# Total GULP energy -223158.196613 kJ/mol
# GULP energy per Si atom -5578.954915 kJ/mol
# Density = 1.762556 g / cm^3
# Si number density = 17.665772 Si / 1000 Ang^3
#
#
#
# Elastic Constant Matrix: (Units=GPa)
#
#
# Indices 1 2 3 4 5 6 
#
# 1 109.9929 69.2296 38.8897 0.0000 0.0000 0.0000
# 2 69.2296 154.3805 78.8429 0.0000 0.0000 0.0000
# 3 38.8897 78.8429 62.1200 0.0000 0.0000 0.0000
# 4 0.0000 0.0000 0.0000 -55.1963 0.0000 0.0000
# 5 0.0000 0.0000 0.0000 0.0000 30.7766 0.0000
# 6 0.0000 0.0000 0.0000 0.0000 0.0000 72.0642
#
#
#
# Elastic Compliance Matrix: (Units=1/GPa)
#
#
# Indices 1 2 3 4 5 6 
#
# 1 0.012759 -0.004668 -0.002063 0.000000 0.000000 0.000000
# 2 -0.004668 0.020120 -0.022614 0.000000 0.000000 0.000000
# 3 -0.002063 -0.022614 0.046091 0.000000 0.000000 0.000000
# 4 0.000000 0.000000 0.000000 -0.018117 0.000000 0.000000
# 5 0.000000 0.000000 0.000000 0.000000 0.032492 0.000000
# 6 0.000000 0.000000 0.000000 0.000000 0.000000 0.013877
#
#
# Mechanical properties :
#
#
# Convention : Reuss Voigt Hill
#
# Bulk Modulus (GPa) = 49.30946 77.82419 63.56682
# Shear Modulus (GPa) = 28.95695 18.83099 23.89397
#
# Velocity S-wave (km/s) = 4.05304 3.26845 3.68170
# Velocity P-wave (km/s) = 7.06229 7.64153 7.35761
#
# Compressibility (1/GPa) = 0.02028008
#
# Stress axis : x y z
#
# Youngs Moduli (GPa) = 78.37654 49.70269 21.69632
#
# Poissons Ratio (x) = 0.23201 0.04476
# Poissons Ratio (y) = 0.36585 0.49063
# Poissons Ratio (z) = 0.16170 1.12396
#
# Static dielectric constant tensor:
#      x y z
#    x 1.590900 0.000000 0.000000 
#    y 0.000000 1.636960 0.000000 
#    z 0.000000 0.000000 1.559930 
# 
# From -- ./inp_files/31390.got.cif
#   From: 2010.05.17/outbox.cif.g08.bks.cpg/sg51_16_cif.got.tgz:31390.got - 2010.06.03 11:52:47.
