data_PCOD9399568
_publ_section_title
;
Structure prediction by ZEFSAII (Michael W. Deem and Ramdas Pophale) SiO2 
 PCOD9399568
Probable space group: P M M A
;
_chemical_formula_sum "Si O2"
_cell_formula_units_Z 56
_cell_length_a 16.206469
_cell_length_b 7.525993
_cell_length_c 20.487551
_cell_angle_alpha 90.000000
_cell_angle_beta 90.000000
_cell_angle_gamma 90.000000
_cell_volume 2498.861929
_symmetry_space_group_name_H-M "P M M A"
_symmetry_group_IT_number 51
_symmetry_cell_setting 'orthorhombic'
loop_
_space_group_symop_operation_xyz
x,y,z
1/2-x,-y,z
1/2+x,-y,-z
-x,y,-z
-x,-y,-z
1/2+x,y,-z
1/2-x,y,z
x,-y,z
loop_
_atom_site_type_symbol
_atom_site_label
_atom_site_fract_x
_atom_site_fract_y
_atom_site_fract_z
Si Si1 0.650325 0.295021 0.064055
Si Si2 0.658448 0.213782 0.658732
Si Si3 0.845250 0.284678 0.923019
Si Si4 0.385263 0.701583 0.795310
Si Si5 0.659930 0.717599 0.344801
Si Si6 0.069355 0.792218 0.212367
Si Si7 0.002462 0.711714 0.573570
O O1 0.750000 0.298138 0.061076
O O2 0.619595 0.500000 0.065686
O O3 0.626969 0.212794 0.133581
O O4 0.623348 0.220131 0.993914
O O5 0.750000 0.280553 0.641423
O O6 0.632299 0.271062 0.731856
O O7 0.583724 0.261053 0.610795
O O8 0.662683 0.000000 0.659370
O O9 0.750000 0.227992 0.914940
O O10 0.845782 0.500000 0.925718
O O11 0.895663 0.228967 0.860068
O O12 0.351888 0.500000 0.801229
O O13 0.346272 0.780349 0.730196
O O14 0.482442 0.696229 0.781808
O O15 0.750000 0.765251 0.372046
O O16 0.655946 0.500000 0.342521
O O17 0.580762 0.780623 0.385285
O O18 0.053372 0.000000 0.224458
O O19 0.015042 0.500000 0.569026
O O20 0.000000 0.783230 0.500000
#
# Coordination Sequence:
#
# PCOD9399568 Si02
#       7
#     8   8   8   8   8   8   8
#     4   8  15  29  50  76 102 131 175 230 281 329
#     4  10  22  40  60  81 110 152 197 235 274 324
#     4   9  18  33  52  74 101 134 177 229 280 331
#     4  10  18  31  54  78 102 137 185 232 277 327
#     4   9  17  31  54  83 113 145 183 225 271 327
#     4  11  22  35  52  75 108 145 185 231 279 326
#     4  10  21  37  59  90 123 149 178 223 278 333
#
# _framework density 22.410202999999999
#
# number of rings (size 3 to 8) (size 9 to 14) (size 15 to 20)
#    0.000    2.429    1.429    2.143    0.000    4.857 
#    0.000    5.000    0.000    3.857    0.000    0.000 
#    0.000    0.000    0.000    0.000    0.000    0.000 
#
# Total GULP energy -312620.302973 kJ/mol
# GULP energy per Si atom -5582.505410 kJ/mol
# Density = 2.235920 g / cm^3
# Si number density = 22.410203 Si / 1000 Ang^3
#
#
#
# Elastic Constant Matrix: (Units=GPa)
#
#
# Indices 1 2 3 4 5 6 
#
# 1 143.2553 -0.9314 78.5890 0.0000 0.0000 0.0000
# 2 -0.9314 59.9574 3.9978 0.0000 0.0000 0.0000
# 3 78.5890 3.9978 176.5547 0.0000 0.0000 0.0000
# 4 0.0000 0.0000 0.0000 6.8633 0.0000 0.0000
# 5 0.0000 0.0000 0.0000 0.0000 -11.8291 0.0000
# 6 0.0000 0.0000 0.0000 0.0000 0.0000 109.1485
#
#
#
# Elastic Compliance Matrix: (Units=1/GPa)
#
#
# Indices 1 2 3 4 5 6 
#
# 1 0.009246 0.000419 -0.004125 0.000000 0.000000 0.000000
# 2 0.000419 0.016723 -0.000565 0.000000 0.000000 0.000000
# 3 -0.004125 -0.000565 0.007513 0.000000 0.000000 0.000000
# 4 0.000000 0.000000 0.000000 0.145703 0.000000 0.000000
# 5 0.000000 0.000000 0.000000 0.000000 -0.084537 0.000000
# 6 0.000000 0.000000 0.000000 0.000000 0.000000 0.009162
#
#
# Mechanical properties :
#
#
# Convention : Reuss Voigt Hill
#
# Bulk Modulus (GPa) = 40.09804 60.34201 50.22003
# Shear Modulus (GPa) = 41.43678 40.71066 41.07372
#
# Velocity S-wave (km/s) = 4.30468 4.26680 4.28578
# Velocity P-wave (km/s) = 6.52983 7.15952 6.85191
#
# Compressibility (1/GPa) = 0.02493887
#
# Stress axis : x y z
#
# Youngs Moduli (GPa) = 108.15062 59.79900 133.10215
#
# Poissons Ratio (x) = -0.02504 0.54908
# Poissons Ratio (y) = -0.04528 0.07521
# Poissons Ratio (z) = 0.44615 0.03379
#
# Static dielectric constant tensor:
#      x y z
#    x 1.801120 0.000000 0.000000 
#    y 0.000000 1.873200 0.000000 
#    z 0.000000 0.000000 1.833700 
# 
# From -- ./inp_files/33367.got.cif
#   From: 2010.05.17/outbox.cif.g08.bks.cpg/sg51_17_cif.got.tgz:33367.got - 2010.06.03 11:52:47.
