data_PCOD9399794
_publ_section_title
;
Structure prediction by ZEFSAII (Michael W. Deem and Ramdas Pophale) SiO2 
 PCOD9399794
Probable space group: P M M A
;
_chemical_formula_sum "Si O2"
_cell_formula_units_Z 56
_cell_length_a 8.442219
_cell_length_b 21.062133
_cell_length_c 15.781456
_cell_angle_alpha 90.000000
_cell_angle_beta 90.000000
_cell_angle_gamma 90.000000
_cell_volume 2806.118673
_symmetry_space_group_name_H-M "P M M A"
_symmetry_group_IT_number 51
_symmetry_cell_setting 'orthorhombic'
loop_
_space_group_symop_operation_xyz
x,y,z
1/2-x,-y,z
1/2+x,-y,-z
-x,y,-z
-x,-y,-z
1/2+x,y,-z
1/2-x,y,z
x,-y,z
loop_
_atom_site_type_symbol
_atom_site_label
_atom_site_fract_x
_atom_site_fract_y
_atom_site_fract_z
Si Si1 0.060118 0.670871 0.591817
Si Si2 0.435091 0.234532 0.872354
Si Si3 0.060221 0.373780 0.088504
Si Si4 0.437594 0.796384 0.674660
Si Si5 0.558593 0.571609 0.730471
Si Si6 0.566136 0.899306 0.910453
Si Si7 0.559281 0.068953 0.273608
O O1 0.250000 0.673069 0.591944
O O2 0.996680 0.741817 0.613948
O O3 0.000000 0.650779 0.500000
O O4 0.006647 0.622650 0.664659
O O5 0.250000 0.223662 0.893343
O O6 0.490462 0.302867 0.902898
O O7 0.450388 0.230424 0.770418
O O8 0.537960 0.176734 0.907804
O O9 0.250000 0.370176 0.086637
O O10 0.011799 0.410970 0.173330
O O11 0.000000 0.401831 0.000000
O O12 0.250000 0.802219 0.656090
O O13 0.503951 0.868026 0.679129
O O14 0.750000 0.574007 0.727168
O O15 0.507706 0.500000 0.709701
O O16 0.750000 0.914309 0.903700
O O17 0.479827 0.923942 0.826114
O O18 0.500000 0.922811 0.000000
O O19 0.750000 0.070066 0.280893
O O20 0.501285 0.000000 0.303218
#
# Coordination Sequence:
#
# PCOD9399794 Si02
#       7
#     8   8   8   8   8   8   8
#     4  11  22  39  64  94 122 152 192 239 295 357
#     4  10  18  33  54  77 107 144 191 242 292 342
#     4  11  22  35  55  83 116 155 199 243 293 344
#     4   8  16  32  56  83 111 143 183 232 283 338
#     4  10  23  43  63  86 120 158 198 245 294 346
#     4  11  21  32  46  69 103 143 189 240 293 344
#     4   9  18  34  55  78 105 143 188 234 287 345
#
# _framework density 19.956391
#
# number of rings (size 3 to 8) (size 9 to 14) (size 15 to 20)
#    0.000    2.000    1.429    3.857    0.000    2.000 
#    0.000    0.714    0.000    0.429    0.000    0.000 
#    0.000    0.000    0.000    0.000    0.000    0.143 
#
# Total GULP energy -312662.096532 kJ/mol
# GULP energy per Si atom -5583.251724 kJ/mol
# Density = 1.991097 g / cm^3
# Si number density = 19.956391 Si / 1000 Ang^3
#
#
#
# Elastic Constant Matrix: (Units=GPa)
#
#
# Indices 1 2 3 4 5 6 
#
# 1 25.5412 14.1368 18.8488 0.0000 0.0000 0.0000
# 2 14.1368 125.0609 50.8249 0.0000 0.0000 0.0000
# 3 18.8488 50.8249 88.7469 0.0000 0.0000 0.0000
# 4 0.0000 0.0000 0.0000 -12.0727 0.0000 0.0000
# 5 0.0000 0.0000 0.0000 0.0000 19.3318 0.0000
# 6 0.0000 0.0000 0.0000 0.0000 0.0000 15.7577
#
#
#
# Elastic Compliance Matrix: (Units=1/GPa)
#
#
# Indices 1 2 3 4 5 6 
#
# 1 0.046682 -0.001626 -0.008983 0.000000 0.000000 0.000000
# 2 -0.001626 0.010478 -0.005656 0.000000 0.000000 0.000000
# 3 -0.008983 -0.005656 0.016415 0.000000 0.000000 0.000000
# 4 0.000000 0.000000 0.000000 -0.082831 0.000000 0.000000
# 5 0.000000 0.000000 0.000000 0.000000 0.051728 0.000000
# 6 0.000000 0.000000 0.000000 0.000000 0.000000 0.063461
#
#
# Mechanical properties :
#
#
# Convention : Reuss Voigt Hill
#
# Bulk Modulus (GPa) = 24.36341 45.21888 34.79114
# Shear Modulus (GPa) = 32.86340 14.97259 23.91799
#
# Velocity S-wave (km/s) = 4.06243 2.74207 3.46571
# Velocity P-wave (km/s) = 5.85144 5.72130 5.78673
#
# Compressibility (1/GPa) = 0.04104516
#
# Stress axis : x y z
#
# Youngs Moduli (GPa) = 21.42153 95.43511 60.92034
#
# Poissons Ratio (x) = 0.15518 0.54728
# Poissons Ratio (y) = 0.03483 0.34454
# Poissons Ratio (z) = 0.19244 0.53974
#
# Static dielectric constant tensor:
#      x y z
#    x 1.682900 0.000000 0.000000 
#    y 0.000000 1.740060 0.000000 
#    z 0.000000 0.000000 1.696050 
# 
# From -- ./inp_files/21803.got.cif
#   From: 2010.05.17/outbox.cif.g08.bks.cpg/sg51_11_cif.got.tgz:21803.got - 2010.06.03 11:52:47.
