data_PCOD9399676
_publ_section_title
;
Structure prediction by ZEFSAII (Michael W. Deem and Ramdas Pophale) SiO2 
 PCOD9399676
Probable space group: P M M A
;
_chemical_formula_sum "Si O2"
_cell_formula_units_Z 40
_cell_length_a 13.566518
_cell_length_b 13.281608
_cell_length_c 9.786728
_cell_angle_alpha 90.000000
_cell_angle_beta 90.000000
_cell_angle_gamma 90.000000
_cell_volume 1763.423288
_symmetry_space_group_name_H-M "P M M A"
_symmetry_group_IT_number 51
_symmetry_cell_setting 'orthorhombic'
loop_
_space_group_symop_operation_xyz
x,y,z
1/2-x,-y,z
1/2+x,-y,-z
-x,y,-z
-x,-y,-z
1/2+x,y,-z
1/2-x,y,z
x,-y,z
loop_
_atom_site_type_symbol
_atom_site_label
_atom_site_fract_x
_atom_site_fract_y
_atom_site_fract_z
Si Si1 0.143125 0.167737 0.419361
Si Si2 0.616023 0.611219 0.477325
Si Si3 0.917994 0.677810 0.179491
Si Si4 0.438566 0.887424 0.714723
Si Si5 0.859765 0.381752 0.879061
O O1 0.250000 0.132635 0.372869
O O2 0.147153 0.288591 0.443137
O O3 0.052653 0.134665 0.324941
O O4 0.118098 0.124952 0.570272
O O5 0.500000 0.609781 0.500000
O O6 0.651179 0.500000 0.516513
O O7 0.628813 0.630472 0.315674
O O8 0.903466 0.797784 0.188283
O O9 0.036754 0.659465 0.180063
O O10 0.873939 0.633184 0.041858
O O11 0.426678 0.000000 0.767098
O O12 0.750000 0.341695 0.842053
O O13 0.860071 0.500000 0.847645
#
# Coordination Sequence:
#
# PCOD9399676 Si02
#       5
#     8   8   8   8   8
#     4  10  19  34  53  78 111 148 186 222 262 321
#     4  10  18  32  53  81 117 150 174 209 267 331
#     4  10  19  37  57  79 108 144 180 229 265 316
#     4  10  21  37  54  77 106 143 186 228 275 320
#     4  10  21  37  59  83 107 141 182 221 266 321
#
# _framework density 22.683152
#
# number of rings (size 3 to 8) (size 9 to 14) (size 15 to 20)
#    0.000    2.000    4.000    3.600    0.000    6.000 
#    0.000    2.000    0.000    1.200    0.000    0.000 
#    0.000    0.000    0.000    0.000    0.000    0.000 
#
# Total GULP energy -223515.954627 kJ/mol
# GULP energy per Si atom -5587.898866 kJ/mol
# Density = 2.263152 g / cm^3
# Si number density = 22.683152 Si / 1000 Ang^3
#
#
#
# Elastic Constant Matrix: (Units=GPa)
#
#
# Indices 1 2 3 4 5 6 
#
# 1 106.1002 7.9553 -1.9377 0.0000 0.0000 0.0000
# 2 7.9553 150.0364 2.3714 0.0000 0.0000 0.0000
# 3 -1.9377 2.3714 71.2792 0.0000 0.0000 0.0000
# 4 0.0000 0.0000 0.0000 -14.5165 0.0000 0.0000
# 5 0.0000 0.0000 0.0000 0.0000 -10.8018 0.0000
# 6 0.0000 0.0000 0.0000 0.0000 0.0000 -31.0605
#
#
#
# Elastic Compliance Matrix: (Units=1/GPa)
#
#
# Indices 1 2 3 4 5 6 
#
# 1 0.009468 -0.000506 0.000274 0.000000 0.000000 0.000000
# 2 -0.000506 0.006696 -0.000237 0.000000 0.000000 0.000000
# 3 0.000274 -0.000237 0.014045 0.000000 0.000000 0.000000
# 4 0.000000 0.000000 0.000000 -0.068887 0.000000 0.000000
# 5 0.000000 0.000000 0.000000 0.000000 -0.092577 0.000000
# 6 0.000000 0.000000 0.000000 0.000000 0.000000 -0.032195
#
#
# Mechanical properties :
#
#
# Convention : Reuss Voigt Hill
#
# Bulk Modulus (GPa) = 34.16345 38.24373 36.20359
# Shear Modulus (GPa) = -32.73178 9.99269 -11.36954
#
# Velocity S-wave (km/s) = -3.80280 2.10117 -2.24125
# Velocity P-wave (km/s) = 2.04644 4.77317 3.04920
#
# Compressibility (1/GPa) = 0.02927105
#
# Stress axis : x y z
#
# Youngs Moduli (GPa) = 105.61864 149.35099 71.20146
#
# Poissons Ratio (x) = 0.07562 -0.01953
# Poissons Ratio (y) = 0.05348 0.01684
# Poissons Ratio (z) = -0.02896 0.03532
#
# Static dielectric constant tensor:
#      x y z
#    x 1.885230 0.000000 0.000000 
#    y 0.000000 1.841210 0.000000 
#    z 0.000000 0.000000 1.836380 
# 
# From -- ./inp_files/16298.got.cif
#   From: 2010.05.17/outbox.cif.g08.bks.cpg/sg51_9_cif.got.tgz:16298.got - 2010.06.03 11:52:47.
