data_PCOD9399546
_publ_section_title
;
Structure prediction by ZEFSAII (Michael W. Deem and Ramdas Pophale) SiO2 
 PCOD9399546
Probable space group: P M M A
;
_chemical_formula_sum "Si O2"
_cell_formula_units_Z 48
_cell_length_a 19.796785
_cell_length_b 7.507499
_cell_length_c 15.507009
_cell_angle_alpha 90.000000
_cell_angle_beta 90.000000
_cell_angle_gamma 90.000000
_cell_volume 2304.719034
_symmetry_space_group_name_H-M "P M M A"
_symmetry_group_IT_number 51
_symmetry_cell_setting 'orthorhombic'
loop_
_space_group_symop_operation_xyz
x,y,z
1/2-x,-y,z
1/2+x,-y,-z
-x,y,-z
-x,-y,-z
1/2+x,y,-z
1/2-x,y,z
x,-y,z
loop_
_atom_site_type_symbol
_atom_site_label
_atom_site_fract_x
_atom_site_fract_y
_atom_site_fract_z
Si Si1 0.575263 0.217238 0.528142
Si Si2 0.827523 0.217921 0.374098
Si Si3 0.325608 0.208899 0.129710
Si Si4 0.573505 0.218198 0.724037
Si Si5 0.423577 0.214834 0.780239
Si Si6 0.425330 0.708377 0.979094
O O1 0.500000 0.272507 0.500000
O O2 0.630241 0.274629 0.458121
O O3 0.588445 0.272915 0.626204
O O4 0.575235 0.000000 0.527306
O O5 0.750000 0.275984 0.375082
O O6 0.868123 0.275253 0.288821
O O7 0.827441 0.000000 0.374133
O O8 0.250000 0.284121 0.123514
O O9 0.372100 0.282885 0.206537
O O10 0.367526 0.219688 0.041348
O O11 0.318921 0.000000 0.149269
O O12 0.498322 0.275145 0.751836
O O13 0.572794 0.000000 0.725275
O O14 0.424181 0.000000 0.777348
O O15 0.410445 0.267262 0.878494
O O16 0.428437 0.500000 0.999028
O O17 0.500000 0.785116 0.000000
#
# Coordination Sequence:
#
# PCOD9399546 Si02
#       6
#     8   8   8   8   8   8
#     4   9  14  23  41  68 102 138 169 199 247 307
#     4   9  17  27  42  71 107 136 167 211 258 305
#     4  10  21  36  54  78 106 136 174 219 266 314
#     4   9  16  27  47  73 101 136 174 209 251 306
#     4  10  18  31  53  76 102 138 175 213 259 311
#     4  11  23  37  55  79 104 135 177 220 265 320
#
# _framework density 20.826833000000001
#
# number of rings (size 3 to 8) (size 9 to 14) (size 15 to 20)
#    0.000    2.333    3.333    0.500    0.000    2.333 
#    0.000    5.000    0.000    0.000    0.000    3.500 
#    0.000    0.000    0.000    0.000    0.000    0.000 
#
# Total GULP energy -268089.781970 kJ/mol
# GULP energy per Si atom -5585.203791 kJ/mol
# Density = 2.077943 g / cm^3
# Si number density = 20.826833 Si / 1000 Ang^3
#
#
#
# Elastic Constant Matrix: (Units=GPa)
#
#
# Indices 1 2 3 4 5 6 
#
# 1 215.5049 4.3806 116.7030 0.0000 0.0000 0.0000
# 2 4.3806 52.5054 -11.4910 0.0000 0.0000 0.0000
# 3 116.7030 -11.4910 199.0290 0.0000 0.0000 0.0000
# 4 0.0000 0.0000 0.0000 -39.6455 0.0000 0.0000
# 5 0.0000 0.0000 0.0000 0.0000 31.3261 0.0000
# 6 0.0000 0.0000 0.0000 0.0000 0.0000 -7.7416
#
#
#
# Elastic Compliance Matrix: (Units=1/GPa)
#
#
# Indices 1 2 3 4 5 6 
#
# 1 0.006911 -0.001482 -0.004138 0.000000 0.000000 0.000000
# 2 -0.001482 0.019607 0.002001 0.000000 0.000000 0.000000
# 3 -0.004138 0.002001 0.007566 0.000000 0.000000 0.000000
# 4 0.000000 0.000000 0.000000 -0.025224 0.000000 0.000000
# 5 0.000000 0.000000 0.000000 0.000000 0.031922 0.000000
# 6 0.000000 0.000000 0.000000 0.000000 0.000000 -0.129173
#
#
# Mechanical properties :
#
#
# Convention : Reuss Voigt Hill
#
# Bulk Modulus (GPa) = 37.24868 76.24717 56.74793
# Shear Modulus (GPa) = -69.25042 20.61760 -24.31641
#
# Velocity S-wave (km/s) = -5.77259 3.14977 -3.42065
# Velocity P-wave (km/s) = 5.14845 7.06524 3.42133
#
# Compressibility (1/GPa) = 0.02684659
#
# Stress axis : x y z
#
# Youngs Moduli (GPa) = 144.69012 51.00142 132.16386
#
# Poissons Ratio (x) = 0.07560 0.54691
# Poissons Ratio (y) = 0.21447 -0.26448
# Poissons Ratio (z) = 0.59874 -0.10206
#
# Static dielectric constant tensor:
#      x y z
#    x 1.723530 0.000000 0.000000 
#    y 0.000000 1.773080 0.000000 
#    z 0.000000 0.000000 1.699810 
# 
# From -- ./inp_files/24750.got.cif
#   From: 2010.05.17/outbox.cif.g08.bks.cpg/sg51_13_cif.got.tgz:24750.got - 2010.06.03 11:52:47.
