data_PCOD9399269
_publ_section_title
;
Structure prediction by ZEFSAII (Michael W. Deem and Ramdas Pophale) SiO2 
 PCOD9399269
Probable space group: P M M A
;
_chemical_formula_sum "Si O2"
_cell_formula_units_Z 48
_cell_length_a 26.655838
_cell_length_b 8.711266
_cell_length_c 12.306162
_cell_angle_alpha 90.000000
_cell_angle_beta 90.000000
_cell_angle_gamma 90.000000
_cell_volume 2857.565826
_symmetry_space_group_name_H-M "P M M A"
_symmetry_group_IT_number 51
_symmetry_cell_setting 'orthorhombic'
loop_
_space_group_symop_operation_xyz
x,y,z
1/2-x,-y,z
1/2+x,-y,-z
-x,y,-z
-x,-y,-z
1/2+x,y,-z
1/2-x,y,z
x,-y,z
loop_
_atom_site_type_symbol
_atom_site_label
_atom_site_fract_x
_atom_site_fract_y
_atom_site_fract_z
Si Si1 0.881724 0.186048 0.984027
Si Si2 0.033900 0.821174 0.856578
Si Si3 0.308225 0.316107 0.837868
Si Si4 0.942895 0.683680 0.530469
Si Si5 0.616513 0.178289 0.332438
Si Si6 0.428632 0.813887 0.232466
O O1 0.933167 0.240338 0.043901
O O2 0.836739 0.252807 0.055401
O O3 0.880211 0.000000 0.994108
O O4 0.886206 0.224331 0.856860
O O5 0.070826 0.814648 0.753818
O O6 0.980995 0.755624 0.820025
O O7 0.024118 0.000000 0.882381
O O8 0.250000 0.270680 0.837721
O O9 0.311636 0.500000 0.837984
O O10 0.337187 0.252871 0.731913
O O11 0.943929 0.500000 0.533168
O O12 0.903931 0.739530 0.439351
O O13 0.926345 0.746876 0.647475
O O14 0.000000 0.736868 0.500000
O O15 0.627101 0.000000 0.355032
O O16 0.430643 0.000000 0.241001
#
# Coordination Sequence:
#
# PCOD9399269 Si02
#       6
#     8   8   8   8   8   8
#     4   9  18  31  50  77 103 133 173 217 258 300
#     4   8  14  26  46  71 100 132 167 207 249 295
#     4  10  21  37  57  79 105 135 165 209 271 325
#     4  11  22  33  47  72 110 148 180 214 256 310
#     4  10  19  33  55  78 101 135 179 222 258 299
#     4  10  18  30  49  72 104 142 180 213 249 301
#
# _framework density 16.797512999999999
#
# number of rings (size 3 to 8) (size 9 to 14) (size 15 to 20)
#    0.000    2.333    1.667    3.000    0.000    4.667 
#    0.000    0.000    0.000    4.000    0.000    4.667 
#    0.000    0.000    0.000    0.000    0.000    0.000 
#
# Total GULP energy -267522.483773 kJ/mol
# GULP energy per Si atom -5573.385079 kJ/mol
# Density = 1.675928 g / cm^3
# Si number density = 16.797513 Si / 1000 Ang^3
#
#
#
# Elastic Constant Matrix: (Units=GPa)
#
#
# Indices 1 2 3 4 5 6 
#
# 1 94.1678 37.1594 73.7387 0.0000 0.0000 0.0000
# 2 37.1594 43.1635 45.8564 0.0000 0.0000 0.0000
# 3 73.7387 45.8564 164.1156 0.0000 0.0000 0.0000
# 4 0.0000 0.0000 0.0000 15.9912 0.0000 0.0000
# 5 0.0000 0.0000 0.0000 0.0000 5.7524 0.0000
# 6 0.0000 0.0000 0.0000 0.0000 0.0000 19.8106
#
#
#
# Elastic Compliance Matrix: (Units=1/GPa)
#
#
# Indices 1 2 3 4 5 6 
#
# 1 0.019229 -0.010489 -0.005709 0.000000 0.000000 0.000000
# 2 -0.010489 0.038670 -0.006092 0.000000 0.000000 0.000000
# 3 -0.005709 -0.006092 0.010361 0.000000 0.000000 0.000000
# 4 0.000000 0.000000 0.000000 0.062535 0.000000 0.000000
# 5 0.000000 0.000000 0.000000 0.000000 0.173841 0.000000
# 6 0.000000 0.000000 0.000000 0.000000 0.000000 0.050478
#
#
# Mechanical properties :
#
#
# Convention : Reuss Voigt Hill
#
# Bulk Modulus (GPa) = 42.23115 68.32843 55.27979
# Shear Modulus (GPa) = 12.26736 17.95699 15.11217
#
# Velocity S-wave (km/s) = 2.70535 3.27314 3.00270
# Velocity P-wave (km/s) = 5.91223 7.41961 6.70839
#
# Compressibility (1/GPa) = 0.02367920
#
# Stress axis : x y z
#
# Youngs Moduli (GPa) = 52.00545 25.85988 96.51983
#
# Poissons Ratio (x) = 0.27124 0.55102
# Poissons Ratio (y) = 0.54548 0.58801
# Poissons Ratio (z) = 0.29689 0.15754
#
# Static dielectric constant tensor:
#      x y z
#    x 1.561880 0.000000 0.000000 
#    y 0.000000 1.574970 0.000000 
#    z 0.000000 0.000000 1.578060 
# 
# From -- ./inp_files/19016.got.cif
#   From: 2010.05.17/outbox.cif.g08.bks.cpg/sg51_10_cif.got.tgz:19016.got - 2010.06.03 11:52:47.
