data_PCOD9399097
_publ_section_title
;
Structure prediction by ZEFSAII (Michael W. Deem and Ramdas Pophale) SiO2 
 PCOD9399097
Probable space group: P M M A
;
_chemical_formula_sum "Si O2"
_cell_formula_units_Z 56
_cell_length_a 15.019601
_cell_length_b 7.655277
_cell_length_c 22.943070
_cell_angle_alpha 90.000000
_cell_angle_beta 90.000000
_cell_angle_gamma 90.000000
_cell_volume 2637.975974
_symmetry_space_group_name_H-M "P M M A"
_symmetry_group_IT_number 51
_symmetry_cell_setting 'orthorhombic'
loop_
_space_group_symop_operation_xyz
x,y,z
1/2-x,-y,z
1/2+x,-y,-z
-x,y,-z
-x,-y,-z
1/2+x,y,-z
1/2-x,y,z
x,-y,z
loop_
_atom_site_type_symbol
_atom_site_label
_atom_site_fract_x
_atom_site_fract_y
_atom_site_fract_z
Si Si1 0.351251 0.712611 0.531292
Si Si2 0.043072 0.794528 0.865677
Si Si3 0.648871 0.209693 0.246161
Si Si4 0.348400 0.298072 0.110325
Si Si5 0.650576 0.713357 0.602727
Si Si6 0.034861 0.289526 0.640061
Si Si7 0.352211 0.791211 0.976111
O O1 0.250000 0.762430 0.546520
O O2 0.354905 0.500000 0.531044
O O3 0.367810 0.765352 0.464567
O O4 0.418361 0.774747 0.580651
O O5 0.095449 0.721686 0.810121
O O6 0.080744 0.723233 0.926995
O O7 0.937026 0.778615 0.861573
O O8 0.064369 0.000000 0.868296
O O9 0.750000 0.277090 0.249359
O O10 0.593622 0.244801 0.304417
O O11 0.654172 0.000000 0.240530
O O12 0.250000 0.220833 0.122798
O O13 0.345933 0.500000 0.127207
O O14 0.360915 0.286411 0.040379
O O15 0.750000 0.772569 0.618756
O O16 0.652711 0.500000 0.603403
O O17 0.567386 0.771534 0.641272
O O18 0.032708 0.500000 0.636407
O O19 0.250000 0.764212 0.956134
O O20 0.365584 0.000000 0.984065
#
# Coordination Sequence:
#
# PCOD9399097 Si02
#       7
#     8   8   8   8   8   8   8
#     4   8  13  22  40  69 101 128 158 201 249 293
#     4  10  20  35  55  75  96 130 175 212 241 282
#     4  10  22  39  55  72  98 130 162 200 248 298
#     4  10  21  35  51  76 109 137 160 195 248 302
#     4   8  14  25  43  70 102 132 162 200 247 294
#     4  10  18  29  49  75 100 128 166 208 245 287
#     4   9  17  31  53  79 104 131 166 207 248 292
#
# _framework density 21.228394999999999
#
# number of rings (size 3 to 8) (size 9 to 14) (size 15 to 20)
#    0.000    2.714    0.000    3.000    0.000    8.000 
#    0.000    0.714    0.000    7.286    0.000    2.000 
#    0.000    0.000    0.000    0.000    0.000    0.000 
#
# Total GULP energy -312491.437964 kJ/mol
# GULP energy per Si atom -5580.204249 kJ/mol
# Density = 2.118008 g / cm^3
# Si number density = 21.228395 Si / 1000 Ang^3
#
#
#
# Elastic Constant Matrix: (Units=GPa)
#
#
# Indices 1 2 3 4 5 6 
#
# 1 164.5926 1.7686 71.3946 0.0000 0.0000 0.0000
# 2 1.7686 35.5591 -2.8528 0.0000 0.0000 0.0000
# 3 71.3946 -2.8528 50.2348 0.0000 0.0000 0.0000
# 4 0.0000 0.0000 0.0000 15.8117 0.0000 0.0000
# 5 0.0000 0.0000 0.0000 0.0000 34.1465 0.0000
# 6 0.0000 0.0000 0.0000 0.0000 0.0000 9.7303
#
#
#
# Elastic Compliance Matrix: (Units=1/GPa)
#
#
# Indices 1 2 3 4 5 6 
#
# 1 0.016086 -0.002646 -0.023011 0.000000 0.000000 0.000000
# 2 -0.002646 0.028686 0.005390 0.000000 0.000000 0.000000
# 3 -0.023011 0.005390 0.052917 0.000000 0.000000 0.000000
# 4 0.000000 0.000000 0.000000 0.063244 0.000000 0.000000
# 5 0.000000 0.000000 0.000000 0.000000 0.029286 0.000000
# 6 0.000000 0.000000 0.000000 0.000000 0.000000 0.102772
#
#
# Mechanical properties :
#
#
# Convention : Reuss Voigt Hill
#
# Bulk Modulus (GPa) = 17.49683 43.44525 30.47104
# Shear Modulus (GPa) = 14.18129 23.94276 19.06202
#
# Velocity S-wave (km/s) = 2.58744 3.36201 2.99983
# Velocity P-wave (km/s) = 4.14566 5.96497 5.13651
#
# Compressibility (1/GPa) = 0.05715320
#
# Stress axis : x y z
#
# Youngs Moduli (GPa) = 62.16745 34.85990 18.89759
#
# Poissons Ratio (x) = 0.09225 0.43486
# Poissons Ratio (y) = 0.16451 -0.10186
# Poissons Ratio (z) = 1.43056 -0.18789
#
# Static dielectric constant tensor:
#      x y z
#    x 1.786920 0.000000 0.000000 
#    y 0.000000 1.805840 0.000000 
#    z 0.000000 0.000000 1.733080 
# 
# From -- ./inp_files/33347.got.cif
#   From: 2010.05.17/outbox.cif.g08.bks.cpg/sg51_17_cif.got.tgz:33347.got - 2010.06.03 11:52:47.
