data_PCOD9399507
_publ_section_title
;
Structure prediction by ZEFSAII (Michael W. Deem and Ramdas Pophale) SiO2 
 PCOD9399507
Probable space group: P M M A
;
_chemical_formula_sum "Si O2"
_cell_formula_units_Z 64
_cell_length_a 20.083226
_cell_length_b 9.148202
_cell_length_c 20.014733
_cell_angle_alpha 90.000000
_cell_angle_beta 90.000000
_cell_angle_gamma 90.000000
_cell_volume 3677.214992
_symmetry_space_group_name_H-M "P M M A"
_symmetry_group_IT_number 51
_symmetry_cell_setting 'orthorhombic'
loop_
_space_group_symop_operation_xyz
x,y,z
1/2-x,-y,z
1/2+x,-y,-z
-x,y,-z
-x,-y,-z
1/2+x,y,-z
1/2-x,y,z
x,-y,z
loop_
_atom_site_type_symbol
_atom_site_label
_atom_site_fract_x
_atom_site_fract_y
_atom_site_fract_z
Si Si1 0.327955 0.173741 0.116225
Si Si2 0.576814 0.331889 0.526081
Si Si3 0.463174 0.828421 0.344400
Si Si4 0.583926 0.675164 0.152100
Si Si5 0.939832 0.675247 0.797286
Si Si6 0.384997 0.828827 0.602242
Si Si7 0.827248 0.674839 0.026153
Si Si8 0.175254 0.824286 0.739160
O O1 0.250000 0.198932 0.132204
O O2 0.376315 0.253171 0.167827
O O3 0.339406 0.240365 0.042535
O O4 0.339761 0.000000 0.115989
O O5 0.500000 0.328120 0.500000
O O6 0.594309 0.500000 0.538610
O O7 0.577969 0.238832 0.593832
O O8 0.618092 0.262909 0.465341
O O9 0.450940 0.741427 0.276302
O O10 0.540673 0.815392 0.366378
O O11 0.448896 0.000000 0.335362
O O12 0.590723 0.500000 0.157859
O O13 0.505962 0.709812 0.158936
O O14 0.622242 0.749221 0.213269
O O15 0.621163 0.718665 0.083893
O O16 0.933433 0.500000 0.793565
O O17 0.336638 0.782957 0.662032
O O18 0.374630 0.000000 0.586822
O O19 0.750000 0.701549 0.046781
O O20 0.833853 0.500000 0.014732
O O21 0.250000 0.786327 0.760294
O O22 0.167156 0.000000 0.742676
#
# Coordination Sequence:
#
# PCOD9399507 Si02
#       8
#     8   8   8   8   8   8   8   8
#     4  10  22  40  60  81 104 134 175 220 269 328
#     4   9  17  28  46  72 100 131 170 218 266 314
#     4  10  18  31  51  75 105 139 173 216 268 318
#     4  10  21  35  53  79 111 144 181 223 267 317
#     4  11  22  35  55  82 112 143 175 220 273 321
#     4   9  17  30  47  70 101 138 178 220 265 314
#     4   9  18  35  57  78 105 143 183 221 261 310
#     4  10  20  33  50  74 107 148 189 226 266 315
#
# _framework density 17.404475999999999
#
# number of rings (size 3 to 8) (size 9 to 14) (size 15 to 20)
#    0.000    2.250    1.250    1.875    0.000    5.500 
#    0.000    3.750    0.000    0.750    0.000    1.750 
#    0.000    0.000    0.000    0.000    0.000    0.000 
#
# Total GULP energy -357058.844890 kJ/mol
# GULP energy per Si atom -5579.044451 kJ/mol
# Density = 1.736486 g / cm^3
# Si number density = 17.404476 Si / 1000 Ang^3
#
#
#
# Elastic Constant Matrix: (Units=GPa)
#
#
# Indices 1 2 3 4 5 6 
#
# 1 60.6475 44.5529 44.8856 0.0000 0.0000 0.0000
# 2 44.5529 68.8871 52.1722 0.0000 0.0000 0.0000
# 3 44.8856 52.1722 92.6617 0.0000 0.0000 0.0000
# 4 0.0000 0.0000 0.0000 33.5960 0.0000 0.0000
# 5 0.0000 0.0000 0.0000 0.0000 22.6291 0.0000
# 6 0.0000 0.0000 0.0000 0.0000 0.0000 19.2524
#
#
#
# Elastic Compliance Matrix: (Units=1/GPa)
#
#
# Indices 1 2 3 4 5 6 
#
# 1 0.033902 -0.016543 -0.007108 0.000000 0.000000 0.000000
# 2 -0.016543 0.033381 -0.010781 0.000000 0.000000 0.000000
# 3 -0.007108 -0.010781 0.020305 0.000000 0.000000 0.000000
# 4 0.000000 0.000000 0.000000 0.029765 0.000000 0.000000
# 5 0.000000 0.000000 0.000000 0.000000 0.044191 0.000000
# 6 0.000000 0.000000 0.000000 0.000000 0.000000 0.051942
#
#
# Mechanical properties :
#
#
# Convention : Reuss Voigt Hill
#
# Bulk Modulus (GPa) = 53.40752 56.15754 54.78253
# Shear Modulus (GPa) = 17.32545 20.46787 18.89666
#
# Velocity S-wave (km/s) = 3.15851 3.43302 3.29862
# Velocity P-wave (km/s) = 6.63734 6.93184 6.78619
#
# Compressibility (1/GPa) = 0.01872395
#
# Stress axis : x y z
#
# Youngs Moduli (GPa) = 29.49655 29.95704 49.24809
#
# Poissons Ratio (x) = 0.49558 0.35005
# Poissons Ratio (y) = 0.48797 0.53096
# Poissons Ratio (z) = 0.20966 0.32298
#
# Static dielectric constant tensor:
#      x y z
#    x 1.588360 0.000000 0.000000 
#    y 0.000000 1.578410 0.000000 
#    z 0.000000 0.000000 1.570230 
# 
# From -- ./inp_files/30683.got.cif
#   From: 2010.05.17/outbox.cif.g08.bks.cpg/sg51_16_cif.got.tgz:30683.got - 2010.06.03 11:52:47.
