data_PCOD9399846
_publ_section_title
;
Structure prediction by ZEFSAII (Michael W. Deem and Ramdas Pophale) SiO2 
 PCOD9399846
Probable space group: P M M A
;
_chemical_formula_sum "Si O2"
_cell_formula_units_Z 32
_cell_length_a 8.584668
_cell_length_b 12.736374
_cell_length_c 14.907075
_cell_angle_alpha 90.000000
_cell_angle_beta 90.000000
_cell_angle_gamma 90.000000
_cell_volume 1629.902944
_symmetry_space_group_name_H-M "P M M A"
_symmetry_group_IT_number 51
_symmetry_cell_setting 'orthorhombic'
loop_
_space_group_symop_operation_xyz
x,y,z
1/2-x,-y,z
1/2+x,-y,-z
-x,y,-z
-x,-y,-z
1/2+x,y,-z
1/2-x,y,z
x,-y,z
loop_
_atom_site_type_symbol
_atom_site_label
_atom_site_fract_x
_atom_site_fract_y
_atom_site_fract_z
Si Si1 0.062141 0.730532 0.898392
Si Si2 0.064492 0.719538 0.601036
Si Si3 0.935938 0.500000 0.602168
Si Si4 0.562527 0.500000 0.101573
Si Si5 0.063295 0.122053 0.254467
O O1 0.250000 0.736063 0.898651
O O2 0.014347 0.614043 0.862145
O O3 0.993794 0.819645 0.835030
O O4 0.000000 0.740086 0.000000
O O5 0.250000 0.713140 0.597853
O O6 0.000000 0.731553 0.500000
O O7 0.999654 0.609280 0.640032
O O8 0.009737 0.814666 0.662738
O O9 0.750000 0.500000 0.602061
O O10 0.000000 0.500000 0.500000
O O11 0.750000 0.500000 0.100787
O O12 0.500000 0.500000 0.000000
O O13 0.250000 0.128383 0.260064
O O14 0.017638 0.000000 0.254873
#
# Coordination Sequence:
#
# PCOD9399846 Si02
#       5
#     8   8   4   4   8
#     4  10  20  37  61  88 119 153 191 237 293 353
#     4  11  22  39  63  90 121 155 193 239 294 352
#     4  10  18  33  58  89 123 155 191 234 286 347
#     4   8  16  31  54  85 117 147 181 226 280 343
#     4  11  25  43  60  82 114 154 203 251 294 348
#
# _framework density 19.63307
#
# number of rings (size 3 to 8) (size 9 to 14) (size 15 to 20)
#    0.000    1.750    0.000    6.375    0.000    5.000 
#    0.000    3.750    0.000    0.000    0.000    0.000 
#    0.000    0.000    0.000    0.000    0.000    0.000 
#
# Total GULP energy -178750.363700 kJ/mol
# GULP energy per Si atom -5585.948866 kJ/mol
# Density = 1.958838 g / cm^3
# Si number density = 19.633070 Si / 1000 Ang^3
#
#
#
# Elastic Constant Matrix: (Units=GPa)
#
#
# Indices 1 2 3 4 5 6 
#
# 1 121.8045 83.7327 41.9768 0.0000 0.0000 0.0000
# 2 83.7327 221.6580 84.3285 0.0000 0.0000 0.0000
# 3 41.9768 84.3285 110.5964 0.0000 0.0000 0.0000
# 4 0.0000 0.0000 0.0000 35.2897 0.0000 0.0000
# 5 0.0000 0.0000 0.0000 0.0000 28.4510 0.0000
# 6 0.0000 0.0000 0.0000 0.0000 0.0000 24.8556
#
#
#
# Elastic Compliance Matrix: (Units=1/GPa)
#
#
# Indices 1 2 3 4 5 6 
#
# 1 0.011252 -0.003699 -0.001451 0.000000 0.000000 0.000000
# 2 -0.003699 0.007571 -0.004369 0.000000 0.000000 0.000000
# 3 -0.001451 -0.004369 0.012924 0.000000 0.000000 0.000000
# 4 0.000000 0.000000 0.000000 0.028337 0.000000 0.000000
# 5 0.000000 0.000000 0.000000 0.000000 0.035148 0.000000
# 6 0.000000 0.000000 0.000000 0.000000 0.000000 0.040232
#
#
# Mechanical properties :
#
#
# Convention : Reuss Voigt Hill
#
# Bulk Modulus (GPa) = 78.67479 97.12612 87.90045
# Shear Modulus (GPa) = 31.49859 33.98733 32.74296
#
# Velocity S-wave (km/s) = 4.00980 4.16519 4.08823
# Velocity P-wave (km/s) = 7.84841 8.52701 8.19474
#
# Compressibility (1/GPa) = 0.01271055
#
# Stress axis : x y z
#
# Youngs Moduli (GPa) = 88.86925 132.08684 77.37811
#
# Poissons Ratio (x) = 0.48857 0.11224
# Poissons Ratio (y) = 0.32871 0.33804
# Poissons Ratio (z) = 0.12891 0.57705
#
# Static dielectric constant tensor:
#      x y z
#    x 1.656870 0.000000 0.000000 
#    y 0.000000 1.706670 0.000000 
#    z 0.000000 0.000000 1.669700 
# 
# From -- ./inp_files/20156.got.cif
#   From: 2010.05.17/outbox.cif.g08.bks.cpg/sg51_11_cif.got.tgz:20156.got - 2010.06.03 11:52:47.
