data_PCOD9399840
_publ_section_title
;
Structure prediction by ZEFSAII (Michael W. Deem and Ramdas Pophale) SiO2 
 PCOD9399840
Probable space group: P M M A
;
_chemical_formula_sum "Si O2"
_cell_formula_units_Z 32
_cell_length_a 20.418212
_cell_length_b 8.415106
_cell_length_c 10.452704
_cell_angle_alpha 90.000000
_cell_angle_beta 90.000000
_cell_angle_gamma 90.000000
_cell_volume 1795.998426
_symmetry_space_group_name_H-M "P M M A"
_symmetry_group_IT_number 51
_symmetry_cell_setting 'orthorhombic'
loop_
_space_group_symop_operation_xyz
x,y,z
1/2-x,-y,z
1/2+x,-y,-z
-x,y,-z
-x,-y,-z
1/2+x,y,-z
1/2-x,y,z
x,-y,z
loop_
_atom_site_type_symbol
_atom_site_label
_atom_site_fract_x
_atom_site_fract_y
_atom_site_fract_z
Si Si1 0.407940 0.807958 0.894877
Si Si2 0.072797 0.192122 0.455846
Si Si3 0.824230 0.689674 0.335893
Si Si4 0.557178 0.193226 0.827995
O O1 0.354020 0.740687 0.800339
O O2 0.480572 0.763335 0.843914
O O3 0.404531 0.000000 0.891277
O O4 0.405707 0.755617 0.043149
O O5 0.127413 0.248631 0.554106
O O6 0.082951 0.246738 0.309471
O O7 0.000000 0.242785 0.500000
O O8 0.072942 0.000000 0.457133
O O9 0.750000 0.749658 0.351545
O O10 0.823385 0.500000 0.341922
O O11 0.558585 0.000000 0.828388
#
# Coordination Sequence:
#
# PCOD9399840 Si02
#       4
#     8   8   8   8
#     4   9  16  32  56  79 104 134 169 215 267 315
#     4  10  18  33  58  84 106 134 175 223 271 318
#     4  11  24  38  50  72 110 150 184 218 260 315
#     4   8  15  29  54  85 108 125 161 221 273 310
#
# _framework density 17.817387
#
# number of rings (size 3 to 8) (size 9 to 14) (size 15 to 20)
#    0.000    2.500    2.500    2.250    0.000    2.500 
#    0.000    5.000    0.000    7.500    0.000    0.000 
#    0.000    0.000    0.000    0.000    0.000    0.000 
#
# Total GULP energy -178420.244280 kJ/mol
# GULP energy per Si atom -5575.632634 kJ/mol
# Density = 1.777683 g / cm^3
# Si number density = 17.817387 Si / 1000 Ang^3
#
#
#
# Elastic Constant Matrix: (Units=GPa)
#
#
# Indices 1 2 3 4 5 6 
#
# 1 130.1797 18.2046 95.4789 0.0000 0.0000 0.0000
# 2 18.2046 9.1308 23.2138 0.0000 0.0000 0.0000
# 3 95.4789 23.2138 186.4541 0.0000 0.0000 0.0000
# 4 0.0000 0.0000 0.0000 -3.9896 0.0000 0.0000
# 5 0.0000 0.0000 0.0000 0.0000 23.1838 0.0000
# 6 0.0000 0.0000 0.0000 0.0000 0.0000 22.8462
#
#
#
# Elastic Compliance Matrix: (Units=1/GPa)
#
#
# Indices 1 2 3 4 5 6 
#
# 1 0.013353 -0.013517 -0.005155 0.000000 0.000000 0.000000
# 2 -0.013517 0.173922 -0.014732 0.000000 0.000000 0.000000
# 3 -0.005155 -0.014732 0.009837 0.000000 0.000000 0.000000
# 4 0.000000 0.000000 0.000000 -0.250652 0.000000 0.000000
# 5 0.000000 0.000000 0.000000 0.000000 0.043134 0.000000
# 6 0.000000 0.000000 0.000000 0.000000 0.000000 0.043771
#
#
# Mechanical properties :
#
#
# Convention : Reuss Voigt Hill
#
# Bulk Modulus (GPa) = 7.67430 66.61769 37.14599
# Shear Modulus (GPa) = 34.81745 20.99922 27.90834
#
# Velocity S-wave (km/s) = 4.42535 3.43677 3.96201
# Velocity P-wave (km/s) = 5.51617 7.29512 6.46711
#
# Compressibility (1/GPa) = 0.13030510
#
# Stress axis : x y z
#
# Youngs Moduli (GPa) = 74.89216 5.74969 101.65683
#
# Poissons Ratio (x) = 0.07772 0.52401
# Poissons Ratio (y) = 1.01229 1.49762
# Poissons Ratio (z) = 0.38605 0.08470
#
# Static dielectric constant tensor:
#      x y z
#    x 1.583160 0.000000 0.000000 
#    y 0.000000 1.612500 0.000000 
#    z 0.000000 0.000000 1.630900 
# 
# From -- ./inp_files/15826.got.cif
#   From: 2010.05.17/outbox.cif.g08.bks.cpg/sg51_8_cif.got.tgz:15826.got - 2010.06.03 11:52:47.
