data_PCOD9399456
_publ_section_title
;
Structure prediction by ZEFSAII (Michael W. Deem and Ramdas Pophale) SiO2 
 PCOD9399456
Probable space group: P M M A
;
_chemical_formula_sum "Si O2"
_cell_formula_units_Z 52
_cell_length_a 8.404997
_cell_length_b 24.239261
_cell_length_c 14.896705
_cell_angle_alpha 90.000000
_cell_angle_beta 90.000000
_cell_angle_gamma 90.000000
_cell_volume 3034.919355
_symmetry_space_group_name_H-M "P M M A"
_symmetry_group_IT_number 51
_symmetry_cell_setting 'orthorhombic'
loop_
_space_group_symop_operation_xyz
x,y,z
1/2-x,-y,z
1/2+x,-y,-z
-x,y,-z
-x,-y,-z
1/2+x,y,-z
1/2-x,y,z
x,-y,z
loop_
_atom_site_type_symbol
_atom_site_label
_atom_site_fract_x
_atom_site_fract_y
_atom_site_fract_z
Si Si1 0.555699 0.773094 0.713271
Si Si2 0.057603 0.561253 0.712745
Si Si3 0.942787 0.120700 0.602793
Si Si4 0.440319 0.334362 0.398468
Si Si5 0.559393 0.731804 0.903977
Si Si6 0.558203 0.000000 0.602683
Si Si7 0.440260 0.605767 0.904062
O O1 0.750000 0.773479 0.712569
O O2 0.501692 0.828698 0.664110
O O3 0.503776 0.719138 0.657598
O O4 0.505933 0.765535 0.816515
O O5 0.250000 0.562587 0.710950
O O6 0.005394 0.500000 0.685031
O O7 0.007289 0.573102 0.815589
O O8 0.996360 0.610062 0.650206
O O9 0.750000 0.121693 0.601257
O O10 0.994010 0.059970 0.638180
O O11 0.000000 0.127249 0.500000
O O12 0.500000 0.331724 0.500000
O O13 0.250000 0.333487 0.398516
O O14 0.750000 0.730226 0.905192
O O15 0.499381 0.668826 0.894766
O O16 0.500000 0.753073 0.000000
O O17 0.500000 0.000000 0.500000
O O18 0.750000 0.000000 0.604768
O O19 0.250000 0.606144 0.906276
O O20 0.500000 0.584182 0.000000
#
# Coordination Sequence:
#
# PCOD9399456 Si02
#       7
#     8   8   8   8   8   4   8
#     4   9  18  31  49  71  99 126 155 194 238 280
#     4  10  22  39  55  72  95 124 159 197 236 283
#     4   9  16  28  44  68  98 131 162 195 231 273
#     4  11  22  37  54  73  95 124 158 197 242 286
#     4  10  18  31  49  71  96 124 154 190 235 285
#     4   8  14  24  42  64  93 128 164 194 227 270
#     4  10  19  32  52  75  98 123 151 189 235 287
#
# _framework density 17.133899
#
# number of rings (size 3 to 8) (size 9 to 14) (size 15 to 20)
#    0.000    2.308    1.538    2.769    0.000    1.538 
#    0.000    2.308    0.000    0.000    0.000    0.538 
#    0.000    0.000    0.000    0.000    0.000    0.000 
#
# Total GULP energy -289973.107203 kJ/mol
# GULP energy per Si atom -5576.405908 kJ/mol
# Density = 1.709490 g / cm^3
# Si number density = 17.133899 Si / 1000 Ang^3
#
#
#
# Elastic Constant Matrix: (Units=GPa)
#
#
# Indices 1 2 3 4 5 6 
#
# 1 20.0131 17.0586 18.6198 0.0000 0.0000 0.0000
# 2 17.0586 152.2037 80.8640 0.0000 0.0000 0.0000
# 3 18.6198 80.8640 129.1045 0.0000 0.0000 0.0000
# 4 0.0000 0.0000 0.0000 23.0461 0.0000 0.0000
# 5 0.0000 0.0000 0.0000 0.0000 21.0689 0.0000
# 6 0.0000 0.0000 0.0000 0.0000 0.0000 13.0766
#
#
#
# Elastic Compliance Matrix: (Units=1/GPa)
#
#
# Indices 1 2 3 4 5 6 
#
# 1 0.058682 -0.003118 -0.006510 0.000000 0.000000 0.000000
# 2 -0.003118 0.010013 -0.005822 0.000000 0.000000 0.000000
# 3 -0.006510 -0.005822 0.012331 0.000000 0.000000 0.000000
# 4 0.000000 0.000000 0.000000 0.043391 0.000000 0.000000
# 5 0.000000 0.000000 0.000000 0.000000 0.047463 0.000000
# 6 0.000000 0.000000 0.000000 0.000000 0.000000 0.076473
#
#
# Mechanical properties :
#
#
# Convention : Reuss Voigt Hill
#
# Bulk Modulus (GPa) = 19.94985 59.37845 39.66415
# Shear Modulus (GPa) = 16.89408 23.75690 20.32549
#
# Velocity S-wave (km/s) = 3.14348 3.72767 3.44797
# Velocity P-wave (km/s) = 4.98438 7.29782 6.24909
#
# Compressibility (1/GPa) = 0.05012570
#
# Stress axis : x y z
#
# Youngs Moduli (GPa) = 17.04092 99.87444 81.09684
#
# Poissons Ratio (x) = 0.31142 0.52796
# Poissons Ratio (y) = 0.05314 0.47211
# Poissons Ratio (z) = 0.11094 0.58143
#
# Static dielectric constant tensor:
#      x y z
#    x 1.592880 0.000000 0.000000 
#    y 0.000000 1.593670 0.000000 
#    z 0.000000 0.000000 1.572910 
# 
# From -- ./inp_files/22060.got.cif
#   From: 2010.05.17/outbox.cif.g08.bks.cpg/sg51_12_cif.got.tgz:22060.got - 2010.06.03 11:52:47.
