data_PCOD9399071
_publ_section_title
;
Structure prediction by ZEFSAII (Michael W. Deem and Ramdas Pophale) SiO2 
 PCOD9399071
Probable space group: P M M A
;
_chemical_formula_sum "Si O2"
_cell_formula_units_Z 48
_cell_length_a 20.921713
_cell_length_b 9.707885
_cell_length_c 14.097077
_cell_angle_alpha 90.000000
_cell_angle_beta 90.000000
_cell_angle_gamma 90.000000
_cell_volume 2863.195054
_symmetry_space_group_name_H-M "P M M A"
_symmetry_group_IT_number 51
_symmetry_cell_setting 'orthorhombic'
loop_
_space_group_symop_operation_xyz
x,y,z
1/2-x,-y,z
1/2+x,-y,-z
-x,y,-z
-x,-y,-z
1/2+x,y,-z
1/2-x,y,z
x,-y,z
loop_
_atom_site_type_symbol
_atom_site_label
_atom_site_fract_x
_atom_site_fract_y
_atom_site_fract_z
Si Si1 0.443639 0.664641 0.573676
Si Si2 0.324362 0.837604 0.505050
Si Si3 0.174249 0.847402 0.279747
Si Si4 0.573583 0.841870 0.038547
Si Si5 0.538061 0.343848 0.205389
Si Si6 0.107539 0.343142 0.131256
O O1 0.500000 0.705841 0.500000
O O2 0.434046 0.500000 0.561422
O O3 0.378224 0.745643 0.553673
O O4 0.463190 0.688886 0.683045
O O5 0.250000 0.799835 0.524750
O O6 0.334954 0.824690 0.391680
O O7 0.331666 0.000000 0.528441
O O8 0.250000 0.850672 0.264163
O O9 0.144685 0.730103 0.215841
O O10 0.147816 0.000000 0.255304
O O11 0.574019 0.766473 0.140061
O O12 0.595000 0.000000 0.043017
O O13 0.500000 0.843266 0.000000
O O14 0.611304 0.750070 0.962440
O O15 0.564053 0.500000 0.193950
O O16 0.466183 0.346460 0.164881
O O17 0.128048 0.500000 0.114259
#
# Coordination Sequence:
#
# PCOD9399071 Si02
#       6
#     8   8   8   8   8   8
#     4  10  20  33  50  75 105 133 165 207 251 294
#     4   9  19  35  52  71  98 133 171 207 245 294
#     4   9  18  32  48  67  94 126 158 195 238 283
#     4   9  17  29  46  68  93 122 156 191 231 285
#     4   9  18  31  46  68  99 129 157 195 241 285
#     4  10  18  29  48  71  96 125 155 191 238 289
#
# _framework density 16.764489000000001
#
# number of rings (size 3 to 8) (size 9 to 14) (size 15 to 20)
#    0.000    2.667    0.000    3.000    0.000    6.333 
#    0.000    1.667    0.000    1.000    0.000    4.667 
#    0.000    0.000    0.000    0.000    0.000    0.000 
#
# Total GULP energy -267449.913614 kJ/mol
# GULP energy per Si atom -5571.873200 kJ/mol
# Density = 1.672633 g / cm^3
# Si number density = 16.764489 Si / 1000 Ang^3
#
#
#
# Elastic Constant Matrix: (Units=GPa)
#
#
# Indices 1 2 3 4 5 6 
#
# 1 29.4247 27.8697 30.4911 0.0000 0.0000 0.0000
# 2 27.8697 110.7831 68.9106 0.0000 0.0000 0.0000
# 3 30.4911 68.9106 88.3023 0.0000 0.0000 0.0000
# 4 0.0000 0.0000 0.0000 26.5861 0.0000 0.0000
# 5 0.0000 0.0000 0.0000 0.0000 17.4322 0.0000
# 6 0.0000 0.0000 0.0000 0.0000 0.0000 27.5049
#
#
#
# Elastic Compliance Matrix: (Units=1/GPa)
#
#
# Indices 1 2 3 4 5 6 
#
# 1 0.053750 -0.003842 -0.015562 0.000000 0.000000 0.000000
# 2 -0.003842 0.017817 -0.012577 0.000000 0.000000 0.000000
# 3 -0.015562 -0.012577 0.026514 0.000000 0.000000 0.000000
# 4 0.000000 0.000000 0.000000 0.037614 0.000000 0.000000
# 5 0.000000 0.000000 0.000000 0.000000 0.057365 0.000000
# 6 0.000000 0.000000 0.000000 0.000000 0.000000 0.036357
#
#
# Mechanical properties :
#
#
# Convention : Reuss Voigt Hill
#
# Bulk Modulus (GPa) = 29.31022 53.67253 41.49137
# Shear Modulus (GPa) = 16.40686 21.05389 18.73037
#
# Velocity S-wave (km/s) = 3.13176 3.54766 3.34618
# Velocity P-wave (km/s) = 5.53161 6.99044 6.30337
#
# Compressibility (1/GPa) = 0.03411780
#
# Stress axis : x y z
#
# Youngs Moduli (GPa) = 18.60481 56.12701 37.71644
#
# Poissons Ratio (x) = 0.21563 0.58693
# Poissons Ratio (y) = 0.07148 0.47438
# Poissons Ratio (z) = 0.28952 0.70594
#
# Static dielectric constant tensor:
#      x y z
#    x 1.560200 0.000000 0.000000 
#    y 0.000000 1.584160 0.000000 
#    z 0.000000 0.000000 1.557710 
# 
# From -- ./inp_files/24733.got.cif
#   From: 2010.05.17/outbox.cif.g08.bks.cpg/sg51_13_cif.got.tgz:24733.got - 2010.06.03 11:52:47.
