data_PCOD9399482
_publ_section_title
;
Structure prediction by ZEFSAII (Michael W. Deem and Ramdas Pophale) SiO2 
 PCOD9399482
Probable space group: P M M A
;
_chemical_formula_sum "Si O2"
_cell_formula_units_Z 64
_cell_length_a 8.515887
_cell_length_b 27.062351
_cell_length_c 14.628798
_cell_angle_alpha 90.000000
_cell_angle_beta 90.000000
_cell_angle_gamma 90.000000
_cell_volume 3371.351662
_symmetry_space_group_name_H-M "P M M A"
_symmetry_group_IT_number 51
_symmetry_cell_setting 'orthorhombic'
loop_
_space_group_symop_operation_xyz
x,y,z
1/2-x,-y,z
1/2+x,-y,-z
-x,y,-z
-x,-y,-z
1/2+x,y,-z
1/2-x,y,z
x,-y,z
loop_
_atom_site_type_symbol
_atom_site_label
_atom_site_fract_x
_atom_site_fract_y
_atom_site_fract_z
Si Si1 0.059993 0.350075 0.396483
Si Si2 0.441422 0.553770 0.285924
Si Si3 0.560465 0.055981 0.398357
Si Si4 0.437099 0.400684 0.102288
Si Si5 0.561603 0.852079 0.276943
Si Si6 0.563806 0.807822 0.897288
Si Si7 0.437256 0.703592 0.895742
Si Si8 0.939318 0.239599 0.604296
O O1 0.250000 0.350748 0.395820
O O2 0.003626 0.397957 0.340737
O O3 0.012714 0.295015 0.362985
O O4 0.000000 0.354137 0.500000
O O5 0.250000 0.554409 0.289846
O O6 0.494177 0.500000 0.320239
O O7 0.484168 0.560329 0.179322
O O8 0.500000 0.067246 0.500000
O O9 0.750000 0.056497 0.400449
O O10 0.509008 0.098254 0.328615
O O11 0.509644 0.000000 0.374955
O O12 0.250000 0.399015 0.095811
O O13 0.494454 0.347569 0.140425
O O14 0.500000 0.408935 0.000000
O O15 0.750000 0.851525 0.271922
O O16 0.492649 0.847783 0.175439
O O17 0.506297 0.804806 0.335606
O O18 0.750000 0.804979 0.901752
O O19 0.499720 0.755327 0.859011
O O20 0.500000 0.815136 0.000000
O O21 0.250000 0.702681 0.894318
O O22 0.500000 0.703783 0.000000
O O23 0.750000 0.236999 0.605120
O O24 0.000000 0.234673 0.500000
#
# Coordination Sequence:
#
# PCOD9399482 Si02
#       8
#     8   8   8   8   8   8   8   8
#     4   9  19  36  56  77 101 134 171 215 268 324
#     4   9  19  35  54  75  99 132 175 218 266 327
#     4   9  19  36  58  84 117 155 194 237 282 328
#     4  10  19  32  52  75 102 136 173 215 266 321
#     4  11  22  35  55  85 117 151 191 233 279 331
#     4  11  22  37  55  78 112 150 190 232 278 328
#     4  10  18  31  50  74 102 135 174 217 265 318
#     4  10  20  34  53  79 112 147 181 223 277 337
#
# _framework density 18.983485000000002
#
# number of rings (size 3 to 8) (size 9 to 14) (size 15 to 20)
#    0.000    2.125    0.000    5.250    1.750    3.000 
#    0.000    1.250    0.000    3.000    0.000    0.000 
#    0.000    0.000    0.000    0.000    0.000    0.000 
#
# Total GULP energy -357185.753915 kJ/mol
# GULP energy per Si atom -5581.027405 kJ/mol
# Density = 1.894028 g / cm^3
# Si number density = 18.983485 Si / 1000 Ang^3
#
#
#
# Elastic Constant Matrix: (Units=GPa)
#
#
# Indices 1 2 3 4 5 6 
#
# 1 56.2609 21.3993 15.8534 0.0000 0.0000 0.0000
# 2 21.3993 123.8615 71.3632 0.0000 0.0000 0.0000
# 3 15.8534 71.3632 87.8549 0.0000 0.0000 0.0000
# 4 0.0000 0.0000 0.0000 71.3122 0.0000 0.0000
# 5 0.0000 0.0000 0.0000 0.0000 23.9311 0.0000
# 6 0.0000 0.0000 0.0000 0.0000 0.0000 -27.2722
#
#
#
# Elastic Compliance Matrix: (Units=1/GPa)
#
#
# Indices 1 2 3 4 5 6 
#
# 1 0.019121 -0.002473 -0.001442 0.000000 0.000000 0.000000
# 2 -0.002473 0.015496 -0.012141 0.000000 0.000000 0.000000
# 3 -0.001442 -0.012141 0.021504 0.000000 0.000000 0.000000
# 4 0.000000 0.000000 0.000000 0.014023 0.000000 0.000000
# 5 0.000000 0.000000 0.000000 0.000000 0.041787 0.000000
# 6 0.000000 0.000000 0.000000 0.000000 0.000000 -0.036667
#
#
# Mechanical properties :
#
#
# Convention : Reuss Voigt Hill
#
# Bulk Modulus (GPa) = 41.64839 53.91213 47.78026
# Shear Modulus (GPa) = 43.33609 24.21829 33.77719
#
# Velocity S-wave (km/s) = 4.78308 3.57565 4.22274
# Velocity P-wave (km/s) = 7.24505 6.74597 6.99996
#
# Compressibility (1/GPa) = 0.02401053
#
# Stress axis : x y z
#
# Youngs Moduli (GPa) = 52.29808 64.53429 46.50249
#
# Poissons Ratio (x) = 0.15959 0.06704
# Poissons Ratio (y) = 0.12933 0.56457
# Poissons Ratio (z) = 0.07540 0.78349
#
# Static dielectric constant tensor:
#      x y z
#    x 1.641420 0.000000 0.000000 
#    y 0.000000 1.693320 0.000000 
#    z 0.000000 0.000000 1.646140 
# 
# From -- ./inp_files/22314.got.cif
#   From: 2010.05.17/outbox.cif.g08.bks.cpg/sg51_12_cif.got.tgz:22314.got - 2010.06.03 11:52:47.
