data_PCOD9399069
_publ_section_title
;
Structure prediction by ZEFSAII (Michael W. Deem and Ramdas Pophale) SiO2 
 PCOD9399069
Probable space group: P M M A
;
_chemical_formula_sum "Si O2"
_cell_formula_units_Z 48
_cell_length_a 19.048794
_cell_length_b 7.796171
_cell_length_c 16.987312
_cell_angle_alpha 90.000000
_cell_angle_beta 90.000000
_cell_angle_gamma 90.000000
_cell_volume 2522.745876
_symmetry_space_group_name_H-M "P M M A"
_symmetry_group_IT_number 51
_symmetry_cell_setting 'orthorhombic'
loop_
_space_group_symop_operation_xyz
x,y,z
1/2-x,-y,z
1/2+x,-y,-z
-x,y,-z
-x,-y,-z
1/2+x,y,-z
1/2-x,y,z
x,-y,z
loop_
_atom_site_type_symbol
_atom_site_label
_atom_site_fract_x
_atom_site_fract_y
_atom_site_fract_z
Si Si1 0.463890 0.797528 0.253944
Si Si2 0.171952 0.202200 0.659578
Si Si3 0.970478 0.789926 0.416404
Si Si4 0.330207 0.707285 0.159153
Si Si5 0.832068 0.291698 0.016715
Si Si6 0.104251 0.300122 0.822721
O O1 0.480584 0.738594 0.342728
O O2 0.386402 0.763685 0.223015
O O3 0.522196 0.715981 0.196983
O O4 0.477630 0.000000 0.252230
O O5 0.250000 0.276443 0.649443
O O6 0.108109 0.270582 0.606060
O O7 0.146350 0.219031 0.749896
O O8 0.176233 0.000000 0.642355
O O9 0.000000 0.731439 0.500000
O O10 0.969163 0.000000 0.418231
O O11 0.250000 0.763822 0.173663
O O12 0.329642 0.500000 0.158015
O O13 0.351647 0.767412 0.071117
O O14 0.750000 0.250645 0.028885
O O15 0.837695 0.500000 0.014844
O O16 0.875668 0.229191 0.091652
O O17 0.123847 0.500000 0.822015
#
# Coordination Sequence:
#
# PCOD9399069 Si02
#       6
#     8   8   8   8   8   8
#     4  10  20  33  49  71  97 121 151 194 241 285
#     4   9  17  29  46  70  99 126 153 192 243 290
#     4   8  15  30  50  69  91 122 158 194 232 278
#     4   9  18  34  53  69  90 124 163 198 231 271
#     4   8  15  28  46  68  92 122 163 202 228 260
#     4  10  18  29  48  71  95 125 161 196 230 274
#
# _framework density 19.026885
#
# number of rings (size 3 to 8) (size 9 to 14) (size 15 to 20)
#    0.000    3.000    0.000    3.500    0.000    2.000 
#    0.000    5.833    0.000   17.500    0.000    0.000 
#    0.000    0.000    0.000    0.000    0.000    0.000 
#
# Total GULP energy -267537.724731 kJ/mol
# GULP energy per Si atom -5573.702599 kJ/mol
# Density = 1.898358 g / cm^3
# Si number density = 19.026885 Si / 1000 Ang^3
#
#
#
# Elastic Constant Matrix: (Units=GPa)
#
#
# Indices 1 2 3 4 5 6 
#
# 1 128.6252 -0.8042 100.0180 0.0000 0.0000 0.0000
# 2 -0.8042 22.7481 5.2798 0.0000 0.0000 0.0000
# 3 100.0180 5.2798 134.9841 0.0000 0.0000 0.0000
# 4 0.0000 0.0000 0.0000 16.4207 0.0000 0.0000
# 5 0.0000 0.0000 0.0000 0.0000 24.0969 0.0000
# 6 0.0000 0.0000 0.0000 0.0000 0.0000 19.0803
#
#
#
# Elastic Compliance Matrix: (Units=1/GPa)
#
#
# Indices 1 2 3 4 5 6 
#
# 1 0.018682 0.003909 -0.013995 0.000000 0.000000 0.000000
# 2 0.003909 0.045180 -0.004663 0.000000 0.000000 0.000000
# 3 -0.013995 -0.004663 0.017961 0.000000 0.000000 0.000000
# 4 0.000000 0.000000 0.000000 0.060899 0.000000 0.000000
# 5 0.000000 0.000000 0.000000 0.000000 0.041499 0.000000
# 6 0.000000 0.000000 0.000000 0.000000 0.000000 0.052410
#
#
# Mechanical properties :
#
#
# Convention : Reuss Voigt Hill
#
# Bulk Modulus (GPa) = 19.11217 55.03830 37.07524
# Shear Modulus (GPa) = 17.63227 24.04383 20.83805
#
# Velocity S-wave (km/s) = 3.04748 3.55868 3.31296
# Velocity P-wave (km/s) = 4.73809 6.77311 5.84485
#
# Compressibility (1/GPa) = 0.05232268
#
# Stress axis : x y z
#
# Youngs Moduli (GPa) = 53.52888 22.13353 55.67754
#
# Poissons Ratio (x) = -0.08651 0.77922
# Poissons Ratio (y) = -0.20923 0.25965
# Poissons Ratio (z) = 0.74915 0.10322
#
# Static dielectric constant tensor:
#      x y z
#    x 1.654000 0.000000 0.000000 
#    y 0.000000 1.720670 0.000000 
#    z 0.000000 0.000000 1.653270 
# 
# From -- ./inp_files/30025.got.cif
#   From: 2010.05.17/outbox.cif.g08.bks.cpg/sg51_16_cif.got.tgz:30025.got - 2010.06.03 11:52:47.
