data_PCOD9399303
_publ_section_title
;
Structure prediction by ZEFSAII (Michael W. Deem and Ramdas Pophale) SiO2 
 PCOD9399303
Probable space group: P M M A
;
_chemical_formula_sum "Si O2"
_cell_formula_units_Z 48
_cell_length_a 26.608370
_cell_length_b 7.901119
_cell_length_c 12.056132
_cell_angle_alpha 90.000000
_cell_angle_beta 90.000000
_cell_angle_gamma 90.000000
_cell_volume 2534.631735
_symmetry_space_group_name_H-M "P M M A"
_symmetry_group_IT_number 51
_symmetry_cell_setting 'orthorhombic'
loop_
_space_group_symop_operation_xyz
x,y,z
1/2-x,-y,z
1/2+x,-y,-z
-x,y,-z
-x,-y,-z
1/2+x,y,-z
1/2-x,y,z
x,-y,z
loop_
_atom_site_type_symbol
_atom_site_label
_atom_site_fract_x
_atom_site_fract_y
_atom_site_fract_z
Si Si1 0.499813 0.792852 0.129489
Si Si2 0.440420 0.694003 0.501180
Si Si3 0.306862 0.203563 0.627492
Si Si4 0.806158 0.700423 0.626002
Si Si5 0.403954 0.805367 0.264675
Si Si6 0.904256 0.804524 0.264711
O O1 0.448260 0.730239 0.187699
O O2 0.551252 0.730564 0.188460
O O3 0.499930 0.000000 0.141153
O O4 0.500000 0.752247 0.000000
O O5 0.500000 0.682316 0.500000
O O6 0.420210 0.500000 0.503563
O O7 0.424503 0.784723 0.389180
O O8 0.425337 0.793644 0.610593
O O9 0.250000 0.267720 0.643999
O O10 0.320499 0.237179 0.498197
O O11 0.348465 0.270207 0.714448
O O12 0.306252 0.000000 0.639221
O O13 0.750000 0.768624 0.649689
O O14 0.803098 0.500000 0.616805
O O15 0.847482 0.737652 0.719779
O O16 0.399126 0.000000 0.232453
O O17 0.898037 0.000000 0.229661
#
# Coordination Sequence:
#
# PCOD9399303 Si02
#       6
#     8   8   8   8   8   8
#     4   9  19  34  51  72  97 130 171 213 256 298
#     4  11  21  30  44  71 105 133 159 199 250 304
#     4   9  17  28  44  70 101 131 163 199 240 293
#     4  10  20  32  47  71 104 138 166 197 243 298
#     4  11  20  31  51  74 100 133 169 207 248 301
#     4  10  18  30  50  71  97 132 166 201 246 301
#
# _framework density 18.937663000000001
#
# number of rings (size 3 to 8) (size 9 to 14) (size 15 to 20)
#    0.000    2.000    3.333    1.500    0.000    1.667 
#    0.000    0.000    0.000    5.500    0.000    4.667 
#    0.000    2.667    0.000    0.000    0.000    0.000 
#
# Total GULP energy -267354.522751 kJ/mol
# GULP energy per Si atom -5569.885891 kJ/mol
# Density = 1.889456 g / cm^3
# Si number density = 18.937663 Si / 1000 Ang^3
#
#
#
# Elastic Constant Matrix: (Units=GPa)
#
#
# Indices 1 2 3 4 5 6 
#
# 1 177.4709 6.5226 66.3927 0.0000 0.0000 0.0000
# 2 6.5226 25.7323 -8.6620 0.0000 0.0000 0.0000
# 3 66.3927 -8.6620 89.9081 0.0000 0.0000 0.0000
# 4 0.0000 0.0000 0.0000 -29.5086 0.0000 0.0000
# 5 0.0000 0.0000 0.0000 0.0000 12.2669 0.0000
# 6 0.0000 0.0000 0.0000 0.0000 0.0000 33.5407
#
#
#
# Elastic Compliance Matrix: (Units=1/GPa)
#
#
# Indices 1 2 3 4 5 6 
#
# 1 0.008214 -0.004262 -0.006476 0.000000 0.000000 0.000000
# 2 -0.004262 0.042376 0.007230 0.000000 0.000000 0.000000
# 3 -0.006476 0.007230 0.016602 0.000000 0.000000 0.000000
# 4 0.000000 0.000000 0.000000 -0.033888 0.000000 0.000000
# 5 0.000000 0.000000 0.000000 0.000000 0.081520 0.000000
# 6 0.000000 0.000000 0.000000 0.000000 0.000000 0.029814
#
#
# Mechanical properties :
#
#
# Convention : Reuss Voigt Hill
#
# Bulk Modulus (GPa) = 16.61839 46.84645 31.73242
# Shear Modulus (GPa) = 29.11829 18.51700 23.81765
#
# Velocity S-wave (km/s) = 3.92546 3.13035 3.55024
# Velocity P-wave (km/s) = 5.41664 6.15275 5.79639
#
# Compressibility (1/GPa) = 0.06017431
#
# Stress axis : x y z
#
# Youngs Moduli (GPa) = 121.73961 23.59838 60.23526
#
# Poissons Ratio (x) = 0.10058 0.39011
# Poissons Ratio (y) = 0.51888 -0.43550
# Poissons Ratio (z) = 0.78844 -0.17062
#
# Static dielectric constant tensor:
#      x y z
#    x 1.766220 0.000000 0.000000 
#    y 0.000000 1.697360 0.000000 
#    z 0.000000 0.000000 1.601930 
# 
# From -- ./inp_files/18972.got.cif
#   From: 2010.05.17/outbox.cif.g08.bks.cpg/sg51_10_cif.got.tgz:18972.got - 2010.06.03 11:52:47.
