data_PCOD9399102
_publ_section_title
;
Structure prediction by ZEFSAII (Michael W. Deem and Ramdas Pophale) SiO2 
 PCOD9399102
Probable space group: P M M A
;
_chemical_formula_sum "Si O2"
_cell_formula_units_Z 64
_cell_length_a 7.961765
_cell_length_b 16.093650
_cell_length_c 25.393440
_cell_angle_alpha 90.000000
_cell_angle_beta 90.000000
_cell_angle_gamma 90.000000
_cell_volume 3253.759468
_symmetry_space_group_name_H-M "P M M A"
_symmetry_group_IT_number 51
_symmetry_cell_setting 'orthorhombic'
loop_
_space_group_symop_operation_xyz
x,y,z
1/2-x,-y,z
1/2+x,-y,-z
-x,y,-z
-x,-y,-z
1/2+x,y,-z
1/2-x,y,z
x,-y,z
loop_
_atom_site_type_symbol
_atom_site_label
_atom_site_fract_x
_atom_site_fract_y
_atom_site_fract_z
Si Si1 0.952843 0.732760 0.558926
Si Si2 0.449737 0.407162 0.939640
Si Si3 0.546186 0.310541 0.737586
Si Si4 0.448029 0.128383 0.708605
Si Si5 0.047686 0.090450 0.826945
Si Si6 0.455143 0.408294 0.360446
Si Si7 0.550755 0.272774 0.853824
Si Si8 0.052333 0.911394 0.406578
O O1 0.750000 0.735954 0.563854
O O2 0.013278 0.664356 0.600616
O O3 0.019935 0.825623 0.570842
O O4 0.000000 0.708765 0.500000
O O5 0.250000 0.411533 0.937553
O O6 0.517081 0.500000 0.925317
O O7 0.501591 0.333211 0.901048
O O8 0.500000 0.390915 0.000000
O O9 0.750000 0.306069 0.737968
O O10 0.479098 0.226790 0.710794
O O11 0.497798 0.385487 0.699487
O O12 0.485038 0.308622 0.797802
O O13 0.250000 0.109812 0.704871
O O14 0.509898 0.097761 0.765850
O O15 0.534639 0.094025 0.656692
O O16 0.250000 0.090155 0.825618
O O17 0.999045 0.175482 0.856252
O O18 0.991537 0.000000 0.847800
O O19 0.250000 0.408250 0.362347
O O20 0.513168 0.500000 0.375374
O O21 0.750000 0.273822 0.850793
O O22 0.250000 0.912178 0.419490
O O23 0.978418 0.000000 0.424281
#
# Coordination Sequence:
#
# PCOD9399102 Si02
#       8
#     8   8   8   8   8   8   8   8
#     4  10  21  37  54  72  96 126 165 211 259 314
#     4  10  21  38  60  84 113 150 191 235 280 326
#     4   9  17  32  52  76 108 143 177 209 254 313
#     4  10  18  29  49  76 106 137 172 213 259 307
#     4   9  18  32  49  73 110 152 188 223 267 319
#     4   9  17  32  55  77  98 129 168 209 255 310
#     4  10  20  32  53  84 115 147 186 230 273 323
#     4  10  20  34  52  72  96 129 165 204 254 314
#
# _framework density 19.669554999999999
#
# number of rings (size 3 to 8) (size 9 to 14) (size 15 to 20)
#    0.000    2.375    1.250    1.500    0.000    4.250 
#    0.000    1.250    0.000    1.500    0.000    0.000 
#    0.000    0.000    0.000    0.000    0.000    0.000 
#
# Total GULP energy -356932.763891 kJ/mol
# GULP energy per Si atom -5577.074436 kJ/mol
# Density = 1.962479 g / cm^3
# Si number density = 19.669555 Si / 1000 Ang^3
#
#
#
# Elastic Constant Matrix: (Units=GPa)
#
#
# Indices 1 2 3 4 5 6 
#
# 1 19.5581 12.3555 3.2348 0.0000 0.0000 0.0000
# 2 12.3555 167.5390 76.5048 0.0000 0.0000 0.0000
# 3 3.2348 76.5048 85.0030 0.0000 0.0000 0.0000
# 4 0.0000 0.0000 0.0000 2.1387 0.0000 0.0000
# 5 0.0000 0.0000 0.0000 0.0000 21.4386 0.0000
# 6 0.0000 0.0000 0.0000 0.0000 0.0000 10.6601
#
#
#
# Elastic Compliance Matrix: (Units=1/GPa)
#
#
# Indices 1 2 3 4 5 6 
#
# 1 0.053963 -0.005164 0.002594 0.000000 0.000000 0.000000
# 2 -0.005164 0.010628 -0.009369 0.000000 0.000000 0.000000
# 3 0.002594 -0.009369 0.020098 0.000000 0.000000 0.000000
# 4 0.000000 0.000000 0.000000 0.467565 0.000000 0.000000
# 5 0.000000 0.000000 0.000000 0.000000 0.046645 0.000000
# 6 0.000000 0.000000 0.000000 0.000000 0.000000 0.093808
#
#
# Mechanical properties :
#
#
# Convention : Reuss Voigt Hill
#
# Bulk Modulus (GPa) = 16.44434 50.69894 33.57164
# Shear Modulus (GPa) = 6.78561 18.84782 12.81671
#
# Velocity S-wave (km/s) = 1.85938 3.09888 2.55542
# Velocity P-wave (km/s) = 3.60391 6.21573 5.08053
#
# Compressibility (1/GPa) = 0.06081121
#
# Stress axis : x y z
#
# Youngs Moduli (GPa) = 18.53120 94.09362 49.75722
#
# Poissons Ratio (x) = 0.48593 -0.12909
# Poissons Ratio (y) = 0.09570 0.46616
# Poissons Ratio (z) = -0.04808 0.88153
#
# Static dielectric constant tensor:
#      x y z
#    x 1.692630 0.000000 0.000000 
#    y 0.000000 1.746830 0.000000 
#    z 0.000000 0.000000 1.471850 
# 
# From -- ./inp_files/34903.got.cif
#   From: 2010.05.17/outbox.cif.g08.bks.cpg/sg51_18_cif.got.tgz:34903.got - 2010.06.03 11:52:47.
