data_PCOD9399366
_publ_section_title
;
Structure prediction by ZEFSAII (Michael W. Deem and Ramdas Pophale) SiO2 
 PCOD9399366
Probable space group: P M M A
;
_chemical_formula_sum "Si O2"
_cell_formula_units_Z 36
_cell_length_a 8.506122
_cell_length_b 24.049249
_cell_length_c 9.411017
_cell_angle_alpha 90.000000
_cell_angle_beta 90.000000
_cell_angle_gamma 90.000000
_cell_volume 1925.172654
_symmetry_space_group_name_H-M "P M M A"
_symmetry_group_IT_number 51
_symmetry_cell_setting 'orthorhombic'
loop_
_space_group_symop_operation_xyz
x,y,z
1/2-x,-y,z
1/2+x,-y,-z
-x,y,-z
-x,-y,-z
1/2+x,y,-z
1/2-x,y,z
x,-y,z
loop_
_atom_site_type_symbol
_atom_site_label
_atom_site_fract_x
_atom_site_fract_y
_atom_site_fract_z
Si Si1 0.560087 0.062823 0.341045
Si Si2 0.438669 0.383099 0.838389
Si Si3 0.562777 0.500000 0.837722
Si Si4 0.439851 0.724703 0.660189
Si Si5 0.940107 0.167966 0.159664
O O1 0.500000 0.074338 0.500000
O O2 0.750000 0.063553 0.343980
O O3 0.506681 0.110706 0.233976
O O4 0.509613 0.000000 0.302055
O O5 0.250000 0.385039 0.843627
O O6 0.500322 0.441811 0.777396
O O7 0.489832 0.330768 0.744178
O O8 0.500000 0.376736 0.000000
O O9 0.750000 0.500000 0.838526
O O10 0.500000 0.500000 0.000000
O O11 0.500000 0.725386 0.500000
O O12 0.250000 0.724972 0.657810
O O13 0.492034 0.779403 0.746218
O O14 0.750000 0.168020 0.157626
O O15 0.000000 0.172597 0.000000
#
# Coordination Sequence:
#
# PCOD9399366 Si02
#       5
#     8   8   4   8   8
#     4   9  18  33  53  77 106 139 175 214 256 305
#     4  10  19  33  53  78 105 134 170 211 254 302
#     4  10  18  30  51  78 105 136 170 206 252 302
#     4  10  22  37  54  76 103 135 172 214 259 308
#     4  10  21  36  53  77 106 136 173 216 260 306
#
# _framework density 18.699621
#
# number of rings (size 3 to 8) (size 9 to 14) (size 15 to 20)
#    0.000    2.222    0.000    4.333    0.000    4.000 
#    0.000    0.556    0.000    0.000    0.000    0.000 
#    0.000    0.000    0.000    0.000    0.000    0.000 
#
# Total GULP energy -200948.080988 kJ/mol
# GULP energy per Si atom -5581.891139 kJ/mol
# Density = 1.865706 g / cm^3
# Si number density = 18.699621 Si / 1000 Ang^3
#
#
#
# Elastic Constant Matrix: (Units=GPa)
#
#
# Indices 1 2 3 4 5 6 
#
# 1 30.5972 35.0753 20.7759 0.0000 0.0000 0.0000
# 2 35.0753 199.0211 117.4685 0.0000 0.0000 0.0000
# 3 20.7759 117.4685 135.4641 0.0000 0.0000 0.0000
# 4 0.0000 0.0000 0.0000 -19.1232 0.0000 0.0000
# 5 0.0000 0.0000 0.0000 0.0000 31.3392 0.0000
# 6 0.0000 0.0000 0.0000 0.0000 0.0000 -7.3078
#
#
#
# Elastic Compliance Matrix: (Units=1/GPa)
#
#
# Indices 1 2 3 4 5 6 
#
# 1 0.040958 -0.007191 -0.000045 0.000000 0.000000 0.000000
# 2 -0.007191 0.011555 -0.008917 0.000000 0.000000 0.000000
# 3 -0.000045 -0.008917 0.015122 0.000000 0.000000 0.000000
# 4 0.000000 0.000000 0.000000 -0.052293 0.000000 0.000000
# 5 0.000000 0.000000 0.000000 0.000000 0.031909 0.000000
# 6 0.000000 0.000000 0.000000 0.000000 0.000000 -0.136841
#
#
# Mechanical properties :
#
#
# Convention : Reuss Voigt Hill
#
# Bulk Modulus (GPa) = 28.30768 79.08020 53.69394
# Shear Modulus (GPa) = -109.87595 13.76584 -48.05505
#
# Velocity S-wave (km/s) = -7.67372 2.71616 -5.07486
# Velocity P-wave (km/s) = 7.95887 7.22622 2.35853
#
# Compressibility (1/GPa) = 0.03532610
#
# Stress axis : x y z
#
# Youngs Moduli (GPa) = 24.41548 86.54068 66.13030
#
# Poissons Ratio (x) = 0.62236 0.00301
# Poissons Ratio (y) = 0.17558 0.58970
# Poissons Ratio (z) = 0.00111 0.77171
#
# Static dielectric constant tensor:
#      x y z
#    x 1.636360 0.000000 0.000000 
#    y 0.000000 1.679830 0.000000 
#    z 0.000000 0.000000 1.593550 
# 
# From -- ./inp_files/5239.got.cif
#   From: 2010.05.17/outbox.cif.g08.bks.cpg/sg51_3_cif.got.tgz:5239.got - 2010.06.03 11:52:47.
