data_PCOD9399797
_publ_section_title
;
Structure prediction by ZEFSAII (Michael W. Deem and Ramdas Pophale) SiO2 
 PCOD9399797
Probable space group: P M M A
;
_chemical_formula_sum "Si O2"
_cell_formula_units_Z 48
_cell_length_a 35.294752
_cell_length_b 8.069696
_cell_length_c 9.138458
_cell_angle_alpha 90.000000
_cell_angle_beta 90.000000
_cell_angle_gamma 90.000000
_cell_volume 2602.796591
_symmetry_space_group_name_H-M "P M M A"
_symmetry_group_IT_number 51
_symmetry_cell_setting 'orthorhombic'
loop_
_space_group_symop_operation_xyz
x,y,z
1/2-x,-y,z
1/2+x,-y,-z
-x,y,-z
-x,-y,-z
1/2+x,y,-z
1/2-x,y,z
x,-y,z
loop_
_atom_site_type_symbol
_atom_site_label
_atom_site_fract_x
_atom_site_fract_y
_atom_site_fract_z
Si Si1 0.326168 0.195061 0.341912
Si Si2 0.592925 0.316861 0.672010
Si Si3 0.250000 0.306469 0.188924
Si Si4 0.957084 0.000000 0.318198
Si Si5 0.544486 0.000000 0.675781
Si Si6 0.174806 0.200125 0.682238
Si Si7 0.592151 0.315002 0.315103
Si Si8 0.750000 0.798730 0.143081
O O1 0.363358 0.288290 0.284606
O O2 0.287938 0.227606 0.255047
O O3 0.319797 0.242772 0.511357
O O4 0.335406 0.000000 0.339864
O O5 0.579965 0.500000 0.716552
O O6 0.566863 0.165216 0.722217
O O7 0.592797 0.311169 0.493601
O O8 0.250000 0.500000 0.224610
O O9 0.250000 0.277339 0.016541
O O10 0.955793 0.000000 0.496961
O O11 0.935078 0.834698 0.268872
O O12 0.000991 0.000000 0.275497
O O13 0.135293 0.279064 0.732495
O O14 0.211921 0.249604 0.771155
O O15 0.170820 0.000000 0.691178
O O16 0.580282 0.500000 0.270824
O O17 0.750000 0.000000 0.132413
#
# Coordination Sequence:
#
# PCOD9399797 Si02
#       8
#     8   8   4   4   4   8   8   4
#     4  10  18  33  55  74  95 131 174 213 253 298
#     4   9  16  27  43  67  95 126 167 207 244 294
#     4  12  25  36  46  70 106 136 167 212 256 299
#     4   9  16  26  40  61  97 128 166 199 247 303
#     4   9  16  26  40  63  93 134 160 201 251 299
#     4   9  17  32  54  75  96 127 173 217 250 298
#     4   9  16  26  43  66  94 128 165 206 247 291
#     4  10  21  36  52  72 100 134 167 207 261 306
#
# _framework density 18.441700999999998
#
# number of rings (size 3 to 8) (size 9 to 14) (size 15 to 20)
#    0.000    2.500    1.667    1.750    0.000    3.333 
#    0.000    4.167    0.000    0.000    0.000    0.000 
#    0.000    2.667    0.000    4.667    0.000    4.333 
#
# Total GULP energy -267724.070280 kJ/mol
# GULP energy per Si atom -5577.584797 kJ/mol
# Density = 1.839973 g / cm^3
# Si number density = 18.441701 Si / 1000 Ang^3
#
#
#
# Elastic Constant Matrix: (Units=GPa)
#
#
# Indices 1 2 3 4 5 6 
#
# 1 146.2177 76.4126 21.3622 0.0000 0.0000 0.0000
# 2 76.4126 116.6624 14.1964 0.0000 0.0000 0.0000
# 3 21.3622 14.1964 18.6753 0.0000 0.0000 0.0000
# 4 0.0000 0.0000 0.0000 9.7038 0.0000 0.0000
# 5 0.0000 0.0000 0.0000 0.0000 -5.8938 0.0000
# 6 0.0000 0.0000 0.0000 0.0000 0.0000 5.7626
#
#
#
# Elastic Compliance Matrix: (Units=1/GPa)
#
#
# Indices 1 2 3 4 5 6 
#
# 1 0.011418 -0.006490 -0.008128 0.000000 0.000000 0.000000
# 2 -0.006490 0.013134 -0.002561 0.000000 0.000000 0.000000
# 3 -0.008128 -0.002561 0.064790 0.000000 0.000000 0.000000
# 4 0.000000 0.000000 0.000000 0.103053 0.000000 0.000000
# 5 0.000000 0.000000 0.000000 0.000000 -0.169671 0.000000
# 6 0.000000 0.000000 0.000000 0.000000 0.000000 0.173531
#
#
# Mechanical properties :
#
#
# Convention : Reuss Voigt Hill
#
# Bulk Modulus (GPa) = 18.18629 56.16642 37.17636
# Shear Modulus (GPa) = 20.08516 13.22014 16.65265
#
# Velocity S-wave (km/s) = 3.30376 2.68033 3.00824
# Velocity P-wave (km/s) = 4.94328 6.33255 5.68055
#
# Compressibility (1/GPa) = 0.05498648
#
# Stress axis : x y z
#
# Youngs Moduli (GPa) = 87.58102 76.13826 15.43441
#
# Poissons Ratio (x) = 0.49411 0.12544
# Poissons Ratio (y) = 0.56837 0.03952
# Poissons Ratio (z) = 0.71182 0.19497
#
# Static dielectric constant tensor:
#      x y z
#    x 1.621480 0.000000 0.000000 
#    y 0.000000 1.657360 0.000000 
#    z 0.000000 0.000000 1.595800 
# 
# From -- ./inp_files/13003.got.cif
#   From: 2010.05.17/outbox.cif.g08.bks.cpg/sg51_7_cif.got.tgz:13003.got - 2010.06.03 11:52:47.
