data_PCOD9399402
_publ_section_title
;
Structure prediction by ZEFSAII (Michael W. Deem and Ramdas Pophale) SiO2 
 PCOD9399402
Probable space group: P M M A
;
_chemical_formula_sum "Si O2"
_cell_formula_units_Z 64
_cell_length_a 24.446233
_cell_length_b 9.715973
_cell_length_c 15.003948
_cell_angle_alpha 90.000000
_cell_angle_beta 90.000000
_cell_angle_gamma 90.000000
_cell_volume 3563.721821
_symmetry_space_group_name_H-M "P M M A"
_symmetry_group_IT_number 51
_symmetry_cell_setting 'orthorhombic'
loop_
_space_group_symop_operation_xyz
x,y,z
1/2-x,-y,z
1/2+x,-y,-z
-x,y,-z
-x,-y,-z
1/2+x,y,-z
1/2-x,y,z
x,-y,z
loop_
_atom_site_type_symbol
_atom_site_label
_atom_site_fract_x
_atom_site_fract_y
_atom_site_fract_z
Si Si1 0.895559 0.666779 0.600249
Si Si2 0.123611 0.160633 0.099552
Si Si3 0.498802 0.742456 0.099864
Si Si4 0.613168 0.666973 0.393609
Si Si5 0.814720 0.836930 0.269792
Si Si6 0.878424 0.838924 0.096588
Si Si7 0.814365 0.665197 0.751482
Si Si8 0.497302 0.658404 0.700297
O O1 0.897541 0.500000 0.601453
O O2 0.894762 0.704910 0.496979
O O3 0.842154 0.703923 0.657299
O O4 0.949075 0.720110 0.653127
O O5 0.057479 0.172034 0.103569
O O6 0.152610 0.253160 0.173082
O O7 0.138635 0.000000 0.109010
O O8 0.138360 0.215301 0.000545
O O9 0.556278 0.822366 0.105146
O O10 0.498122 0.660657 0.192830
O O11 0.500000 0.675683 0.000000
O O12 0.619263 0.500000 0.386739
O O13 0.664091 0.746054 0.351363
O O14 0.559774 0.714536 0.337213
O O15 0.750000 0.825616 0.257152
O O16 0.846439 0.783465 0.181674
O O17 0.827657 0.000000 0.282690
O O18 0.865695 0.000000 0.093632
O O19 0.750000 0.695572 0.753980
O O20 0.821365 0.500000 0.763878
O O21 0.496139 0.500000 0.671406
#
# Coordination Sequence:
#
# PCOD9399402 Si02
#       8
#     8   8   8   8   8   8   8   8
#     4   9  18  34  56  79 106 141 179 218 265 323
#     4  10  20  34  56  84 109 138 179 223 265 312
#     4  10  18  30  52  82 111 140 172 214 264 325
#     4  10  20  35  58  84 106 135 180 229 270 313
#     4  10  21  37  56  77 105 144 183 219 266 321
#     4   9  18  34  54  77 108 144 179 214 258 322
#     4  10  21  37  55  76 105 143 183 220 265 320
#     4  10  18  31  53  82 112 141 173 215 268 325
#
# _framework density 17.958753000000002
#
# number of rings (size 3 to 8) (size 9 to 14) (size 15 to 20)
#    0.000    2.250    2.500    0.750    0.000    4.750 
#    0.000    5.625    0.000    0.750    0.000    0.000 
#    0.000    0.000    0.000    0.000    0.000    0.000 
#
# Total GULP energy -356307.750360 kJ/mol
# GULP energy per Si atom -5567.308599 kJ/mol
# Density = 1.791788 g / cm^3
# Si number density = 17.958753 Si / 1000 Ang^3
#
#
#
# Elastic Constant Matrix: (Units=GPa)
#
#
# Indices 1 2 3 4 5 6 
#
# 1 92.6007 24.1565 60.7331 0.0000 0.0000 0.0000
# 2 24.1565 24.1691 25.9437 0.0000 0.0000 0.0000
# 3 60.7331 25.9437 142.2228 0.0000 0.0000 0.0000
# 4 0.0000 0.0000 0.0000 17.4576 0.0000 0.0000
# 5 0.0000 0.0000 0.0000 0.0000 15.5923 0.0000
# 6 0.0000 0.0000 0.0000 0.0000 0.0000 18.0932
#
#
#
# Elastic Compliance Matrix: (Units=1/GPa)
#
#
# Indices 1 2 3 4 5 6 
#
# 1 0.017281 -0.011627 -0.005258 0.000000 0.000000 0.000000
# 2 -0.011627 0.059273 -0.005847 0.000000 0.000000 0.000000
# 3 -0.005258 -0.005847 0.010343 0.000000 0.000000 0.000000
# 4 0.000000 0.000000 0.000000 0.057282 0.000000 0.000000
# 5 0.000000 0.000000 0.000000 0.000000 0.064134 0.000000
# 6 0.000000 0.000000 0.000000 0.000000 0.000000 0.055269
#
#
# Mechanical properties :
#
#
# Convention : Reuss Voigt Hill
#
# Bulk Modulus (GPa) = 24.13635 53.40659 38.77147
# Shear Modulus (GPa) = 15.48663 20.10590 17.79626
#
# Velocity S-wave (km/s) = 2.93976 3.34961 3.15135
# Velocity P-wave (km/s) = 4.99919 6.69051 5.90571
#
# Compressibility (1/GPa) = 0.04143128
#
# Stress axis : x y z
#
# Youngs Moduli (GPa) = 57.86671 16.87112 96.68056
#
# Poissons Ratio (x) = 0.19617 0.50839
# Poissons Ratio (y) = 0.67284 0.56530
# Poissons Ratio (z) = 0.30429 0.09865
#
# Static dielectric constant tensor:
#      x y z
#    x 1.623770 0.000000 0.000000 
#    y 0.000000 1.602230 0.000000 
#    z 0.000000 0.000000 1.636230 
# 
# From -- ./inp_files/18851.got.cif
#   From: 2010.05.17/outbox.cif.g08.bks.cpg/sg51_10_cif.got.tgz:18851.got - 2010.06.03 11:52:47.
