data_PCOD9399146
_publ_section_title
;
Structure prediction by ZEFSAII (Michael W. Deem and Ramdas Pophale) SiO2 
 PCOD9399146
Probable space group: P M M A
;
_chemical_formula_sum "Si O2"
_cell_formula_units_Z 44
_cell_length_a 7.835909
_cell_length_b 22.128803
_cell_length_c 14.671809
_cell_angle_alpha 90.000000
_cell_angle_beta 90.000000
_cell_angle_gamma 90.000000
_cell_volume 2544.081214
_symmetry_space_group_name_H-M "P M M A"
_symmetry_group_IT_number 51
_symmetry_cell_setting 'orthorhombic'
loop_
_space_group_symop_operation_xyz
x,y,z
1/2-x,-y,z
1/2+x,-y,-z
-x,y,-z
-x,-y,-z
1/2+x,y,-z
1/2-x,y,z
x,-y,z
loop_
_atom_site_type_symbol
_atom_site_label
_atom_site_fract_x
_atom_site_fract_y
_atom_site_fract_z
Si Si1 0.044411 0.435068 0.892596
Si Si2 0.955352 0.066347 0.106682
Si Si3 0.960340 0.814610 0.214244
Si Si4 0.544105 0.303198 0.106726
Si Si5 0.449064 0.132526 0.605524
Si Si6 0.048049 0.000000 0.392774
O O1 0.250000 0.435218 0.883738
O O2 0.981307 0.500000 0.855258
O O3 0.981888 0.369403 0.859958
O O4 0.000000 0.435253 0.000000
O O5 0.750000 0.065598 0.114973
O O6 0.016582 0.125453 0.159656
O O7 0.018984 0.000000 0.138455
O O8 0.000000 0.071711 0.000000
O O9 0.750000 0.814145 0.213009
O O10 0.018192 0.753719 0.164700
O O11 0.021767 0.822799 0.318245
O O12 0.750000 0.303768 0.112493
O O13 0.500000 0.295932 0.000000
O O14 0.500000 0.137366 0.500000
O O15 0.250000 0.142685 0.604722
O O16 0.479141 0.063926 0.641013
O O17 0.000000 0.000000 0.500000
O O18 0.250000 0.000000 0.384156
#
# Coordination Sequence:
#
# PCOD9399146 Si02
#       6
#     8   8   8   8   8   4
#     4   8  13  21  35  55  80 109 137 165 195 228
#     4   9  17  29  43  57  75 100 132 164 195 231
#     4   9  18  29  44  61  78 107 138 164 202 249
#     4   9  16  27  41  60  85 112 142 169 197 238
#     4  10  19  32  48  63  81 104 132 167 210 254
#     4  10  18  30  46  64  81  98 123 160 207 252
#
# _framework density 17.295044999999998
#
# number of rings (size 3 to 8) (size 9 to 14) (size 15 to 20)
#    0.000    2.909    0.000    3.000    1.273    0.000 
#    0.000    3.636    0.000    0.000    0.000    0.000 
#    0.000    0.727    0.000    0.545    0.000    1.455 
#
# Total GULP energy -244995.285911 kJ/mol
# GULP energy per Si atom -5568.074680 kJ/mol
# Density = 1.725568 g / cm^3
# Si number density = 17.295045 Si / 1000 Ang^3
#
#
#
# Elastic Constant Matrix: (Units=GPa)
#
#
# Indices 1 2 3 4 5 6 
#
# 1 16.4704 6.1718 3.3137 0.0000 0.0000 0.0000
# 2 6.1718 185.8799 78.0170 0.0000 0.0000 0.0000
# 3 3.3137 78.0170 72.8585 0.0000 0.0000 0.0000
# 4 0.0000 0.0000 0.0000 12.3422 0.0000 0.0000
# 5 0.0000 0.0000 0.0000 0.0000 10.4594 0.0000
# 6 0.0000 0.0000 0.0000 0.0000 0.0000 5.5407
#
#
#
# Elastic Compliance Matrix: (Units=1/GPa)
#
#
# Indices 1 2 3 4 5 6 
#
# 1 0.061529 -0.001577 -0.001109 0.000000 0.000000 0.000000
# 2 -0.001577 0.009812 -0.010435 0.000000 0.000000 0.000000
# 3 -0.001109 -0.010435 0.024949 0.000000 0.000000 0.000000
# 4 0.000000 0.000000 0.000000 0.081023 0.000000 0.000000
# 5 0.000000 0.000000 0.000000 0.000000 0.095608 0.000000
# 6 0.000000 0.000000 0.000000 0.000000 0.000000 0.180482
#
#
# Mechanical properties :
#
#
# Convention : Reuss Voigt Hill
#
# Bulk Modulus (GPa) = 14.27604 50.02374 32.14989
# Shear Modulus (GPa) = 9.94045 18.18224 14.06134
#
# Velocity S-wave (km/s) = 2.40001 3.24589 2.85446
# Velocity P-wave (km/s) = 3.99405 6.56005 5.43078
#
# Compressibility (1/GPa) = 0.07004743
#
# Stress axis : x y z
#
# Youngs Moduli (GPa) = 16.25239 101.91761 40.08133
#
# Poissons Ratio (x) = 0.16075 0.04447
# Poissons Ratio (y) = 0.02563 0.41824
# Poissons Ratio (z) = 0.01803 1.06349
#
# Static dielectric constant tensor:
#      x y z
#    x 1.611130 0.000000 0.000000 
#    y 0.000000 1.638180 0.000000 
#    z 0.000000 0.000000 1.603480 
# 
# From -- ./inp_files/21391.got.cif
#   From: 2010.05.17/outbox.cif.g08.bks.cpg/sg51_11_cif.got.tgz:21391.got - 2010.06.03 11:52:47.
