data_PCOD9399575
_publ_section_title
;
Structure prediction by ZEFSAII (Michael W. Deem and Ramdas Pophale) SiO2 
 PCOD9399575
Probable space group: P M M A
;
_chemical_formula_sum "Si O2"
_cell_formula_units_Z 26
_cell_length_a 10.015078
_cell_length_b 8.387587
_cell_length_c 13.471286
_cell_angle_alpha 90.000000
_cell_angle_beta 90.000000
_cell_angle_gamma 90.000000
_cell_volume 1131.619520
_symmetry_space_group_name_H-M "P M M A"
_symmetry_group_IT_number 51
_symmetry_cell_setting 'orthorhombic'
loop_
_space_group_symop_operation_xyz
x,y,z
1/2-x,-y,z
1/2+x,-y,-z
-x,y,-z
-x,-y,-z
1/2+x,y,-z
1/2-x,y,z
x,-y,z
loop_
_atom_site_type_symbol
_atom_site_label
_atom_site_fract_x
_atom_site_fract_y
_atom_site_fract_z
Si Si1 0.965872 0.000000 0.118627
Si Si2 0.488437 0.323895 0.799659
Si Si3 0.250000 0.335130 0.060170
Si Si4 0.250000 0.000000 0.086992
Si Si5 0.907084 0.191574 0.593502
O O1 0.912162 0.832887 0.159797
O O2 0.121264 0.000000 0.156449
O O3 0.000000 0.000000 0.000000
O O4 0.424928 0.500000 0.801235
O O5 0.617482 0.336430 0.872450
O O6 0.540562 0.283063 0.690255
O O7 0.250000 0.500000 0.000691
O O8 0.250000 0.156940 0.019855
O O9 0.750000 0.225628 0.576983
O O10 0.000000 0.233939 0.500000
O O11 0.920366 0.000000 0.608084
#
# Coordination Sequence:
#
# PCOD9399575 Si02
#       5
#     4   8   4   2   8
#     4  10  20  34  55  79 107 139 186 242 299 344
#     4  10  18  31  54  81 110 146 187 238 291 349
#     4   8  14  24  44  74  97 123 168 219 273 322
#     4   8  16  28  48  70  94 126 162 224 272 336
#     4  10  20  34  57  88 122 157 201 247 297 357
#
# _framework density 22.975919000000001
#
# number of rings (size 3 to 8) (size 9 to 14) (size 15 to 20)
#    0.000    2.462    3.077    0.000    0.000    1.231 
#    0.000    0.000    3.385    0.000    0.000    0.000 
#    0.000    0.000    0.000    0.000    0.000    0.000 
#
# Total GULP energy -144925.836585 kJ/mol
# GULP energy per Si atom -5574.070638 kJ/mol
# Density = 2.292362 g / cm^3
# Si number density = 22.975919 Si / 1000 Ang^3
#
#
#
# Elastic Constant Matrix: (Units=GPa)
#
#
# Indices 1 2 3 4 5 6 
#
# 1 68.7413 27.8570 54.7142 0.0000 0.0000 0.0000
# 2 27.8570 259.3762 60.7348 0.0000 0.0000 0.0000
# 3 54.7142 60.7348 136.3322 0.0000 0.0000 0.0000
# 4 0.0000 0.0000 0.0000 69.0617 0.0000 0.0000
# 5 0.0000 0.0000 0.0000 0.0000 35.2898 0.0000
# 6 0.0000 0.0000 0.0000 0.0000 0.0000 2.0440
#
#
#
# Elastic Compliance Matrix: (Units=1/GPa)
#
#
# Indices 1 2 3 4 5 6 
#
# 1 0.021399 -0.000321 -0.008445 0.000000 0.000000 0.000000
# 2 -0.000321 0.004309 -0.001791 0.000000 0.000000 0.000000
# 3 -0.008445 -0.001791 0.011522 0.000000 0.000000 0.000000
# 4 0.000000 0.000000 0.000000 0.014480 0.000000 0.000000
# 5 0.000000 0.000000 0.000000 0.000000 0.028337 0.000000
# 6 0.000000 0.000000 0.000000 0.000000 0.000000 0.489234
#
#
# Mechanical properties :
#
#
# Convention : Reuss Voigt Hill
#
# Bulk Modulus (GPa) = 62.04758 83.45132 72.74945
# Shear Modulus (GPa) = 8.39254 42.68869 25.54061
#
# Velocity S-wave (km/s) = 1.91329 4.31510 3.33772
# Velocity P-wave (km/s) = 5.65199 7.82476 6.82539
#
# Compressibility (1/GPa) = 0.01611666
#
# Stress axis : x y z
#
# Youngs Moduli (GPa) = 46.73067 232.06011 86.78877
#
# Poissons Ratio (x) = 0.07444 0.73295
# Poissons Ratio (y) = 0.01499 0.15544
# Poissons Ratio (z) = 0.39465 0.41562
#
# Static dielectric constant tensor:
#      x y z
#    x 1.953160 0.000000 0.000000 
#    y 0.000000 1.984170 0.000000 
#    z 0.000000 0.000000 1.794070 
# 
# From -- ./inp_files/14968.got.cif
#   From: 2010.05.17/outbox.cif.g08.bks.cpg/sg51_8_cif.got.tgz:14968.got - 2010.06.03 11:52:47.
