data_PCOD9399041
_publ_section_title
;
Structure prediction by ZEFSAII (Michael W. Deem and Ramdas Pophale) SiO2 
 PCOD9399041
Probable space group: P M M A
;
_chemical_formula_sum "Si O2"
_cell_formula_units_Z 64
_cell_length_a 22.136647
_cell_length_b 7.638859
_cell_length_c 18.142046
_cell_angle_alpha 90.000000
_cell_angle_beta 90.000000
_cell_angle_gamma 90.000000
_cell_volume 3067.796850
_symmetry_space_group_name_H-M "P M M A"
_symmetry_group_IT_number 51
_symmetry_cell_setting 'orthorhombic'
loop_
_space_group_symop_operation_xyz
x,y,z
1/2-x,-y,z
1/2+x,-y,-z
-x,y,-z
-x,-y,-z
1/2+x,y,-z
1/2-x,y,z
x,-y,z
loop_
_atom_site_type_symbol
_atom_site_label
_atom_site_fract_x
_atom_site_fract_y
_atom_site_fract_z
Si Si1 0.475291 0.201839 0.417680
Si Si2 0.817255 0.285737 0.900070
Si Si3 0.351848 0.289516 0.264252
Si Si4 0.077702 0.302393 0.690129
Si Si5 0.021565 0.199327 0.203360
Si Si6 0.055153 0.301651 0.045967
Si Si7 0.161056 0.299211 0.422089
Si Si8 0.817701 0.712657 0.413461
O O1 0.500000 0.193993 0.500000
O O2 0.524455 0.300405 0.369899
O O3 0.411241 0.293749 0.420464
O O4 0.469294 0.000000 0.390760
O O5 0.750000 0.234694 0.925598
O O6 0.819772 0.500000 0.899868
O O7 0.825159 0.230275 0.814213
O O8 0.876650 0.226329 0.945591
O O9 0.345207 0.500000 0.266578
O O10 0.423467 0.248779 0.258173
O O11 0.323900 0.222000 0.341236
O O12 0.094176 0.500000 0.711149
O O13 0.043724 0.218630 0.759482
O O14 0.133531 0.220257 0.645352
O O15 0.031673 0.308843 0.129949
O O16 0.030947 0.000000 0.181523
O O17 0.062621 0.500000 0.016587
O O18 0.000000 0.217829 0.000000
O O19 0.182667 0.500000 0.423072
O O20 0.177240 0.220871 0.501913
O O21 0.750000 0.745463 0.387740
O O22 0.827085 0.500000 0.418013
#
# Coordination Sequence:
#
# PCOD9399041 Si02
#       8
#     8   8   8   8   8   8   8   8
#     4  11  21  30  44  69  98 125 160 208 258 304
#     4   8  14  26  46  74 105 135 168 203 239 287
#     4   9  17  28  45  71 102 135 167 202 245 301
#     4  11  20  32  52  72  95 127 165 211 257 303
#     4  11  21  32  50  77 105 132 163 205 252 301
#     4   9  18  34  56  81 109 138 167 201 245 300
#     4  10  18  29  47  68  94 129 168 209 255 308
#     4   9  19  33  48  69  94 125 171 223 269 310
#
# _framework density 20.861878000000001
#
# number of rings (size 3 to 8) (size 9 to 14) (size 15 to 20)
#    0.000    2.250    2.500    2.625    0.000    1.250 
#    0.000    2.500    0.000   10.125    0.000    7.000 
#    0.000    0.000    0.000    0.000    0.000    0.000 
#
# Total GULP energy -356705.859785 kJ/mol
# GULP energy per Si atom -5573.529059 kJ/mol
# Density = 2.081439 g / cm^3
# Si number density = 20.861878 Si / 1000 Ang^3
#
#
#
# Elastic Constant Matrix: (Units=GPa)
#
#
# Indices 1 2 3 4 5 6 
#
# 1 168.6956 -0.8115 48.8623 0.0000 0.0000 0.0000
# 2 -0.8115 55.3883 1.5966 0.0000 0.0000 0.0000
# 3 48.8623 1.5966 52.6913 0.0000 0.0000 0.0000
# 4 0.0000 0.0000 0.0000 -60.0146 0.0000 0.0000
# 5 0.0000 0.0000 0.0000 0.0000 12.2554 0.0000
# 6 0.0000 0.0000 0.0000 0.0000 0.0000 -111.1493
#
#
#
# Elastic Compliance Matrix: (Units=1/GPa)
#
#
# Indices 1 2 3 4 5 6 
#
# 1 0.008111 0.000336 -0.007532 0.000000 0.000000 0.000000
# 2 0.000336 0.018084 -0.000860 0.000000 0.000000 0.000000
# 3 -0.007532 -0.000860 0.025989 0.000000 0.000000 0.000000
# 4 0.000000 0.000000 0.000000 -0.016663 0.000000 0.000000
# 5 0.000000 0.000000 0.000000 0.000000 0.081596 0.000000
# 6 0.000000 0.000000 0.000000 0.000000 0.000000 -0.008997
#
#
# Mechanical properties :
#
#
# Convention : Reuss Voigt Hill
#
# Bulk Modulus (GPa) = 27.72130 41.78555 34.75342
# Shear Modulus (GPa) = 36.69563 -16.63985 10.02789
#
# Velocity S-wave (km/s) = 4.19857 -2.82728 2.19482
# Velocity P-wave (km/s) = 6.06802 3.06840 4.80811
#
# Compressibility (1/GPa) = 0.03607335
#
# Stress axis : x y z
#
# Youngs Moduli (GPa) = 123.28912 55.29732 38.47790
#
# Poissons Ratio (x) = -0.01858 0.28981
# Poissons Ratio (y) = -0.04142 0.03307
# Poissons Ratio (z) = 0.92859 0.04753
#
# Static dielectric constant tensor:
#      x y z
#    x 1.766910 0.000000 0.000000 
#    y 0.000000 1.788440 0.000000 
#    z 0.000000 0.000000 1.768320 
# 
# From -- ./inp_files/34151.got.cif
#   From: 2010.05.17/outbox.cif.g08.bks.cpg/sg51_18_cif.got.tgz:34151.got - 2010.06.03 11:52:47.
