data_PCOD9399801
_publ_section_title
;
Structure prediction by ZEFSAII (Michael W. Deem and Ramdas Pophale) SiO2 
 PCOD9399801
Probable space group: P M M A
;
_chemical_formula_sum "Si O2"
_cell_formula_units_Z 40
_cell_length_a 7.830746
_cell_length_b 12.036345
_cell_length_c 21.464419
_cell_angle_alpha 90.000000
_cell_angle_beta 90.000000
_cell_angle_gamma 90.000000
_cell_volume 2023.097914
_symmetry_space_group_name_H-M "P M M A"
_symmetry_group_IT_number 51
_symmetry_cell_setting 'orthorhombic'
loop_
_space_group_symop_operation_xyz
x,y,z
1/2-x,-y,z
1/2+x,-y,-z
-x,y,-z
-x,-y,-z
1/2+x,y,-z
1/2-x,y,z
x,-y,z
loop_
_atom_site_type_symbol
_atom_site_label
_atom_site_fract_x
_atom_site_fract_y
_atom_site_fract_z
Si Si1 0.043906 0.000000 0.244431
Si Si2 0.459621 0.371105 0.808930
Si Si3 0.050258 0.230402 0.693419
Si Si4 0.550648 0.246915 0.068066
Si Si5 0.455933 0.127631 0.570458
Si Si6 0.546867 0.000000 0.901377
O O1 0.001222 0.000000 0.171536
O O2 0.967398 0.109483 0.275241
O O3 0.250000 0.000000 0.251185
O O4 0.250000 0.364060 0.807919
O O5 0.505111 0.500000 0.813009
O O6 0.522035 0.315305 0.744545
O O7 0.524292 0.304690 0.869977
O O8 0.250000 0.259245 0.686068
O O9 0.977959 0.210067 0.624142
O O10 0.750000 0.265373 0.072726
O O11 0.517869 0.115100 0.070728
O O12 0.500000 0.290064 0.000000
O O13 0.500000 0.159504 0.500000
O O14 0.250000 0.124029 0.575780
O O15 0.518161 0.000000 0.580347
O O16 0.750000 0.000000 0.907534
#
# Coordination Sequence:
#
# PCOD9399801 Si02
#       6
#     4   8   8   8   8   4
#     4  11  21  30  49  80 109 133 165 212 261 310
#     4   9  19  35  56  79  99 129 177 222 258 301
#     4  10  18  33  55  76 103 137 174 213 253 305
#     4  11  22  36  56  78 106 138 170 211 261 310
#     4   9  17  28  45  72 106 138 170 203 246 304
#     4  11  22  36  53  78 111 137 170 208 254 318
#
# _framework density 19.771657999999999
#
# number of rings (size 3 to 8) (size 9 to 14) (size 15 to 20)
#    0.000    2.000    3.000    1.500    0.000    2.000 
#    0.000    0.000    0.000    5.400    0.000    0.000 
#    0.000    0.000    0.000    0.000    0.000    0.000 
#
# Total GULP energy -223164.649905 kJ/mol
# GULP energy per Si atom -5579.116248 kJ/mol
# Density = 1.972666 g / cm^3
# Si number density = 19.771658 Si / 1000 Ang^3
#
#
#
# Elastic Constant Matrix: (Units=GPa)
#
#
# Indices 1 2 3 4 5 6 
#
# 1 18.9834 -6.0377 13.9074 0.0000 0.0000 0.0000
# 2 -6.0377 97.2600 69.4707 0.0000 0.0000 0.0000
# 3 13.9074 69.4707 201.1818 0.0000 0.0000 0.0000
# 4 0.0000 0.0000 0.0000 72.5432 0.0000 0.0000
# 5 0.0000 0.0000 0.0000 0.0000 22.3546 0.0000
# 6 0.0000 0.0000 0.0000 0.0000 0.0000 -7.8828
#
#
#
# Elastic Compliance Matrix: (Units=1/GPa)
#
#
# Indices 1 2 3 4 5 6 
#
# 1 0.060908 0.009011 -0.007322 0.000000 0.000000 0.000000
# 2 0.009011 0.014981 -0.005796 0.000000 0.000000 0.000000
# 3 -0.007322 -0.005796 0.007478 0.000000 0.000000 0.000000
# 4 0.000000 0.000000 0.000000 0.013785 0.000000 0.000000
# 5 0.000000 0.000000 0.000000 0.000000 0.044734 0.000000
# 6 0.000000 0.000000 0.000000 0.000000 0.000000 -0.126859
#
#
# Mechanical properties :
#
#
# Convention : Reuss Voigt Hill
#
# Bulk Modulus (GPa) = 13.30623 52.45623 32.88123
# Shear Modulus (GPa) = 103.53626 33.40866 68.47246
#
# Velocity S-wave (km/s) = 7.24429 4.11509 5.89125
# Velocity P-wave (km/s) = 8.75885 7.01193 7.93362
#
# Compressibility (1/GPa) = 0.07515277
#
# Stress axis : x y z
#
# Youngs Moduli (GPa) = 16.41829 66.75064 133.72090
#
# Poissons Ratio (x) = -0.60149 0.97911
# Poissons Ratio (y) = -0.14795 0.77506
# Poissons Ratio (z) = 0.12022 0.38689
#
# Static dielectric constant tensor:
#      x y z
#    x 1.727970 0.000000 0.000000 
#    y 0.000000 1.641060 0.000000 
#    z 0.000000 0.000000 1.749340 
# 
# From -- ./inp_files/31439.got.cif
#   From: 2010.05.17/outbox.cif.g08.bks.cpg/sg51_16_cif.got.tgz:31439.got - 2010.06.03 11:52:47.
