data_PCOD9399329
_publ_section_title
;
Structure prediction by ZEFSAII (Michael W. Deem and Ramdas Pophale) SiO2 
 PCOD9399329
Probable space group: P M M A
;
_chemical_formula_sum "Si O2"
_cell_formula_units_Z 48
_cell_length_a 17.143123
_cell_length_b 7.397412
_cell_length_c 14.372265
_cell_angle_alpha 90.000000
_cell_angle_beta 90.000000
_cell_angle_gamma 90.000000
_cell_volume 1822.615104
_symmetry_space_group_name_H-M "P M M A"
_symmetry_group_IT_number 51
_symmetry_cell_setting 'orthorhombic'
loop_
_space_group_symop_operation_xyz
x,y,z
1/2-x,-y,z
1/2+x,-y,-z
-x,y,-z
-x,-y,-z
1/2+x,y,-z
1/2-x,y,z
x,-y,z
loop_
_atom_site_type_symbol
_atom_site_label
_atom_site_fract_x
_atom_site_fract_y
_atom_site_fract_z
Si Si1 0.081604 0.779389 0.545886
Si Si2 0.750000 0.210634 0.455560
Si Si3 0.165232 0.794027 0.289331
Si Si4 0.603185 0.286065 0.112856
Si Si5 0.250000 0.719534 0.764565
Si Si6 0.160151 0.288073 0.076159
Si Si7 0.498661 0.217049 0.723698
O O1 0.166168 0.714460 0.512107
O O2 0.000000 0.724646 0.500000
O O3 0.068971 0.724335 0.653351
O O4 0.083643 0.000000 0.540729
O O5 0.750000 0.219922 0.342631
O O6 0.750000 0.000000 0.480487
O O7 0.250000 0.712664 0.310960
O O8 0.159197 0.801809 0.176683
O O9 0.081664 0.711350 0.312469
O O10 0.166089 0.000000 0.324912
O O11 0.616099 0.500000 0.102216
O O12 0.673946 0.217786 0.177622
O O13 0.524705 0.262483 0.171622
O O14 0.607984 0.215179 0.007942
O O15 0.250000 0.500000 0.762787
O O16 0.250000 0.277269 0.041603
O O17 0.143041 0.500000 0.094030
O O18 0.503431 0.000000 0.718083
#
# Coordination Sequence:
#
# PCOD9399329 Si02
#       7
#     8   4   8   8   4   8   8
#     4   9  18  33  52  79 109 131 161 207 253 301
#     4  10  18  32  56  80 103 134 168 204 253 308
#     4   9  19  35  50  67  95 134 175 211 252 299
#     4  10  19  31  50  76 104 132 167 209 254 302
#     4  10  18  30  50  76 105 134 164 204 251 304
#     4   9  17  31  50  71  97 133 174 213 251 295
#     4  10  20  34  52  73 102 133 165 211 256 303
#
# _framework density 26.335787
#
# number of rings (size 3 to 8) (size 9 to 14) (size 15 to 20)
#    0.000    2.500    2.500    0.000    0.000    2.000 
#    1.500    3.333    0.000    2.000    0.000    0.000 
#    0.000    0.000    0.000    0.000    0.000    0.000 
#
# Total GULP energy -268324.811882 kJ/mol
# GULP energy per Si atom -5590.100248 kJ/mol
# Density = 2.627585 g / cm^3
# Si number density = 26.335787 Si / 1000 Ang^3
#
#
#
# Elastic Constant Matrix: (Units=GPa)
#
#
# Indices 1 2 3 4 5 6 
#
# 1 203.8333 1.6097 39.3762 0.0000 0.0000 0.0000
# 2 1.6097 96.0035 3.2290 0.0000 0.0000 0.0000
# 3 39.3762 3.2290 108.5915 0.0000 0.0000 0.0000
# 4 0.0000 0.0000 0.0000 0.1527 0.0000 0.0000
# 5 0.0000 0.0000 0.0000 0.0000 51.5411 0.0000
# 6 0.0000 0.0000 0.0000 0.0000 0.0000 34.9439
#
#
#
# Elastic Compliance Matrix: (Units=1/GPa)
#
#
# Indices 1 2 3 4 5 6 
#
# 1 0.005276 -0.000024 -0.001912 0.000000 0.000000 0.000000
# 2 -0.000024 0.010427 -0.000301 0.000000 0.000000 0.000000
# 3 -0.001912 -0.000301 0.009911 0.000000 0.000000 0.000000
# 4 0.000000 0.000000 0.000000 6.548535 0.000000 0.000000
# 5 0.000000 0.000000 0.000000 0.000000 0.019402 0.000000
# 6 0.000000 0.000000 0.000000 0.000000 0.000000 0.028617
#
#
# Mechanical properties :
#
#
# Convention : Reuss Voigt Hill
#
# Bulk Modulus (GPa) = 47.30768 55.20645 51.25706
# Shear Modulus (GPa) = 0.75373 41.60842 21.18108
#
# Velocity S-wave (km/s) = 0.53556 3.97913 2.83904
# Velocity P-wave (km/s) = 4.28774 6.48994 5.50018
#
# Compressibility (1/GPa) = 0.02113822
#
# Stress axis : x y z
#
# Youngs Moduli (GPa) = 189.55311 95.90648 100.89615
#
# Poissons Ratio (x) = 0.00232 0.19294
# Poissons Ratio (y) = 0.00458 0.03040
# Poissons Ratio (z) = 0.36247 0.02890
#
# Static dielectric constant tensor:
#      x y z
#    x 2.087330 0.000000 0.000000 
#    y 0.000000 1.996230 0.000000 
#    z 0.000000 0.000000 2.072510 
# 
# From -- ./inp_files/24108.got.cif
#   From: 2010.05.17/outbox.cif.g08.bks.cpg/sg51_13_cif.got.tgz:24108.got - 2010.06.03 11:52:47.
