data_PCOD9399368
_publ_section_title
;
Structure prediction by ZEFSAII (Michael W. Deem and Ramdas Pophale) SiO2 
 PCOD9399368
Probable space group: P M M A
;
_chemical_formula_sum "Si O2"
_cell_formula_units_Z 40
_cell_length_a 8.984962
_cell_length_b 13.140587
_cell_length_c 19.678034
_cell_angle_alpha 90.000000
_cell_angle_beta 90.000000
_cell_angle_gamma 90.000000
_cell_volume 2323.339720
_symmetry_space_group_name_H-M "P M M A"
_symmetry_group_IT_number 51
_symmetry_cell_setting 'orthorhombic'
loop_
_space_group_symop_operation_xyz
x,y,z
1/2-x,-y,z
1/2+x,-y,-z
-x,y,-z
-x,-y,-z
1/2+x,y,-z
1/2-x,y,z
x,-y,z
loop_
_atom_site_type_symbol
_atom_site_label
_atom_site_fract_x
_atom_site_fract_y
_atom_site_fract_z
Si Si1 0.074985 0.724170 0.671013
Si Si2 0.072395 0.118129 0.074030
Si Si3 0.072320 0.288695 0.832944
Si Si4 0.573259 0.500000 0.829978
Si Si5 0.427259 0.882827 0.427486
Si Si6 0.073273 0.500000 0.683465
O O1 0.250000 0.745850 0.661812
O O2 0.044407 0.724891 0.751989
O O3 0.047752 0.607452 0.647199
O O4 0.982263 0.805662 0.629663
O O5 0.250000 0.133681 0.070516
O O6 0.998791 0.195887 0.126294
O O7 0.045501 0.000000 0.093435
O O8 0.000000 0.133502 0.000000
O O9 0.250000 0.292855 0.842358
O O10 0.999639 0.395469 0.856256
O O11 0.750000 0.500000 0.839121
O O12 0.528431 0.500000 0.750236
O O13 0.500000 0.857213 0.500000
O O14 0.250000 0.878154 0.433807
O O15 0.469392 0.000000 0.411159
O O16 0.250000 0.500000 0.704866
#
# Coordination Sequence:
#
# PCOD9399368 Si02
#       6
#     8   8   8   4   8   4
#     4   9  18  33  54  78 104 134 169 209 252 302
#     4  10  21  37  56  78 106 140 177 217 262 312
#     4  10  20  35  55  79 108 141 176 214 258 309
#     4  10  18  30  51  78 107 138 173 214 261 308
#     4  10  21  36  53  73 100 134 171 212 258 307
#     4   8  16  32  51  74 105 138 168 204 255 308
#
# _framework density 17.216597
#
# number of rings (size 3 to 8) (size 9 to 14) (size 15 to 20)
#    0.000    2.400    0.000    3.900    0.000    7.200 
#    0.000    5.000    0.000    0.000    0.000    0.000 
#    0.000    0.000    0.000    0.000    0.000    0.000 
#
# Total GULP energy -223061.518821 kJ/mol
# GULP energy per Si atom -5576.537971 kJ/mol
# Density = 1.717741 g / cm^3
# Si number density = 17.216597 Si / 1000 Ang^3
#
#
#
# Elastic Constant Matrix: (Units=GPa)
#
#
# Indices 1 2 3 4 5 6 
#
# 1 94.1746 86.0055 53.6882 0.0000 0.0000 0.0000
# 2 86.0055 144.9490 75.6108 0.0000 0.0000 0.0000
# 3 53.6882 75.6108 56.1022 0.0000 0.0000 0.0000
# 4 0.0000 0.0000 0.0000 -62.0359 0.0000 0.0000
# 5 0.0000 0.0000 0.0000 0.0000 32.0285 0.0000
# 6 0.0000 0.0000 0.0000 0.0000 0.0000 35.0824
#
#
#
# Elastic Compliance Matrix: (Units=1/GPa)
#
#
# Indices 1 2 3 4 5 6 
#
# 1 0.025995 -0.008242 -0.013768 0.000000 0.000000 0.000000
# 2 -0.008242 0.025844 -0.026944 0.000000 0.000000 0.000000
# 3 -0.013768 -0.026944 0.067313 0.000000 0.000000 0.000000
# 4 0.000000 0.000000 0.000000 -0.016120 0.000000 0.000000
# 5 0.000000 0.000000 0.000000 0.000000 0.031222 0.000000
# 6 0.000000 0.000000 0.000000 0.000000 0.000000 0.028504
#
#
# Mechanical properties :
#
#
# Convention : Reuss Voigt Hill
#
# Bulk Modulus (GPa) = 47.07120 80.64832 63.85976
# Shear Modulus (GPa) = 18.67422 6.34309 12.50865
#
# Velocity S-wave (km/s) = 3.29700 1.92153 2.69838
# Velocity P-wave (km/s) = 6.47252 7.20195 6.84696
#
# Compressibility (1/GPa) = 0.02124441
#
# Stress axis : x y z
#
# Youngs Moduli (GPa) = 38.46931 38.69333 14.85587
#
# Poissons Ratio (x) = 0.31891 0.20454
# Poissons Ratio (y) = 0.31706 0.40027
# Poissons Ratio (z) = 0.52965 1.04255
#
# Static dielectric constant tensor:
#      x y z
#    x 1.573240 0.000000 0.000000 
#    y 0.000000 1.598380 0.000000 
#    z 0.000000 0.000000 1.554490 
# 
# From -- ./inp_files/31473.got.cif
#   From: 2010.05.17/outbox.cif.g08.bks.cpg/sg51_16_cif.got.tgz:31473.got - 2010.06.03 11:52:47.
