data_PCOD9399345
_publ_section_title
;
Structure prediction by ZEFSAII (Michael W. Deem and Ramdas Pophale) SiO2 
 PCOD9399345
Probable space group: P M M A
;
_chemical_formula_sum "Si O2"
_cell_formula_units_Z 44
_cell_length_a 8.757890
_cell_length_b 29.641162
_cell_length_c 9.614702
_cell_angle_alpha 90.000000
_cell_angle_beta 90.000000
_cell_angle_gamma 90.000000
_cell_volume 2495.919300
_symmetry_space_group_name_H-M "P M M A"
_symmetry_group_IT_number 51
_symmetry_cell_setting 'orthorhombic'
loop_
_space_group_symop_operation_xyz
x,y,z
1/2-x,-y,z
1/2+x,-y,-z
-x,y,-z
-x,-y,-z
1/2+x,y,-z
1/2-x,y,z
x,-y,z
loop_
_atom_site_type_symbol
_atom_site_label
_atom_site_fract_x
_atom_site_fract_y
_atom_site_fract_z
Si Si1 0.067281 0.228887 0.343778
Si Si2 0.932409 0.678933 0.344739
Si Si3 0.432758 0.051139 0.845675
Si Si4 0.433190 0.407039 0.844678
Si Si5 0.432718 0.500000 0.157014
Si Si6 0.567040 0.129236 0.655403
O O1 0.250000 0.233115 0.349338
O O2 0.029126 0.179336 0.284956
O O3 0.000000 0.227949 0.500000
O O4 0.997365 0.274383 0.281224
O O5 0.750000 0.682675 0.355758
O O6 0.970083 0.635992 0.250007
O O7 0.000000 0.673493 0.500000
O O8 0.250000 0.054961 0.850737
O O9 0.500538 0.089225 0.747032
O O10 0.471086 0.000000 0.798292
O O11 0.500000 0.056432 0.000000
O O12 0.250000 0.411910 0.854034
O O13 0.504116 0.453148 0.782814
O O14 0.500000 0.400916 0.000000
O O15 0.250000 0.500000 0.153866
O O16 0.500000 0.500000 0.000000
O O17 0.500000 0.126438 0.500000
O O18 0.750000 0.126005 0.648176
#
# Coordination Sequence:
#
# PCOD9399345 Si02
#       6
#     8   8   8   8   4   8
#     4   9  17  30  50  74 101 133 168 205 248 298
#     4  10  20  33  52  76 102 134 169 205 249 299
#     4  10  21  37  56  77 103 137 173 210 256 309
#     4  10  20  34  52  75 101 130 166 207 249 295
#     4  10  18  30  51  74  97 130 166 202 248 298
#     4  10  20  34  54  80 106 135 172 214 257 300
#
# _framework density 17.628775000000001
#
# number of rings (size 3 to 8) (size 9 to 14) (size 15 to 20)
#    0.000    2.182    0.000    5.727    0.000    6.545 
#    0.000    1.364    0.000    2.182    0.000    0.000 
#    0.000    0.000    0.000    0.000    0.000    0.000 
#
# Total GULP energy -245358.965459 kJ/mol
# GULP energy per Si atom -5576.340124 kJ/mol
# Density = 1.758865 g / cm^3
# Si number density = 17.628775 Si / 1000 Ang^3
#
#
#
# Elastic Constant Matrix: (Units=GPa)
#
#
# Indices 1 2 3 4 5 6 
#
# 1 87.9442 86.8464 32.7500 0.0000 0.0000 0.0000
# 2 86.8464 225.4785 73.7235 0.0000 0.0000 0.0000
# 3 32.7500 73.7235 46.4073 0.0000 0.0000 0.0000
# 4 0.0000 0.0000 0.0000 44.1072 0.0000 0.0000
# 5 0.0000 0.0000 0.0000 0.0000 25.7026 0.0000
# 6 0.0000 0.0000 0.0000 0.0000 0.0000 37.0119
#
#
#
# Elastic Compliance Matrix: (Units=1/GPa)
#
#
# Indices 1 2 3 4 5 6 
#
# 1 0.018641 -0.005990 -0.003640 0.000000 0.000000 0.000000
# 2 -0.005990 0.011153 -0.013491 0.000000 0.000000 0.000000
# 3 -0.003640 -0.013491 0.045549 0.000000 0.000000 0.000000
# 4 0.000000 0.000000 0.000000 0.022672 0.000000 0.000000
# 5 0.000000 0.000000 0.000000 0.000000 0.038907 0.000000
# 6 0.000000 0.000000 0.000000 0.000000 0.000000 0.027018
#
#
# Mechanical properties :
#
#
# Convention : Reuss Voigt Hill
#
# Bulk Modulus (GPa) = 34.36146 82.94110 58.65128
# Shear Modulus (GPa) = 22.73938 32.46501 27.60220
#
# Velocity S-wave (km/s) = 3.59542 4.29603 3.96124
# Velocity P-wave (km/s) = 6.06383 8.47105 7.36644
#
# Compressibility (1/GPa) = 0.02910237
#
# Stress axis : x y z
#
# Youngs Moduli (GPa) = 53.64395 89.65987 21.95438
#
# Poissons Ratio (x) = 0.53706 0.07990
# Poissons Ratio (y) = 0.32133 0.29619
# Poissons Ratio (z) = 0.19524 1.20961
#
# Static dielectric constant tensor:
#      x y z
#    x 1.588350 0.000000 0.000000 
#    y 0.000000 1.652500 0.000000 
#    z 0.000000 0.000000 1.568460 
# 
# From -- ./inp_files/5715.got.cif
#   From: 2010.05.17/outbox.cif.g08.bks.cpg/sg51_3_cif.got.tgz:5715.got - 2010.06.03 11:52:47.
