data_PCOD9399918
_publ_section_title
;
Structure prediction by ZEFSAII (Michael W. Deem and Ramdas Pophale) SiO2 
 PCOD9399918
Probable space group: P M M A
;
_chemical_formula_sum "Si O2"
_cell_formula_units_Z 48
_cell_length_a 16.892007
_cell_length_b 8.098644
_cell_length_c 14.287456
_cell_angle_alpha 90.000000
_cell_angle_beta 90.000000
_cell_angle_gamma 90.000000
_cell_volume 1954.557573
_symmetry_space_group_name_H-M "P M M A"
_symmetry_group_IT_number 51
_symmetry_cell_setting 'orthorhombic'
loop_
_space_group_symop_operation_xyz
x,y,z
1/2-x,-y,z
1/2+x,-y,-z
-x,y,-z
-x,-y,-z
1/2+x,y,-z
1/2-x,y,z
x,-y,z
loop_
_atom_site_type_symbol
_atom_site_label
_atom_site_fract_x
_atom_site_fract_y
_atom_site_fract_z
Si Si1 0.250000 0.196176 0.550776
Si Si2 0.495525 0.192332 0.732585
Si Si3 0.839976 0.187019 0.921037
Si Si4 0.837202 0.690251 0.716231
Si Si5 0.919705 0.202423 0.452269
Si Si6 0.900689 0.692632 0.107095
Si Si7 0.250000 0.700627 0.767185
O O1 0.165952 0.262758 0.514068
O O2 0.250000 0.223603 0.663284
O O3 0.250000 0.000000 0.533335
O O4 0.582742 0.216773 0.689152
O O5 0.432829 0.251607 0.655606
O O6 0.478251 0.280594 0.830133
O O7 0.483101 0.000000 0.748732
O O8 0.750000 0.200869 0.958970
O O9 0.842075 0.300043 0.829770
O O10 0.851598 0.000000 0.885866
O O11 0.897089 0.220737 0.007230
O O12 0.750000 0.758795 0.690819
O O13 0.841578 0.500000 0.687558
O O14 0.000000 0.261122 0.500000
O O15 0.919740 0.000000 0.456303
O O16 0.889496 0.500000 0.088307
O O17 0.827178 0.749528 0.172241
O O18 0.250000 0.500000 0.757793
#
# Coordination Sequence:
#
# PCOD9399918 Si02
#       7
#     4   8   8   8   8   8   4
#     4  10  18  34  62  86 115 156 193 234 291 350
#     4  11  22  37  59  86 116 146 188 244 293 345
#     4  10  20  34  55  83 115 151 196 247 293 339
#     4  10  22  41  61  79 109 154 199 240 289 349
#     4   9  19  36  58  90 123 151 189 239 293 349
#     4  11  21  34  54  83 118 155 194 235 289 349
#     4  10  20  32  52  82 117 152 191 234 281 346
#
# _framework density 24.557988999999999
#
# number of rings (size 3 to 8) (size 9 to 14) (size 15 to 20)
#    0.000    1.833    2.500    2.000    0.000    3.000 
#    1.500    3.333    0.000    4.500    0.000    0.000 
#    0.000    0.000    0.000    0.000    0.000    0.000 
#
# Total GULP energy -268378.030307 kJ/mol
# GULP energy per Si atom -5591.208965 kJ/mol
# Density = 2.450209 g / cm^3
# Si number density = 24.557989 Si / 1000 Ang^3
#
#
#
# Elastic Constant Matrix: (Units=GPa)
#
#
# Indices 1 2 3 4 5 6 
#
# 1 167.0767 -7.7588 24.7535 0.0000 0.0000 0.0000
# 2 -7.7588 35.6288 -2.5519 0.0000 0.0000 0.0000
# 3 24.7535 -2.5519 59.4759 0.0000 0.0000 0.0000
# 4 0.0000 0.0000 0.0000 16.6383 0.0000 0.0000
# 5 0.0000 0.0000 0.0000 0.0000 44.3068 0.0000
# 6 0.0000 0.0000 0.0000 0.0000 0.0000 22.8701
#
#
#
# Elastic Compliance Matrix: (Units=1/GPa)
#
#
# Indices 1 2 3 4 5 6 
#
# 1 0.006430 0.001212 -0.002624 0.000000 0.000000 0.000000
# 2 0.001212 0.028382 0.000713 0.000000 0.000000 0.000000
# 3 -0.002624 0.000713 0.017936 0.000000 0.000000 0.000000
# 4 0.000000 0.000000 0.000000 0.060102 0.000000 0.000000
# 5 0.000000 0.000000 0.000000 0.000000 0.022570 0.000000
# 6 0.000000 0.000000 0.000000 0.000000 0.000000 0.043725
#
#
# Mechanical properties :
#
#
# Convention : Reuss Voigt Hill
#
# Bulk Modulus (GPa) = 19.47360 32.34078 25.90719
# Shear Modulus (GPa) = 25.29587 33.27896 29.28741
#
# Velocity S-wave (km/s) = 3.21292 3.68519 3.45712
# Velocity P-wave (km/s) = 4.65947 5.59510 5.14858
#
# Compressibility (1/GPa) = 0.05135158
#
# Stress axis : x y z
#
# Youngs Moduli (GPa) = 155.51189 35.23327 55.75273
#
# Poissons Ratio (x) = -0.04272 0.14631
# Poissons Ratio (y) = -0.18854 -0.03976
# Poissons Ratio (z) = 0.40810 -0.02513
#
# Static dielectric constant tensor:
#      x y z
#    x 2.010570 0.000000 0.000000 
#    y 0.000000 1.837890 0.000000 
#    z 0.000000 0.000000 1.959010 
# 
# From -- ./inp_files/24869.got.cif
#   From: 2010.05.17/outbox.cif.g08.bks.cpg/sg51_13_cif.got.tgz:24869.got - 2010.06.03 11:52:47.
