data_PCOD9399720
_publ_section_title
;
Structure prediction by ZEFSAII (Michael W. Deem and Ramdas Pophale) SiO2 
 PCOD9399720
Probable space group: P M M A
;
_chemical_formula_sum "Si O2"
_cell_formula_units_Z 34
_cell_length_a 10.002981
_cell_length_b 19.404534
_cell_length_c 7.720301
_cell_angle_alpha 90.000000
_cell_angle_beta 90.000000
_cell_angle_gamma 90.000000
_cell_volume 1498.535013
_symmetry_space_group_name_H-M "P M M A"
_symmetry_group_IT_number 51
_symmetry_cell_setting 'orthorhombic'
loop_
_space_group_symop_operation_xyz
x,y,z
1/2-x,-y,z
1/2+x,-y,-z
-x,y,-z
-x,-y,-z
1/2+x,y,-z
1/2-x,y,z
x,-y,z
loop_
_atom_site_type_symbol
_atom_site_label
_atom_site_fract_x
_atom_site_fract_y
_atom_site_fract_z
Si Si1 0.250000 0.287578 0.705506
Si Si2 0.525506 0.924289 0.791771
Si Si3 0.250000 0.179052 0.168622
Si Si4 0.031633 0.613870 0.804905
Si Si5 0.250000 0.133618 0.759315
Si Si6 0.750000 0.667278 0.686401
Si Si7 0.750000 0.500000 0.295227
O O1 0.382182 0.315142 0.803519
O O2 0.250000 0.207103 0.671896
O O3 0.250000 0.318005 0.514945
O O4 0.622009 0.860590 0.755086
O O5 0.380618 0.909403 0.716184
O O6 0.577810 0.000000 0.743971
O O7 0.500000 0.925605 0.000000
O O8 0.250000 0.260264 0.207292
O O9 0.250000 0.157955 0.963918
O O10 0.131500 0.559722 0.717638
O O11 0.886347 0.626191 0.724362
O O12 0.000000 0.591242 0.000000
#
# Coordination Sequence:
#
# PCOD9399720 Si02
#       7
#     4   8   4   8   4   4   2
#     4  11  24  41  60  92 130 164 204 254 306 354
#     4   9  17  29  49  79 112 147 196 256 307 354
#     4  10  19  32  55  84 112 152 200 250 303 355
#     4  11  23  43  68  95 125 159 202 246 297 361
#     4  10  18  32  55  80 112 155 205 249 298 359
#     4  12  24  40  64  93 127 165 204 251 304 357
#     4  10  24  44  70 100 124 154 198 250 298 352
#
# _framework density 22.688828999999998
#
# number of rings (size 3 to 8) (size 9 to 14) (size 15 to 20)
#    0.000    1.647    0.000    6.000    0.000    5.176 
#    0.000    9.412    0.000    5.647    0.000    0.000 
#    0.000    0.000    0.000    0.000    0.000    0.000 
#
# Total GULP energy -189500.138078 kJ/mol
# GULP energy per Si atom -5573.533473 kJ/mol
# Density = 2.263719 g / cm^3
# Si number density = 22.688829 Si / 1000 Ang^3
#
#
#
# Elastic Constant Matrix: (Units=GPa)
#
#
# Indices 1 2 3 4 5 6 
#
# 1 200.3338 55.0924 15.4048 0.0000 0.0000 0.0000
# 2 55.0924 120.8300 12.9697 0.0000 0.0000 0.0000
# 3 15.4048 12.9697 35.8184 0.0000 0.0000 0.0000
# 4 0.0000 0.0000 0.0000 16.0079 0.0000 0.0000
# 5 0.0000 0.0000 0.0000 0.0000 19.1128 0.0000
# 6 0.0000 0.0000 0.0000 0.0000 0.0000 6.6228
#
#
#
# Elastic Compliance Matrix: (Units=1/GPa)
#
#
# Indices 1 2 3 4 5 6 
#
# 1 0.005794 -0.002470 -0.001597 0.000000 0.000000 0.000000
# 2 -0.002470 0.009664 -0.002437 0.000000 0.000000 0.000000
# 3 -0.001597 -0.002437 0.029488 0.000000 0.000000 0.000000
# 4 0.000000 0.000000 0.000000 0.062469 0.000000 0.000000
# 5 0.000000 0.000000 0.000000 0.000000 0.052321 0.000000
# 6 0.000000 0.000000 0.000000 0.000000 0.000000 0.150994
#
#
# Mechanical properties :
#
#
# Convention : Reuss Voigt Hill
#
# Bulk Modulus (GPa) = 31.31179 58.21289 44.76234
# Shear Modulus (GPa) = 14.95285 26.58306 20.76795
#
# Velocity S-wave (km/s) = 2.56996 3.42663 3.02874
# Velocity P-wave (km/s) = 4.75781 6.43184 5.65709
#
# Compressibility (1/GPa) = 0.03193685
#
# Stress axis : x y z
#
# Youngs Moduli (GPa) = 172.59772 103.47722 33.91211
#
# Poissons Ratio (x) = 0.25561 0.05417
# Poissons Ratio (y) = 0.42636 0.08264
# Poissons Ratio (z) = 0.27570 0.25216
#
# Static dielectric constant tensor:
#      x y z
#    x 1.711450 0.000000 0.000000 
#    y 0.000000 1.829300 0.000000 
#    z 0.000000 0.000000 1.911180 
# 
# From -- ./inp_files/5103.got.cif
#   From: 2010.05.17/outbox.cif.g08.bks.cpg/sg51_3_cif.got.tgz:5103.got - 2010.06.03 11:52:47.
