data_PCOD9399360
_publ_section_title
;
Structure prediction by ZEFSAII (Michael W. Deem and Ramdas Pophale) SiO2 
 PCOD9399360
Probable space group: P M M A
;
_chemical_formula_sum "Si O2"
_cell_formula_units_Z 64
_cell_length_a 8.692668
_cell_length_b 15.703900
_cell_length_c 25.596614
_cell_angle_alpha 90.000000
_cell_angle_beta 90.000000
_cell_angle_gamma 90.000000
_cell_volume 3494.162780
_symmetry_space_group_name_H-M "P M M A"
_symmetry_group_IT_number 51
_symmetry_cell_setting 'orthorhombic'
loop_
_space_group_symop_operation_xyz
x,y,z
1/2-x,-y,z
1/2+x,-y,-z
-x,y,-z
-x,-y,-z
1/2+x,y,-z
1/2-x,y,z
x,-y,z
loop_
_atom_site_type_symbol
_atom_site_label
_atom_site_fract_x
_atom_site_fract_y
_atom_site_fract_z
Si Si1 0.564086 0.902073 0.442542
Si Si2 0.062863 0.220553 0.650036
Si Si3 0.066947 0.905186 0.136245
Si Si4 0.065888 0.406487 0.092052
Si Si5 0.432184 0.229187 0.944615
Si Si6 0.432836 0.827614 0.765744
Si Si7 0.067123 0.646478 0.209566
Si Si8 0.935712 0.407190 0.318225
O O1 0.500000 0.883044 0.500000
O O2 0.750000 0.898968 0.444310
O O3 0.509990 0.834849 0.399061
O O4 0.520723 0.000000 0.429329
O O5 0.250000 0.220109 0.649250
O O6 0.017454 0.177402 0.705179
O O7 0.015873 0.320245 0.652311
O O8 0.250000 0.895691 0.133207
O O9 0.991710 0.832748 0.100818
O O10 0.014994 0.893066 0.196091
O O11 0.023690 0.000000 0.118274
O O12 0.250000 0.400089 0.083896
O O13 0.013962 0.500000 0.074028
O O14 0.039562 0.398935 0.154521
O O15 0.987398 0.325512 0.066110
O O16 0.250000 0.226919 0.946149
O O17 0.500000 0.200774 0.000000
O O18 0.250000 0.840640 0.767419
O O19 0.475748 0.735073 0.788754
O O20 0.250000 0.662805 0.213515
O O21 0.010068 0.597611 0.260806
O O22 0.750000 0.402684 0.312594
O O23 0.973163 0.500000 0.341814
#
# Coordination Sequence:
#
# PCOD9399360 Si02
#       8
#     8   8   8   8   8   8   8   8
#     4   9  17  31  51  73  99 134 176 223 271 318
#     4   8  16  30  49  75 106 139 177 218 265 320
#     4  11  24  42  63  87 116 148 181 221 273 333
#     4  10  21  37  58  84 115 149 184 223 271 328
#     4  12  26  44  66  86 110 144 183 231 280 328
#     4  10  19  33  55  83 113 145 182 221 266 322
#     4  10  18  30  51  77 110 147 180 216 264 318
#     4   9  17  29  46  70 102 139 180 223 262 309
#
# _framework density 18.316262999999999
#
# number of rings (size 3 to 8) (size 9 to 14) (size 15 to 20)
#    0.000    2.125    1.250    3.375    0.000    3.500 
#    0.000    4.375    0.000    1.875    0.000    0.000 
#    0.000    0.000    0.000    0.000    0.000    0.000 
#
# Total GULP energy -357074.875944 kJ/mol
# GULP energy per Si atom -5579.294937 kJ/mol
# Density = 1.827457 g / cm^3
# Si number density = 18.316263 Si / 1000 Ang^3
#
#
#
# Elastic Constant Matrix: (Units=GPa)
#
#
# Indices 1 2 3 4 5 6 
#
# 1 31.8288 30.8463 22.1778 0.0000 0.0000 0.0000
# 2 30.8463 109.1884 63.1867 0.0000 0.0000 0.0000
# 3 22.1778 63.1867 98.1752 0.0000 0.0000 0.0000
# 4 0.0000 0.0000 0.0000 1.9045 0.0000 0.0000
# 5 0.0000 0.0000 0.0000 0.0000 26.6715 0.0000
# 6 0.0000 0.0000 0.0000 0.0000 0.0000 10.6834
#
#
#
# Elastic Compliance Matrix: (Units=1/GPa)
#
#
# Indices 1 2 3 4 5 6 
#
# 1 0.043839 -0.010603 -0.003079 0.000000 0.000000 0.000000
# 2 -0.010603 0.017159 -0.008648 0.000000 0.000000 0.000000
# 3 -0.003079 -0.008648 0.016448 0.000000 0.000000 0.000000
# 4 0.000000 0.000000 0.000000 0.525066 0.000000 0.000000
# 5 0.000000 0.000000 0.000000 0.000000 0.037493 0.000000
# 6 0.000000 0.000000 0.000000 0.000000 0.000000 0.093603
#
#
# Mechanical properties :
#
#
# Convention : Reuss Voigt Hill
#
# Bulk Modulus (GPa) = 30.50203 52.40155 41.45179
# Shear Modulus (GPa) = 6.33556 16.05068 11.19312
#
# Velocity S-wave (km/s) = 1.86185 2.96346 2.47473
# Velocity P-wave (km/s) = 4.61640 6.35459 5.55392
#
# Compressibility (1/GPa) = 0.03278470
#
# Stress axis : x y z
#
# Youngs Moduli (GPa) = 22.81069 58.27990 60.79927
#
# Poissons Ratio (x) = 0.61794 0.18721
# Poissons Ratio (y) = 0.24186 0.52581
# Poissons Ratio (z) = 0.07024 0.50402
#
# Static dielectric constant tensor:
#      x y z
#    x 1.614220 0.000000 0.000000 
#    y 0.000000 1.660960 0.000000 
#    z 0.000000 0.000000 1.617640 
# 
# From -- ./inp_files/34852.got.cif
#   From: 2010.05.17/outbox.cif.g08.bks.cpg/sg51_18_cif.got.tgz:34852.got - 2010.06.03 11:52:47.
