data_PCOD9399261
_publ_section_title
;
Structure prediction by ZEFSAII (Michael W. Deem and Ramdas Pophale) SiO2 
 PCOD9399261
Probable space group: P M M A
;
_chemical_formula_sum "Si O2"
_cell_formula_units_Z 56
_cell_length_a 7.607963
_cell_length_b 14.845267
_cell_length_c 26.712359
_cell_angle_alpha 90.000000
_cell_angle_beta 90.000000
_cell_angle_gamma 90.000000
_cell_volume 3016.953716
_symmetry_space_group_name_H-M "P M M A"
_symmetry_group_IT_number 51
_symmetry_cell_setting 'orthorhombic'
loop_
_space_group_symop_operation_xyz
x,y,z
1/2-x,-y,z
1/2+x,-y,-z
-x,y,-z
-x,-y,-z
1/2+x,y,-z
1/2-x,y,z
x,-y,z
loop_
_atom_site_type_symbol
_atom_site_label
_atom_site_fract_x
_atom_site_fract_y
_atom_site_fract_z
Si Si1 0.458667 0.216896 0.350846
Si Si2 0.535179 0.399318 0.695449
Si Si3 0.038477 0.599794 0.188939
Si Si4 0.961078 0.103037 0.055870
Si Si5 0.037149 0.895974 0.748405
Si Si6 0.961206 0.897279 0.556508
Si Si7 0.541042 0.207596 0.152555
O O1 0.250000 0.227851 0.358717
O O2 0.529083 0.315888 0.337349
O O3 0.482469 0.154145 0.302226
O O4 0.530579 0.167307 0.399920
O O5 0.750000 0.397874 0.695424
O O6 0.481702 0.500000 0.679837
O O7 0.480501 0.386013 0.753371
O O8 0.250000 0.597774 0.189717
O O9 0.977564 0.500000 0.172945
O O10 0.986158 0.685817 0.156936
O O11 0.750000 0.099158 0.059911
O O12 0.028598 0.163224 0.101626
O O13 0.027598 0.000000 0.059789
O O14 0.000000 0.136877 0.000000
O O15 0.250000 0.895909 0.749312
O O16 0.972408 0.841638 0.797282
O O17 0.979106 0.000000 0.749337
O O18 0.750000 0.901348 0.561627
O O19 0.000000 0.867160 0.500000
O O20 0.028141 0.000000 0.562183
O O21 0.750000 0.191939 0.152892
#
# Coordination Sequence:
#
# PCOD9399261 Si02
#       7
#     8   8   8   8   8   8   8
#     4  10  18  30  49  70  92 119 155 196 231 269
#     4   8  14  26  45  68  93 120 150 185 228 276
#     4   9  17  30  48  70  96 125 157 192 230 277
#     4   9  18  33  51  70  94 126 163 200 235 275
#     4  10  20  31  43  65  98 130 153 178 225 285
#     4   9  18  31  46  65  88 117 155 195 232 271
#     4  10  19  31  48  70  97 127 157 190 232 281
#
# _framework density 18.561769999999999
#
# number of rings (size 3 to 8) (size 9 to 14) (size 15 to 20)
#    0.000    2.714    1.429    1.714    0.000    4.000 
#    0.000    1.429    0.000    3.857    0.000    0.000 
#    0.000    0.000    0.000    0.000    0.000    0.000 
#
# Total GULP energy -312335.673345 kJ/mol
# GULP energy per Si atom -5577.422738 kJ/mol
# Density = 1.851952 g / cm^3
# Si number density = 18.561770 Si / 1000 Ang^3
#
#
#
# Elastic Constant Matrix: (Units=GPa)
#
#
# Indices 1 2 3 4 5 6 
#
# 1 35.5975 -3.0324 -0.8572 0.0000 0.0000 0.0000
# 2 -3.0324 147.9611 99.8519 0.0000 0.0000 0.0000
# 3 -0.8572 99.8519 154.9683 0.0000 0.0000 0.0000
# 4 0.0000 0.0000 0.0000 23.6502 0.0000 0.0000
# 5 0.0000 0.0000 0.0000 0.0000 14.9754 0.0000
# 6 0.0000 0.0000 0.0000 0.0000 0.0000 10.6422
#
#
#
# Elastic Compliance Matrix: (Units=1/GPa)
#
#
# Indices 1 2 3 4 5 6 
#
# 1 0.028154 0.000835 -0.000382 0.000000 0.000000 0.000000
# 2 0.000835 0.011983 -0.007717 0.000000 0.000000 0.000000
# 3 -0.000382 -0.007717 0.011423 0.000000 0.000000 0.000000
# 4 0.000000 0.000000 0.000000 0.042283 0.000000 0.000000
# 5 0.000000 0.000000 0.000000 0.000000 0.066776 0.000000
# 6 0.000000 0.000000 0.000000 0.000000 0.000000 0.093966
#
#
# Mechanical properties :
#
#
# Convention : Reuss Voigt Hill
#
# Bulk Modulus (GPa) = 27.00363 58.93907 42.97135
# Shear Modulus (GPa) = 17.76471 26.02453 21.89462
#
# Velocity S-wave (km/s) = 3.09699 3.74846 3.43819
# Velocity P-wave (km/s) = 5.23145 7.11031 6.24197
#
# Compressibility (1/GPa) = 0.03703206
#
# Stress axis : x y z
#
# Youngs Moduli (GPa) = 35.51924 83.44997 87.54317
#
# Poissons Ratio (x) = -0.06968 0.03347
# Poissons Ratio (y) = -0.02966 0.67554
# Poissons Ratio (z) = 0.01358 0.64395
#
# Static dielectric constant tensor:
#      x y z
#    x 1.701010 0.000000 0.000000 
#    y 0.000000 1.650950 0.000000 
#    z 0.000000 0.000000 1.621190 
# 
# From -- ./inp_files/33001.got.cif
#   From: 2010.05.17/outbox.cif.g08.bks.cpg/sg51_17_cif.got.tgz:33001.got - 2010.06.03 11:52:47.
