data_PCOD9399267
_publ_section_title
;
Structure prediction by ZEFSAII (Michael W. Deem and Ramdas Pophale) SiO2 
 PCOD9399267
Probable space group: P M M A
;
_chemical_formula_sum "Si O2"
_cell_formula_units_Z 48
_cell_length_a 17.196120
_cell_length_b 7.542654
_cell_length_c 17.077785
_cell_angle_alpha 90.000000
_cell_angle_beta 90.000000
_cell_angle_gamma 90.000000
_cell_volume 2215.063572
_symmetry_space_group_name_H-M "P M M A"
_symmetry_group_IT_number 51
_symmetry_cell_setting 'orthorhombic'
loop_
_space_group_symop_operation_xyz
x,y,z
1/2-x,-y,z
1/2+x,-y,-z
-x,y,-z
-x,-y,-z
1/2+x,y,-z
1/2-x,y,z
x,-y,z
loop_
_atom_site_type_symbol
_atom_site_label
_atom_site_fract_x
_atom_site_fract_y
_atom_site_fract_z
Si Si1 0.080808 0.716457 0.043895
Si Si2 0.250000 0.284002 0.974789
Si Si3 0.099259 0.290852 0.704383
Si Si4 0.160675 0.790391 0.539071
Si Si5 0.250000 0.717413 0.793488
Si Si6 0.939259 0.282544 0.776275
Si Si7 0.662673 0.712509 0.632246
O O1 0.080716 0.500000 0.039950
O O2 0.075748 0.771056 0.134779
O O3 0.165958 0.772535 0.010686
O O4 0.000000 0.771613 0.000000
O O5 0.250000 0.500000 0.980070
O O6 0.250000 0.232668 0.883812
O O7 0.097793 0.500000 0.720631
O O8 0.109351 0.271634 0.611649
O O9 0.174910 0.218024 0.747215
O O10 0.021836 0.219687 0.743529
O O11 0.250000 0.716762 0.544843
O O12 0.127303 0.750255 0.453063
O O13 0.166445 0.000000 0.546111
O O14 0.250000 0.500000 0.791381
O O15 0.938042 0.500000 0.776945
O O16 0.878881 0.222976 0.710150
O O17 0.750000 0.784021 0.628632
O O18 0.665785 0.500000 0.638376
#
# Coordination Sequence:
#
# PCOD9399267 Si02
#       7
#     8   4   8   8   4   8   8
#     4   9  16  26  40  63  99 136 166 201 249 299
#     4   9  16  24  40  64  95 134 166 199 249 299
#     4  10  18  30  49  71  99 131 164 200 242 292
#     4  10  20  34  51  72  98 126 162 205 249 294
#     4   9  16  26  43  68  95 128 166 197 235 293
#     4   9  18  29  44  68  97 131 167 203 240 288
#     4   9  18  32  50  69  95 131 169 204 243 291
#
# _framework density 21.669806000000001
#
# number of rings (size 3 to 8) (size 9 to 14) (size 15 to 20)
#    0.000    2.667    0.833    1.500    1.167    5.333 
#    0.000    4.167    0.000    0.000    0.000    0.000 
#    0.000   14.667    0.000    0.000    0.000    0.000 
#
# Total GULP energy -267787.357428 kJ/mol
# GULP energy per Si atom -5578.903280 kJ/mol
# Density = 2.162048 g / cm^3
# Si number density = 21.669806 Si / 1000 Ang^3
#
#
#
# Elastic Constant Matrix: (Units=GPa)
#
#
# Indices 1 2 3 4 5 6 
#
# 1 136.2336 1.0410 107.8701 0.0000 0.0000 0.0000
# 2 1.0410 48.9212 -12.2818 0.0000 0.0000 0.0000
# 3 107.8701 -12.2818 211.2586 0.0000 0.0000 0.0000
# 4 0.0000 0.0000 0.0000 -44.9505 0.0000 0.0000
# 5 0.0000 0.0000 0.0000 0.0000 34.6201 0.0000
# 6 0.0000 0.0000 0.0000 0.0000 0.0000 -6.4452
#
#
#
# Elastic Compliance Matrix: (Units=1/GPa)
#
#
# Indices 1 2 3 4 5 6 
#
# 1 0.012493 -0.001895 -0.006489 0.000000 0.000000 0.000000
# 2 -0.001895 0.021031 0.002190 0.000000 0.000000 0.000000
# 3 -0.006489 0.002190 0.008174 0.000000 0.000000 0.000000
# 4 0.000000 0.000000 0.000000 -0.022247 0.000000 0.000000
# 5 0.000000 0.000000 0.000000 0.000000 0.028885 0.000000
# 6 0.000000 0.000000 0.000000 0.000000 0.000000 -0.155153
#
#
# Mechanical properties :
#
#
# Convention : Reuss Voigt Hill
#
# Bulk Modulus (GPa) = 34.11717 65.51909 49.81813
# Shear Modulus (GPa) = -59.06063 16.63050 -21.21507
#
# Velocity S-wave (km/s) = -5.22628 2.77329 -3.13232
# Velocity P-wave (km/s) = 4.54317 6.36834 3.15558
#
# Compressibility (1/GPa) = 0.02931076
#
# Stress axis : x y z
#
# Youngs Moduli (GPa) = 80.04525 47.54834 122.33505
#
# Poissons Ratio (x) = 0.09010 0.79385
# Poissons Ratio (y) = 0.15168 -0.26795
# Poissons Ratio (z) = 0.51943 -0.10414
#
# Static dielectric constant tensor:
#      x y z
#    x 1.580310 0.000000 0.000000 
#    y 0.000000 1.795590 0.000000 
#    z 0.000000 0.000000 1.745520 
# 
# From -- ./inp_files/29496.got.cif
#   From: 2010.05.17/outbox.cif.g08.bks.cpg/sg51_15_cif.got.tgz:29496.got - 2010.06.03 11:52:47.
