data_PCOD9399760
_publ_section_title
;
Structure prediction by ZEFSAII (Michael W. Deem and Ramdas Pophale) SiO2 
 PCOD9399760
Probable space group: P M M A
;
_chemical_formula_sum "Si O2"
_cell_formula_units_Z 48
_cell_length_a 8.389946
_cell_length_b 15.771495
_cell_length_c 18.292110
_cell_angle_alpha 90.000000
_cell_angle_beta 90.000000
_cell_angle_gamma 90.000000
_cell_volume 2420.448422
_symmetry_space_group_name_H-M "P M M A"
_symmetry_group_IT_number 51
_symmetry_cell_setting 'orthorhombic'
loop_
_space_group_symop_operation_xyz
x,y,z
1/2-x,-y,z
1/2+x,-y,-z
-x,y,-z
-x,-y,-z
1/2+x,y,-z
1/2-x,y,z
x,-y,z
loop_
_atom_site_type_symbol
_atom_site_label
_atom_site_fract_x
_atom_site_fract_y
_atom_site_fract_z
Si Si1 0.436001 0.667417 0.168543
Si Si2 0.057991 0.590930 0.582537
Si Si3 0.560757 0.500000 0.085104
Si Si4 0.559887 0.824334 0.082514
Si Si5 0.440966 0.000000 0.084764
Si Si6 0.057074 0.902231 0.582148
Si Si7 0.557325 0.745447 0.320798
O O1 0.250000 0.651727 0.179238
O O2 0.508368 0.582859 0.131714
O O3 0.469511 0.744044 0.113551
O O4 0.506398 0.707331 0.243020
O O5 0.250000 0.593058 0.583548
O O6 0.007979 0.500000 0.615775
O O7 0.999586 0.673280 0.623465
O O8 0.000000 0.592518 0.500000
O O9 0.750000 0.500000 0.080189
O O10 0.500000 0.500000 0.000000
O O11 0.750000 0.814097 0.086981
O O12 0.509060 0.913599 0.118853
O O13 0.500000 0.830640 0.000000
O O14 0.250000 0.000000 0.085243
O O15 0.500000 0.000000 0.000000
O O16 0.250000 0.900949 0.580993
O O17 0.003978 0.835736 0.644979
O O18 0.000000 0.877974 0.500000
O O19 0.005807 0.000000 0.595317
O O20 0.750000 0.748697 0.319692
#
# Coordination Sequence:
#
# PCOD9399760 Si02
#       7
#     8   8   4   8   4   8   8
#     4  12  26  43  62  91 124 160 205 256 312 370
#     4   9  18  32  52  79 109 146 190 238 290 353
#     4  12  26  48  74  98 125 160 205 256 310 378
#     4  11  21  38  62  89 120 159 201 247 301 361
#     4  10  18  32  56  88 120 152 191 240 291 348
#     4   9  18  34  58  87 120 161 211 264 312 368
#     4  10  21  37  56  82 118 160 203 250 310 369
#
# _framework density 19.831036000000001
#
# number of rings (size 3 to 8) (size 9 to 14) (size 15 to 20)
#    0.000    1.667    0.000    6.500    1.167    1.333 
#    1.500    0.000    0.000    0.000    0.000    0.000 
#    0.000    0.000    0.000    0.000    0.000    0.000 
#
# Total GULP energy -267648.327418 kJ/mol
# GULP energy per Si atom -5576.006821 kJ/mol
# Density = 1.978590 g / cm^3
# Si number density = 19.831036 Si / 1000 Ang^3
#
#
#
# Elastic Constant Matrix: (Units=GPa)
#
#
# Indices 1 2 3 4 5 6 
#
# 1 42.9291 13.0351 10.7721 0.0000 0.0000 0.0000
# 2 13.0351 170.8587 76.8955 0.0000 0.0000 0.0000
# 3 10.7721 76.8955 97.3080 0.0000 0.0000 0.0000
# 4 0.0000 0.0000 0.0000 22.9887 0.0000 0.0000
# 5 0.0000 0.0000 0.0000 0.0000 32.3869 0.0000
# 6 0.0000 0.0000 0.0000 0.0000 0.0000 42.6286
#
#
#
# Elastic Compliance Matrix: (Units=1/GPa)
#
#
# Indices 1 2 3 4 5 6 
#
# 1 0.024067 -0.000989 -0.001883 0.000000 0.000000 0.000000
# 2 -0.000989 0.009124 -0.007100 0.000000 0.000000 0.000000
# 3 -0.001883 -0.007100 0.016096 0.000000 0.000000 0.000000
# 4 0.000000 0.000000 0.000000 0.043500 0.000000 0.000000
# 5 0.000000 0.000000 0.000000 0.000000 0.030877 0.000000
# 6 0.000000 0.000000 0.000000 0.000000 0.000000 0.023458
#
#
# Mechanical properties :
#
#
# Convention : Reuss Voigt Hill
#
# Bulk Modulus (GPa) = 34.08010 56.94457 45.51234
# Shear Modulus (GPa) = 28.27311 33.62705 30.95008
#
# Velocity S-wave (km/s) = 3.77994 4.12233 3.95484
# Velocity P-wave (km/s) = 6.02272 7.17184 6.62225
#
# Compressibility (1/GPa) = 0.02934264
#
# Stress axis : x y z
#
# Youngs Moduli (GPa) = 41.55078 109.60371 62.12712
#
# Poissons Ratio (x) = 0.10836 0.11698
# Poissons Ratio (y) = 0.04108 0.44113
# Poissons Ratio (z) = 0.07824 0.77823
#
# Static dielectric constant tensor:
#      x y z
#    x 1.677320 0.000000 0.000000 
#    y 0.000000 1.768230 0.000000 
#    z 0.000000 0.000000 1.676790 
# 
# From -- ./inp_files/27684.got.cif
#   From: 2010.05.17/outbox.cif.g08.bks.cpg/sg51_14_cif.got.tgz:27684.got - 2010.06.03 11:52:47.
