data_PCOD9399602
_publ_section_title
;
Structure prediction by ZEFSAII (Michael W. Deem and Ramdas Pophale) SiO2 
 PCOD9399602
Probable space group: P M M A
;
_chemical_formula_sum "Si O2"
_cell_formula_units_Z 64
_cell_length_a 7.976379
_cell_length_b 20.676649
_cell_length_c 20.760554
_cell_angle_alpha 90.000000
_cell_angle_beta 90.000000
_cell_angle_gamma 90.000000
_cell_volume 3423.929985
_symmetry_space_group_name_H-M "P M M A"
_symmetry_group_IT_number 51
_symmetry_cell_setting 'orthorhombic'
loop_
_space_group_symop_operation_xyz
x,y,z
1/2-x,-y,z
1/2+x,-y,-z
-x,y,-z
-x,-y,-z
1/2+x,y,-z
1/2-x,y,z
x,-y,z
loop_
_atom_site_type_symbol
_atom_site_label
_atom_site_fract_x
_atom_site_fract_y
_atom_site_fract_z
Si Si1 0.439974 0.601038 0.069659
Si Si2 0.954292 0.290922 0.246908
Si Si3 0.949842 0.881511 0.931582
Si Si4 0.552841 0.738522 0.100667
Si Si5 0.953160 0.072145 0.792115
Si Si6 0.551377 0.169593 0.318331
Si Si7 0.447457 0.570041 0.789248
Si Si8 0.452582 0.072916 0.573982
O O1 0.250000 0.580978 0.079423
O O2 0.453469 0.679178 0.069960
O O3 0.537902 0.579250 0.133410
O O4 0.500000 0.578050 0.000000
O O5 0.750000 0.293120 0.250956
O O6 0.992389 0.261417 0.176444
O O7 0.016654 0.240741 0.300579
O O8 0.017016 0.364875 0.243864
O O9 0.750000 0.878401 0.929580
O O10 0.005965 0.916457 0.866138
O O11 0.018546 0.808474 0.927826
O O12 0.000000 0.911201 0.000000
O O13 0.750000 0.723110 0.094914
O O14 0.750000 0.076680 0.789559
O O15 0.027374 0.125285 0.744744
O O16 0.002383 0.000000 0.771514
O O17 0.750000 0.177464 0.329734
O O18 0.481733 0.127951 0.377802
O O19 0.250000 0.568551 0.774113
O O20 0.520993 0.500000 0.772087
O O21 0.500000 0.085045 0.500000
O O22 0.250000 0.072126 0.578589
O O23 0.511971 0.000000 0.590982
#
# Coordination Sequence:
#
# PCOD9399602 Si02
#       8
#     8   8   8   8   8   8   8   8
#     4  11  21  32  46  65  89 117 153 195 242 298
#     4   8  15  28  49  73  94 117 150 195 240 281
#     4  11  22  34  48  65  87 117 156 202 255 305
#     4  10  18  32  50  68  90 116 150 194 249 302
#     4  10  22  37  50  68  95 124 158 203 253 300
#     4  10  18  32  54  78 100 127 166 206 242 286
#     4   9  18  33  50  68  93 124 154 190 241 299
#     4   9  18  31  48  73 106 141 172 201 236 284
#
# _framework density 18.691970999999999
#
# number of rings (size 3 to 8) (size 9 to 14) (size 15 to 20)
#    0.000    2.250    1.250    3.375    0.000    2.500 
#    0.000    1.250    0.000    0.000    0.000    0.000 
#    0.000    0.500    0.000    0.375    0.000    0.750 
#
# Total GULP energy -357120.979665 kJ/mol
# GULP energy per Si atom -5580.015307 kJ/mol
# Density = 1.864943 g / cm^3
# Si number density = 18.691971 Si / 1000 Ang^3
#
#
#
# Elastic Constant Matrix: (Units=GPa)
#
#
# Indices 1 2 3 4 5 6 
#
# 1 21.2614 -2.1596 0.1923 0.0000 0.0000 0.0000
# 2 -2.1596 131.7842 54.8904 0.0000 0.0000 0.0000
# 3 0.1923 54.8904 83.3036 0.0000 0.0000 0.0000
# 4 0.0000 0.0000 0.0000 -8.6565 0.0000 0.0000
# 5 0.0000 0.0000 0.0000 0.0000 16.5719 0.0000
# 6 0.0000 0.0000 0.0000 0.0000 0.0000 -3.4135
#
#
#
# Elastic Compliance Matrix: (Units=1/GPa)
#
#
# Indices 1 2 3 4 5 6 
#
# 1 0.047156 0.001128 -0.000852 0.000000 0.000000 0.000000
# 2 0.001128 0.010485 -0.006912 0.000000 0.000000 0.000000
# 3 -0.000852 -0.006912 0.016561 0.000000 0.000000 0.000000
# 4 0.000000 0.000000 0.000000 -0.115520 0.000000 0.000000
# 5 0.000000 0.000000 0.000000 0.000000 0.060343 0.000000
# 6 0.000000 0.000000 0.000000 0.000000 0.000000 -0.292958
#
#
# Mechanical properties :
#
#
# Convention : Reuss Voigt Hill
#
# Bulk Modulus (GPa) = 16.41230 38.02171 27.21700
# Shear Modulus (GPa) = -20.80295 13.12878 -3.83709
#
# Velocity S-wave (km/s) = -3.33969 2.65311 -1.43431
# Velocity P-wave (km/s) = 2.46412 5.45625 3.44230
#
# Compressibility (1/GPa) = 0.06092992
#
# Stress axis : x y z
#
# Youngs Moduli (GPa) = 21.20628 95.36990 60.38460
#
# Poissons Ratio (x) = -0.10753 0.05144
# Poissons Ratio (y) = -0.02391 0.41736
# Poissons Ratio (z) = 0.01806 0.65917
#
# Static dielectric constant tensor:
#      x y z
#    x 1.670040 0.000000 0.000000 
#    y 0.000000 1.693320 0.000000 
#    z 0.000000 0.000000 1.636230 
# 
# From -- ./inp_files/28374.got.cif
#   From: 2010.05.17/outbox.cif.g08.bks.cpg/sg51_15_cif.got.tgz:28374.got - 2010.06.03 11:52:47.
