data_PCOD9399668
_publ_section_title
;
Structure prediction by ZEFSAII (Michael W. Deem and Ramdas Pophale) SiO2 
 PCOD9399668
Probable space group: P M M A
;
_chemical_formula_sum "Si O2"
_cell_formula_units_Z 36
_cell_length_a 8.524781
_cell_length_b 16.518319
_cell_length_c 13.866299
_cell_angle_alpha 90.000000
_cell_angle_beta 90.000000
_cell_angle_gamma 90.000000
_cell_volume 1952.583614
_symmetry_space_group_name_H-M "P M M A"
_symmetry_group_IT_number 51
_symmetry_cell_setting 'orthorhombic'
loop_
_space_group_symop_operation_xyz
x,y,z
1/2-x,-y,z
1/2+x,-y,-z
-x,y,-z
-x,-y,-z
1/2+x,y,-z
1/2-x,y,z
x,-y,z
loop_
_atom_site_type_symbol
_atom_site_label
_atom_site_fract_x
_atom_site_fract_y
_atom_site_fract_z
Si Si1 0.937940 0.590778 0.198871
Si Si2 0.937413 0.751186 0.895832
Si Si3 0.559387 0.168704 0.699291
Si Si4 0.561688 0.663039 0.605163
Si Si5 0.940442 0.000000 0.608872
O O1 0.750000 0.595855 0.195245
O O2 0.986650 0.500000 0.171391
O O3 0.008325 0.660735 0.131966
O O4 0.993729 0.609768 0.307806
O O5 0.750000 0.752579 0.897041
O O6 0.992238 0.807847 0.807264
O O7 0.000000 0.774918 0.000000
O O8 0.750000 0.167195 0.700016
O O9 0.514388 0.244060 0.630837
O O10 0.505335 0.082083 0.661465
O O11 0.500000 0.640542 0.500000
O O12 0.750000 0.658186 0.607552
O O13 0.000000 0.000000 0.500000
O O14 0.750000 0.000000 0.608674
#
# Coordination Sequence:
#
# PCOD9399668 Si02
#       5
#     8   8   8   8   4
#     4  10  21  36  53  75 101 130 168 213 259 307
#     4  10  20  36  56  77 101 133 171 209 255 305
#     4   8  17  32  51  75 103 135 170 209 251 298
#     4  10  19  32  50  73 102 138 176 211 254 305
#     4  10  18  32  53  78 108 138 169 206 249 294
#
# _framework density 18.437111000000002
#
# number of rings (size 3 to 8) (size 9 to 14) (size 15 to 20)
#    0.000    2.444    0.000    4.000    0.000    2.667 
#    0.000    6.111    0.000    0.000    0.000    0.000 
#    0.000    0.000    0.000    0.000    0.000    0.000 
#
# Total GULP energy -200905.980317 kJ/mol
# GULP energy per Si atom -5580.721675 kJ/mol
# Density = 1.839515 g / cm^3
# Si number density = 18.437111 Si / 1000 Ang^3
#
#
#
# Elastic Constant Matrix: (Units=GPa)
#
#
# Indices 1 2 3 4 5 6 
#
# 1 33.7756 13.5590 12.3375 0.0000 0.0000 0.0000
# 2 13.5590 99.8521 25.8301 0.0000 0.0000 0.0000
# 3 12.3375 25.8301 99.4197 0.0000 0.0000 0.0000
# 4 0.0000 0.0000 0.0000 18.3732 0.0000 0.0000
# 5 0.0000 0.0000 0.0000 0.0000 33.5206 0.0000
# 6 0.0000 0.0000 0.0000 0.0000 0.0000 15.8955
#
#
#
# Elastic Compliance Matrix: (Units=1/GPa)
#
#
# Indices 1 2 3 4 5 6 
#
# 1 0.032161 -0.003575 -0.003062 0.000000 0.000000 0.000000
# 2 -0.003575 0.011134 -0.002449 0.000000 0.000000 0.000000
# 3 -0.003062 -0.002449 0.011075 0.000000 0.000000 0.000000
# 4 0.000000 0.000000 0.000000 0.054427 0.000000 0.000000
# 5 0.000000 0.000000 0.000000 0.000000 0.029832 0.000000
# 6 0.000000 0.000000 0.000000 0.000000 0.000000 0.062911
#
#
# Mechanical properties :
#
#
# Convention : Reuss Voigt Hill
#
# Bulk Modulus (GPa) = 27.62666 37.38895 32.50780
# Shear Modulus (GPa) = 21.57239 25.64592 23.60915
#
# Velocity S-wave (km/s) = 3.42431 3.73365 3.58232
# Velocity P-wave (km/s) = 5.53637 6.23779 5.89752
#
# Compressibility (1/GPa) = 0.03619692
#
# Stress axis : x y z
#
# Youngs Moduli (GPa) = 31.09365 89.81673 90.29639
#
# Poissons Ratio (x) = 0.32110 0.27650
# Poissons Ratio (y) = 0.11116 0.22114
# Poissons Ratio (z) = 0.09521 0.21996
#
# Static dielectric constant tensor:
#      x y z
#    x 1.623430 0.000000 0.000000 
#    y 0.000000 1.637010 0.000000 
#    z 0.000000 0.000000 1.612920 
# 
# From -- ./inp_files/20357.got.cif
#   From: 2010.05.17/outbox.cif.g08.bks.cpg/sg51_11_cif.got.tgz:20357.got - 2010.06.03 11:52:47.
