data_PCOD9399211
_publ_section_title
;
Structure prediction by ZEFSAII (Michael W. Deem and Ramdas Pophale) SiO2 
 PCOD9399211
Probable space group: P M M A
;
_chemical_formula_sum "Si O2"
_cell_formula_units_Z 56
_cell_length_a 9.069178
_cell_length_b 15.802693
_cell_length_c 30.790915
_cell_angle_alpha 90.000000
_cell_angle_beta 90.000000
_cell_angle_gamma 90.000000
_cell_volume 4412.874981
_symmetry_space_group_name_H-M "P M M A"
_symmetry_group_IT_number 51
_symmetry_cell_setting 'orthorhombic'
loop_
_space_group_symop_operation_xyz
x,y,z
1/2-x,-y,z
1/2+x,-y,-z
-x,y,-z
-x,-y,-z
1/2+x,y,-z
1/2-x,y,z
x,-y,z
loop_
_atom_site_type_symbol
_atom_site_label
_atom_site_fract_x
_atom_site_fract_y
_atom_site_fract_z
Si Si1 0.425648 0.662309 0.104361
Si Si2 0.420174 0.603157 0.632592
Si Si3 0.427194 0.170773 0.047511
Si Si4 0.425993 0.599850 0.810393
Si Si5 0.580387 0.397098 0.720684
Si Si6 0.927206 0.500000 0.953107
Si Si7 0.428168 0.000000 0.951688
Si Si8 0.579911 0.396882 0.544178
O O1 0.250000 0.655289 0.112475
O O2 0.451820 0.748712 0.078242
O O3 0.509626 0.652297 0.149581
O O4 0.469357 0.583385 0.073853
O O5 0.250000 0.628863 0.633173
O O6 0.423266 0.500000 0.632643
O O7 0.502772 0.631239 0.676254
O O8 0.498805 0.630505 0.588178
O O9 0.250000 0.157658 0.042505
O O10 0.505827 0.087116 0.066842
O O11 0.500000 0.186183 0.000000
O O12 0.250000 0.605670 0.808596
O O13 0.464890 0.500000 0.817180
O O14 0.494916 0.626924 0.764414
O O15 0.750000 0.369924 0.722264
O O16 0.578912 0.500000 0.719684
O O17 0.750000 0.500000 0.957895
O O18 0.000000 0.500000 0.000000
O O19 0.250000 0.000000 0.952942
O O20 0.500000 0.000000 0.000000
O O21 0.500000 0.369379 0.500000
O O22 0.750000 0.371016 0.544384
O O23 0.576955 0.500000 0.544144
#
# Coordination Sequence:
#
# PCOD9399211 Si02
#       8
#     8   8   8   8   8   4   4   8
#     4  10  20  32  45  59  79 104 127 152 182 217
#     4   9  15  22  31  43  58  74  97 130 165 204
#     4  10  19  31  47  66  84 103 125 151 181 216
#     4  10  19  29  41  56  72  93 121 152 182 213
#     4   9  16  25  37  49  62  82 107 138 174 211
#     4  10  20  32  44  58  78 102 128 152 177 210
#     4  10  18  30  48  66  84 104 122 148 180 214
#     4   9  15  21  28  38  53  73  96 122 158 204
#
# _framework density 12.69014
#
# number of rings (size 3 to 8) (size 9 to 14) (size 15 to 20)
#    0.000    2.429    0.714    4.071    0.000    7.429 
#    0.000    0.000    0.000    0.000    0.000    0.000 
#    0.000    0.000    0.000    0.000    0.000    0.000 
#
# Total GULP energy -312012.580638 kJ/mol
# GULP energy per Si atom -5571.653226 kJ/mol
# Density = 1.266126 g / cm^3
# Si number density = 12.690140 Si / 1000 Ang^3
#
#
#
# Elastic Constant Matrix: (Units=GPa)
#
#
# Indices 1 2 3 4 5 6 
#
# 1 95.0069 32.9107 66.5262 0.0000 0.0000 0.0000
# 2 32.9107 50.4791 29.8742 0.0000 0.0000 0.0000
# 3 66.5262 29.8742 122.3716 0.0000 0.0000 0.0000
# 4 0.0000 0.0000 0.0000 3.0368 0.0000 0.0000
# 5 0.0000 0.0000 0.0000 0.0000 27.8153 0.0000
# 6 0.0000 0.0000 0.0000 0.0000 0.0000 10.3562
#
#
#
# Elastic Compliance Matrix: (Units=1/GPa)
#
#
# Indices 1 2 3 4 5 6 
#
# 1 0.019082 -0.007366 -0.008576 0.000000 0.000000 0.000000
# 2 -0.007366 0.025999 -0.002343 0.000000 0.000000 0.000000
# 3 -0.008576 -0.002343 0.013406 0.000000 0.000000 0.000000
# 4 0.000000 0.000000 0.000000 0.329294 0.000000 0.000000
# 5 0.000000 0.000000 0.000000 0.000000 0.035951 0.000000
# 6 0.000000 0.000000 0.000000 0.000000 0.000000 0.096560
#
#
# Mechanical properties :
#
#
# Convention : Reuss Voigt Hill
#
# Bulk Modulus (GPa) = 45.62337 58.49776 52.06057
# Shear Modulus (GPa) = 8.86264 17.47810 13.17037
#
# Velocity S-wave (km/s) = 2.64557 3.71522 3.22505
# Velocity P-wave (km/s) = 6.73513 8.03747 7.41495
#
# Compressibility (1/GPa) = 0.02191859
#
# Stress axis : x y z
#
# Youngs Moduli (GPa) = 52.40595 38.46337 74.59485
#
# Poissons Ratio (x) = 0.28331 0.63969
# Poissons Ratio (y) = 0.38600 0.17476
# Poissons Ratio (z) = 0.44941 0.09011
#
# Static dielectric constant tensor:
#      x y z
#    x 1.425700 0.000000 0.000000 
#    y 0.000000 1.398410 0.000000 
#    z 0.000000 0.000000 1.406630 
# 
# From -- ./inp_files/37514.got.cif
#   From: 2010.05.17/outbox.cif.g08.bks.cpg/sg51_19_cif.got.tgz:37514.got - 2010.06.03 11:52:47.
