data_PCOD9399463
_publ_section_title
;
Structure prediction by ZEFSAII (Michael W. Deem and Ramdas Pophale) SiO2 
 PCOD9399463
Probable space group: P M M A
;
_chemical_formula_sum "Si O2"
_cell_formula_units_Z 64
_cell_length_a 18.417847
_cell_length_b 7.399623
_cell_length_c 22.432879
_cell_angle_alpha 90.000000
_cell_angle_beta 90.000000
_cell_angle_gamma 90.000000
_cell_volume 3057.267702
_symmetry_space_group_name_H-M "P M M A"
_symmetry_group_IT_number 51
_symmetry_cell_setting 'orthorhombic'
loop_
_space_group_symop_operation_xyz
x,y,z
1/2-x,-y,z
1/2+x,-y,-z
-x,y,-z
-x,-y,-z
1/2+x,y,-z
1/2-x,y,z
x,-y,z
loop_
_atom_site_type_symbol
_atom_site_label
_atom_site_fract_x
_atom_site_fract_y
_atom_site_fract_z
Si Si1 0.102259 0.720050 0.245059
Si Si2 0.167735 0.721209 0.498732
Si Si3 0.569004 0.291366 0.394297
Si Si4 0.670505 0.279794 0.877056
Si Si5 0.049668 0.282638 0.812280
Si Si6 0.832422 0.788756 0.282213
Si Si7 0.905478 0.278918 0.623630
Si Si8 0.019997 0.279329 0.066018
O O1 0.102167 0.500000 0.245025
O O2 0.153946 0.775428 0.191019
O O3 0.121545 0.779529 0.311330
O O4 0.020206 0.775462 0.226989
O O5 0.250000 0.778402 0.510235
O O6 0.167550 0.500000 0.499915
O O7 0.113993 0.786168 0.550536
O O8 0.140345 0.776718 0.433594
O O9 0.555748 0.500000 0.410362
O O10 0.618032 0.289332 0.335034
O O11 0.488920 0.216563 0.383176
O O12 0.750000 0.219416 0.896550
O O13 0.670344 0.500000 0.877996
O O14 0.601299 0.223240 0.915643
O O15 0.048298 0.500000 0.812723
O O16 0.123551 0.230366 0.779509
O O17 0.033345 0.222741 0.879976
O O18 0.750000 0.716397 0.280234
O O19 0.827752 0.000000 0.295569
O O20 0.904697 0.500000 0.624392
O O21 0.018870 0.500000 0.065808
O O22 0.000000 0.218522 0.000000
#
# Coordination Sequence:
#
# PCOD9399463 Si02
#       8
#     8   8   8   8   8   8   8   8
#     4   8  13  22  38  61  85 113 147 182 221 265
#     4   9  17  26  38  63  95 122 150 189 236 283
#     4  10  18  31  50  68  89 120 158 194 232 284
#     4   8  13  20  32  54  88 124 151 180 225 273
#     4   9  16  30  50  70  94 123 156 188 224 277
#     4  11  23  35  48  69  95 121 153 199 249 283
#     4   9  15  24  41  64  89 117 148 187 232 278
#     4   8  14  25  43  67  96 129 160 192 227 265
#
# _framework density 20.933724999999999
#
# number of rings (size 3 to 8) (size 9 to 14) (size 15 to 20)
#    0.000    3.000    1.250    2.625    0.000    3.500 
#    0.000    3.125    0.000    4.125    0.000    0.000 
#    0.000   12.000    0.000    0.000    0.000    0.000 
#
# Total GULP energy -357111.169337 kJ/mol
# GULP energy per Si atom -5579.862021 kJ/mol
# Density = 2.088608 g / cm^3
# Si number density = 20.933725 Si / 1000 Ang^3
#
#
#
# Elastic Constant Matrix: (Units=GPa)
#
#
# Indices 1 2 3 4 5 6 
#
# 1 50.4054 -7.8429 17.8349 0.0000 0.0000 0.0000
# 2 -7.8429 67.2670 -6.2365 0.0000 0.0000 0.0000
# 3 17.8349 -6.2365 134.3475 0.0000 0.0000 0.0000
# 4 0.0000 0.0000 0.0000 -34.4692 0.0000 0.0000
# 5 0.0000 0.0000 0.0000 0.0000 19.4207 0.0000
# 6 0.0000 0.0000 0.0000 0.0000 0.0000 -132.8253
#
#
#
# Elastic Compliance Matrix: (Units=1/GPa)
#
#
# Indices 1 2 3 4 5 6 
#
# 1 0.021140 0.002214 -0.002704 0.000000 0.000000 0.000000
# 2 0.002214 0.015162 0.000410 0.000000 0.000000 0.000000
# 3 -0.002704 0.000410 0.007821 0.000000 0.000000 0.000000
# 4 0.000000 0.000000 0.000000 -0.029011 0.000000 0.000000
# 5 0.000000 0.000000 0.000000 0.000000 0.051492 0.000000
# 6 0.000000 0.000000 0.000000 0.000000 0.000000 -0.007529
#
#
# Mechanical properties :
#
#
# Convention : Reuss Voigt Hill
#
# Bulk Modulus (GPa) = 22.74547 28.83676 25.79112
# Shear Modulus (GPa) = 67.66866 -13.02381 27.32243
#
# Velocity S-wave (km/s) = 5.69169 -2.49699 3.61666
# Velocity P-wave (km/s) = 7.35411 2.34348 5.45778
#
# Compressibility (1/GPa) = 0.04396479
#
# Stress axis : x y z
#
# Youngs Moduli (GPa) = 47.30301 65.95312 127.85553
#
# Poissons Ratio (x) = -0.14603 0.34568
# Poissons Ratio (y) = -0.10474 -0.05241
# Poissons Ratio (z) = 0.12789 -0.02703
#
# Static dielectric constant tensor:
#      x y z
#    x 1.726650 0.000000 0.000000 
#    y 0.000000 1.808780 0.000000 
#    z 0.000000 0.000000 1.721290 
# 
# From -- ./inp_files/33821.got.cif
#   From: 2010.05.17/outbox.cif.g08.bks.cpg/sg51_17_cif.got.tgz:33821.got - 2010.06.03 11:52:47.
