data_PCOD9399932
_publ_section_title
;
Structure prediction by ZEFSAII (Michael W. Deem and Ramdas Pophale) SiO2 
 PCOD9399932
Probable space group: P M M A
;
_chemical_formula_sum "Si O2"
_cell_formula_units_Z 48
_cell_length_a 30.728176
_cell_length_b 7.486306
_cell_length_c 10.399588
_cell_angle_alpha 90.000000
_cell_angle_beta 90.000000
_cell_angle_gamma 90.000000
_cell_volume 2392.326718
_symmetry_space_group_name_H-M "P M M A"
_symmetry_group_IT_number 51
_symmetry_cell_setting 'orthorhombic'
loop_
_space_group_symop_operation_xyz
x,y,z
1/2-x,-y,z
1/2+x,-y,-z
-x,y,-z
-x,-y,-z
1/2+x,y,-z
1/2-x,y,z
x,-y,z
loop_
_atom_site_type_symbol
_atom_site_label
_atom_site_fract_x
_atom_site_fract_y
_atom_site_fract_z
Si Si1 0.654161 0.782926 0.401381
Si Si2 0.963421 0.500000 0.110304
Si Si3 0.403348 0.215298 0.351278
Si Si4 0.111418 0.215955 0.870539
Si Si5 0.750000 0.798217 0.455406
Si Si6 0.250000 0.303864 0.260680
Si Si7 0.338338 0.213903 0.122831
Si Si8 0.978071 0.500000 0.638654
O O1 0.625318 0.731938 0.524404
O O2 0.630728 0.735125 0.268693
O O3 0.703809 0.716971 0.413763
O O4 0.656163 0.000000 0.405761
O O5 0.012894 0.500000 0.752345
O O6 0.932166 0.326917 0.102370
O O7 0.000000 0.500000 0.000000
O O8 0.375361 0.263035 0.225527
O O9 0.447456 0.326084 0.350121
O O10 0.410026 0.000000 0.353555
O O11 0.104455 0.000000 0.874833
O O12 0.146111 0.264849 0.981260
O O13 0.750000 0.812541 0.610728
O O14 0.750000 0.000000 0.401155
O O15 0.250000 0.500000 0.318054
O O16 0.292409 0.281309 0.173814
O O17 0.335027 0.000000 0.125212
O O18 0.000000 0.500000 0.500000
#
# Coordination Sequence:
#
# PCOD9399932 Si02
#       8
#     8   4   8   8   4   4   8   4
#     4   9  18  35  61  89 122 163 200 245 297 349
#     4  12  26  44  66  89 118 158 196 257 316 370
#     4  10  21  38  62  88 120 158 198 250 304 358
#     4  10  23  42  64  90 121 161 202 246 308 366
#     4  10  18  35  60  88 123 161 207 240 282 352
#     4  12  24  33  56  96 129 161 205 254 288 338
#     4  10  21  39  62  87 120 162 202 246 292 348
#     4  12  26  40  62  91 116 154 198 253 314 370
#
# _framework density 20.064147999999999
#
# number of rings (size 3 to 8) (size 9 to 14) (size 15 to 20)
#    0.000    1.667    1.667    2.750    2.333    2.000 
#    1.500    2.500    0.000    0.000    0.000    0.000 
#    0.000    0.000    0.000    0.000    0.000    0.000 
#
# Total GULP energy -268213.606187 kJ/mol
# GULP energy per Si atom -5587.783462 kJ/mol
# Density = 2.001848 g / cm^3
# Si number density = 20.064148 Si / 1000 Ang^3
#
#
#
# Elastic Constant Matrix: (Units=GPa)
#
#
# Indices 1 2 3 4 5 6 
#
# 1 99.1489 30.8319 10.6534 0.0000 0.0000 0.0000
# 2 30.8319 72.0022 11.0114 0.0000 0.0000 0.0000
# 3 10.6534 11.0114 89.3790 0.0000 0.0000 0.0000
# 4 0.0000 0.0000 0.0000 7.4011 0.0000 0.0000
# 5 0.0000 0.0000 0.0000 0.0000 34.5172 0.0000
# 6 0.0000 0.0000 0.0000 0.0000 0.0000 70.5827
#
#
#
# Elastic Compliance Matrix: (Units=1/GPa)
#
#
# Indices 1 2 3 4 5 6 
#
# 1 0.011690 -0.004885 -0.000792 0.000000 0.000000 0.000000
# 2 -0.004885 0.016196 -0.001413 0.000000 0.000000 0.000000
# 3 -0.000792 -0.001413 0.011457 0.000000 0.000000 0.000000
# 4 0.000000 0.000000 0.000000 0.135114 0.000000 0.000000
# 5 0.000000 0.000000 0.000000 0.000000 0.028971 0.000000
# 6 0.000000 0.000000 0.000000 0.000000 0.000000 0.014168
#
#
# Mechanical properties :
#
#
# Convention : Reuss Voigt Hill
#
# Bulk Modulus (GPa) = 39.73910 40.61372 40.17641
# Shear Modulus (GPa) = 20.81923 36.36911 28.59417
#
# Velocity S-wave (km/s) = 3.22473 4.26213 3.77919
# Velocity P-wave (km/s) = 5.80639 6.67135 6.25384
#
# Compressibility (1/GPa) = 0.02516413
#
# Stress axis : x y z
#
# Youngs Moduli (GPa) = 85.54432 61.74284 87.28476
#
# Poissons Ratio (x) = 0.30159 0.06909
# Poissons Ratio (y) = 0.41785 0.12335
# Poissons Ratio (z) = 0.06771 0.08725
#
# Static dielectric constant tensor:
#      x y z
#    x 1.674110 0.000000 0.000000 
#    y 0.000000 1.744590 0.000000 
#    z 0.000000 0.000000 1.674630 
# 
# From -- ./inp_files/13006.got.cif
#   From: 2010.05.17/outbox.cif.g08.bks.cpg/sg51_7_cif.got.tgz:13006.got - 2010.06.03 11:52:47.
