data_PCOD9399042
_publ_section_title
;
Structure prediction by ZEFSAII (Michael W. Deem and Ramdas Pophale) SiO2 
 PCOD9399042
Probable space group: P M M A
;
_chemical_formula_sum "Si O2"
_cell_formula_units_Z 56
_cell_length_a 8.476218
_cell_length_b 19.666500
_cell_length_c 19.335352
_cell_angle_alpha 90.000000
_cell_angle_beta 90.000000
_cell_angle_gamma 90.000000
_cell_volume 3223.155639
_symmetry_space_group_name_H-M "P M M A"
_symmetry_group_IT_number 51
_symmetry_cell_setting 'orthorhombic'
loop_
_space_group_symop_operation_xyz
x,y,z
1/2-x,-y,z
1/2+x,-y,-z
-x,y,-z
-x,-y,-z
1/2+x,y,-z
1/2-x,y,z
x,-y,z
loop_
_atom_site_type_symbol
_atom_site_label
_atom_site_fract_x
_atom_site_fract_y
_atom_site_fract_z
Si Si1 0.557477 0.291284 0.289477
Si Si2 0.942664 0.576564 0.208910
Si Si3 0.060845 0.073347 0.420879
Si Si4 0.938002 0.783580 0.421961
Si Si5 0.060262 0.340309 0.923927
Si Si6 0.938806 0.077746 0.922767
Si Si7 0.440381 0.793934 0.843171
O O1 0.750000 0.291367 0.289419
O O2 0.506713 0.365341 0.262883
O O3 0.504768 0.270985 0.365953
O O4 0.510549 0.235086 0.231966
O O5 0.750000 0.575785 0.210043
O O6 0.997432 0.500000 0.221830
O O7 0.989948 0.604785 0.133506
O O8 0.250000 0.078722 0.421364
O O9 0.000000 0.071466 0.500000
O O10 0.988125 0.142426 0.392799
O O11 0.017323 0.000000 0.389105
O O12 0.750000 0.781718 0.425840
O O13 0.000000 0.775257 0.500000
O O14 0.250000 0.340214 0.924443
O O15 0.010278 0.265677 0.896760
O O16 0.000000 0.354366 0.000000
O O17 0.750000 0.078467 0.924418
O O18 0.995946 0.134011 0.868493
O O19 0.991155 0.000000 0.907131
O O20 0.000000 0.094645 0.000000
O O21 0.250000 0.797036 0.843493
#
# Coordination Sequence:
#
# PCOD9399042 Si02
#       7
#     8   8   8   8   8   8   8
#     4   8  16  30  47  68  91 117 151 188 225 270
#     4   8  14  27  47  68  90 118 151 184 217 256
#     4   9  16  26  41  62  88 116 145 177 214 258
#     4  10  18  29  47  69  93 119 150 189 230 273
#     4   9  17  27  42  67  94 118 146 181 219 259
#     4  10  20  32  46  66  91 120 157 198 235 270
#     4   9  17  31  48  64  87 118 153 192 230 270
#
# _framework density 17.374276999999999
#
# number of rings (size 3 to 8) (size 9 to 14) (size 15 to 20)
#    0.000    3.000    0.000    4.286    0.000    3.714 
#    0.000    2.143    0.000    6.429    0.000    0.000 
#    0.000    0.000    0.000    0.000    0.000    0.571 
#
# Total GULP energy -311862.672220 kJ/mol
# GULP energy per Si atom -5568.976290 kJ/mol
# Density = 1.733473 g / cm^3
# Si number density = 17.374277 Si / 1000 Ang^3
#
#
#
# Elastic Constant Matrix: (Units=GPa)
#
#
# Indices 1 2 3 4 5 6 
#
# 1 18.7982 20.0173 17.8281 0.0000 0.0000 0.0000
# 2 20.0173 141.0792 79.9715 0.0000 0.0000 0.0000
# 3 17.8281 79.9715 103.9631 0.0000 0.0000 0.0000
# 4 0.0000 0.0000 0.0000 15.1597 0.0000 0.0000
# 5 0.0000 0.0000 0.0000 0.0000 16.1442 0.0000
# 6 0.0000 0.0000 0.0000 0.0000 0.0000 10.5542
#
#
#
# Elastic Compliance Matrix: (Units=1/GPa)
#
#
# Indices 1 2 3 4 5 6 
#
# 1 0.065610 -0.005198 -0.007253 0.000000 0.000000 0.000000
# 2 -0.005198 0.012981 -0.009094 0.000000 0.000000 0.000000
# 3 -0.007253 -0.009094 0.017858 0.000000 0.000000 0.000000
# 4 0.000000 0.000000 0.000000 0.065964 0.000000 0.000000
# 5 0.000000 0.000000 0.000000 0.000000 0.061942 0.000000
# 6 0.000000 0.000000 0.000000 0.000000 0.000000 0.094749
#
#
# Mechanical properties :
#
#
# Convention : Reuss Voigt Hill
#
# Bulk Modulus (GPa) = 18.74077 55.49712 37.11894
# Shear Modulus (GPa) = 13.15865 18.10653 15.63259
#
# Velocity S-wave (km/s) = 2.75501 3.23173 3.00285
# Velocity P-wave (km/s) = 4.57493 6.77768 5.78217
#
# Compressibility (1/GPa) = 0.05335960
#
# Stress axis : x y z
#
# Youngs Moduli (GPa) = 15.24157 77.03856 55.99861
#
# Poissons Ratio (x) = 0.40045 0.40614
# Poissons Ratio (y) = 0.07923 0.50923
# Poissons Ratio (z) = 0.11054 0.70056
#
# Static dielectric constant tensor:
#      x y z
#    x 1.602560 0.000000 0.000000 
#    y 0.000000 1.618560 0.000000 
#    z 0.000000 0.000000 1.514490 
# 
# From -- ./inp_files/32254.got.cif
#   From: 2010.05.17/outbox.cif.g08.bks.cpg/sg51_17_cif.got.tgz:32254.got - 2010.06.03 11:52:47.
