data_PCOD9399169
_publ_section_title
;
Structure prediction by ZEFSAII (Michael W. Deem and Ramdas Pophale) SiO2 
 PCOD9399169
Probable space group: P M M A
;
_chemical_formula_sum "Si O2"
_cell_formula_units_Z 52
_cell_length_a 8.505261
_cell_length_b 24.143370
_cell_length_c 14.820320
_cell_angle_alpha 90.000000
_cell_angle_beta 90.000000
_cell_angle_gamma 90.000000
_cell_volume 3043.288440
_symmetry_space_group_name_H-M "P M M A"
_symmetry_group_IT_number 51
_symmetry_cell_setting 'orthorhombic'
loop_
_space_group_symop_operation_xyz
x,y,z
1/2-x,-y,z
1/2+x,-y,-z
-x,y,-z
-x,-y,-z
1/2+x,y,-z
1/2-x,y,z
x,-y,z
loop_
_atom_site_type_symbol
_atom_site_label
_atom_site_fract_x
_atom_site_fract_y
_atom_site_fract_z
Si Si1 0.058533 0.775338 0.712540
Si Si2 0.060119 0.561322 0.717983
Si Si3 0.939020 0.116817 0.397248
Si Si4 0.559803 0.333393 0.398334
Si Si5 0.438872 0.732211 0.903544
Si Si6 0.562627 0.000000 0.602934
Si Si7 0.437240 0.606361 0.096588
O O1 0.250000 0.775571 0.711781
O O2 0.007664 0.831400 0.663228
O O3 0.008083 0.721248 0.656214
O O4 0.010216 0.767243 0.816369
O O5 0.250000 0.563418 0.720747
O O6 0.012607 0.500000 0.686706
O O7 0.006256 0.611289 0.653766
O O8 0.998297 0.572116 0.818491
O O9 0.750000 0.115506 0.400414
O O10 0.000000 0.123507 0.500000
O O11 0.999566 0.058037 0.359325
O O12 0.500000 0.331999 0.500000
O O13 0.750000 0.333413 0.398905
O O14 0.250000 0.729892 0.905547
O O15 0.500432 0.669369 0.892337
O O16 0.500000 0.752903 0.000000
O O17 0.500000 0.000000 0.500000
O O18 0.750000 0.000000 0.602644
O O19 0.250000 0.607050 0.094799
O O20 0.500000 0.585895 0.000000
#
# Coordination Sequence:
#
# PCOD9399169 Si02
#       7
#     8   8   8   8   8   4   8
#     4   9  18  32  52  74 103 135 165 204 253 298
#     4  10  21  38  57  73  96 132 169 206 253 305
#     4  10  18  30  48  73 102 139 175 208 246 293
#     4  10  20  36  53  73 100 131 165 207 253 299
#     4  10  18  33  53  76 104 134 165 202 248 304
#     4  10  18  30  46  68 101 140 173 212 249 286
#     4  11  21  34  54  78 102 129 160 203 253 307
#
# _framework density 17.086780000000001
#
# number of rings (size 3 to 8) (size 9 to 14) (size 15 to 20)
#    0.000    2.000    1.538    5.308    0.000    1.538 
#    0.000    3.846    0.000    0.000    0.000    0.538 
#    0.000    0.000    0.000    0.000    0.000    0.000 
#
# Total GULP energy -290195.851540 kJ/mol
# GULP energy per Si atom -5580.689453 kJ/mol
# Density = 1.704789 g / cm^3
# Si number density = 17.086780 Si / 1000 Ang^3
#
#
#
# Elastic Constant Matrix: (Units=GPa)
#
#
# Indices 1 2 3 4 5 6 
#
# 1 39.2873 29.6837 16.6335 0.0000 0.0000 0.0000
# 2 29.6837 151.6311 78.1005 0.0000 0.0000 0.0000
# 3 16.6335 78.1005 119.0514 0.0000 0.0000 0.0000
# 4 0.0000 0.0000 0.0000 27.7865 0.0000 0.0000
# 5 0.0000 0.0000 0.0000 0.0000 25.6858 0.0000
# 6 0.0000 0.0000 0.0000 0.0000 0.0000 12.9652
#
#
#
# Elastic Compliance Matrix: (Units=1/GPa)
#
#
# Indices 1 2 3 4 5 6 
#
# 1 0.029892 -0.005589 -0.000510 0.000000 0.000000 0.000000
# 2 -0.005589 0.011006 -0.006439 0.000000 0.000000 0.000000
# 3 -0.000510 -0.006439 0.012695 0.000000 0.000000 0.000000
# 4 0.000000 0.000000 0.000000 0.035989 0.000000 0.000000
# 5 0.000000 0.000000 0.000000 0.000000 0.038932 0.000000
# 6 0.000000 0.000000 0.000000 0.000000 0.000000 0.077130
#
#
# Mechanical properties :
#
#
# Convention : Reuss Voigt Hill
#
# Bulk Modulus (GPa) = 35.06685 62.08948 48.57816
# Shear Modulus (GPa) = 20.81378 25.65764 23.23571
#
# Velocity S-wave (km/s) = 3.49395 3.87926 3.69163
# Velocity P-wave (km/s) = 6.06994 7.51542 6.83102
#
# Compressibility (1/GPa) = 0.02851696
#
# Stress axis : x y z
#
# Youngs Moduli (GPa) = 33.45340 90.86212 78.77026
#
# Poissons Ratio (x) = 0.50785 0.04016
# Poissons Ratio (y) = 0.18698 0.50721
# Poissons Ratio (z) = 0.01705 0.58507
#
# Static dielectric constant tensor:
#      x y z
#    x 1.581050 0.000000 0.000000 
#    y 0.000000 1.594740 0.000000 
#    z 0.000000 0.000000 1.562650 
# 
# From -- ./inp_files/22059.got.cif
#   From: 2010.05.17/outbox.cif.g08.bks.cpg/sg51_12_cif.got.tgz:22059.got - 2010.06.03 11:52:47.
