data_PCOD9399089
_publ_section_title
;
Structure prediction by ZEFSAII (Michael W. Deem and Ramdas Pophale) SiO2 
 PCOD9399089
Probable space group: P M M A
;
_chemical_formula_sum "Si O2"
_cell_formula_units_Z 46
_cell_length_a 15.186393
_cell_length_b 12.120690
_cell_length_c 14.091376
_cell_angle_alpha 90.000000
_cell_angle_beta 90.000000
_cell_angle_gamma 90.000000
_cell_volume 2593.793405
_symmetry_space_group_name_H-M "P M M A"
_symmetry_group_IT_number 51
_symmetry_cell_setting 'orthorhombic'
loop_
_space_group_symop_operation_xyz
x,y,z
1/2-x,-y,z
1/2+x,-y,-z
-x,y,-z
-x,-y,-z
1/2+x,y,-z
1/2-x,y,z
x,-y,z
loop_
_atom_site_type_symbol
_atom_site_label
_atom_site_fract_x
_atom_site_fract_y
_atom_site_fract_z
Si Si1 0.608068 0.000000 0.516818
Si Si2 0.604929 0.756411 0.471039
Si Si3 0.750000 0.376866 0.962158
Si Si4 0.250000 0.763886 0.217757
Si Si5 0.124579 0.374281 0.344164
Si Si6 0.420003 0.626307 0.710729
Si Si7 0.250000 0.000000 0.314749
Si Si8 0.930888 0.628078 0.075864
O O1 0.500000 0.000000 0.500000
O O2 0.635583 0.117302 0.473528
O O3 0.661021 0.000000 0.618596
O O4 0.500000 0.758072 0.500000
O O5 0.643893 0.681949 0.555047
O O6 0.623034 0.701184 0.369953
O O7 0.750000 0.500000 0.914152
O O8 0.750000 0.274793 0.890472
O O9 0.663416 0.372415 0.026224
O O10 0.332658 0.702592 0.265347
O O11 0.250000 0.890504 0.249714
O O12 0.155343 0.500000 0.340660
O O13 0.020921 0.378646 0.323928
O O14 0.384889 0.500000 0.711818
O O15 0.421598 0.673078 0.817634
O O16 0.960303 0.500000 0.091468
O O17 0.000000 0.677092 0.000000
#
# Coordination Sequence:
#
# PCOD9399089 Si02
#       8
#     4   8   4   4   8   8   2   8
#     4  10  20  38  56  75 108 148 187 226 261 314
#     4   9  17  30  50  75 106 143 182 222 264 316
#     4  10  20  34  54  81 108 136 177 226 275 324
#     4  12  22  34  51  77 106 136 175 224 279 326
#     4  10  18  29  48  78 112 140 169 216 274 329
#     4   9  17  30  51  78 107 144 183 216 266 327
#     4  12  24  40  58  82 106 142 190 226 262 326
#     4   9  17  31  50  74 107 143 178 219 266 324
#
# _framework density 17.734641
#
# number of rings (size 3 to 8) (size 9 to 14) (size 15 to 20)
#    0.000    2.261    1.739    2.348    0.000    4.870 
#    0.000    1.739    0.000    3.130    0.000    2.435 
#    0.000    0.000    0.000    0.000    0.000    0.000 
#
# Total GULP energy -256115.778957 kJ/mol
# GULP energy per Si atom -5567.734325 kJ/mol
# Density = 1.769428 g / cm^3
# Si number density = 17.734641 Si / 1000 Ang^3
#
#
#
# Elastic Constant Matrix: (Units=GPa)
#
#
# Indices 1 2 3 4 5 6 
#
# 1 47.0227 10.6881 9.4884 0.0000 0.0000 0.0000
# 2 10.6881 125.1653 53.0527 0.0000 0.0000 0.0000
# 3 9.4884 53.0527 140.1477 0.0000 0.0000 0.0000
# 4 0.0000 0.0000 0.0000 15.5059 0.0000 0.0000
# 5 0.0000 0.0000 0.0000 0.0000 2.2650 0.0000
# 6 0.0000 0.0000 0.0000 0.0000 0.0000 -20.5907
#
#
#
# Elastic Compliance Matrix: (Units=1/GPa)
#
#
# Indices 1 2 3 4 5 6 
#
# 1 0.021786 -0.001471 -0.000918 0.000000 0.000000 0.000000
# 2 -0.001471 0.009616 -0.003540 0.000000 0.000000 0.000000
# 3 -0.000918 -0.003540 0.008538 0.000000 0.000000 0.000000
# 4 0.000000 0.000000 0.000000 0.064492 0.000000 0.000000
# 5 0.000000 0.000000 0.000000 0.000000 0.441496 0.000000
# 6 0.000000 0.000000 0.000000 0.000000 0.000000 -0.048566
#
#
# Mechanical properties :
#
#
# Convention : Reuss Voigt Hill
#
# Bulk Modulus (GPa) = 35.61249 50.97710 43.29480
# Shear Modulus (GPa) = 9.64169 15.37648 12.50909
#
# Velocity S-wave (km/s) = 2.33419 2.94773 2.65872
# Velocity P-wave (km/s) = 5.23344 6.35549 5.82156
#
# Compressibility (1/GPa) = 0.02808004
#
# Stress axis : x y z
#
# Youngs Moduli (GPa) = 45.90112 103.99654 117.12757
#
# Poissons Ratio (x) = 0.15300 0.10753
# Poissons Ratio (y) = 0.06753 0.41468
# Poissons Ratio (z) = 0.04214 0.36819
#
# Static dielectric constant tensor:
#      x y z
#    x 1.695400 0.000000 0.000000 
#    y 0.000000 1.596800 0.000000 
#    z 0.000000 0.000000 1.610150 
# 
# From -- ./inp_files/17364.got.cif
#   From: 2010.05.17/outbox.cif.g08.bks.cpg/sg51_9_cif.got.tgz:17364.got - 2010.06.03 11:52:47.
