data_PCOD9399477
_publ_section_title
;
Structure prediction by ZEFSAII (Michael W. Deem and Ramdas Pophale) SiO2 
 PCOD9399477
Probable space group: P M M A
;
_chemical_formula_sum "Si O2"
_cell_formula_units_Z 56
_cell_length_a 19.325044
_cell_length_b 7.791519
_cell_length_c 17.918304
_cell_angle_alpha 90.000000
_cell_angle_beta 90.000000
_cell_angle_gamma 90.000000
_cell_volume 2697.984970
_symmetry_space_group_name_H-M "P M M A"
_symmetry_group_IT_number 51
_symmetry_cell_setting 'orthorhombic'
loop_
_space_group_symop_operation_xyz
x,y,z
1/2-x,-y,z
1/2+x,-y,-z
-x,y,-z
-x,-y,-z
1/2+x,y,-z
1/2-x,y,z
x,-y,z
loop_
_atom_site_type_symbol
_atom_site_label
_atom_site_fract_x
_atom_site_fract_y
_atom_site_fract_z
Si Si1 0.077732 0.796131 0.516050
Si Si2 0.171921 0.289926 0.970689
Si Si3 0.674036 0.199355 0.787001
Si Si4 0.953328 0.706132 0.325600
Si Si5 0.923338 0.289899 0.159635
Si Si6 0.610024 0.702180 0.640512
Si Si7 0.066998 0.697755 0.095680
O O1 0.091863 0.752082 0.601858
O O2 0.122945 0.730782 0.447117
O O3 0.000000 0.724827 0.500000
O O4 0.075595 0.000000 0.509509
O O5 0.250000 0.230547 0.984772
O O6 0.173033 0.500000 0.975218
O O7 0.143020 0.243134 0.889223
O O8 0.115923 0.227620 0.031353
O O9 0.750000 0.267194 0.807048
O O10 0.661664 0.213396 0.698774
O O11 0.613113 0.295495 0.829679
O O12 0.670253 0.000000 0.808547
O O13 0.956890 0.500000 0.322772
O O14 0.926782 0.768015 0.245393
O O15 0.032121 0.768931 0.340613
O O16 0.926391 0.500000 0.161088
O O17 0.992299 0.228379 0.116071
O O18 0.611289 0.500000 0.655144
O O19 0.054280 0.500000 0.074180
#
# Coordination Sequence:
#
# PCOD9399477 Si02
#       7
#     8   8   8   8   8   8   8
#     4   9  17  28  45  71 101 132 163 201 251 302
#     4   9  17  28  47  76 105 132 167 213 261 310
#     4  11  23  35  48  70 103 140 171 208 263 319
#     4   9  16  28  46  71  98 129 167 210 256 298
#     4   9  16  28  47  73 104 134 168 214 265 305
#     4  10  18  31  50  72  98 130 171 213 252 299
#     4  10  18  32  52  75  99 131 173 216 258 306
#
# _framework density 20.756232000000001
#
# number of rings (size 3 to 8) (size 9 to 14) (size 15 to 20)
#    0.000    2.429    1.429    2.143    0.000    5.714 
#    0.000    0.000    0.000    3.429    0.000    2.000 
#    0.000    0.000    0.000    0.000    0.000    0.000 
#
# Total GULP energy -312398.816269 kJ/mol
# GULP energy per Si atom -5578.550291 kJ/mol
# Density = 2.070899 g / cm^3
# Si number density = 20.756232 Si / 1000 Ang^3
#
#
#
# Elastic Constant Matrix: (Units=GPa)
#
#
# Indices 1 2 3 4 5 6 
#
# 1 36.8279 -1.0607 27.9207 0.0000 0.0000 0.0000
# 2 -1.0607 34.9802 -0.5256 0.0000 0.0000 0.0000
# 3 27.9207 -0.5256 132.6931 0.0000 0.0000 0.0000
# 4 0.0000 0.0000 0.0000 -19.1078 0.0000 0.0000
# 5 0.0000 0.0000 0.0000 0.0000 1.1591 0.0000
# 6 0.0000 0.0000 0.0000 0.0000 0.0000 3.3615
#
#
#
# Elastic Compliance Matrix: (Units=1/GPa)
#
#
# Indices 1 2 3 4 5 6 
#
# 1 0.032334 0.000878 -0.006800 0.000000 0.000000 0.000000
# 2 0.000878 0.028613 -0.000071 0.000000 0.000000 0.000000
# 3 -0.006800 -0.000071 0.008967 0.000000 0.000000 0.000000
# 4 0.000000 0.000000 0.000000 -0.052335 0.000000 0.000000
# 5 0.000000 0.000000 0.000000 0.000000 0.862708 0.000000
# 6 0.000000 0.000000 0.000000 0.000000 0.000000 0.297485
#
#
# Mechanical properties :
#
#
# Convention : Reuss Voigt Hill
#
# Bulk Modulus (GPa) = 17.26301 28.57444 22.91872
# Shear Modulus (GPa) = 4.13542 8.96036 6.54789
#
# Velocity S-wave (km/s) = 1.41305 2.07998 1.77806
# Velocity P-wave (km/s) = 3.31622 4.42323 3.90911
#
# Compressibility (1/GPa) = 0.05792733
#
# Stress axis : x y z
#
# Youngs Moduli (GPa) = 30.92720 34.94894 111.52314
#
# Poissons Ratio (x) = -0.03069 0.75837
# Poissons Ratio (y) = -0.02716 0.00797
# Poissons Ratio (z) = 0.21031 0.00250
#
# Static dielectric constant tensor:
#      x y z
#    x 1.718800 0.000000 0.000000 
#    y 0.000000 1.758170 0.000000 
#    z 0.000000 0.000000 1.782930 
# 
# From -- ./inp_files/30455.got.cif
#   From: 2010.05.17/outbox.cif.g08.bks.cpg/sg51_16_cif.got.tgz:30455.got - 2010.06.03 11:52:47.
