data_PCOD9399744
_publ_section_title
;
Structure prediction by ZEFSAII (Michael W. Deem and Ramdas Pophale) SiO2 
 PCOD9399744
Probable space group: P M M A
;
_chemical_formula_sum "Si O2"
_cell_formula_units_Z 32
_cell_length_a 20.005841
_cell_length_b 8.596141
_cell_length_c 10.507802
_cell_angle_alpha 90.000000
_cell_angle_beta 90.000000
_cell_angle_gamma 90.000000
_cell_volume 1807.058549
_symmetry_space_group_name_H-M "P M M A"
_symmetry_group_IT_number 51
_symmetry_cell_setting 'orthorhombic'
loop_
_space_group_symop_operation_xyz
x,y,z
1/2-x,-y,z
1/2+x,-y,-z
-x,y,-z
-x,-y,-z
1/2+x,y,-z
1/2-x,y,z
x,-y,z
loop_
_atom_site_type_symbol
_atom_site_label
_atom_site_fract_x
_atom_site_fract_y
_atom_site_fract_z
Si Si1 0.324623 0.689445 0.519166
Si Si2 0.538945 0.814318 0.874658
Si Si3 0.674337 0.312363 0.776659
Si Si4 0.538569 0.312743 0.368552
O O1 0.250000 0.740139 0.555940
O O2 0.325157 0.500000 0.519597
O O3 0.336411 0.734634 0.371592
O O4 0.385153 0.739868 0.608488
O O5 0.614218 0.751485 0.860480
O O6 0.498078 0.762097 0.750333
O O7 0.541797 0.000000 0.879078
O O8 0.500000 0.757243 0.000000
O O9 0.750000 0.264821 0.812450
O O10 0.671989 0.500000 0.779524
O O11 0.500000 0.278967 0.500000
O O12 0.537120 0.500000 0.351974
#
# Coordination Sequence:
#
# PCOD9399744 Si02
#       4
#     8   8   8   8
#     4   8  14  27  50  80 109 132 162 215 277 325
#     4  11  24  38  51  74 112 153 185 216 262 318
#     4   9  17  33  58  83 105 133 175 225 271 318
#     4  10  18  32  56  82 105 134 176 225 277 319
#
# _framework density 17.708335999999999
#
# number of rings (size 3 to 8) (size 9 to 14) (size 15 to 20)
#    0.000    2.500    2.500    2.250    0.000    3.000 
#    0.000    1.250    0.000    5.250    0.000    0.000 
#    0.000    0.000    0.000    0.000    0.000    0.000 
#
# Total GULP energy -178420.500388 kJ/mol
# GULP energy per Si atom -5575.640637 kJ/mol
# Density = 1.766803 g / cm^3
# Si number density = 17.708336 Si / 1000 Ang^3
#
#
#
# Elastic Constant Matrix: (Units=GPa)
#
#
# Indices 1 2 3 4 5 6 
#
# 1 180.9385 31.3768 71.7396 0.0000 0.0000 0.0000
# 2 31.3768 12.7406 24.5758 0.0000 0.0000 0.0000
# 3 71.7396 24.5758 86.2299 0.0000 0.0000 0.0000
# 4 0.0000 0.0000 0.0000 22.3181 0.0000 0.0000
# 5 0.0000 0.0000 0.0000 0.0000 28.0882 0.0000
# 6 0.0000 0.0000 0.0000 0.0000 0.0000 -3.4449
#
#
#
# Elastic Compliance Matrix: (Units=1/GPa)
#
#
# Indices 1 2 3 4 5 6 
#
# 1 0.009958 -0.018974 -0.002877 0.000000 0.000000 0.000000
# 2 -0.018974 0.210480 -0.044202 0.000000 0.000000 0.000000
# 3 -0.002877 -0.044202 0.026588 0.000000 0.000000 0.000000
# 4 0.000000 0.000000 0.000000 0.044807 0.000000 0.000000
# 5 0.000000 0.000000 0.000000 0.000000 0.035602 0.000000
# 6 0.000000 0.000000 0.000000 0.000000 0.000000 -0.290284
#
#
# Mechanical properties :
#
#
# Convention : Reuss Voigt Hill
#
# Bulk Modulus (GPa) = 8.70171 59.47704 34.08937
# Shear Modulus (GPa) = 24.08930 19.54008 21.81469
#
# Velocity S-wave (km/s) = 3.69228 3.32541 3.51363
# Velocity P-wave (km/s) = 4.80643 6.95733 5.97939
#
# Compressibility (1/GPa) = 0.11492000
#
# Stress axis : x y z
#
# Youngs Moduli (GPa) = 100.42579 4.75106 37.61133
#
# Poissons Ratio (x) = 0.09015 0.10819
# Poissons Ratio (y) = 1.90549 1.66248
# Poissons Ratio (z) = 0.28889 0.21000
#
# Static dielectric constant tensor:
#      x y z
#    x 1.635690 0.000000 0.000000 
#    y 0.000000 1.604420 0.000000 
#    z 0.000000 0.000000 1.574240 
# 
# From -- ./inp_files/10268.got.cif
#   From: 2010.05.17/outbox.cif.g08.bks.cpg/sg51_6_cif.got.tgz:10268.got - 2010.06.03 11:52:47.
