data_PCOD9399283
_publ_section_title
;
Structure prediction by ZEFSAII (Michael W. Deem and Ramdas Pophale) SiO2 
 PCOD9399283
Probable space group: P M M A
;
_chemical_formula_sum "Si O2"
_cell_formula_units_Z 64
_cell_length_a 21.592692
_cell_length_b 7.844428
_cell_length_c 18.251650
_cell_angle_alpha 90.000000
_cell_angle_beta 90.000000
_cell_angle_gamma 90.000000
_cell_volume 3091.506779
_symmetry_space_group_name_H-M "P M M A"
_symmetry_group_IT_number 51
_symmetry_cell_setting 'orthorhombic'
loop_
_space_group_symop_operation_xyz
x,y,z
1/2-x,-y,z
1/2+x,-y,-z
-x,y,-z
-x,-y,-z
1/2+x,y,-z
1/2-x,y,z
x,-y,z
loop_
_atom_site_type_symbol
_atom_site_label
_atom_site_fract_x
_atom_site_fract_y
_atom_site_fract_z
Si Si1 0.532999 0.704178 0.201731
Si Si2 0.613230 0.794300 0.784174
Si Si3 0.816688 0.203620 0.471048
Si Si4 0.678072 0.791558 0.936272
Si Si5 0.348255 0.191586 0.370339
Si Si6 0.903312 0.689043 0.338850
Si Si7 0.028051 0.306519 0.424743
Si Si8 0.063975 0.794954 0.963232
O O1 0.534172 0.500000 0.209821
O O2 0.460416 0.754245 0.211969
O O3 0.582219 0.777098 0.261412
O O4 0.556895 0.752343 0.121700
O O5 0.648837 0.739737 0.857726
O O6 0.647784 0.727440 0.710481
O O7 0.617003 0.000000 0.780270
O O8 0.750000 0.256970 0.442170
O O9 0.822589 0.273059 0.554419
O O10 0.865984 0.241472 0.408284
O O11 0.818470 0.000000 0.480881
O O12 0.750000 0.736578 0.945442
O O13 0.679100 0.000000 0.937078
O O14 0.627195 0.735420 0.996973
O O15 0.420222 0.187840 0.392457
O O16 0.322534 0.000000 0.362818
O O17 0.877153 0.500000 0.325812
O O18 0.972922 0.677089 0.368687
O O19 0.052433 0.500000 0.439087
O O20 0.000000 0.240248 0.500000
O O21 0.063826 0.000000 0.971599
O O22 0.000000 0.730235 0.000000
#
# Coordination Sequence:
#
# PCOD9399283 Si02
#       8
#     8   8   8   8   8   8   8   8
#     4  11  22  35  55  85 115 142 179 230 284 330
#     4  10  19  33  54  83 115 146 180 220 271 332
#     4  10  22  38  53  74 107 146 188 232 278 328
#     4   9  18  34  57  83 111 145 183 220 263 323
#     4  10  20  31  50  79 109 139 173 218 271 323
#     4  10  21  36  54  77 105 141 183 227 274 324
#     4  10  18  30  49  73 101 132 170 217 264 310
#     4  10  19  35  59  86 115 146 184 227 270 327
#
# _framework density 20.701879000000002
#
# number of rings (size 3 to 8) (size 9 to 14) (size 15 to 20)
#    0.000    2.000    3.750    0.375    0.000    2.750 
#    0.000    3.125    0.000    3.750    0.000    1.750 
#    0.000    0.000    0.000    0.000    0.000    0.000 
#
# Total GULP energy -356384.474998 kJ/mol
# GULP energy per Si atom -5568.507422 kJ/mol
# Density = 2.065476 g / cm^3
# Si number density = 20.701879 Si / 1000 Ang^3
#
#
#
# Elastic Constant Matrix: (Units=GPa)
#
#
# Indices 1 2 3 4 5 6 
#
# 1 130.7529 14.4692 68.9899 0.0000 0.0000 0.0000
# 2 14.4692 24.2161 1.1341 0.0000 0.0000 0.0000
# 3 68.9899 1.1341 176.9405 0.0000 0.0000 0.0000
# 4 0.0000 0.0000 0.0000 -5.3857 0.0000 0.0000
# 5 0.0000 0.0000 0.0000 0.0000 1.0797 0.0000
# 6 0.0000 0.0000 0.0000 0.0000 0.0000 24.0462
#
#
#
# Elastic Compliance Matrix: (Units=1/GPa)
#
#
# Indices 1 2 3 4 5 6 
#
# 1 0.010446 -0.006053 -0.004034 0.000000 0.000000 0.000000
# 2 -0.006053 0.044814 0.002073 0.000000 0.000000 0.000000
# 3 -0.004034 0.002073 0.007211 0.000000 0.000000 0.000000
# 4 0.000000 0.000000 0.000000 -0.185676 0.000000 0.000000
# 5 0.000000 0.000000 0.000000 0.000000 0.926197 0.000000
# 6 0.000000 0.000000 0.000000 0.000000 0.000000 0.041587
#
#
# Mechanical properties :
#
#
# Convention : Reuss Voigt Hill
#
# Bulk Modulus (GPa) = 21.53160 55.67732 38.60446
# Shear Modulus (GPa) = 5.70718 20.43578 13.07148
#
# Velocity S-wave (km/s) = 1.66217 3.14530 2.51552
# Velocity P-wave (km/s) = 3.75595 6.33591 5.20821
#
# Compressibility (1/GPa) = 0.04644338
#
# Stress axis : x y z
#
# Youngs Moduli (GPa) = 95.72593 22.31429 138.67048
#
# Poissons Ratio (x) = 0.13506 0.55944
# Poissons Ratio (y) = 0.57941 -0.28743
# Poissons Ratio (z) = 0.38619 -0.04625
#
# Static dielectric constant tensor:
#      x y z
#    x 1.745330 0.000000 0.000000 
#    y 0.000000 1.800240 0.000000 
#    z 0.000000 0.000000 1.809160 
# 
# From -- ./inp_files/30652.got.cif
#   From: 2010.05.17/outbox.cif.g08.bks.cpg/sg51_16_cif.got.tgz:30652.got - 2010.06.03 11:52:47.
