data_PCOD9399670
_publ_section_title
;
Structure prediction by ZEFSAII (Michael W. Deem and Ramdas Pophale) SiO2 
 PCOD9399670
Probable space group: P M M A
;
_chemical_formula_sum "Si O2"
_cell_formula_units_Z 36
_cell_length_a 8.685602
_cell_length_b 23.322263
_cell_length_c 10.085569
_cell_angle_alpha 90.000000
_cell_angle_beta 90.000000
_cell_angle_gamma 90.000000
_cell_volume 2043.012474
_symmetry_space_group_name_H-M "P M M A"
_symmetry_group_IT_number 51
_symmetry_cell_setting 'orthorhombic'
loop_
_space_group_symop_operation_xyz
x,y,z
1/2-x,-y,z
1/2+x,-y,-z
-x,y,-z
-x,-y,-z
1/2+x,y,-z
1/2-x,y,z
x,-y,z
loop_
_atom_site_type_symbol
_atom_site_label
_atom_site_fract_x
_atom_site_fract_y
_atom_site_fract_z
Si Si1 0.935027 0.288332 0.646735
Si Si2 0.566222 0.154974 0.645112
Si Si3 0.934363 0.619835 0.149546
Si Si4 0.934256 0.934512 0.146471
Si Si5 0.065346 0.500000 0.150031
O O1 0.750000 0.294833 0.647097
O O2 0.972329 0.221516 0.675132
O O3 0.000000 0.301309 0.500000
O O4 0.009683 0.329289 0.755963
O O5 0.500000 0.141888 0.500000
O O6 0.750000 0.150112 0.642244
O O7 0.498583 0.111584 0.751675
O O8 0.750000 0.616878 0.142699
O O9 0.000901 0.559624 0.205905
O O10 0.000000 0.627317 0.000000
O O11 0.750000 0.931248 0.142475
O O12 0.977769 0.000000 0.184021
O O13 0.000000 0.923899 0.000000
O O14 0.250000 0.500000 0.149393
O O15 0.000000 0.500000 0.000000
#
# Coordination Sequence:
#
# PCOD9399670 Si02
#       5
#     8   8   8   8   4
#     4  10  21  38  57  80 109 143 180 221 271 322
#     4  10  21  37  58  81 108 142 181 223 267 319
#     4  11  21  35  56  82 110 143 182 224 268 318
#     4  10  21  37  57  81 110 143 179 221 270 321
#     4  10  18  32  53  78 109 142 177 222 270 318
#
# _framework density 17.621037000000001
#
# number of rings (size 3 to 8) (size 9 to 14) (size 15 to 20)
#    0.000    1.778    0.000    6.333    0.000    5.333 
#    0.000    0.556    0.000    0.000    0.000    0.000 
#    0.000    0.000    0.000    0.000    0.000    0.000 
#
# Total GULP energy -201036.933376 kJ/mol
# GULP energy per Si atom -5584.359260 kJ/mol
# Density = 1.758093 g / cm^3
# Si number density = 17.621037 Si / 1000 Ang^3
#
#
#
# Elastic Constant Matrix: (Units=GPa)
#
#
# Indices 1 2 3 4 5 6 
#
# 1 124.1041 78.2070 64.7339 0.0000 0.0000 0.0000
# 2 78.2070 150.0216 113.5757 0.0000 0.0000 0.0000
# 3 64.7339 113.5757 110.8151 0.0000 0.0000 0.0000
# 4 0.0000 0.0000 0.0000 117.8416 0.0000 0.0000
# 5 0.0000 0.0000 0.0000 0.0000 35.6173 0.0000
# 6 0.0000 0.0000 0.0000 0.0000 0.0000 33.9678
#
#
#
# Elastic Compliance Matrix: (Units=1/GPa)
#
#
# Indices 1 2 3 4 5 6 
#
# 1 0.012180 -0.004297 -0.002711 0.000000 0.000000 0.000000
# 2 -0.004297 0.031263 -0.029532 0.000000 0.000000 0.000000
# 3 -0.002711 -0.029532 0.040875 0.000000 0.000000 0.000000
# 4 0.000000 0.000000 0.000000 0.008486 0.000000 0.000000
# 5 0.000000 0.000000 0.000000 0.000000 0.028076 0.000000
# 6 0.000000 0.000000 0.000000 0.000000 0.000000 0.029440
#
#
# Mechanical properties :
#
#
# Convention : Reuss Voigt Hill
#
# Bulk Modulus (GPa) = 88.97910 99.77489 94.37700
# Shear Modulus (GPa) = 22.01231 46.04696 34.02963
#
# Velocity S-wave (km/s) = 3.53825 5.11747 4.39930
# Velocity P-wave (km/s) = 8.20352 9.57411 8.91519
#
# Compressibility (1/GPa) = 0.01123859
#
# Stress axis : x y z
#
# Youngs Moduli (GPa) = 82.10452 31.98630 24.46475
#
# Poissons Ratio (x) = 0.13745 0.06631
# Poissons Ratio (y) = 0.35282 0.72249
# Poissons Ratio (z) = 0.22255 0.94462
#
# Static dielectric constant tensor:
#      x y z
#    x 1.586550 0.000000 0.000000 
#    y 0.000000 1.615050 0.000000 
#    z 0.000000 0.000000 1.566830 
# 
# From -- ./inp_files/5242.got.cif
#   From: 2010.05.17/outbox.cif.g08.bks.cpg/sg51_3_cif.got.tgz:5242.got - 2010.06.03 11:52:47.
