data_PCOD9399654
_publ_section_title
;
Structure prediction by ZEFSAII (Michael W. Deem and Ramdas Pophale) SiO2 
 PCOD9399654
Probable space group: P M M A
;
_chemical_formula_sum "Si O2"
_cell_formula_units_Z 64
_cell_length_a 19.912984
_cell_length_b 7.653787
_cell_length_c 21.470595
_cell_angle_alpha 90.000000
_cell_angle_beta 90.000000
_cell_angle_gamma 90.000000
_cell_volume 3272.327760
_symmetry_space_group_name_H-M "P M M A"
_symmetry_group_IT_number 51
_symmetry_cell_setting 'orthorhombic'
loop_
_space_group_symop_operation_xyz
x,y,z
1/2-x,-y,z
1/2+x,-y,-z
-x,y,-z
-x,-y,-z
1/2+x,y,-z
1/2-x,y,z
x,-y,z
loop_
_atom_site_type_symbol
_atom_site_label
_atom_site_fract_x
_atom_site_fract_y
_atom_site_fract_z
Si Si1 0.174681 0.709154 0.494777
Si Si2 0.963202 0.793424 0.561194
Si Si3 0.538843 0.214217 0.062574
Si Si4 0.966293 0.215049 0.313088
Si Si5 0.175634 0.792478 0.988773
Si Si6 0.174579 0.291478 0.132337
Si Si7 0.964655 0.208488 0.813447
Si Si8 0.674963 0.792245 0.360522
O O1 0.250000 0.771620 0.479153
O O2 0.174994 0.500000 0.494090
O O3 0.115828 0.770773 0.449728
O O4 0.160432 0.766047 0.565952
O O5 0.000000 0.717976 0.500000
O O6 0.992527 0.725661 0.625938
O O7 0.977990 0.000000 0.561924
O O8 0.502305 0.276317 0.124806
O O9 0.538348 0.000000 0.063470
O O10 0.500000 0.266693 0.000000
O O11 0.615368 0.274491 0.053611
O O12 0.888991 0.272887 0.321906
O O13 0.002193 0.274897 0.250031
O O14 0.966192 0.000000 0.312585
O O15 0.250000 0.717392 0.978749
O O16 0.158688 0.769909 0.061928
O O17 0.179269 0.000000 0.977936
O O18 0.250000 0.226938 0.147842
O O19 0.176810 0.500000 0.130661
O O20 0.114542 0.239694 0.177809
O O21 0.974077 0.000000 0.813269
O O22 0.750000 0.719804 0.348247
O O23 0.678292 0.000000 0.349983
#
# Coordination Sequence:
#
# PCOD9399654 Si02
#       8
#     8   8   8   8   8   8   8   8
#     4  10  20  32  48  75 105 130 164 207 249 295
#     4  10  18  32  53  74  98 127 163 206 248 293
#     4   9  15  26  46  73  98 122 157 199 240 278
#     4   9  18  32  50  76 101 127 166 206 242 285
#     4   9  16  28  48  72  97 128 165 199 238 290
#     4  10  20  33  49  71  98 125 160 206 249 289
#     4  10  19  33  52  71  99 133 163 199 240 290
#     4   9  16  30  52  74  99 132 166 200 243 292
#
# _framework density 19.557943000000002
#
# number of rings (size 3 to 8) (size 9 to 14) (size 15 to 20)
#    0.000    2.500    2.500    0.750    0.000    1.750 
#    0.000    3.750    0.000    7.500    0.000    0.000 
#    0.000    5.000    0.000    0.000    0.000    0.000 
#
# Total GULP energy -356961.473653 kJ/mol
# GULP energy per Si atom -5577.523026 kJ/mol
# Density = 1.951343 g / cm^3
# Si number density = 19.557943 Si / 1000 Ang^3
#
#
#
# Elastic Constant Matrix: (Units=GPa)
#
#
# Indices 1 2 3 4 5 6 
#
# 1 167.4187 -3.5120 98.3701 0.0000 0.0000 0.0000
# 2 -3.5120 34.4181 7.7889 0.0000 0.0000 0.0000
# 3 98.3701 7.7889 126.7541 0.0000 0.0000 0.0000
# 4 0.0000 0.0000 0.0000 102.5838 0.0000 0.0000
# 5 0.0000 0.0000 0.0000 0.0000 41.0925 0.0000
# 6 0.0000 0.0000 0.0000 0.0000 0.0000 -9.2172
#
#
#
# Elastic Compliance Matrix: (Units=1/GPa)
#
#
# Indices 1 2 3 4 5 6 
#
# 1 0.011314 0.003186 -0.008976 0.000000 0.000000 0.000000
# 2 0.003186 0.030361 -0.004338 0.000000 0.000000 0.000000
# 3 -0.008976 -0.004338 0.015122 0.000000 0.000000 0.000000
# 4 0.000000 0.000000 0.000000 0.009748 0.000000 0.000000
# 5 0.000000 0.000000 0.000000 0.000000 0.024335 0.000000
# 6 0.000000 0.000000 0.000000 0.000000 0.000000 -0.108493
#
#
# Mechanical properties :
#
#
# Convention : Reuss Voigt Hill
#
# Bulk Modulus (GPa) = 27.36700 59.32053 43.34377
# Shear Modulus (GPa) = 337.25661 41.95474 189.60568
#
# Velocity S-wave (km/s) = 13.14588 4.63660 9.85678
# Velocity P-wave (km/s) = 15.63464 7.68509 12.31874
#
# Compressibility (1/GPa) = 0.03654035
#
# Stress axis : x y z
#
# Youngs Moduli (GPa) = 88.38562 32.93669 66.12847
#
# Poissons Ratio (x) = -0.10493 0.59359
# Poissons Ratio (y) = -0.28158 0.28687
# Poissons Ratio (z) = 0.79337 0.14288
#
# Static dielectric constant tensor:
#      x y z
#    x 1.739360 0.000000 0.000000 
#    y 0.000000 1.717550 0.000000 
#    z 0.000000 0.000000 1.648510 
# 
# From -- ./inp_files/33888.got.cif
#   From: 2010.05.17/outbox.cif.g08.bks.cpg/sg51_17_cif.got.tgz:33888.got - 2010.06.03 11:52:47.
