data_PCOD9399816
_publ_section_title
;
Structure prediction by ZEFSAII (Michael W. Deem and Ramdas Pophale) SiO2 
 PCOD9399816
Probable space group: P M M A
;
_chemical_formula_sum "Si O2"
_cell_formula_units_Z 64
_cell_length_a 15.116238
_cell_length_b 7.738935
_cell_length_c 27.006557
_cell_angle_alpha 90.000000
_cell_angle_beta 90.000000
_cell_angle_gamma 90.000000
_cell_volume 3159.323811
_symmetry_space_group_name_H-M "P M M A"
_symmetry_group_IT_number 51
_symmetry_cell_setting 'orthorhombic'
loop_
_space_group_symop_operation_xyz
x,y,z
1/2-x,-y,z
1/2+x,-y,-z
-x,y,-z
-x,-y,-z
1/2+x,y,-z
1/2-x,y,z
x,-y,z
loop_
_atom_site_type_symbol
_atom_site_label
_atom_site_fract_x
_atom_site_fract_y
_atom_site_fract_z
Si Si1 0.651568 0.290529 0.100526
Si Si2 0.348304 0.799098 0.116793
Si Si3 0.148902 0.293036 0.633632
Si Si4 0.105370 0.700654 0.006985
Si Si5 0.351132 0.706568 0.364882
Si Si6 0.500952 0.206516 0.556087
Si Si7 0.499357 0.287670 0.710290
Si Si8 0.512270 0.300804 0.178184
O O1 0.750000 0.260867 0.118872
O O2 0.637412 0.500000 0.096146
O O3 0.581305 0.220264 0.139465
O O4 0.642640 0.225553 0.044293
O O5 0.250000 0.731747 0.125162
O O6 0.368879 0.786711 0.058353
O O7 0.420129 0.702869 0.149334
O O8 0.352058 0.000000 0.130865
O O9 0.250000 0.226080 0.631734
O O10 0.154913 0.500000 0.638261
O O11 0.087646 0.232514 0.679517
O O12 0.087742 0.257335 0.585853
O O13 0.133454 0.500000 0.011659
O O14 0.000000 0.704410 0.000000
O O15 0.250000 0.773960 0.367146
O O16 0.344570 0.500000 0.359347
O O17 0.412197 0.738027 0.413099
O O18 0.412770 0.770271 0.319375
O O19 0.500000 0.274087 0.500000
O O20 0.502902 0.000000 0.554471
O O21 0.501349 0.500000 0.709747
O O22 0.495595 0.227195 0.766848
O O23 0.540773 0.500000 0.185197
#
# Coordination Sequence:
#
# PCOD9399816 Si02
#       8
#     8   8   8   8   8   8   8   8
#     4   9  17  29  48  76 104 126 155 201 252 300
#     4  11  24  38  51  72 103 137 172 210 255 306
#     4   9  18  34  56  81 108 140 178 218 263 315
#     4  10  18  33  56  77  98 127 167 209 250 304
#     4   9  18  34  55  78 104 136 177 222 266 313
#     4  10  21  35  51  76 111 146 180 219 260 306
#     4   8  16  31  53  79 105 131 166 215 262 306
#     4  10  19  34  55  78 103 133 169 209 256 307
#
# _framework density 20.2575
#
# number of rings (size 3 to 8) (size 9 to 14) (size 15 to 20)
#    0.000    2.500    1.250    1.875    0.000    4.750 
#    0.000    8.750    0.000    0.375    0.000    0.000 
#    0.000    0.000    0.000    0.000    0.000    0.000 
#
# Total GULP energy -356969.644026 kJ/mol
# GULP energy per Si atom -5577.650688 kJ/mol
# Density = 2.021139 g / cm^3
# Si number density = 20.257500 Si / 1000 Ang^3
#
#
#
# Elastic Constant Matrix: (Units=GPa)
#
#
# Indices 1 2 3 4 5 6 
#
# 1 160.5928 3.1525 82.9660 0.0000 0.0000 0.0000
# 2 3.1525 31.5139 -1.9406 0.0000 0.0000 0.0000
# 3 82.9660 -1.9406 173.1943 0.0000 0.0000 0.0000
# 4 0.0000 0.0000 0.0000 55.7821 0.0000 0.0000
# 5 0.0000 0.0000 0.0000 0.0000 -181.6387 0.0000
# 6 0.0000 0.0000 0.0000 0.0000 0.0000 -9.4036
#
#
#
# Elastic Compliance Matrix: (Units=1/GPa)
#
#
# Indices 1 2 3 4 5 6 
#
# 1 0.008311 -0.001077 -0.003993 0.000000 0.000000 0.000000
# 2 -0.001077 0.031894 0.000873 0.000000 0.000000 0.000000
# 3 -0.003993 0.000873 0.007697 0.000000 0.000000 0.000000
# 4 0.000000 0.000000 0.000000 0.017927 0.000000 0.000000
# 5 0.000000 0.000000 0.000000 0.000000 -0.005505 0.000000
# 6 0.000000 0.000000 0.000000 0.000000 0.000000 -0.106342
#
#
# Mechanical properties :
#
#
# Convention : Reuss Voigt Hill
#
# Bulk Modulus (GPa) = 25.31209 59.29519 42.30364
# Shear Modulus (GPa) = -204.45069 -8.31052 -106.38061
#
# Velocity S-wave (km/s) = -10.05709 -2.02765 -7.25453
# Velocity P-wave (km/s) = 11.06064 4.88390 7.01731
#
# Compressibility (1/GPa) = 0.03950681
#
# Stress axis : x y z
#
# Youngs Moduli (GPa) = 120.32011 31.35426 129.92712
#
# Poissons Ratio (x) = 0.03378 0.51885
# Poissons Ratio (y) = 0.12962 -0.11348
# Poissons Ratio (z) = 0.48049 -0.02739
#
# Static dielectric constant tensor:
#      x y z
#    x 1.728630 0.000000 0.000000 
#    y 0.000000 1.760190 0.000000 
#    z 0.000000 0.000000 1.711510 
# 
# From -- ./inp_files/35850.got.cif
#   From: 2010.05.17/outbox.cif.g08.bks.cpg/sg51_18_cif.got.tgz:35850.got - 2010.06.03 11:52:47.
