data_PCOD9399742
_publ_section_title
;
Structure prediction by ZEFSAII (Michael W. Deem and Ramdas Pophale) SiO2 
 PCOD9399742
Probable space group: P M M A
;
_chemical_formula_sum "Si O2"
_cell_formula_units_Z 64
_cell_length_a 19.645979
_cell_length_b 8.749746
_cell_length_c 19.773786
_cell_angle_alpha 90.000000
_cell_angle_beta 90.000000
_cell_angle_gamma 90.000000
_cell_volume 3399.060942
_symmetry_space_group_name_H-M "P M M A"
_symmetry_group_IT_number 51
_symmetry_cell_setting 'orthorhombic'
loop_
_space_group_symop_operation_xyz
x,y,z
1/2-x,-y,z
1/2+x,-y,-z
-x,y,-z
-x,-y,-z
1/2+x,y,-z
1/2-x,y,z
x,-y,z
loop_
_atom_site_type_symbol
_atom_site_label
_atom_site_fract_x
_atom_site_fract_y
_atom_site_fract_z
Si Si1 0.418921 0.316921 0.068307
Si Si2 0.420342 0.181123 0.779687
Si Si3 0.454159 0.183315 0.435988
Si Si4 0.828070 0.313945 0.802745
Si Si5 0.668300 0.322312 0.336379
Si Si6 0.429055 0.817708 0.928848
Si Si7 0.950320 0.317718 0.710780
Si Si8 0.327893 0.816743 0.520477
O O1 0.428686 0.500000 0.071178
O O2 0.366238 0.272406 0.127189
O O3 0.492092 0.235622 0.076910
O O4 0.396926 0.267218 0.993011
O O5 0.366667 0.230171 0.723336
O O6 0.397560 0.219036 0.855827
O O7 0.490584 0.264384 0.761283
O O8 0.432136 0.000000 0.776723
O O9 0.500000 0.232582 0.500000
O O10 0.467457 0.254787 0.363366
O O11 0.377474 0.220700 0.459203
O O12 0.462240 0.000000 0.430083
O O13 0.750000 0.259967 0.798827
O O14 0.826285 0.500000 0.801389
O O15 0.877793 0.264721 0.741520
O O16 0.750000 0.308347 0.332573
O O17 0.649527 0.500000 0.330915
O O18 0.647837 0.258753 0.409798
O O19 0.427019 0.000000 0.939883
O O20 0.949505 0.500000 0.708084
O O21 0.250000 0.770611 0.508207
O O22 0.330084 0.000000 0.529992
#
# Coordination Sequence:
#
# PCOD9399742 Si02
#       8
#     8   8   8   8   8   8   8   8
#     4  10  18  32  56  81 107 142 184 225 268 326
#     4  11  22  36  56  80 111 150 184 225 276 334
#     4  10  21  36  53  76 108 143 180 226 278 333
#     4   9  19  36  56  81 115 152 188 230 282 334
#     4  10  21  36  56  83 112 140 177 228 278 330
#     4  10  20  33  53  80 111 141 177 227 275 321
#     4  11  22  36  57  83 111 143 187 238 282 333
#     4   9  18  34  55  76 103 143 184 220 268 334
#
# _framework density 18.828728999999999
#
# number of rings (size 3 to 8) (size 9 to 14) (size 15 to 20)
#    0.000    2.000    1.250    3.375    0.000    4.500 
#    0.000    0.625    0.000    7.875    0.000    0.000 
#    0.000    0.000    0.000    0.000    0.000    0.000 
#
# Total GULP energy -357215.455983 kJ/mol
# GULP energy per Si atom -5581.491500 kJ/mol
# Density = 1.878587 g / cm^3
# Si number density = 18.828729 Si / 1000 Ang^3
#
#
#
# Elastic Constant Matrix: (Units=GPa)
#
#
# Indices 1 2 3 4 5 6 
#
# 1 42.3924 8.9152 19.2174 0.0000 0.0000 0.0000
# 2 8.9152 20.5267 17.3926 0.0000 0.0000 0.0000
# 3 19.2174 17.3926 103.6557 0.0000 0.0000 0.0000
# 4 0.0000 0.0000 0.0000 16.7411 0.0000 0.0000
# 5 0.0000 0.0000 0.0000 0.0000 29.2608 0.0000
# 6 0.0000 0.0000 0.0000 0.0000 0.0000 12.7908
#
#
#
# Elastic Compliance Matrix: (Units=1/GPa)
#
#
# Indices 1 2 3 4 5 6 
#
# 1 0.027034 -0.008737 -0.003546 0.000000 0.000000 0.000000
# 2 -0.008737 0.059615 -0.008383 0.000000 0.000000 0.000000
# 3 -0.003546 -0.008383 0.011711 0.000000 0.000000 0.000000
# 4 0.000000 0.000000 0.000000 0.059733 0.000000 0.000000
# 5 0.000000 0.000000 0.000000 0.000000 0.034175 0.000000
# 6 0.000000 0.000000 0.000000 0.000000 0.000000 0.078181
#
#
# Mechanical properties :
#
#
# Convention : Reuss Voigt Hill
#
# Bulk Modulus (GPa) = 17.53520 28.62504 23.08012
# Shear Modulus (GPa) = 15.11524 19.82848 17.47186
#
# Velocity S-wave (km/s) = 2.83640 3.24867 3.04951
# Velocity P-wave (km/s) = 4.47885 5.41365 4.96829
#
# Compressibility (1/GPa) = 0.05702814
#
# Stress axis : x y z
#
# Youngs Moduli (GPa) = 36.99043 16.77435 85.38717
#
# Poissons Ratio (x) = 0.14656 0.30279
# Poissons Ratio (y) = 0.32318 0.71581
# Poissons Ratio (z) = 0.13117 0.14062
#
# Static dielectric constant tensor:
#      x y z
#    x 1.663270 0.000000 0.000000 
#    y 0.000000 1.634380 0.000000 
#    z 0.000000 0.000000 1.653150 
# 
# From -- ./inp_files/30511.got.cif
#   From: 2010.05.17/outbox.cif.g08.bks.cpg/sg51_16_cif.got.tgz:30511.got - 2010.06.03 11:52:47.
