data_PCOD9399887
_publ_section_title
;
Structure prediction by ZEFSAII (Michael W. Deem and Ramdas Pophale) SiO2 
 PCOD9399887
Probable space group: P M M A
;
_chemical_formula_sum "Si O2"
_cell_formula_units_Z 64
_cell_length_a 32.167013
_cell_length_b 7.675254
_cell_length_c 11.213508
_cell_angle_alpha 90.000000
_cell_angle_beta 90.000000
_cell_angle_gamma 90.000000
_cell_volume 2768.502936
_symmetry_space_group_name_H-M "P M M A"
_symmetry_group_IT_number 51
_symmetry_cell_setting 'orthorhombic'
loop_
_space_group_symop_operation_xyz
x,y,z
1/2-x,-y,z
1/2+x,-y,-z
-x,y,-z
-x,-y,-z
1/2+x,y,-z
1/2-x,y,z
x,-y,z
loop_
_atom_site_type_symbol
_atom_site_label
_atom_site_fract_x
_atom_site_fract_y
_atom_site_fract_z
Si Si1 0.658047 0.803051 0.805355
Si Si2 0.493870 0.197220 0.205187
Si Si3 0.085096 0.298020 0.793921
Si Si4 0.544346 0.201129 0.541598
Si Si5 0.200844 0.790968 0.954363
Si Si6 0.639168 0.784638 0.542363
Si Si7 0.580402 0.299322 0.933110
Si Si8 0.832030 0.804865 0.298271
O O1 0.656413 0.727359 0.671757
O O2 0.610282 0.807445 0.847864
O O3 0.674846 0.000000 0.793288
O O4 0.680767 0.722749 0.922061
O O5 0.537359 0.280123 0.242057
O O6 0.463227 0.196854 0.317317
O O7 0.467538 0.285515 0.102041
O O8 0.503230 0.000000 0.169914
O O9 0.097082 0.500000 0.783907
O O10 0.118432 0.188198 0.723750
O O11 0.086806 0.243061 0.931691
O O12 0.500000 0.281133 0.500000
O O13 0.590836 0.274003 0.523430
O O14 0.544599 0.000000 0.494629
O O15 0.250000 0.767277 0.959946
O O16 0.185064 0.723039 0.825087
O O17 0.191307 0.000000 0.952451
O O18 0.668356 0.728515 0.431683
O O19 0.637900 0.000000 0.544015
O O20 0.592923 0.500000 0.922086
O O21 0.813902 0.000000 0.305100
#
# Coordination Sequence:
#
# PCOD9399887 Si02
#       8
#     8   8   8   8   8   8   8   8
#     4  10  18  34  58  80 107 145 185 222 270 334
#     4  11  21  33  52  75 102 145 195 234 272 325
#     4  11  23  36  50  74 112 148 183 234 283 322
#     4   9  16  27  45  69  99 135 181 233 270 302
#     4   9  18  33  57  89 117 138 172 225 276 326
#     4   9  17  30  51  80 108 139 186 232 270 318
#     4  11  22  35  51  74 109 145 182 233 284 320
#     4  10  19  34  58  82 106 143 185 224 272 331
#
# _framework density 23.117187000000001
#
# number of rings (size 3 to 8) (size 9 to 14) (size 15 to 20)
#    0.000    2.000    2.500    2.250    0.000    5.000 
#    0.000    1.250    0.000    6.750    0.000    0.000 
#    0.000    2.000    0.000    0.000    0.000    0.000 
#
# Total GULP energy -356969.026759 kJ/mol
# GULP energy per Si atom -5577.641043 kJ/mol
# Density = 2.306457 g / cm^3
# Si number density = 23.117187 Si / 1000 Ang^3
#
#
#
# Elastic Constant Matrix: (Units=GPa)
#
#
# Indices 1 2 3 4 5 6 
#
# 1 61.6008 3.2378 59.9965 0.0000 0.0000 0.0000
# 2 3.2378 44.2057 11.9923 0.0000 0.0000 0.0000
# 3 59.9965 11.9923 164.5393 0.0000 0.0000 0.0000
# 4 0.0000 0.0000 0.0000 101.7565 0.0000 0.0000
# 5 0.0000 0.0000 0.0000 0.0000 18.6744 0.0000
# 6 0.0000 0.0000 0.0000 0.0000 0.0000 7.6833
#
#
#
# Elastic Compliance Matrix: (Units=1/GPa)
#
#
# Indices 1 2 3 4 5 6 
#
# 1 0.025192 0.000660 -0.009234 0.000000 0.000000 0.000000
# 2 0.000660 0.023095 -0.001924 0.000000 0.000000 0.000000
# 3 -0.009234 -0.001924 0.009585 0.000000 0.000000 0.000000
# 4 0.000000 0.000000 0.000000 0.009827 0.000000 0.000000
# 5 0.000000 0.000000 0.000000 0.000000 0.053549 0.000000
# 6 0.000000 0.000000 0.000000 0.000000 0.000000 0.130153
#
#
# Mechanical properties :
#
#
# Convention : Reuss Voigt Hill
#
# Bulk Modulus (GPa) = 27.11775 46.75543 36.93659
# Shear Modulus (GPa) = 17.56297 38.63080 28.09688
#
# Velocity S-wave (km/s) = 2.75932 4.09233 3.49006
# Velocity P-wave (km/s) = 4.68058 6.52678 5.67920
#
# Compressibility (1/GPa) = 0.03687622
#
# Stress axis : x y z
#
# Youngs Moduli (GPa) = 39.69439 43.29923 104.33124
#
# Poissons Ratio (x) = -0.02857 0.96341
# Poissons Ratio (y) = -0.02619 0.20072
# Poissons Ratio (z) = 0.36654 0.08330
#
# Static dielectric constant tensor:
#      x y z
#    x 1.847110 0.000000 0.000000 
#    y 0.000000 1.875420 0.000000 
#    z 0.000000 0.000000 1.938880 
# 
# From -- ./inp_files/19433.got.cif
#   From: 2010.05.17/outbox.cif.g08.bks.cpg/sg51_10_cif.got.tgz:19433.got - 2010.06.03 11:52:47.
