data_PCOD9399719
_publ_section_title
;
Structure prediction by ZEFSAII (Michael W. Deem and Ramdas Pophale) SiO2 
 PCOD9399719
Probable space group: P M M A
;
_chemical_formula_sum "Si O2"
_cell_formula_units_Z 64
_cell_length_a 31.974369
_cell_length_b 7.474930
_cell_length_c 12.344308
_cell_angle_alpha 90.000000
_cell_angle_beta 90.000000
_cell_angle_gamma 90.000000
_cell_volume 2950.365777
_symmetry_space_group_name_H-M "P M M A"
_symmetry_group_IT_number 51
_symmetry_cell_setting 'orthorhombic'
loop_
_space_group_symop_operation_xyz
x,y,z
1/2-x,-y,z
1/2+x,-y,-z
-x,y,-z
-x,-y,-z
1/2+x,y,-z
1/2-x,y,z
x,-y,z
loop_
_atom_site_type_symbol
_atom_site_label
_atom_site_fract_x
_atom_site_fract_y
_atom_site_fract_z
Si Si1 0.704116 0.715956 0.513599
Si Si2 0.316488 0.294667 0.247558
Si Si3 0.413781 0.783030 0.248799
Si Si4 0.047198 0.218831 0.476204
Si Si5 0.877735 0.788426 0.371756
Si Si6 0.952975 0.781655 0.978496
Si Si7 0.704612 0.792304 0.994499
Si Si8 0.875873 0.780447 0.125417
O O1 0.750000 0.772280 0.472690
O O2 0.703563 0.500000 0.518038
O O3 0.698657 0.781429 0.637502
O O4 0.664717 0.766854 0.440388
O O5 0.302542 0.500000 0.242914
O O6 0.366603 0.285332 0.250363
O O7 0.301893 0.211536 0.134940
O O8 0.437897 0.727957 0.356745
O O9 0.436825 0.726906 0.139549
O O10 0.411269 0.000000 0.248257
O O11 0.082310 0.281498 0.561470
O O12 0.000000 0.276728 0.500000
O O13 0.047217 0.000000 0.478476
O O14 0.873670 0.719374 0.249561
O O15 0.884973 0.000000 0.360950
O O16 0.953539 0.000000 0.979552
O O17 0.918795 0.725638 0.067045
O O18 0.000000 0.720874 0.000000
O O19 0.750000 0.711655 0.020231
O O20 0.706266 0.000000 0.026844
O O21 0.664057 0.717680 0.055521
O O22 0.875594 0.000000 0.123388
#
# Coordination Sequence:
#
# PCOD9399719 Si02
#       8
#     8   8   8   8   8   8   8   8
#     4  10  22  39  56  75 104 141 177 219 272 322
#     4  11  21  35  56  80 109 139 176 221 269 317
#     4  10  18  32  55  80 109 141 178 219 267 320
#     4   9  18  30  49  81 114 139 170 219 268 308
#     4  10  20  34  55  81 108 139 178 221 263 313
#     4   9  17  28  49  80 108 136 172 215 261 312
#     4  10  20  35  55  78 105 137 172 215 268 321
#     4   9  18  32  50  77 110 137 169 216 264 310
#
# _framework density 21.692226000000002
#
# number of rings (size 3 to 8) (size 9 to 14) (size 15 to 20)
#    0.000    2.250    2.500    0.750    1.750    2.000 
#    0.000    1.875    0.000    1.875    0.000    0.000 
#    0.000    0.000    0.000    0.000    0.000    0.000 
#
# Total GULP energy -357547.049006 kJ/mol
# GULP energy per Si atom -5586.672641 kJ/mol
# Density = 2.164285 g / cm^3
# Si number density = 21.692226 Si / 1000 Ang^3
#
#
#
# Elastic Constant Matrix: (Units=GPa)
#
#
# Indices 1 2 3 4 5 6 
#
# 1 220.5118 -1.9694 100.8887 0.0000 0.0000 0.0000
# 2 -1.9694 59.8936 1.2089 0.0000 0.0000 0.0000
# 3 100.8887 1.2089 169.3618 0.0000 0.0000 0.0000
# 4 0.0000 0.0000 0.0000 -31.5158 0.0000 0.0000
# 5 0.0000 0.0000 0.0000 0.0000 41.5451 0.0000
# 6 0.0000 0.0000 0.0000 0.0000 0.0000 -5.0869
#
#
#
# Elastic Compliance Matrix: (Units=1/GPa)
#
#
# Indices 1 2 3 4 5 6 
#
# 1 0.006239 0.000280 -0.003718 0.000000 0.000000 0.000000
# 2 0.000280 0.016711 -0.000286 0.000000 0.000000 0.000000
# 3 -0.003718 -0.000286 0.008122 0.000000 0.000000 0.000000
# 4 0.000000 0.000000 0.000000 -0.031730 0.000000 0.000000
# 5 0.000000 0.000000 0.000000 0.000000 0.024070 0.000000
# 6 0.000000 0.000000 0.000000 0.000000 0.000000 -0.196583
#
#
# Mechanical properties :
#
#
# Convention : Reuss Voigt Hill
#
# Bulk Modulus (GPa) = 42.33205 72.22484 57.27844
# Shear Modulus (GPa) = -31.67591 24.29774 -3.68908
#
# Velocity S-wave (km/s) = -3.82546 3.35044 -1.30550
# Velocity P-wave (km/s) = 0.21224 6.95232 4.91833
#
# Compressibility (1/GPa) = 0.02362276
#
# Stress axis : x y z
#
# Youngs Moduli (GPa) = 160.29166 59.83990 123.12876
#
# Poissons Ratio (x) = -0.01677 0.45784
# Poissons Ratio (y) = -0.04491 0.03524
# Poissons Ratio (z) = 0.59602 0.01713
#
# Static dielectric constant tensor:
#      x y z
#    x 1.756510 0.000000 0.000000 
#    y 0.000000 1.833730 0.000000 
#    z 0.000000 0.000000 1.747050 
# 
# From -- ./inp_files/19511.got.cif
#   From: 2010.05.17/outbox.cif.g08.bks.cpg/sg51_10_cif.got.tgz:19511.got - 2010.06.03 11:52:47.
