data_PCOD9399113
_publ_section_title
;
Structure prediction by ZEFSAII (Michael W. Deem and Ramdas Pophale) SiO2 
 PCOD9399113
Probable space group: P M M A
;
_chemical_formula_sum "Si O2"
_cell_formula_units_Z 48
_cell_length_a 26.394654
_cell_length_b 7.726996
_cell_length_c 12.211028
_cell_angle_alpha 90.000000
_cell_angle_beta 90.000000
_cell_angle_gamma 90.000000
_cell_volume 2490.456084
_symmetry_space_group_name_H-M "P M M A"
_symmetry_group_IT_number 51
_symmetry_cell_setting 'orthorhombic'
loop_
_space_group_symop_operation_xyz
x,y,z
1/2-x,-y,z
1/2+x,-y,-z
-x,y,-z
-x,-y,-z
1/2+x,y,-z
1/2-x,y,z
x,-y,z
loop_
_atom_site_type_symbol
_atom_site_label
_atom_site_fract_x
_atom_site_fract_y
_atom_site_fract_z
Si Si1 0.691967 0.788278 0.882958
Si Si2 0.307705 0.791546 0.864749
Si Si3 0.090921 0.296059 0.775562
Si Si4 0.440140 0.699546 0.008506
Si Si5 0.497407 0.206926 0.376346
Si Si6 0.097105 0.803467 0.237255
O O1 0.750000 0.738983 0.861480
O O2 0.652257 0.725043 0.791287
O O3 0.689594 0.000000 0.882825
O O4 0.679896 0.734543 0.009198
O O5 0.250000 0.734463 0.842433
O O6 0.348782 0.734081 0.774704
O O7 0.307822 0.000000 0.866394
O O8 0.081826 0.500000 0.782619
O O9 0.050641 0.234019 0.686388
O O10 0.077457 0.219849 0.894516
O O11 0.421801 0.500000 0.021627
O O12 0.425619 0.804481 0.115050
O O13 0.500000 0.690590 0.000000
O O14 0.500000 0.274794 0.500000
O O15 0.447624 0.276072 0.311690
O O16 0.490609 0.000000 0.380935
O O17 0.105656 0.000000 0.276721
#
# Coordination Sequence:
#
# PCOD9399113 Si02
#       6
#     8   8   8   8   8   8
#     4   8  14  25  43  70 100 125 154 193 237 291
#     4   9  17  30  49  74 105 136 162 196 243 293
#     4  11  21  32  50  74 102 135 167 202 248 302
#     4  10  19  30  43  68 104 131 153 194 248 300
#     4  10  22  37  51  70  97 130 171 220 263 300
#     4  10  18  29  50  72  93 127 165 200 247 303
#
# _framework density 19.273577
#
# number of rings (size 3 to 8) (size 9 to 14) (size 15 to 20)
#    0.000    2.333    3.333    1.500    0.000    1.667 
#    0.000    0.000    0.000    1.500    0.000    4.667 
#    0.000    0.000    0.000    0.000    0.000    0.000 
#
# Total GULP energy -267272.290818 kJ/mol
# GULP energy per Si atom -5568.172725 kJ/mol
# Density = 1.922971 g / cm^3
# Si number density = 19.273577 Si / 1000 Ang^3
#
#
#
# Elastic Constant Matrix: (Units=GPa)
#
#
# Indices 1 2 3 4 5 6 
#
# 1 167.8077 1.5099 72.6867 0.0000 0.0000 0.0000
# 2 1.5099 34.1829 2.0767 0.0000 0.0000 0.0000
# 3 72.6867 2.0767 105.0857 0.0000 0.0000 0.0000
# 4 0.0000 0.0000 0.0000 -0.6816 0.0000 0.0000
# 5 0.0000 0.0000 0.0000 0.0000 11.6595 0.0000
# 6 0.0000 0.0000 0.0000 0.0000 0.0000 8.0517
#
#
#
# Elastic Compliance Matrix: (Units=1/GPa)
#
#
# Indices 1 2 3 4 5 6 
#
# 1 0.008508 -0.000018 -0.005885 0.000000 0.000000 0.000000
# 2 -0.000018 0.029290 -0.000566 0.000000 0.000000 0.000000
# 3 -0.005885 -0.000566 0.013598 0.000000 0.000000 0.000000
# 4 0.000000 0.000000 0.000000 -1.467179 0.000000 0.000000
# 5 0.000000 0.000000 0.000000 0.000000 0.085767 0.000000
# 6 0.000000 0.000000 0.000000 0.000000 0.000000 0.124198
#
#
# Mechanical properties :
#
#
# Convention : Reuss Voigt Hill
#
# Bulk Modulus (GPa) = 26.00297 51.06919 38.53608
# Shear Modulus (GPa) = -4.23707 19.19279 7.47786
#
# Velocity S-wave (km/s) = -1.48430 3.15907 1.97187
# Velocity P-wave (km/s) = 3.25319 6.31354 5.02215
#
# Compressibility (1/GPa) = 0.03845715
#
# Stress axis : x y z
#
# Youngs Moduli (GPa) = 117.53092 34.14183 73.54191
#
# Poissons Ratio (x) = 0.00062 0.43278
# Poissons Ratio (y) = 0.00215 0.04164
# Poissons Ratio (z) = 0.69165 0.01933
#
# Static dielectric constant tensor:
#      x y z
#    x 1.767110 0.000000 0.000000 
#    y 0.000000 1.727380 0.000000 
#    z 0.000000 0.000000 1.658800 
# 
# From -- ./inp_files/18974.got.cif
#   From: 2010.05.17/outbox.cif.g08.bks.cpg/sg51_10_cif.got.tgz:18974.got - 2010.06.03 11:52:47.
