data_PCOD9399815
_publ_section_title
;
Structure prediction by ZEFSAII (Michael W. Deem and Ramdas Pophale) SiO2 
 PCOD9399815
Probable space group: P M M A
;
_chemical_formula_sum "Si O2"
_cell_formula_units_Z 64
_cell_length_a 7.587132
_cell_length_b 20.687959
_cell_length_c 20.704778
_cell_angle_alpha 90.000000
_cell_angle_beta 90.000000
_cell_angle_gamma 90.000000
_cell_volume 3249.869074
_symmetry_space_group_name_H-M "P M M A"
_symmetry_group_IT_number 51
_symmetry_cell_setting 'orthorhombic'
loop_
_space_group_symop_operation_xyz
x,y,z
1/2-x,-y,z
1/2+x,-y,-z
-x,y,-z
-x,-y,-z
1/2+x,y,-z
1/2-x,y,z
x,-y,z
loop_
_atom_site_type_symbol
_atom_site_label
_atom_site_fract_x
_atom_site_fract_y
_atom_site_fract_z
Si Si1 0.962016 0.426382 0.426980
Si Si2 0.952462 0.786602 0.572691
Si Si3 0.465651 0.249412 0.790792
Si Si4 0.963275 0.069960 0.387651
Si Si5 0.539147 0.788735 0.070205
Si Si6 0.952487 0.320267 0.329744
Si Si7 0.463603 0.895410 0.754858
Si Si8 0.465092 0.068884 0.897730
O O1 0.750000 0.427998 0.421514
O O2 0.027775 0.500000 0.419798
O O3 0.032281 0.376562 0.373870
O O4 0.000000 0.404481 0.500000
O O5 0.750000 0.772262 0.584337
O O6 0.000000 0.767189 0.500000
O O7 0.980430 0.863582 0.579180
O O8 0.051172 0.744670 0.626426
O O9 0.250000 0.251621 0.790496
O O10 0.523530 0.248442 0.865535
O O11 0.530711 0.302305 0.739895
O O12 0.514850 0.179382 0.762000
O O13 0.750000 0.070182 0.388808
O O14 0.022830 0.075740 0.312840
O O15 0.022562 0.000000 0.413796
O O16 0.750000 0.792527 0.076440
O O17 0.471757 0.863212 0.073065
O O18 0.500000 0.760712 0.000000
O O19 0.750000 0.339158 0.317444
O O20 0.250000 0.898239 0.753548
O O21 0.515026 0.928149 0.821963
O O22 0.250000 0.069422 0.901073
O O23 0.526715 0.000000 0.924785
#
# Coordination Sequence:
#
# PCOD9399815 Si02
#       8
#     8   8   8   8   8   8   8   8
#     4   9  18  31  49  76 108 139 164 189 229 278
#     4  12  25  38  51  68  93 123 158 200 245 293
#     4   8  14  26  47  69  89 116 153 193 233 276
#     4  10  19  32  52  72  88 112 151 199 251 303
#     4   9  17  28  42  61  86 117 149 186 231 283
#     4  10  18  33  56  76  98 126 161 203 236 276
#     4   8  12  22  42  66  86 104 139 186 231 280
#     4   8  13  21  36  59  82 106 140 180 220 272
#
# _framework density 19.693100000000001
#
# number of rings (size 3 to 8) (size 9 to 14) (size 15 to 20)
#    0.000    2.750    1.250    3.375    0.000    3.750 
#    0.000    0.625    0.000    0.000    0.000    0.000 
#    0.000    0.500    0.000    0.375    0.000    0.750 
#
# Total GULP energy -356961.086779 kJ/mol
# GULP energy per Si atom -5577.516981 kJ/mol
# Density = 1.964828 g / cm^3
# Si number density = 19.693100 Si / 1000 Ang^3
#
#
#
# Elastic Constant Matrix: (Units=GPa)
#
#
# Indices 1 2 3 4 5 6 
#
# 1 48.8946 0.9247 -1.3851 0.0000 0.0000 0.0000
# 2 0.9247 82.3844 57.8337 0.0000 0.0000 0.0000
# 3 -1.3851 57.8337 144.1559 0.0000 0.0000 0.0000
# 4 0.0000 0.0000 0.0000 56.4070 0.0000 0.0000
# 5 0.0000 0.0000 0.0000 0.0000 10.9078 0.0000
# 6 0.0000 0.0000 0.0000 0.0000 0.0000 10.2403
#
#
#
# Elastic Compliance Matrix: (Units=1/GPa)
#
#
# Indices 1 2 3 4 5 6 
#
# 1 0.020473 -0.000512 0.000402 0.000000 0.000000 0.000000
# 2 -0.000512 0.016910 -0.006789 0.000000 0.000000 0.000000
# 3 0.000402 -0.006789 0.009664 0.000000 0.000000 0.000000
# 4 0.000000 0.000000 0.000000 0.017728 0.000000 0.000000
# 5 0.000000 0.000000 0.000000 0.000000 0.091678 0.000000
# 6 0.000000 0.000000 0.000000 0.000000 0.000000 0.097653
#
#
# Mechanical properties :
#
#
# Convention : Reuss Voigt Hill
#
# Bulk Modulus (GPa) = 30.07546 43.35350 36.71448
# Shear Modulus (GPa) = 17.92193 30.04846 23.98519
#
# Velocity S-wave (km/s) = 3.01999 3.91043 3.49370
# Velocity P-wave (km/s) = 5.24078 6.51544 5.91256
#
# Compressibility (1/GPa) = 0.03324970
#
# Stress axis : x y z
#
# Youngs Moduli (GPa) = 48.84430 59.13729 103.47203
#
# Poissons Ratio (x) = 0.03028 -0.04161
# Poissons Ratio (y) = 0.02501 0.70247
# Poissons Ratio (z) = -0.01964 0.40148
#
# Static dielectric constant tensor:
#      x y z
#    x 1.752390 0.000000 0.000000 
#    y 0.000000 1.698220 0.000000 
#    z 0.000000 0.000000 1.699910 
# 
# From -- ./inp_files/32641.got.cif
#   From: 2010.05.17/outbox.cif.g08.bks.cpg/sg51_17_cif.got.tgz:32641.got - 2010.06.03 11:52:47.
