data_PCOD9399353
_publ_section_title
;
Structure prediction by ZEFSAII (Michael W. Deem and Ramdas Pophale) SiO2 
 PCOD9399353
Probable space group: P M M A
;
_chemical_formula_sum "Si O2"
_cell_formula_units_Z 40
_cell_length_a 25.117228
_cell_length_b 9.258263
_cell_length_c 10.175622
_cell_angle_alpha 90.000000
_cell_angle_beta 90.000000
_cell_angle_gamma 90.000000
_cell_volume 2366.258501
_symmetry_space_group_name_H-M "P M M A"
_symmetry_group_IT_number 51
_symmetry_cell_setting 'orthorhombic'
loop_
_space_group_symop_operation_xyz
x,y,z
1/2-x,-y,z
1/2+x,-y,-z
-x,y,-z
-x,-y,-z
1/2+x,y,-z
1/2-x,y,z
x,-y,z
loop_
_atom_site_type_symbol
_atom_site_label
_atom_site_fract_x
_atom_site_fract_y
_atom_site_fract_z
Si Si1 0.462573 0.670255 0.127964
Si Si2 0.250000 0.667329 0.030608
Si Si3 0.750000 0.665368 0.289262
Si Si4 0.474308 0.828513 0.642504
Si Si5 0.143418 0.170403 0.715549
Si Si6 0.641916 0.171503 0.969051
O O1 0.452572 0.500000 0.146833
O O2 0.493523 0.738461 0.250286
O O3 0.500000 0.686945 0.000000
O O4 0.408058 0.754811 0.100500
O O5 0.250000 0.500000 0.072142
O O6 0.250000 0.668527 0.870681
O O7 0.196808 0.751442 0.071454
O O8 0.750000 0.500000 0.331981
O O9 0.695636 0.744301 0.329416
O O10 0.500000 0.808750 0.500000
O O11 0.411959 0.787444 0.647554
O O12 0.476858 0.000000 0.676041
O O13 0.136145 0.192334 0.872828
O O14 0.152534 0.000000 0.695205
O O15 0.643793 0.000000 0.944754
#
# Coordination Sequence:
#
# PCOD9399353 Si02
#       6
#     8   4   4   8   8   8
#     4  11  22  34  52  78 108 141 176 217 266 316
#     4   9  17  29  45  72 109 138 167 214 270 318
#     4   9  17  27  45  72 101 134 169 210 256 308
#     4  10  21  37  56  78 106 141 180 222 269 319
#     4   9  17  30  49  74 103 134 169 214 261 310
#     4  10  18  30  51  76 104 138 178 218 263 316
#
# _framework density 16.904325
#
# number of rings (size 3 to 8) (size 9 to 14) (size 15 to 20)
#    0.000    2.200    2.000    1.800    0.000    5.200 
#    0.000    0.000    0.000    1.200    0.000    5.600 
#    0.000    0.000    0.000    0.000    0.000    0.000 
#
# Total GULP energy -223164.925564 kJ/mol
# GULP energy per Si atom -5579.123139 kJ/mol
# Density = 1.686585 g / cm^3
# Si number density = 16.904325 Si / 1000 Ang^3
#
#
#
# Elastic Constant Matrix: (Units=GPa)
#
#
# Indices 1 2 3 4 5 6 
#
# 1 199.2639 104.2679 44.0903 0.0000 0.0000 0.0000
# 2 104.2679 113.7522 48.3314 0.0000 0.0000 0.0000
# 3 44.0903 48.3314 41.1062 0.0000 0.0000 0.0000
# 4 0.0000 0.0000 0.0000 11.9407 0.0000 0.0000
# 5 0.0000 0.0000 0.0000 0.0000 16.1881 0.0000
# 6 0.0000 0.0000 0.0000 0.0000 0.0000 9.5454
#
#
#
# Elastic Compliance Matrix: (Units=1/GPa)
#
#
# Indices 1 2 3 4 5 6 
#
# 1 0.009644 -0.008882 0.000099 0.000000 0.000000 0.000000
# 2 -0.008882 0.025747 -0.020746 0.000000 0.000000 0.000000
# 3 0.000099 -0.020746 0.048613 0.000000 0.000000 0.000000
# 4 0.000000 0.000000 0.000000 0.083748 0.000000 0.000000
# 5 0.000000 0.000000 0.000000 0.000000 0.061774 0.000000
# 6 0.000000 0.000000 0.000000 0.000000 0.000000 0.104763
#
#
# Mechanical properties :
#
#
# Convention : Reuss Voigt Hill
#
# Bulk Modulus (GPa) = 40.08521 83.05572 61.57046
# Shear Modulus (GPa) = 12.44826 18.03034 15.23930
#
# Velocity S-wave (km/s) = 2.71660 3.26944 3.00576
# Velocity P-wave (km/s) = 5.79693 7.96818 6.96765
#
# Compressibility (1/GPa) = 0.02494686
#
# Stress axis : x y z
#
# Youngs Moduli (GPa) = 103.68742 38.83896 20.57055
#
# Poissons Ratio (x) = 0.34498 -0.00204
# Poissons Ratio (y) = 0.92099 0.42675
# Poissons Ratio (z) = -0.01028 0.80574
#
# Static dielectric constant tensor:
#      x y z
#    x 1.560390 0.000000 0.000000 
#    y 0.000000 1.563230 0.000000 
#    z 0.000000 0.000000 1.543200 
# 
# From -- ./inp_files/17924.got.cif
#   From: 2010.05.17/outbox.cif.g08.bks.cpg/sg51_9_cif.got.tgz:17924.got - 2010.06.03 11:52:47.
