data_PCOD9399724
_publ_section_title
;
Structure prediction by ZEFSAII (Michael W. Deem and Ramdas Pophale) SiO2 
 PCOD9399724
Probable space group: P M M A
;
_chemical_formula_sum "Si O2"
_cell_formula_units_Z 64
_cell_length_a 14.974231
_cell_length_b 8.592850
_cell_length_c 25.267689
_cell_angle_alpha 90.000000
_cell_angle_beta 90.000000
_cell_angle_gamma 90.000000
_cell_volume 3251.226918
_symmetry_space_group_name_H-M "P M M A"
_symmetry_group_IT_number 51
_symmetry_cell_setting 'orthorhombic'
loop_
_space_group_symop_operation_xyz
x,y,z
1/2-x,-y,z
1/2+x,-y,-z
-x,y,-z
-x,-y,-z
1/2+x,y,-z
1/2-x,y,z
x,-y,z
loop_
_atom_site_type_symbol
_atom_site_label
_atom_site_fract_x
_atom_site_fract_y
_atom_site_fract_z
Si Si1 0.851210 0.814587 0.634837
Si Si2 0.398202 0.681384 0.479380
Si Si3 0.462135 0.186259 0.878188
Si Si4 0.654110 0.689160 0.408748
Si Si5 0.850624 0.685099 0.902170
Si Si6 0.146822 0.311771 0.779228
Si Si7 0.852816 0.815369 0.019570
Si Si8 0.477012 0.311959 0.681317
O O1 0.750000 0.758761 0.643762
O O2 0.879800 0.766274 0.575296
O O3 0.922651 0.746919 0.675985
O O4 0.852569 0.000000 0.638377
O O5 0.500000 0.684604 0.500000
O O6 0.374066 0.500000 0.470687
O O7 0.348486 0.745636 0.531083
O O8 0.564464 0.240605 0.873273
O O9 0.398951 0.254389 0.832883
O O10 0.421301 0.235037 0.935143
O O11 0.458411 0.000000 0.876345
O O12 0.750000 0.724764 0.383967
O O13 0.646789 0.500000 0.412055
O O14 0.574664 0.742730 0.371621
O O15 0.750000 0.739133 0.886922
O O16 0.853899 0.500000 0.895441
O O17 0.861479 0.727435 0.964215
O O18 0.250000 0.259465 0.774105
O O19 0.148035 0.500000 0.778799
O O20 0.082639 0.261375 0.730978
O O21 0.750000 0.796194 0.038351
O O22 0.866607 0.000000 0.009229
O O23 0.478120 0.500000 0.680911
#
# Coordination Sequence:
#
# PCOD9399724 Si02
#       8
#     8   8   8   8   8   8   8   8
#     4  11  24  39  55  79 114 152 187 228 279 332
#     4  10  18  32  55  83 111 144 185 225 267 323
#     4  11  22  36  57  84 116 156 197 235 280 340
#     4   9  16  28  51  81 109 137 173 219 268 320
#     4  10  21  36  55  82 116 153 194 242 292 338
#     4  10  22  40  63  90 117 144 179 231 290 340
#     4   9  18  33  53  80 116 156 195 233 278 339
#     4  10  20  38  61  83 107 139 185 233 278 330
#
# _framework density 19.684875000000002
#
# number of rings (size 3 to 8) (size 9 to 14) (size 15 to 20)
#    0.000    2.000    1.250    2.625    0.000    7.750 
#    0.000    1.875    0.000    1.875    0.000    0.000 
#    0.000    0.000    0.000    0.000    0.000    0.000 
#
# Total GULP energy -357205.442257 kJ/mol
# GULP energy per Si atom -5581.335035 kJ/mol
# Density = 1.964007 g / cm^3
# Si number density = 19.684875 Si / 1000 Ang^3
#
#
#
# Elastic Constant Matrix: (Units=GPa)
#
#
# Indices 1 2 3 4 5 6 
#
# 1 154.0798 21.7789 48.2891 0.0000 0.0000 0.0000
# 2 21.7789 14.4830 11.8963 0.0000 0.0000 0.0000
# 3 48.2891 11.8963 55.0433 0.0000 0.0000 0.0000
# 4 0.0000 0.0000 0.0000 69.5650 0.0000 0.0000
# 5 0.0000 0.0000 0.0000 0.0000 31.0787 0.0000
# 6 0.0000 0.0000 0.0000 0.0000 0.0000 -15.2691
#
#
#
# Elastic Compliance Matrix: (Units=1/GPa)
#
#
# Indices 1 2 3 4 5 6 
#
# 1 0.009909 -0.009435 -0.006654 0.000000 0.000000 0.000000
# 2 -0.009435 0.092934 -0.011808 0.000000 0.000000 0.000000
# 3 -0.006654 -0.011808 0.026557 0.000000 0.000000 0.000000
# 4 0.000000 0.000000 0.000000 0.014375 0.000000 0.000000
# 5 0.000000 0.000000 0.000000 0.000000 0.032176 0.000000
# 6 0.000000 0.000000 0.000000 0.000000 0.000000 -0.065492
#
#
# Mechanical properties :
#
#
# Convention : Reuss Voigt Hill
#
# Bulk Modulus (GPa) = 13.58589 43.05941 28.32265
# Shear Modulus (GPa) = 26.20672 26.51769 26.36220
#
# Velocity S-wave (km/s) = 3.65267 3.67428 3.66349
# Velocity P-wave (km/s) = 4.97052 6.31841 5.68456
#
# Compressibility (1/GPa) = 0.07360579
#
# Stress axis : x y z
#
# Youngs Moduli (GPa) = 100.91605 10.76027 37.65469
#
# Poissons Ratio (x) = 0.10153 0.25056
# Poissons Ratio (y) = 0.95219 0.44463
# Poissons Ratio (z) = 0.67150 0.12706
#
# Static dielectric constant tensor:
#      x y z
#    x 1.753020 0.000000 0.000000 
#    y 0.000000 1.668710 0.000000 
#    z 0.000000 0.000000 1.676040 
# 
# From -- ./inp_files/35827.got.cif
#   From: 2010.05.17/outbox.cif.g08.bks.cpg/sg51_18_cif.got.tgz:35827.got - 2010.06.03 11:52:47.
