data_PCOD9399291
_publ_section_title
;
Structure prediction by ZEFSAII (Michael W. Deem and Ramdas Pophale) SiO2 
 PCOD9399291
Probable space group: P M M A
;
_chemical_formula_sum "Si O2"
_cell_formula_units_Z 40
_cell_length_a 8.139259
_cell_length_b 13.420836
_cell_length_c 20.047848
_cell_angle_alpha 90.000000
_cell_angle_beta 90.000000
_cell_angle_gamma 90.000000
_cell_volume 2189.939912
_symmetry_space_group_name_H-M "P M M A"
_symmetry_group_IT_number 51
_symmetry_cell_setting 'orthorhombic'
loop_
_space_group_symop_operation_xyz
x,y,z
1/2-x,-y,z
1/2+x,-y,-z
-x,y,-z
-x,-y,-z
1/2+x,y,-z
1/2-x,y,z
x,-y,z
loop_
_atom_site_type_symbol
_atom_site_label
_atom_site_fract_x
_atom_site_fract_y
_atom_site_fract_z
Si Si1 0.048448 0.716310 0.675220
Si Si2 0.053357 0.112291 0.076136
Si Si3 0.445461 0.290581 0.829345
Si Si4 0.560305 0.500000 0.816454
Si Si5 0.551625 0.886957 0.424854
Si Si6 0.059886 0.500000 0.668293
O O1 0.250000 0.714610 0.674539
O O2 0.998999 0.727422 0.752614
O O3 0.993015 0.806364 0.628687
O O4 0.989593 0.607787 0.649394
O O5 0.250000 0.112665 0.078858
O O6 0.989278 0.197686 0.124677
O O7 0.995202 0.000000 0.094054
O O8 0.000000 0.131026 0.000000
O O9 0.250000 0.302878 0.828568
O O10 0.521982 0.395969 0.852361
O O11 0.750000 0.500000 0.795855
O O12 0.450800 0.500000 0.749200
O O13 0.500000 0.860931 0.500000
O O14 0.750000 0.887879 0.422329
O O15 0.493762 0.000000 0.411102
O O16 0.250000 0.500000 0.647476
#
# Coordination Sequence:
#
# PCOD9399291 Si02
#       6
#     8   8   8   4   8   4
#     4   8  15  28  48  70  91 120 158 198 238 286
#     4  10  21  37  55  76 104 137 170 205 249 299
#     4  10  19  33  54  78 102 131 169 209 250 297
#     4  10  18  30  49  74 105 136 164 200 250 300
#     4   9  17  30  46  64  89 122 158 195 238 288
#     4   8  14  28  47  66  90 122 159 196 239 290
#
# _framework density 18.265343000000001
#
# number of rings (size 3 to 8) (size 9 to 14) (size 15 to 20)
#    0.000    2.800    0.000    3.300    0.000    2.000 
#    0.000    8.000    0.000    2.400    0.000    0.000 
#    0.000    0.000    0.000    0.000    0.000    0.000 
#
# Total GULP energy -222871.928140 kJ/mol
# GULP energy per Si atom -5571.798203 kJ/mol
# Density = 1.822377 g / cm^3
# Si number density = 18.265343 Si / 1000 Ang^3
#
#
#
# Elastic Constant Matrix: (Units=GPa)
#
#
# Indices 1 2 3 4 5 6 
#
# 1 29.6354 18.5482 11.3061 0.0000 0.0000 0.0000
# 2 18.5482 189.7903 100.2436 0.0000 0.0000 0.0000
# 3 11.3061 100.2436 76.2788 0.0000 0.0000 0.0000
# 4 0.0000 0.0000 0.0000 -24.8540 0.0000 0.0000
# 5 0.0000 0.0000 0.0000 0.0000 20.7161 0.0000
# 6 0.0000 0.0000 0.0000 0.0000 0.0000 18.5936
#
#
#
# Elastic Compliance Matrix: (Units=1/GPa)
#
#
# Indices 1 2 3 4 5 6 
#
# 1 0.036068 -0.002293 -0.002333 0.000000 0.000000 0.000000
# 2 -0.002293 0.017371 -0.022489 0.000000 0.000000 0.000000
# 3 -0.002333 -0.022489 0.043010 0.000000 0.000000 0.000000
# 4 0.000000 0.000000 0.000000 -0.040235 0.000000 0.000000
# 5 0.000000 0.000000 0.000000 0.000000 0.048272 0.000000
# 6 0.000000 0.000000 0.000000 0.000000 0.000000 0.053782
#
#
# Mechanical properties :
#
#
# Convention : Reuss Voigt Hill
#
# Bulk Modulus (GPa) = 23.68536 61.76671 42.72603
# Shear Modulus (GPa) = 22.06800 13.93158 17.99979
#
# Velocity S-wave (km/s) = 3.47967 2.76476 3.14261
# Velocity P-wave (km/s) = 5.39812 6.63940 6.05067
#
# Compressibility (1/GPa) = 0.04222018
#
# Stress axis : x y z
#
# Youngs Moduli (GPa) = 27.72510 57.56578 23.25018
#
# Poissons Ratio (x) = 0.13198 0.05425
# Poissons Ratio (y) = 0.06356 0.52288
# Poissons Ratio (z) = 0.06469 1.29461
#
# Static dielectric constant tensor:
#      x y z
#    x 1.642440 0.000000 0.000000 
#    y 0.000000 1.668680 0.000000 
#    z 0.000000 0.000000 1.590710 
# 
# From -- ./inp_files/31474.got.cif
#   From: 2010.05.17/outbox.cif.g08.bks.cpg/sg51_16_cif.got.tgz:31474.got - 2010.06.03 11:52:47.
