data_PCOD9399341
_publ_section_title
;
Structure prediction by ZEFSAII (Michael W. Deem and Ramdas Pophale) SiO2 
 PCOD9399341
Probable space group: P M M A
;
_chemical_formula_sum "Si O2"
_cell_formula_units_Z 64
_cell_length_a 20.798607
_cell_length_b 7.435605
_cell_length_c 19.222096
_cell_angle_alpha 90.000000
_cell_angle_beta 90.000000
_cell_angle_gamma 90.000000
_cell_volume 2972.701494
_symmetry_space_group_name_H-M "P M M A"
_symmetry_group_IT_number 51
_symmetry_cell_setting 'orthorhombic'
loop_
_space_group_symop_operation_xyz
x,y,z
1/2-x,-y,z
1/2+x,-y,-z
-x,y,-z
-x,-y,-z
1/2+x,y,-z
1/2-x,y,z
x,-y,z
loop_
_atom_site_type_symbol
_atom_site_label
_atom_site_fract_x
_atom_site_fract_y
_atom_site_fract_z
Si Si1 0.319165 0.205512 0.565644
Si Si2 0.546255 0.209357 0.698524
Si Si3 0.057542 0.281875 0.810270
Si Si4 0.960475 0.782467 0.430572
Si Si5 0.181422 0.717249 0.726245
Si Si6 0.065626 0.714607 0.967532
Si Si7 0.823844 0.780206 0.763645
Si Si8 0.177887 0.784617 0.077066
O O1 0.250000 0.285266 0.543307
O O2 0.388884 0.289858 0.554302
O O3 0.317636 0.204045 0.649422
O O4 0.320165 0.000000 0.538955
O O5 0.506344 0.221253 0.770410
O O6 0.499907 0.284401 0.637260
O O7 0.617829 0.282431 0.714145
O O8 0.555279 0.000000 0.680088
O O9 0.056169 0.500000 0.809699
O O10 0.118956 0.221486 0.766194
O O11 0.068500 0.218339 0.888672
O O12 0.000000 0.750759 0.500000
O O13 0.952974 0.000000 0.420974
O O14 0.250000 0.760282 0.760851
O O15 0.178173 0.500000 0.719478
O O16 0.059181 0.500000 0.961537
O O17 0.125288 0.743109 0.018921
O O18 0.000000 0.786869 0.000000
O O19 0.750000 0.727722 0.746451
O O20 0.837099 0.723246 0.843916
O O21 0.825038 0.000000 0.762662
O O22 0.250000 0.720157 0.059085
O O23 0.180541 0.000000 0.081182
#
# Coordination Sequence:
#
# PCOD9399341 Si02
#       8
#     8   8   8   8   8   8   8   8
#     4   9  16  28  47  68  92 123 155 187 226 272
#     4  10  18  30  51  73  92 124 164 198 239 288
#     4  10  20  32  47  68  96 126 156 199 244 282
#     4   9  17  29  45  70 102 128 153 193 240 285
#     4   9  17  29  45  65  89 118 152 189 230 274
#     4  10  21  34  47  68  98 130 163 200 245 295
#     4   8  15  29  49  72  95 119 155 203 245 282
#     4   9  18  33  51  70  94 125 161 203 249 292
#
# _framework density 21.529239
#
# number of rings (size 3 to 8) (size 9 to 14) (size 15 to 20)
#    0.000    2.750    1.250    1.500    0.000    1.500 
#    0.000    1.875    0.000    7.875    0.000    0.000 
#    0.000    0.000    0.000    0.000    0.000    0.000 
#
# Total GULP energy -356769.938030 kJ/mol
# GULP energy per Si atom -5574.530282 kJ/mol
# Density = 2.148024 g / cm^3
# Si number density = 21.529239 Si / 1000 Ang^3
#
#
#
# Elastic Constant Matrix: (Units=GPa)
#
#
# Indices 1 2 3 4 5 6 
#
# 1 202.3037 0.3950 58.5692 0.0000 0.0000 0.0000
# 2 0.3950 65.1551 -0.1540 0.0000 0.0000 0.0000
# 3 58.5692 -0.1540 46.7530 0.0000 0.0000 0.0000
# 4 0.0000 0.0000 0.0000-1031.2662 0.0000 0.0000
# 5 0.0000 0.0000 0.0000 0.0000 27.7090 0.0000
# 6 0.0000 0.0000 0.0000 0.0000 0.0000 22.1431
#
#
#
# Elastic Compliance Matrix: (Units=1/GPa)
#
#
# Indices 1 2 3 4 5 6 
#
# 1 0.007756 -0.000070 -0.009717 0.000000 0.000000 0.000000
# 2 -0.000070 0.015349 0.000138 0.000000 0.000000 0.000000
# 3 -0.009717 0.000138 0.033562 0.000000 0.000000 0.000000
# 4 0.000000 0.000000 0.000000 -0.000970 0.000000 0.000000
# 5 0.000000 0.000000 0.000000 0.000000 0.036089 0.000000
# 6 0.000000 0.000000 0.000000 0.000000 0.000000 0.045161
#
#
# Mechanical properties :
#
#
# Convention : Reuss Voigt Hill
#
# Bulk Modulus (GPa) = 26.75946 47.98136 37.37041
# Shear Modulus (GPa) = 29.63812 -179.25605 -74.80896
#
# Velocity S-wave (km/s) = 3.71434 -9.13468 -5.90111
# Velocity P-wave (km/s) = 5.55441 9.42982 5.38842
#
# Compressibility (1/GPa) = 0.03736997
#
# Stress axis : x y z
#
# Youngs Moduli (GPa) = 128.92667 65.15189 29.79548
#
# Poissons Ratio (x) = 0.00456 0.28952
# Poissons Ratio (y) = 0.00902 -0.00412
# Poissons Ratio (z) = 1.25277 -0.00901
#
# Static dielectric constant tensor:
#      x y z
#    x 1.840880 0.000000 0.000000 
#    y 0.000000 1.831760 0.000000 
#    z 0.000000 0.000000 1.743850 
# 
# From -- ./inp_files/30668.got.cif
#   From: 2010.05.17/outbox.cif.g08.bks.cpg/sg51_16_cif.got.tgz:30668.got - 2010.06.03 11:52:47.
