data_PCOD9399686
_publ_section_title
;
Structure prediction by ZEFSAII (Michael W. Deem and Ramdas Pophale) SiO2 
 PCOD9399686
Probable space group: P M M A
;
_chemical_formula_sum "Si O2"
_cell_formula_units_Z 56
_cell_length_a 23.166001
_cell_length_b 7.861632
_cell_length_c 15.382438
_cell_angle_alpha 90.000000
_cell_angle_beta 90.000000
_cell_angle_gamma 90.000000
_cell_volume 2801.489215
_symmetry_space_group_name_H-M "P M M A"
_symmetry_group_IT_number 51
_symmetry_cell_setting 'orthorhombic'
loop_
_space_group_symop_operation_xyz
x,y,z
1/2-x,-y,z
1/2+x,-y,-z
-x,y,-z
-x,-y,-z
1/2+x,y,-z
1/2-x,y,z
x,-y,z
loop_
_atom_site_type_symbol
_atom_site_label
_atom_site_fract_x
_atom_site_fract_y
_atom_site_fract_z
Si Si1 0.313143 0.302070 0.810284
Si Si2 0.476195 0.702075 0.594053
Si Si3 0.913036 0.205843 0.702498
Si Si4 0.945856 0.791813 0.887420
Si Si5 0.685467 0.207872 0.570974
Si Si6 0.347136 0.196984 0.620747
Si Si7 0.075117 0.797267 0.919272
O O1 0.250000 0.225086 0.831613
O O2 0.310637 0.500000 0.831324
O O3 0.323612 0.283179 0.707189
O O4 0.368941 0.235845 0.861473
O O5 0.500000 0.759738 0.500000
O O6 0.465498 0.500000 0.589345
O O7 0.525889 0.740585 0.662666
O O8 0.416399 0.789737 0.618239
O O9 0.911448 0.264323 0.802228
O O10 0.862813 0.268261 0.638355
O O11 0.910574 0.000000 0.701864
O O12 0.013220 0.736540 0.882147
O O13 0.945139 0.000000 0.886664
O O14 0.921518 0.735242 0.980800
O O15 0.750000 0.254966 0.597525
O O16 0.673789 0.266322 0.472297
O O17 0.682188 0.000000 0.568649
O O18 0.329549 0.000000 0.626023
O O19 0.069259 0.000000 0.924396
#
# Coordination Sequence:
#
# PCOD9399686 Si02
#       7
#     8   8   8   8   8   8   8
#     4  11  24  39  54  78 113 149 184 225 274 326
#     4  11  22  34  50  77 114 145 176 221 273 323
#     4  10  18  32  54  78 106 141 181 221 268 320
#     4   8  16  31  55  84 109 134 169 224 280 319
#     4   9  18  31  48  72 101 133 174 222 262 305
#     4  11  21  35  56  78 103 139 186 228 269 322
#     4   9  17  34  57  81 108 138 178 222 269 326
#
# _framework density 19.989367999999999
#
# number of rings (size 3 to 8) (size 9 to 14) (size 15 to 20)
#    0.000    2.143    1.429    3.429    0.000    3.429 
#    0.000    2.857    0.000    3.857    0.000    0.000 
#    0.000    0.000    0.000    0.000    0.000    0.000 
#
# Total GULP energy -312605.939931 kJ/mol
# GULP energy per Si atom -5582.248927 kJ/mol
# Density = 1.994387 g / cm^3
# Si number density = 19.989368 Si / 1000 Ang^3
#
#
#
# Elastic Constant Matrix: (Units=GPa)
#
#
# Indices 1 2 3 4 5 6 
#
# 1 99.8498 -3.9034 48.1272 0.0000 0.0000 0.0000
# 2 -3.9034 19.4867 0.8557 0.0000 0.0000 0.0000
# 3 48.1272 0.8557 127.5244 0.0000 0.0000 0.0000
# 4 0.0000 0.0000 0.0000 -0.6011 0.0000 0.0000
# 5 0.0000 0.0000 0.0000 0.0000 10.2898 0.0000
# 6 0.0000 0.0000 0.0000 0.0000 0.0000 3.7516
#
#
#
# Elastic Compliance Matrix: (Units=1/GPa)
#
#
# Indices 1 2 3 4 5 6 
#
# 1 0.012381 0.002686 -0.004691 0.000000 0.000000 0.000000
# 2 0.002686 0.051915 -0.001362 0.000000 0.000000 0.000000
# 3 -0.004691 -0.001362 0.009621 0.000000 0.000000 0.000000
# 4 0.000000 0.000000 0.000000 -1.663677 0.000000 0.000000
# 5 0.000000 0.000000 0.000000 0.000000 0.097184 0.000000
# 6 0.000000 0.000000 0.000000 0.000000 0.000000 0.266551
#
#
# Mechanical properties :
#
#
# Convention : Reuss Voigt Hill
#
# Bulk Modulus (GPa) = 14.88459 37.44666 26.16562
# Shear Modulus (GPa) = -4.17746 16.14017 5.98135
#
# Velocity S-wave (km/s) = -1.44720 2.84463 1.73169
# Velocity P-wave (km/s) = 2.16100 5.43720 4.13721
#
# Compressibility (1/GPa) = 0.06718358
#
# Stress axis : x y z
#
# Youngs Moduli (GPa) = 80.76989 19.26230 103.93977
#
# Poissons Ratio (x) = -0.05174 0.48753
# Poissons Ratio (y) = -0.21695 0.14157
# Poissons Ratio (z) = 0.37885 0.02624
#
# Static dielectric constant tensor:
#      x y z
#    x 1.708790 0.000000 0.000000 
#    y 0.000000 1.730880 0.000000 
#    z 0.000000 0.000000 1.707720 
# 
# From -- ./inp_files/25708.got.cif
#   From: 2010.05.17/outbox.cif.g08.bks.cpg/sg51_13_cif.got.tgz:25708.got - 2010.06.03 11:52:47.
