data_PCOD9399954
_publ_section_title
;
Structure prediction by ZEFSAII (Michael W. Deem and Ramdas Pophale) SiO2 
 PCOD9399954
Probable space group: P M M A
;
_chemical_formula_sum "Si O2"
_cell_formula_units_Z 56
_cell_length_a 14.943398
_cell_length_b 8.558355
_cell_length_c 23.097378
_cell_angle_alpha 90.000000
_cell_angle_beta 90.000000
_cell_angle_gamma 90.000000
_cell_volume 2953.944575
_symmetry_space_group_name_H-M "P M M A"
_symmetry_group_IT_number 51
_symmetry_cell_setting 'orthorhombic'
loop_
_space_group_symop_operation_xyz
x,y,z
1/2-x,-y,z
1/2+x,-y,-z
-x,y,-z
-x,-y,-z
1/2+x,y,-z
1/2-x,y,z
x,-y,z
loop_
_atom_site_type_symbol
_atom_site_label
_atom_site_fract_x
_atom_site_fract_y
_atom_site_fract_z
Si Si1 0.647093 0.687485 0.890489
Si Si2 0.641073 0.819347 0.012660
Si Si3 0.943960 0.190288 0.443391
Si Si4 0.645865 0.810646 0.140111
Si Si5 0.985453 0.312602 0.789096
Si Si6 0.250000 0.810564 0.518435
Si Si7 0.065634 0.187730 0.336444
Si Si8 0.250000 0.313733 0.387269
O O1 0.750000 0.744137 0.884331
O O2 0.649145 0.500000 0.888379
O O3 0.612686 0.735642 0.954003
O O4 0.585175 0.743117 0.838104
O O5 0.750000 0.814922 0.013689
O O6 0.613920 0.000000 0.008736
O O7 0.614624 0.756699 0.075833
O O8 0.841380 0.240765 0.450543
O O9 0.000000 0.240247 0.500000
O O10 0.994002 0.240031 0.385160
O O11 0.944237 0.000000 0.443606
O O12 0.750000 0.768082 0.147884
O O13 0.581961 0.741760 0.188467
O O14 0.641174 0.000000 0.140163
O O15 0.981659 0.500000 0.786446
O O16 0.961669 0.244297 0.726865
O O17 0.250000 0.752131 0.452538
O O18 0.250000 0.000000 0.516677
O O19 0.161658 0.253594 0.355006
O O20 0.069518 0.000000 0.337616
O O21 0.250000 0.500000 0.388831
#
# Coordination Sequence:
#
# PCOD9399954 Si02
#       8
#     8   8   8   8   8   4   8   4
#     4   9  19  35  53  76 111 152 186 225 287 358
#     4   8  15  30  54  82 108 137 182 242 295 338
#     4   9  17  33  61  92 119 147 190 243 284 331
#     4   9  19  38  61  82 108 146 193 244 295 348
#     4  11  24  39  56  82 116 155 195 240 293 348
#     4  10  18  36  64  92 120 154 193 236 289 346
#     4  11  23  41  62  87 117 157 202 241 284 344
#     4  12  24  38  60  92 124 156 189 232 291 346
#
# _framework density 18.957702999999999
#
# number of rings (size 3 to 8) (size 9 to 14) (size 15 to 20)
#    0.000    2.286    1.429    2.357    1.000    2.571 
#    1.286    6.429    0.000    0.000    0.000    0.000 
#    0.000    0.000    0.000    0.000    0.000    0.000 
#
# Total GULP energy -312617.426960 kJ/mol
# GULP energy per Si atom -5582.454053 kJ/mol
# Density = 1.891455 g / cm^3
# Si number density = 18.957703 Si / 1000 Ang^3
#
#
#
# Elastic Constant Matrix: (Units=GPa)
#
#
# Indices 1 2 3 4 5 6 
#
# 1 148.6415 29.6119 95.3808 0.0000 0.0000 0.0000
# 2 29.6119 27.9128 29.6650 0.0000 0.0000 0.0000
# 3 95.3808 29.6650 168.2091 0.0000 0.0000 0.0000
# 4 0.0000 0.0000 0.0000 135.8717 0.0000 0.0000
# 5 0.0000 0.0000 0.0000 0.0000 35.5201 0.0000
# 6 0.0000 0.0000 0.0000 0.0000 0.0000 13.7902
#
#
#
# Elastic Compliance Matrix: (Units=1/GPa)
#
#
# Indices 1 2 3 4 5 6 
#
# 1 0.011449 -0.006457 -0.005353 0.000000 0.000000 0.000000
# 2 -0.006457 0.047731 -0.004757 0.000000 0.000000 0.000000
# 3 -0.005353 -0.004757 0.009819 0.000000 0.000000 0.000000
# 4 0.000000 0.000000 0.000000 0.007360 0.000000 0.000000
# 5 0.000000 0.000000 0.000000 0.000000 0.028153 0.000000
# 6 0.000000 0.000000 0.000000 0.000000 0.000000 0.072515
#
#
# Mechanical properties :
#
#
# Convention : Reuss Voigt Hill
#
# Bulk Modulus (GPa) = 27.88147 72.67544 50.27845
# Shear Modulus (GPa) = 22.51077 49.71008 36.11043
#
# Velocity S-wave (km/s) = 3.44964 5.12626 4.36912
# Velocity P-wave (km/s) = 5.53225 8.57069 7.21327
#
# Compressibility (1/GPa) = 0.03586612
#
# Stress axis : x y z
#
# Youngs Moduli (GPa) = 87.34386 20.95089 101.83928
#
# Poissons Ratio (x) = 0.13527 0.54518
# Poissons Ratio (y) = 0.56394 0.48441
# Poissons Ratio (z) = 0.46758 0.09966
#
# Static dielectric constant tensor:
#      x y z
#    x 1.673320 0.000000 0.000000 
#    y 0.000000 1.642910 0.000000 
#    z 0.000000 0.000000 1.632500 
# 
# From -- ./inp_files/33588.got.cif
#   From: 2010.05.17/outbox.cif.g08.bks.cpg/sg51_17_cif.got.tgz:33588.got - 2010.06.03 11:52:47.
