data_PCOD9399280
_publ_section_title
;
Structure prediction by ZEFSAII (Michael W. Deem and Ramdas Pophale) SiO2 
 PCOD9399280
Probable space group: P M M A
;
_chemical_formula_sum "Si O2"
_cell_formula_units_Z 64
_cell_length_a 34.897631
_cell_length_b 8.868800
_cell_length_c 13.078125
_cell_angle_alpha 90.000000
_cell_angle_beta 90.000000
_cell_angle_gamma 90.000000
_cell_volume 4047.681124
_symmetry_space_group_name_H-M "P M M A"
_symmetry_group_IT_number 51
_symmetry_cell_setting 'orthorhombic'
loop_
_space_group_symop_operation_xyz
x,y,z
1/2-x,-y,z
1/2+x,-y,-z
-x,y,-z
-x,-y,-z
1/2+x,y,-z
1/2-x,y,z
x,-y,z
loop_
_atom_site_type_symbol
_atom_site_label
_atom_site_fract_x
_atom_site_fract_y
_atom_site_fract_z
Si Si1 0.293898 0.816559 0.495923
Si Si2 0.843527 0.817634 0.700796
Si Si3 0.294673 0.680206 0.881344
Si Si4 0.841625 0.818852 0.303405
Si Si5 0.999098 0.173948 0.375882
Si Si6 0.705506 0.180946 0.897946
Si Si7 0.420667 0.319889 0.376153
Si Si8 0.081107 0.680165 0.617938
O O1 0.250000 0.763923 0.494564
O O2 0.317373 0.769656 0.395678
O O3 0.315975 0.771050 0.598635
O O4 0.293096 0.000000 0.494975
O O5 0.822255 0.775013 0.805450
O O6 0.885282 0.747864 0.685845
O O7 0.846383 0.000000 0.698032
O O8 0.250000 0.720193 0.860227
O O9 0.298213 0.500000 0.876929
O O10 0.321759 0.756076 0.797923
O O11 0.303324 0.738480 0.995378
O O12 0.883952 0.754835 0.322074
O O13 0.842725 0.000000 0.300729
O O14 0.960181 0.258962 0.346470
O O15 0.000000 0.177371 0.500000
O O16 0.038450 0.252711 0.342820
O O17 0.997990 0.000000 0.343663
O O18 0.750000 0.213670 0.870994
O O19 0.702630 0.000000 0.911897
O O20 0.421547 0.500000 0.368635
O O21 0.414873 0.280659 0.496813
O O22 0.082427 0.500000 0.626624
#
# Coordination Sequence:
#
# PCOD9399280 Si02
#       8
#     8   8   8   8   8   8   8   8
#     4   9  17  28  44  68  97 128 161 198 242 290
#     4  10  18  30  49  72  99 129 165 206 247 291
#     4  10  21  36  52  70  96 129 166 211 259 301
#     4  11  20  31  50  73  99 130 168 207 245 292
#     4   9  17  29  47  68  93 127 168 205 242 286
#     4   9  18  33  53  74  95 124 167 215 255 292
#     4  10  19  30  45  68 101 135 165 198 242 295
#     4  10  19  31  46  68 101 134 165 200 245 296
#
# _framework density 15.811522
#
# number of rings (size 3 to 8) (size 9 to 14) (size 15 to 20)
#    0.000    2.250    1.250    2.625    0.000    5.750 
#    0.000    0.000    0.000    1.875    0.000    0.875 
#    0.000    7.000    0.000    0.000    0.000    0.000 
#
# Total GULP energy -357049.374077 kJ/mol
# GULP energy per Si atom -5578.896470 kJ/mol
# Density = 1.577553 g / cm^3
# Si number density = 15.811522 Si / 1000 Ang^3
#
#
#
# Elastic Constant Matrix: (Units=GPa)
#
#
# Indices 1 2 3 4 5 6 
#
# 1 165.3726 56.2609 81.0213 0.0000 0.0000 0.0000
# 2 56.2609 49.4922 43.6279 0.0000 0.0000 0.0000
# 3 81.0213 43.6279 91.7772 0.0000 0.0000 0.0000
# 4 0.0000 0.0000 0.0000 16.9597 0.0000 0.0000
# 5 0.0000 0.0000 0.0000 0.0000 19.0494 0.0000
# 6 0.0000 0.0000 0.0000 0.0000 0.0000 20.6215
#
#
#
# Elastic Compliance Matrix: (Units=1/GPa)
#
#
# Indices 1 2 3 4 5 6 
#
# 1 0.012064 -0.007446 -0.007110 0.000000 0.000000 0.000000
# 2 -0.007446 0.039374 -0.012144 0.000000 0.000000 0.000000
# 3 -0.007110 -0.012144 0.022946 0.000000 0.000000 0.000000
# 4 0.000000 0.000000 0.000000 0.058963 0.000000 0.000000
# 5 0.000000 0.000000 0.000000 0.000000 0.052495 0.000000
# 6 0.000000 0.000000 0.000000 0.000000 0.000000 0.048493
#
#
# Mechanical properties :
#
#
# Convention : Reuss Voigt Hill
#
# Bulk Modulus (GPa) = 47.65664 74.27357 60.96511
# Shear Modulus (GPa) = 16.96466 19.70826 18.33646
#
# Velocity S-wave (km/s) = 3.27911 3.53434 3.40912
# Velocity P-wave (km/s) = 6.67403 7.98321 7.35780
#
# Compressibility (1/GPa) = 0.02098343
#
# Stress axis : x y z
#
# Youngs Moduli (GPa) = 82.89401 25.39727 43.58046
#
# Poissons Ratio (x) = 0.18910 0.30988
# Poissons Ratio (y) = 0.61719 0.52925
# Poissons Ratio (z) = 0.58941 0.30843
#
# Static dielectric constant tensor:
#      x y z
#    x 1.517190 0.000000 0.000000 
#    y 0.000000 1.525910 0.000000 
#    z 0.000000 0.000000 1.501460 
# 
# From -- ./inp_files/19479.got.cif
#   From: 2010.05.17/outbox.cif.g08.bks.cpg/sg51_10_cif.got.tgz:19479.got - 2010.06.03 11:52:47.
