data_PCOD9399224
_publ_section_title
;
Structure prediction by ZEFSAII (Michael W. Deem and Ramdas Pophale) SiO2 
 PCOD9399224
Probable space group: P M M A
;
_chemical_formula_sum "Si O2"
_cell_formula_units_Z 40
_cell_length_a 7.641458
_cell_length_b 10.323254
_cell_length_c 25.406500
_cell_angle_alpha 90.000000
_cell_angle_beta 90.000000
_cell_angle_gamma 90.000000
_cell_volume 2004.184432
_symmetry_space_group_name_H-M "P M M A"
_symmetry_group_IT_number 51
_symmetry_cell_setting 'orthorhombic'
loop_
_space_group_symop_operation_xyz
x,y,z
1/2-x,-y,z
1/2+x,-y,-z
-x,y,-z
-x,-y,-z
1/2+x,y,-z
1/2-x,y,z
x,-y,z
loop_
_atom_site_type_symbol
_atom_site_label
_atom_site_fract_x
_atom_site_fract_y
_atom_site_fract_z
Si Si1 0.964216 0.247078 0.124592
Si Si2 0.043265 0.350789 0.672070
Si Si3 0.035745 0.848763 0.760438
Si Si4 0.042287 0.647425 0.443665
Si Si5 0.459430 0.000000 0.939136
Si Si6 0.960522 0.500000 0.062356
O O1 0.750000 0.250343 0.124940
O O2 0.016384 0.218075 0.184467
O O3 0.025054 0.126927 0.089754
O O4 0.024172 0.375361 0.094691
O O5 0.250000 0.361488 0.682333
O O6 0.972334 0.500000 0.675565
O O7 0.974588 0.245253 0.713374
O O8 0.021220 0.300834 0.612230
O O9 0.250000 0.852147 0.759492
O O10 0.979971 0.000000 0.757571
O O11 0.250000 0.640539 0.440231
O O12 0.968240 0.500000 0.445983
O O13 0.000000 0.710502 0.500000
O O14 0.250000 0.000000 0.932875
O O15 0.500000 0.000000 0.000000
O O16 0.750000 0.500000 0.065416
O O17 0.000000 0.500000 0.000000
#
# Coordination Sequence:
#
# PCOD9399224 Si02
#       6
#     8   8   8   8   4   4
#     4   9  17  29  46  69  93 119 153 193 234 276
#     4   9  17  27  44  72  98 120 152 194 235 276
#     4   9  16  28  46  69  95 121 154 196 237 275
#     4   9  16  27  45  69  99 131 160 193 233 276
#     4  10  18  30  48  68  90 118 153 192 231 276
#     4  10  20  32  48  70  96 122 151 190 237 284
#
# _framework density 19.958243
#
# number of rings (size 3 to 8) (size 9 to 14) (size 15 to 20)
#    0.000    2.800    1.000    1.200    1.400    2.400 
#    0.000    0.000    0.000    3.600    0.000    0.000 
#    0.000    0.000    0.000    0.000    0.000    0.000 
#
# Total GULP energy -222919.278798 kJ/mol
# GULP energy per Si atom -5572.981970 kJ/mol
# Density = 1.991282 g / cm^3
# Si number density = 19.958243 Si / 1000 Ang^3
#
#
#
# Elastic Constant Matrix: (Units=GPa)
#
#
# Indices 1 2 3 4 5 6 
#
# 1 38.0856 8.4123 -3.5496 0.0000 0.0000 0.0000
# 2 8.4123 158.2148 114.3417 0.0000 0.0000 0.0000
# 3 -3.5496 114.3417 227.8691 0.0000 0.0000 0.0000
# 4 0.0000 0.0000 0.0000 25.1730 0.0000 0.0000
# 5 0.0000 0.0000 0.0000 0.0000 20.1447 0.0000
# 6 0.0000 0.0000 0.0000 0.0000 0.0000 -5.7217
#
#
#
# Elastic Compliance Matrix: (Units=1/GPa)
#
#
# Indices 1 2 3 4 5 6 
#
# 1 0.027027 -0.002732 0.001792 0.000000 0.000000 0.000000
# 2 -0.002732 0.010193 -0.005157 0.000000 0.000000 0.000000
# 3 0.001792 -0.005157 0.007004 0.000000 0.000000 0.000000
# 4 0.000000 0.000000 0.000000 0.039725 0.000000 0.000000
# 5 0.000000 0.000000 0.000000 0.000000 0.049641 0.000000
# 6 0.000000 0.000000 0.000000 0.000000 0.000000 -0.174773
#
#
# Mechanical properties :
#
#
# Convention : Reuss Voigt Hill
#
# Bulk Modulus (GPa) = 31.22124 73.61983 52.42053
# Shear Modulus (GPa) = -273.04747 28.25020 -122.39864
#
# Velocity S-wave (km/s) = -11.70924 3.76635 -7.83967
# Velocity P-wave (km/s) = 12.92793 7.47535 7.45823
#
# Compressibility (1/GPa) = 0.03202948
#
# Stress axis : x y z
#
# Youngs Moduli (GPa) = 36.99993 98.10744 142.77097
#
# Poissons Ratio (x) = 0.26804 -0.25583
# Poissons Ratio (y) = 0.10109 0.73630
# Poissons Ratio (z) = -0.06630 0.50596
#
# Static dielectric constant tensor:
#      x y z
#    x 1.753330 0.000000 0.000000 
#    y 0.000000 1.649750 0.000000 
#    z 0.000000 0.000000 1.579900 
# 
# From -- ./inp_files/36001.got.cif
#   From: 2010.05.17/outbox.cif.g08.bks.cpg/sg51_19_cif.got.tgz:36001.got - 2010.06.03 11:52:47.
