data_PCOD9399574
_publ_section_title
;
Structure prediction by ZEFSAII (Michael W. Deem and Ramdas Pophale) SiO2 
 PCOD9399574
Probable space group: P M M A
;
_chemical_formula_sum "Si O2"
_cell_formula_units_Z 64
_cell_length_a 24.834231
_cell_length_b 7.472364
_cell_length_c 15.900708
_cell_angle_alpha 90.000000
_cell_angle_beta 90.000000
_cell_angle_gamma 90.000000
_cell_volume 2950.700962
_symmetry_space_group_name_H-M "P M M A"
_symmetry_group_IT_number 51
_symmetry_cell_setting 'orthorhombic'
loop_
_space_group_symop_operation_xyz
x,y,z
1/2-x,-y,z
1/2+x,-y,-z
-x,y,-z
-x,-y,-z
1/2+x,y,-z
1/2-x,y,z
x,-y,z
loop_
_atom_site_type_symbol
_atom_site_label
_atom_site_fract_x
_atom_site_fract_y
_atom_site_fract_z
Si Si1 0.885026 0.719281 0.595326
Si Si2 0.117323 0.215015 0.091534
Si Si3 0.497032 0.783134 0.163147
Si Si4 0.620480 0.715778 0.409615
Si Si5 0.810603 0.787665 0.245412
Si Si6 0.887456 0.781075 0.096042
Si Si7 0.810744 0.713210 0.748228
Si Si8 0.497018 0.708593 0.639878
O O1 0.886159 0.500000 0.598921
O O2 0.863597 0.771401 0.503619
O O3 0.848931 0.782120 0.673259
O O4 0.946794 0.782024 0.604974
O O5 0.160798 0.258658 0.162340
O O6 0.058498 0.279576 0.121625
O O7 0.114029 0.000000 0.087795
O O8 0.129404 0.277233 0.997120
O O9 0.551089 0.727073 0.115210
O O10 0.500349 0.722525 0.259449
O O11 0.496288 0.000000 0.163465
O O12 0.618207 0.500000 0.409299
O O13 0.660389 0.765054 0.334821
O O14 0.560056 0.784321 0.390012
O O15 0.750000 0.714460 0.245073
O O16 0.848634 0.717310 0.170678
O O17 0.806761 0.000000 0.230992
O O18 0.887050 0.000000 0.097565
O O19 0.750000 0.784798 0.745991
O O20 0.807464 0.500000 0.735773
O O21 0.496374 0.500000 0.615041
#
# Coordination Sequence:
#
# PCOD9399574 Si02
#       8
#     8   8   8   8   8   8   8   8
#     4   9  18  34  55  78 107 140 173 211 258 316
#     4  10  20  34  56  83 106 134 175 220 263 308
#     4  10  18  31  54  81 108 137 170 211 262 316
#     4  10  20  34  56  83 106 134 175 220 263 308
#     4  10  21  37  55  75 103 141 180 216 259 311
#     4   9  18  34  55  78 107 140 173 211 258 316
#     4  10  21  37  55  75 103 141 180 216 259 311
#     4  10  18  31  54  81 108 137 170 211 262 316
#
# _framework density 21.689762000000002
#
# number of rings (size 3 to 8) (size 9 to 14) (size 15 to 20)
#    0.000    2.250    2.500    0.750    0.000    4.500 
#    0.000    5.000    0.000    3.000    0.000    0.000 
#    0.000    0.000    0.000    0.000    0.000    0.000 
#
# Total GULP energy -357548.518658 kJ/mol
# GULP energy per Si atom -5586.695604 kJ/mol
# Density = 2.164040 g / cm^3
# Si number density = 21.689762 Si / 1000 Ang^3
#
#
#
# Elastic Constant Matrix: (Units=GPa)
#
#
# Indices 1 2 3 4 5 6 
#
# 1 142.4707 3.1656 47.8377 0.0000 0.0000 0.0000
# 2 3.1656 61.8029 -9.7003 0.0000 0.0000 0.0000
# 3 47.8377 -9.7003 127.5151 0.0000 0.0000 0.0000
# 4 0.0000 0.0000 0.0000 24.6276 0.0000 0.0000
# 5 0.0000 0.0000 0.0000 0.0000 2.0949 0.0000
# 6 0.0000 0.0000 0.0000 0.0000 0.0000 11.5324
#
#
#
# Elastic Compliance Matrix: (Units=1/GPa)
#
#
# Indices 1 2 3 4 5 6 
#
# 1 0.008080 -0.000900 -0.003100 0.000000 0.000000 0.000000
# 2 -0.000900 0.016476 0.001591 0.000000 0.000000 0.000000
# 3 -0.003100 0.001591 0.009126 0.000000 0.000000 0.000000
# 4 0.000000 0.000000 0.000000 0.040605 0.000000 0.000000
# 5 0.000000 0.000000 0.000000 0.000000 0.477342 0.000000
# 6 0.000000 0.000000 0.000000 0.000000 0.000000 0.086712
#
#
# Mechanical properties :
#
#
# Convention : Reuss Voigt Hill
#
# Bulk Modulus (GPa) = 34.64463 46.04383 40.34423
# Shear Modulus (GPa) = 7.65954 27.01670 17.33812
#
# Velocity S-wave (km/s) = 1.88124 3.53313 2.83038
# Velocity P-wave (km/s) = 4.55261 6.15780 5.41501
#
# Compressibility (1/GPa) = 0.02886450
#
# Stress axis : x y z
#
# Youngs Moduli (GPa) = 123.76602 60.69317 109.57592
#
# Poissons Ratio (x) = 0.05465 0.33965
# Poissons Ratio (y) = 0.11143 -0.17435
# Poissons Ratio (z) = 0.38363 -0.09657
#
# Static dielectric constant tensor:
#      x y z
#    x 1.767070 0.000000 0.000000 
#    y 0.000000 1.873240 0.000000 
#    z 0.000000 0.000000 1.753360 
# 
# From -- ./inp_files/18850.got.cif
#   From: 2010.05.17/outbox.cif.g08.bks.cpg/sg51_10_cif.got.tgz:18850.got - 2010.06.03 11:52:47.
