data_PCOD9399552
_publ_section_title
;
Structure prediction by ZEFSAII (Michael W. Deem and Ramdas Pophale) SiO2 
 PCOD9399552
Probable space group: P M M A
;
_chemical_formula_sum "Si O2"
_cell_formula_units_Z 48
_cell_length_a 15.549606
_cell_length_b 19.269688
_cell_length_c 7.974571
_cell_angle_alpha 90.000000
_cell_angle_beta 90.000000
_cell_angle_gamma 90.000000
_cell_volume 2389.469004
_symmetry_space_group_name_H-M "P M M A"
_symmetry_group_IT_number 51
_symmetry_cell_setting 'orthorhombic'
loop_
_space_group_symop_operation_xyz
x,y,z
1/2-x,-y,z
1/2+x,-y,-z
-x,y,-z
-x,-y,-z
1/2+x,y,-z
1/2-x,y,z
x,-y,z
loop_
_atom_site_type_symbol
_atom_site_label
_atom_site_fract_x
_atom_site_fract_y
_atom_site_fract_z
Si Si1 0.345397 0.327256 0.774784
Si Si2 0.915052 0.702635 0.886852
Si Si3 0.998928 0.420808 0.700756
Si Si4 0.854319 0.160851 0.708694
Si Si5 0.854870 0.822191 0.336047
Si Si6 0.144940 0.921357 0.965094
O O1 0.250000 0.342064 0.712025
O O2 0.408707 0.391474 0.756816
O O3 0.381034 0.258378 0.681686
O O4 0.343873 0.306842 0.970364
O O5 0.932150 0.632914 0.782297
O O6 0.892563 0.766085 0.768184
O O7 0.000000 0.716158 0.000000
O O8 0.984408 0.500000 0.753661
O O9 0.000000 0.417551 0.500000
O O10 0.750000 0.165389 0.711492
O O11 0.880046 0.147698 0.516595
O O12 0.879853 0.105535 0.850512
O O13 0.750000 0.821085 0.328093
O O14 0.884780 0.868098 0.178970
O O15 0.250000 0.921072 0.959969
O O16 0.116513 0.000000 0.934620
#
# Coordination Sequence:
#
# PCOD9399552 Si02
#       6
#     8   8   8   8   8   8
#     4  10  19  34  57  82 109 143 188 236 278 325
#     4  10  20  33  55  80 105 141 181 225 276 331
#     4  10  22  39  56  79 113 148 184 228 280 339
#     4  10  18  31  53  78 106 140 184 229 269 322
#     4   9  17  29  49  77 106 138 177 223 269 317
#     4   9  17  29  47  75 110 141 173 222 280 329
#
# _framework density 20.088145999999998
#
# number of rings (size 3 to 8) (size 9 to 14) (size 15 to 20)
#    0.000    2.333    1.667    1.500    0.000    4.000 
#    0.000    4.167    0.000    4.000    0.000    1.167 
#    0.000    0.000    0.000    0.000    0.000    0.000 
#
# Total GULP energy -267903.066125 kJ/mol
# GULP energy per Si atom -5581.313878 kJ/mol
# Density = 2.004242 g / cm^3
# Si number density = 20.088146 Si / 1000 Ang^3
#
#
#
# Elastic Constant Matrix: (Units=GPa)
#
#
# Indices 1 2 3 4 5 6 
#
# 1 27.2723 -2.5862 -3.0394 0.0000 0.0000 0.0000
# 2 -2.5862 78.3279 14.7432 0.0000 0.0000 0.0000
# 3 -3.0394 14.7432 98.5002 0.0000 0.0000 0.0000
# 4 0.0000 0.0000 0.0000 22.0326 0.0000 0.0000
# 5 0.0000 0.0000 0.0000 0.0000 14.4164 0.0000
# 6 0.0000 0.0000 0.0000 0.0000 0.0000-5770.0405
#
#
#
# Elastic Compliance Matrix: (Units=1/GPa)
#
#
# Indices 1 2 3 4 5 6 
#
# 1 0.036875 0.001032 0.000983 0.000000 0.000000 0.000000
# 2 0.001032 0.013166 -0.001939 0.000000 0.000000 0.000000
# 3 0.000983 -0.001939 0.010473 0.000000 0.000000 0.000000
# 4 0.000000 0.000000 0.000000 0.045387 0.000000 0.000000
# 5 0.000000 0.000000 0.000000 0.000000 0.069365 0.000000
# 6 0.000000 0.000000 0.000000 0.000000 0.000000 -0.000173
#
#
# Mechanical properties :
#
#
# Convention : Reuss Voigt Hill
#
# Bulk Modulus (GPa) = 16.48330 24.70393 20.59362
# Shear Modulus (GPa) = 25.61987 -1133.71943 -554.04978
#
# Velocity S-wave (km/s) = 3.57511 -23.78230 -16.62552
# Velocity P-wave (km/s) = 5.02645 27.23611 18.92803
#
# Compressibility (1/GPa) = 0.06066745
#
# Stress axis : x y z
#
# Youngs Moduli (GPa) = 27.11880 75.95406 95.48554
#
# Poissons Ratio (x) = -0.07842 -0.09389
# Poissons Ratio (y) = -0.02800 0.18512
# Poissons Ratio (z) = -0.02667 0.14726
#
# Static dielectric constant tensor:
#      x y z
#    x 1.767020 0.000000 0.000000 
#    y 0.000000 1.681130 0.000000 
#    z 0.000000 0.000000 1.723780 
# 
# From -- ./inp_files/9818.got.cif
#   From: 2010.05.17/outbox.cif.g08.bks.cpg/sg51_5_cif.got.tgz:9818.got - 2010.06.03 11:52:47.
