data_PCOD9399264
_publ_section_title
;
Structure prediction by ZEFSAII (Michael W. Deem and Ramdas Pophale) SiO2 
 PCOD9399264
Probable space group: P M M A
;
_chemical_formula_sum "Si O2"
_cell_formula_units_Z 64
_cell_length_a 9.062874
_cell_length_b 23.798106
_cell_length_c 19.325913
_cell_angle_alpha 90.000000
_cell_angle_beta 90.000000
_cell_angle_gamma 90.000000
_cell_volume 4168.198153
_symmetry_space_group_name_H-M "P M M A"
_symmetry_group_IT_number 51
_symmetry_cell_setting 'orthorhombic'
loop_
_space_group_symop_operation_xyz
x,y,z
1/2-x,-y,z
1/2+x,-y,-z
-x,y,-z
-x,-y,-z
1/2+x,y,-z
1/2-x,y,z
x,-y,z
loop_
_atom_site_type_symbol
_atom_site_label
_atom_site_fract_x
_atom_site_fract_y
_atom_site_fract_z
Si Si1 0.574928 0.777981 0.212076
Si Si2 0.075614 0.066779 0.573557
Si Si3 0.924982 0.333125 0.304851
Si Si4 0.927003 0.435861 0.210137
Si Si5 0.925992 0.841905 0.665624
Si Si6 0.925019 0.269241 0.574468
Si Si7 0.074947 0.743474 0.072483
Si Si8 0.424466 0.391284 0.072179
O O1 0.750000 0.787617 0.206733
O O2 0.553036 0.717734 0.250227
O O3 0.499095 0.823237 0.262287
O O4 0.500265 0.773566 0.137418
O O5 0.250000 0.079208 0.570045
O O6 0.000000 0.080478 0.500000
O O7 0.998893 0.103203 0.632728
O O8 0.057412 0.000000 0.584991
O O9 0.750000 0.335923 0.319816
O O10 0.972515 0.390519 0.267808
O O11 0.010964 0.316127 0.373753
O O12 0.750000 0.429674 0.201014
O O13 0.958153 0.500000 0.230080
O O14 0.004010 0.421364 0.137792
O O15 0.750000 0.847848 0.672812
O O16 0.954933 0.790456 0.612161
O O17 0.750000 0.275260 0.567627
O O18 0.000000 0.270903 0.500000
O O19 0.250000 0.753647 0.070857
O O20 0.052593 0.676024 0.080566
O O21 0.000000 0.759611 0.000000
O O22 0.250000 0.401822 0.069013
O O23 0.500000 0.408156 0.000000
#
# Coordination Sequence:
#
# PCOD9399264 Si02
#       8
#     8   8   8   8   8   8   8   8
#     4  10  18  30  49  70  95 126 158 196 241 288
#     4  10  20  33  49  70  99 137 177 211 243 281
#     4   9  18  32  49  68  91 118 148 184 232 286
#     4  10  20  34  51  69  90 117 151 191 234 284
#     4  10  20  32  48  72 101 131 164 202 240 282
#     4  10  20  32  49  72  96 121 150 189 234 280
#     4  10  19  30  46  68  94 125 159 195 236 286
#     4  10  20  32  48  67  91 121 155 193 231 277
#
# _framework density 15.354357
#
# number of rings (size 3 to 8) (size 9 to 14) (size 15 to 20)
#    0.000    2.125    1.250    2.625    0.000    5.750 
#    0.000    0.000    0.000    0.375    0.000    0.000 
#    0.000    0.500    0.000    1.875    0.000    2.875 
#
# Total GULP energy -357202.828436 kJ/mol
# GULP energy per Si atom -5581.294194 kJ/mol
# Density = 1.531941 g / cm^3
# Si number density = 15.354357 Si / 1000 Ang^3
#
#
#
# Elastic Constant Matrix: (Units=GPa)
#
#
# Indices 1 2 3 4 5 6 
#
# 1 70.4841 43.7360 64.4096 0.0000 0.0000 0.0000
# 2 43.7360 54.3409 38.3772 0.0000 0.0000 0.0000
# 3 64.4096 38.3772 113.0602 0.0000 0.0000 0.0000
# 4 0.0000 0.0000 0.0000 26.5752 0.0000 0.0000
# 5 0.0000 0.0000 0.0000 0.0000 32.4473 0.0000
# 6 0.0000 0.0000 0.0000 0.0000 0.0000 19.4103
#
#
#
# Elastic Compliance Matrix: (Units=1/GPa)
#
#
# Indices 1 2 3 4 5 6 
#
# 1 0.045024 -0.023837 -0.017559 0.000000 0.000000 0.000000
# 2 -0.023837 0.036825 0.001080 0.000000 0.000000 0.000000
# 3 -0.017559 0.001080 0.018481 0.000000 0.000000 0.000000
# 4 0.000000 0.000000 0.000000 0.037629 0.000000 0.000000
# 5 0.000000 0.000000 0.000000 0.000000 0.030819 0.000000
# 6 0.000000 0.000000 0.000000 0.000000 0.000000 0.051519
#
#
# Mechanical properties :
#
#
# Convention : Reuss Voigt Hill
#
# Bulk Modulus (GPa) = 50.76465 58.99232 54.87848
# Shear Modulus (GPa) = 16.26046 21.77739 19.01892
#
# Velocity S-wave (km/s) = 3.25778 3.77014 3.52329
# Velocity P-wave (km/s) = 6.87638 7.57997 7.23673
#
# Compressibility (1/GPa) = 0.01969875
#
# Stress axis : x y z
#
# Youngs Moduli (GPa) = 22.21046 27.15577 54.10882
#
# Poissons Ratio (x) = 0.64731 0.95007
# Poissons Ratio (y) = 0.52943 -0.05843
# Poissons Ratio (z) = 0.38998 -0.02933
#
# Static dielectric constant tensor:
#      x y z
#    x 1.506430 0.000000 0.000000 
#    y 0.000000 1.501090 0.000000 
#    z 0.000000 0.000000 1.482950 
# 
# From -- ./inp_files/28342.got.cif
#   From: 2010.05.17/outbox.cif.g08.bks.cpg/sg51_15_cif.got.tgz:28342.got - 2010.06.03 11:52:47.
