data_PCOD9399215
_publ_section_title
;
Structure prediction by ZEFSAII (Michael W. Deem and Ramdas Pophale) SiO2 
 PCOD9399215
Probable space group: P M M A
;
_chemical_formula_sum "Si O2"
_cell_formula_units_Z 64
_cell_length_a 22.016109
_cell_length_b 7.401080
_cell_length_c 18.684245
_cell_angle_alpha 90.000000
_cell_angle_beta 90.000000
_cell_angle_gamma 90.000000
_cell_volume 3044.466634
_symmetry_space_group_name_H-M "P M M A"
_symmetry_group_IT_number 51
_symmetry_cell_setting 'orthorhombic'
loop_
_space_group_symop_operation_xyz
x,y,z
1/2-x,-y,z
1/2+x,-y,-z
-x,y,-z
-x,-y,-z
1/2+x,y,-z
1/2-x,y,z
x,-y,z
loop_
_atom_site_type_symbol
_atom_site_label
_atom_site_fract_x
_atom_site_fract_y
_atom_site_fract_z
Si Si1 0.838654 0.794794 0.086361
Si Si2 0.143724 0.217987 0.761772
Si Si3 0.317317 0.714508 0.599986
Si Si4 0.511959 0.219371 0.287028
Si Si5 0.181558 0.781961 0.073139
Si Si6 0.448555 0.289171 0.552946
Si Si7 0.977442 0.285045 0.080311
Si Si8 0.583915 0.202937 0.816375
O O1 0.824889 0.715016 0.164948
O O2 0.911336 0.796008 0.087107
O O3 0.815262 0.000000 0.084975
O O4 0.823479 0.712372 0.008747
O O5 0.173730 0.262545 0.685739
O O6 0.073147 0.278584 0.755008
O O7 0.143430 0.000000 0.767081
O O8 0.250000 0.785661 0.580384
O O9 0.316602 0.500000 0.586610
O O10 0.379301 0.785618 0.561985
O O11 0.523263 0.276623 0.367904
O O12 0.448381 0.284981 0.253480
O O13 0.510863 0.000000 0.284333
O O14 0.250000 0.752840 0.097409
O O15 0.134853 0.711276 0.132593
O O16 0.170259 0.000000 0.067971
O O17 0.500000 0.211021 0.500000
O O18 0.441223 0.500000 0.532970
O O19 0.975248 0.500000 0.093894
O O20 0.025641 0.196004 0.132060
O O21 0.000000 0.258231 0.000000
O O22 0.605172 0.000000 0.797918
#
# Coordination Sequence:
#
# PCOD9399215 Si02
#       8
#     8   8   8   8   8   8   8   8
#     4  10  18  30  48  66  91 125 162 204 245 287
#     4   9  17  28  44  69  97 124 158 197 236 284
#     4   9  18  32  49  70  98 132 164 192 231 283
#     4   9  17  29  47  74  98 120 153 190 238 286
#     4   9  18  30  46  67  87 118 166 210 246 286
#     4   9  18  33  53  76 101 129 158 190 230 280
#     4  11  21  29  42  68  96 119 155 202 249 293
#     4  10  18  31  51  68  90 122 157 199 243 289
#
# _framework density 21.021744999999999
#
# number of rings (size 3 to 8) (size 9 to 14) (size 15 to 20)
#    0.000    2.500    2.500    0.375    0.000    2.500 
#    0.000    1.250    0.000    2.250    0.000    0.000 
#    0.000    0.000    0.000    0.000    0.000    0.000 
#
# Total GULP energy -356720.887664 kJ/mol
# GULP energy per Si atom -5573.763870 kJ/mol
# Density = 2.097390 g / cm^3
# Si number density = 21.021745 Si / 1000 Ang^3
#
#
#
# Elastic Constant Matrix: (Units=GPa)
#
#
# Indices 1 2 3 4 5 6 
#
# 1 161.1858 3.8580 66.7138 0.0000 0.0000 0.0000
# 2 3.8580 69.7539 2.8984 0.0000 0.0000 0.0000
# 3 66.7138 2.8984 82.4621 0.0000 0.0000 0.0000
# 4 0.0000 0.0000 0.0000 14.7196 0.0000 0.0000
# 5 0.0000 0.0000 0.0000 0.0000 0.1635 0.0000
# 6 0.0000 0.0000 0.0000 0.0000 0.0000 -28.0492
#
#
#
# Elastic Compliance Matrix: (Units=1/GPa)
#
#
# Indices 1 2 3 4 5 6 
#
# 1 0.009330 -0.000203 -0.007541 0.000000 0.000000 0.000000
# 2 -0.000203 0.014361 -0.000341 0.000000 0.000000 0.000000
# 3 -0.007541 -0.000341 0.018240 0.000000 0.000000 0.000000
# 4 0.000000 0.000000 0.000000 0.067937 0.000000 0.000000
# 5 0.000000 0.000000 0.000000 0.000000 6.115086 0.000000
# 6 0.000000 0.000000 0.000000 0.000000 0.000000 -0.035652
#
#
# Mechanical properties :
#
#
# Convention : Reuss Voigt Hill
#
# Bulk Modulus (GPa) = 38.81681 51.14914 44.98298
# Shear Modulus (GPa) = 0.80463 13.36221 7.08342
#
# Velocity S-wave (km/s) = 0.61935 2.52392 1.83763
# Velocity P-wave (km/s) = 4.36080 5.73393 5.09385
#
# Compressibility (1/GPa) = 0.02576203
#
# Stress axis : x y z
#
# Youngs Moduli (GPa) = 107.17989 69.63065 54.82538
#
# Poissons Ratio (x) = 0.01411 0.41345
# Poissons Ratio (y) = 0.02172 0.01869
# Poissons Ratio (z) = 0.80826 0.02373
#
# Static dielectric constant tensor:
#      x y z
#    x 1.834990 0.000000 0.000000 
#    y 0.000000 1.820610 0.000000 
#    z 0.000000 0.000000 1.776100 
# 
# From -- ./inp_files/30918.got.cif
#   From: 2010.05.17/outbox.cif.g08.bks.cpg/sg51_16_cif.got.tgz:30918.got - 2010.06.03 11:52:47.
