data_PCOD9399876
_publ_section_title
;
Structure prediction by ZEFSAII (Michael W. Deem and Ramdas Pophale) SiO2 
 PCOD9399876
Probable space group: P M M A
;
_chemical_formula_sum "Si O2"
_cell_formula_units_Z 48
_cell_length_a 16.562646
_cell_length_b 9.300283
_cell_length_c 14.200165
_cell_angle_alpha 90.000000
_cell_angle_beta 90.000000
_cell_angle_gamma 90.000000
_cell_volume 2187.355006
_symmetry_space_group_name_H-M "P M M A"
_symmetry_group_IT_number 51
_symmetry_cell_setting 'orthorhombic'
loop_
_space_group_symop_operation_xyz
x,y,z
1/2-x,-y,z
1/2+x,-y,-z
-x,y,-z
-x,-y,-z
1/2+x,y,-z
1/2-x,y,z
x,-y,z
loop_
_atom_site_type_symbol
_atom_site_label
_atom_site_fract_x
_atom_site_fract_y
_atom_site_fract_z
Si Si1 0.250000 0.331271 0.232988
Si Si2 0.250000 0.172420 0.432837
Si Si3 0.089632 0.329701 0.107367
Si Si4 0.842687 0.168767 0.060691
Si Si5 0.088547 0.332317 0.460528
Si Si6 0.339103 0.170385 0.714349
Si Si7 0.507121 0.332879 0.278882
O O1 0.250000 0.500000 0.264223
O O2 0.250000 0.229997 0.324592
O O3 0.172208 0.308897 0.166627
O O4 0.167448 0.236653 0.477557
O O5 0.250000 0.000000 0.437902
O O6 0.077898 0.500000 0.095538
O O7 0.020479 0.273578 0.177776
O O8 0.099395 0.257783 0.006547
O O9 0.750000 0.201317 0.032332
O O10 0.844567 0.193765 0.172521
O O11 0.857142 0.000000 0.045625
O O12 0.102852 0.500000 0.486953
O O13 0.000000 0.290854 0.500000
O O14 0.069100 0.327247 0.348540
O O15 0.250000 0.219379 0.684174
O O16 0.416577 0.252562 0.677492
O O17 0.344574 0.000000 0.696720
O O18 0.528988 0.500000 0.268433
#
# Coordination Sequence:
#
# PCOD9399876 Si02
#       7
#     4   4   8   8   8   8   8
#     4  10  18  34  56  80 117 158 195 232 279 350
#     4  12  24  38  64  98 129 160 193 242 305 360
#     4  10  19  31  52  81 113 146 185 240 294 333
#     4   9  18  32  50  74 107 148 198 241 278 344
#     4  10  22  44  70  92 122 163 203 243 294 361
#     4   9  20  39  57  74 106 156 199 237 293 352
#     4  10  21  37  58  86 113 142 189 245 289 340
#
# _framework density 21.944313000000001
#
# number of rings (size 3 to 8) (size 9 to 14) (size 15 to 20)
#    0.000    2.167    2.500    1.750    0.000    4.000 
#    1.500    5.000    0.000    0.000    0.000    0.000 
#    0.000    0.000    0.000    0.000    0.000    0.000 
#
# Total GULP energy -268137.666122 kJ/mol
# GULP energy per Si atom -5586.201378 kJ/mol
# Density = 2.189437 g / cm^3
# Si number density = 21.944313 Si / 1000 Ang^3
#
#
#
# Elastic Constant Matrix: (Units=GPa)
#
#
# Indices 1 2 3 4 5 6 
#
# 1 155.3868 73.0770 21.0190 0.0000 0.0000 0.0000
# 2 73.0770 52.9683 21.4463 0.0000 0.0000 0.0000
# 3 21.0190 21.4463 56.0987 0.0000 0.0000 0.0000
# 4 0.0000 0.0000 0.0000 12.9094 0.0000 0.0000
# 5 0.0000 0.0000 0.0000 0.0000 39.7619 0.0000
# 6 0.0000 0.0000 0.0000 0.0000 0.0000 32.0125
#
#
#
# Elastic Compliance Matrix: (Units=1/GPa)
#
#
# Indices 1 2 3 4 5 6 
#
# 1 0.018861 -0.027402 0.003409 0.000000 0.000000 0.000000
# 2 -0.027402 0.062146 -0.013491 0.000000 0.000000 0.000000
# 3 0.003409 -0.013491 0.021706 0.000000 0.000000 0.000000
# 4 0.000000 0.000000 0.000000 0.077463 0.000000 0.000000
# 5 0.000000 0.000000 0.000000 0.000000 0.025150 0.000000
# 6 0.000000 0.000000 0.000000 0.000000 0.000000 0.031238
#
#
# Mechanical properties :
#
#
# Convention : Reuss Voigt Hill
#
# Bulk Modulus (GPa) = 36.04281 55.05981 45.55131
# Shear Modulus (GPa) = 15.58693 26.86421 21.22557
#
# Velocity S-wave (km/s) = 2.66803 3.50265 3.11343
# Velocity P-wave (km/s) = 5.09426 6.44230 5.80753
#
# Compressibility (1/GPa) = 0.02774478
#
# Stress axis : x y z
#
# Youngs Moduli (GPa) = 53.01853 16.09105 46.06973
#
# Poissons Ratio (x) = 0.44093 -0.15704
# Poissons Ratio (y) = 1.45281 0.62154
# Poissons Ratio (z) = -0.18072 0.21709
#
# Static dielectric constant tensor:
#      x y z
#    x 1.814600 0.000000 0.000000 
#    y 0.000000 1.734540 0.000000 
#    z 0.000000 0.000000 1.876340 
# 
# From -- ./inp_files/24847.got.cif
#   From: 2010.05.17/outbox.cif.g08.bks.cpg/sg51_13_cif.got.tgz:24847.got - 2010.06.03 11:52:47.
