data_PCOD9399716
_publ_section_title
;
Structure prediction by ZEFSAII (Michael W. Deem and Ramdas Pophale) SiO2 
 PCOD9399716
Probable space group: P M M A
;
_chemical_formula_sum "Si O2"
_cell_formula_units_Z 64
_cell_length_a 8.549077
_cell_length_b 20.695544
_cell_length_c 20.617477
_cell_angle_alpha 90.000000
_cell_angle_beta 90.000000
_cell_angle_gamma 90.000000
_cell_volume 3647.804831
_symmetry_space_group_name_H-M "P M M A"
_symmetry_group_IT_number 51
_symmetry_cell_setting 'orthorhombic'
loop_
_space_group_symop_operation_xyz
x,y,z
1/2-x,-y,z
1/2+x,-y,-z
-x,y,-z
-x,-y,-z
1/2+x,y,-z
1/2-x,y,z
x,-y,z
loop_
_atom_site_type_symbol
_atom_site_label
_atom_site_fract_x
_atom_site_fract_y
_atom_site_fract_z
Si Si1 0.563323 0.238007 0.396577
Si Si2 0.063724 0.204896 0.753085
Si Si3 0.560294 0.668372 0.181314
Si Si4 0.440659 0.429157 0.707250
Si Si5 0.433480 0.102918 0.432229
Si Si6 0.561347 0.929381 0.711937
Si Si7 0.937596 0.573089 0.927025
Si Si8 0.937900 0.383193 0.432012
O O1 0.750000 0.228339 0.407121
O O2 0.536433 0.234303 0.319054
O O3 0.469665 0.179332 0.427878
O O4 0.518218 0.307779 0.423384
O O5 0.250000 0.198450 0.760219
O O6 0.008019 0.257913 0.805279
O O7 0.993370 0.133270 0.751200
O O8 0.750000 0.668772 0.179844
O O9 0.509072 0.626235 0.243684
O O10 0.500732 0.629256 0.119387
O O11 0.250000 0.427186 0.706377
O O12 0.489221 0.500000 0.730085
O O13 0.492624 0.417902 0.633484
O O14 0.500000 0.077927 0.500000
O O15 0.250000 0.090862 0.432982
O O16 0.495892 0.076989 0.363112
O O17 0.750000 0.927461 0.709877
O O18 0.512865 0.000000 0.736859
O O19 0.750000 0.574918 0.927366
O O20 0.986568 0.500000 0.905690
O O21 0.000000 0.581462 0.000000
O O22 0.750000 0.386466 0.433009
O O23 0.000000 0.408629 0.500000
#
# Coordination Sequence:
#
# PCOD9399716 Si02
#       8
#     8   8   8   8   8   8   8   8
#     4   9  16  29  45  61  85 112 146 195 247 299
#     4   9  17  30  50  74  97 122 159 205 250 298
#     4  10  18  32  55  80 103 132 170 212 254 298
#     4   9  17  30  48  67  88 120 161 201 246 301
#     4  10  19  29  42  61  83 110 148 192 245 307
#     4   9  19  34  48  64  91 125 159 199 251 309
#     4  10  21  36  54  80 115 151 183 213 247 291
#     4  10  19  30  43  60  82 112 152 200 252 303
#
# _framework density 17.544799000000001
#
# number of rings (size 3 to 8) (size 9 to 14) (size 15 to 20)
#    0.000    2.500    1.250    1.500    0.000    4.500 
#    0.000    0.625    0.000    0.750    0.000    0.000 
#    0.000    0.500    0.000    1.625    0.000    2.375 
#
# Total GULP energy -356886.521223 kJ/mol
# GULP energy per Si atom -5576.351894 kJ/mol
# Density = 1.750487 g / cm^3
# Si number density = 17.544799 Si / 1000 Ang^3
#
#
#
# Elastic Constant Matrix: (Units=GPa)
#
#
# Indices 1 2 3 4 5 6 
#
# 1 11.6595 25.2456 15.8327 0.0000 0.0000 0.0000
# 2 25.2456 134.2131 55.5057 0.0000 0.0000 0.0000
# 3 15.8327 55.5057 75.7127 0.0000 0.0000 0.0000
# 4 0.0000 0.0000 0.0000 -120.2506 0.0000 0.0000
# 5 0.0000 0.0000 0.0000 0.0000 22.6562 0.0000
# 6 0.0000 0.0000 0.0000 0.0000 0.0000 13.1642
#
#
#
# Elastic Compliance Matrix: (Units=1/GPa)
#
#
# Indices 1 2 3 4 5 6 
#
# 1 0.157239 -0.022931 -0.016070 0.000000 0.000000 0.000000
# 2 -0.022931 0.014037 -0.005495 0.000000 0.000000 0.000000
# 3 -0.016070 -0.005495 0.020597 0.000000 0.000000 0.000000
# 4 0.000000 0.000000 0.000000 -0.008316 0.000000 0.000000
# 5 0.000000 0.000000 0.000000 0.000000 0.044138 0.000000
# 6 0.000000 0.000000 0.000000 0.000000 0.000000 0.075964
#
#
# Mechanical properties :
#
#
# Convention : Reuss Voigt Hill
#
# Bulk Modulus (GPa) = 9.72004 46.08371 27.90187
# Shear Modulus (GPa) = 11.71110 -8.55264 1.57923
#
# Velocity S-wave (km/s) = 2.58640 -2.21028 0.94977
# Velocity P-wave (km/s) = 3.80413 4.45079 4.14011
#
# Compressibility (1/GPa) = 0.10288025
#
# Stress axis : x y z
#
# Youngs Moduli (GPa) = 6.35974 71.24120 48.55057
#
# Poissons Ratio (x) = 1.63361 0.78022
# Poissons Ratio (y) = 0.14583 0.26680
# Poissons Ratio (z) = 0.10220 0.39150
#
# Static dielectric constant tensor:
#      x y z
#    x 1.604530 0.000000 0.000000 
#    y 0.000000 1.623250 0.000000 
#    z 0.000000 0.000000 1.590470 
# 
# From -- ./inp_files/32648.got.cif
#   From: 2010.05.17/outbox.cif.g08.bks.cpg/sg51_17_cif.got.tgz:32648.got - 2010.06.03 11:52:47.
