data_PCOD9399155
_publ_section_title
;
Structure prediction by ZEFSAII (Michael W. Deem and Ramdas Pophale) SiO2 
 PCOD9399155
Probable space group: P M M A
;
_chemical_formula_sum "Si O2"
_cell_formula_units_Z 40
_cell_length_a 7.358603
_cell_length_b 10.162819
_cell_length_c 24.726703
_cell_angle_alpha 90.000000
_cell_angle_beta 90.000000
_cell_angle_gamma 90.000000
_cell_volume 1849.165476
_symmetry_space_group_name_H-M "P M M A"
_symmetry_group_IT_number 51
_symmetry_cell_setting 'orthorhombic'
loop_
_space_group_symop_operation_xyz
x,y,z
1/2-x,-y,z
1/2+x,-y,-z
-x,y,-z
-x,-y,-z
1/2+x,y,-z
1/2-x,y,z
x,-y,z
loop_
_atom_site_type_symbol
_atom_site_label
_atom_site_fract_x
_atom_site_fract_y
_atom_site_fract_z
Si Si1 0.027652 0.246584 0.870027
Si Si2 0.028585 0.846522 0.751362
Si Si3 0.533909 0.000000 0.062928
Si Si4 0.032625 0.500000 0.935416
Si Si5 0.966767 0.852514 0.436511
Si Si6 0.028128 0.652699 0.654061
O O1 0.250000 0.250273 0.868832
O O2 0.972333 0.215671 0.808773
O O3 0.965859 0.375206 0.901640
O O4 0.964819 0.127352 0.907117
O O5 0.250000 0.850422 0.750750
O O6 0.973332 0.746924 0.703868
O O7 0.970727 0.000000 0.745750
O O8 0.750000 0.000000 0.070848
O O9 0.500000 0.000000 0.000000
O O10 0.250000 0.500000 0.931115
O O11 0.000000 0.500000 0.000000
O O12 0.750000 0.857812 0.428501
O O13 0.031875 0.732957 0.399313
O O14 0.000000 0.831271 0.500000
O O15 0.036323 0.000000 0.422388
O O16 0.250000 0.648440 0.654329
O O17 0.968595 0.500000 0.656932
#
# Coordination Sequence:
#
# PCOD9399155 Si02
#       6
#     8   8   4   4   8   8
#     4   9  17  28  43  64  90 118 148 183 225 270
#     4   9  15  25  41  62  90 120 147 183 232 275
#     4  10  18  30  46  66  90 116 147 184 222 266
#     4  10  20  32  46  66  92 120 149 182 222 270
#     4   9  17  30  47  68  95 126 157 188 223 265
#     4   9  17  26  40  65  95 123 151 186 229 272
#
# _framework density 21.63138
#
# number of rings (size 3 to 8) (size 9 to 14) (size 15 to 20)
#    0.000    2.800    1.000    1.200    1.400    2.800 
#    0.000    0.000    0.000    0.000    0.000    2.800 
#    0.000    0.000    0.000    0.000    0.000    0.000 
#
# Total GULP energy -223227.668591 kJ/mol
# GULP energy per Si atom -5580.691715 kJ/mol
# Density = 2.158215 g / cm^3
# Si number density = 21.631380 Si / 1000 Ang^3
#
#
#
# Elastic Constant Matrix: (Units=GPa)
#
#
# Indices 1 2 3 4 5 6 
#
# 1 78.9685 10.4696 -1.8009 0.0000 0.0000 0.0000
# 2 10.4696 272.0911 151.2989 0.0000 0.0000 0.0000
# 3 -1.8009 151.2989 184.6097 0.0000 0.0000 0.0000
# 4 0.0000 0.0000 0.0000 20.1738 0.0000 0.0000
# 5 0.0000 0.0000 0.0000 0.0000 14.1236 0.0000
# 6 0.0000 0.0000 0.0000 0.0000 0.0000 44.7032
#
#
#
# Elastic Compliance Matrix: (Units=1/GPa)
#
#
# Indices 1 2 3 4 5 6 
#
# 1 0.012823 -0.001034 0.000973 0.000000 0.000000 0.000000
# 2 -0.001034 0.006836 -0.005613 0.000000 0.000000 0.000000
# 3 0.000973 -0.005613 0.010026 0.000000 0.000000 0.000000
# 4 0.000000 0.000000 0.000000 0.049569 0.000000 0.000000
# 5 0.000000 0.000000 0.000000 0.000000 0.070804 0.000000
# 6 0.000000 0.000000 0.000000 0.000000 0.000000 0.022370
#
#
# Mechanical properties :
#
#
# Convention : Reuss Voigt Hill
#
# Bulk Modulus (GPa) = 54.53607 95.06716 74.80161
# Shear Modulus (GPa) = 26.33134 40.84689 33.58912
#
# Velocity S-wave (km/s) = 3.49273 4.35019 3.94483
# Velocity P-wave (km/s) = 6.44452 8.32324 7.44339
#
# Compressibility (1/GPa) = 0.01833649
#
# Stress axis : x y z
#
# Youngs Moduli (GPa) = 77.98736 146.28493 99.73884
#
# Poissons Ratio (x) = 0.15130 -0.09702
# Poissons Ratio (y) = 0.08066 0.55979
# Poissons Ratio (z) = -0.07586 0.82104
#
# Static dielectric constant tensor:
#      x y z
#    x 1.856110 0.000000 0.000000 
#    y 0.000000 1.746850 0.000000 
#    z 0.000000 0.000000 1.720150 
# 
# From -- ./inp_files/32864.got.cif
#   From: 2010.05.17/outbox.cif.g08.bks.cpg/sg51_17_cif.got.tgz:32864.got - 2010.06.03 11:52:47.
