data_PCOD9399056
_publ_section_title
;
Structure prediction by ZEFSAII (Michael W. Deem and Ramdas Pophale) SiO2 
 PCOD9399056
Probable space group: P M M A
;
_chemical_formula_sum "Si O2"
_cell_formula_units_Z 56
_cell_length_a 23.704114
_cell_length_b 7.407926
_cell_length_c 15.087038
_cell_angle_alpha 90.000000
_cell_angle_beta 90.000000
_cell_angle_gamma 90.000000
_cell_volume 2649.258563
_symmetry_space_group_name_H-M "P M M A"
_symmetry_group_IT_number 51
_symmetry_cell_setting 'orthorhombic'
loop_
_space_group_symop_operation_xyz
x,y,z
1/2-x,-y,z
1/2+x,-y,-z
-x,y,-z
-x,-y,-z
1/2+x,y,-z
1/2-x,y,z
x,-y,z
loop_
_atom_site_type_symbol
_atom_site_label
_atom_site_fract_x
_atom_site_fract_y
_atom_site_fract_z
Si Si1 0.353826 0.218272 0.620837
Si Si2 0.075297 0.720558 0.911170
Si Si3 0.687934 0.288846 0.185959
Si Si4 0.949482 0.715383 0.889789
Si Si5 0.518492 0.780025 0.400753
Si Si6 0.410769 0.214213 0.297326
Si Si7 0.186992 0.779327 0.426782
O O1 0.321501 0.276728 0.708523
O O2 0.418858 0.280071 0.623391
O O3 0.328185 0.276384 0.526873
O O4 0.353209 0.000000 0.620940
O O5 0.075868 0.500000 0.906782
O O6 0.131317 0.785571 0.860880
O O7 0.014033 0.780476 0.873995
O O8 0.073016 0.775901 0.014546
O O9 0.750000 0.212166 0.163865
O O10 0.689727 0.500000 0.161819
O O11 0.953391 0.500000 0.896449
O O12 0.909927 0.757772 0.807274
O O13 0.500000 0.728625 0.500000
O O14 0.470227 0.715423 0.334495
O O15 0.520068 0.000000 0.399633
O O16 0.359373 0.283921 0.356372
O O17 0.411646 0.000000 0.312788
O O18 0.250000 0.722639 0.403739
O O19 0.186055 0.000000 0.426950
#
# Coordination Sequence:
#
# PCOD9399056 Si02
#       7
#     8   8   8   8   8   8   8
#     4  10  18  30  50  72  95 125 162 198 231 276
#     4   8  16  33  53  70  91 123 157 187 232 293
#     4  10  20  33  49  70  97 127 158 195 239 287
#     4   9  17  32  54  73  91 119 155 195 237 283
#     4   9  15  26  45  70  96 123 155 193 234 271
#     4  10  18  29  47  71  97 123 154 193 234 276
#     4   9  17  29  45  64  90 128 166 191 217 268
#
# _framework density 21.137989999999999
#
# number of rings (size 3 to 8) (size 9 to 14) (size 15 to 20)
#    0.000    2.714    1.429    2.143    0.000    0.857 
#    0.000    3.571    0.000    3.000    0.000    0.000 
#    0.000    0.000    0.000    0.000    0.000    0.000 
#
# Total GULP energy -312628.063042 kJ/mol
# GULP energy per Si atom -5582.643983 kJ/mol
# Density = 2.108988 g / cm^3
# Si number density = 21.137990 Si / 1000 Ang^3
#
#
#
# Elastic Constant Matrix: (Units=GPa)
#
#
# Indices 1 2 3 4 5 6 
#
# 1 150.4371 4.8151 69.8909 0.0000 0.0000 0.0000
# 2 4.8151 68.0807 -6.9899 0.0000 0.0000 0.0000
# 3 69.8909 -6.9899 115.4863 0.0000 0.0000 0.0000
# 4 0.0000 0.0000 0.0000 16.6251 0.0000 0.0000
# 5 0.0000 0.0000 0.0000 0.0000 19.5146 0.0000
# 6 0.0000 0.0000 0.0000 0.0000 0.0000 -6.8363
#
#
#
# Elastic Compliance Matrix: (Units=1/GPa)
#
#
# Indices 1 2 3 4 5 6 
#
# 1 0.009352 -0.001250 -0.005735 0.000000 0.000000 0.000000
# 2 -0.001250 0.014947 0.001661 0.000000 0.000000 0.000000
# 3 -0.005735 0.001661 0.012231 0.000000 0.000000 0.000000
# 4 0.000000 0.000000 0.000000 0.060150 0.000000 0.000000
# 5 0.000000 0.000000 0.000000 0.000000 0.051244 0.000000
# 6 0.000000 0.000000 0.000000 0.000000 0.000000 -0.146278
#
#
# Mechanical properties :
#
#
# Convention : Reuss Voigt Hill
#
# Bulk Modulus (GPa) = 38.63780 52.15959 45.39869
# Shear Modulus (GPa) = 238.98836 23.61319 131.30078
#
# Velocity S-wave (km/s) = 10.64455 3.34593 7.88992
# Velocity P-wave (km/s) = 13.01514 6.29732 10.22375
#
# Compressibility (1/GPa) = 0.02588139
#
# Stress axis : x y z
#
# Youngs Moduli (GPa) = 106.93063 66.90105 81.76262
#
# Poissons Ratio (x) = 0.08364 0.46893
# Poissons Ratio (y) = 0.13369 -0.13584
# Poissons Ratio (z) = 0.61328 -0.11115
#
# Static dielectric constant tensor:
#      x y z
#    x 1.758820 0.000000 0.000000 
#    y 0.000000 1.829610 0.000000 
#    z 0.000000 0.000000 1.741090 
# 
# From -- ./inp_files/18751.got.cif
#   From: 2010.05.17/outbox.cif.g08.bks.cpg/sg51_10_cif.got.tgz:18751.got - 2010.06.03 11:52:47.
