data_PCOD9399773
_publ_section_title
;
Structure prediction by ZEFSAII (Michael W. Deem and Ramdas Pophale) SiO2 
 PCOD9399773
Probable space group: P M M A
;
_chemical_formula_sum "Si O2"
_cell_formula_units_Z 64
_cell_length_a 18.993944
_cell_length_b 13.956044
_cell_length_c 12.087855
_cell_angle_alpha 90.000000
_cell_angle_beta 90.000000
_cell_angle_gamma 90.000000
_cell_volume 3204.252450
_symmetry_space_group_name_H-M "P M M A"
_symmetry_group_IT_number 51
_symmetry_cell_setting 'orthorhombic'
loop_
_space_group_symop_operation_xyz
x,y,z
1/2-x,-y,z
1/2+x,-y,-z
-x,y,-z
-x,-y,-z
1/2+x,y,-z
1/2-x,y,z
x,-y,z
loop_
_atom_site_type_symbol
_atom_site_label
_atom_site_fract_x
_atom_site_fract_y
_atom_site_fract_z
Si Si1 0.672417 0.179872 0.448956
Si Si2 0.872758 0.394151 0.446075
Si Si3 0.117314 0.817089 0.314054
Si Si4 0.896893 0.604940 0.694977
Si Si5 0.049937 0.395361 0.787485
Si Si6 0.462724 0.112044 0.691084
Si Si7 0.567180 0.206322 0.080047
Si Si8 0.667060 0.108748 0.915735
O O1 0.750000 0.146633 0.412735
O O2 0.671053 0.296253 0.446521
O O3 0.657498 0.150995 0.575944
O O4 0.606220 0.143834 0.377367
O O5 0.837433 0.500000 0.443203
O O6 0.913998 0.392958 0.563128
O O7 0.919205 0.388429 0.336131
O O8 0.139690 0.707071 0.288079
O O9 0.133354 0.876244 0.204676
O O10 0.033229 0.827057 0.337162
O O11 0.862540 0.500000 0.714042
O O12 0.966198 0.609024 0.769881
O O13 0.068903 0.500000 0.832748
O O14 0.075193 0.309068 0.862320
O O15 0.446457 0.133053 0.819523
O O16 0.477137 0.000000 0.671328
O O17 0.500000 0.207336 0.000000
O O18 0.632549 0.177740 0.005139
O O19 0.750000 0.123501 0.906170
O O20 0.653222 0.000000 0.951986
#
# Coordination Sequence:
#
# PCOD9399773 Si02
#       8
#     8   8   8   8   8   8   8   8
#     4  11  24  40  61  93 133 167 199 250 318 387
#     4   9  17  32  57  87 123 166 206 243 293 368
#     4  11  21  41  67  95 124 161 208 262 318 372
#     4   9  16  29  56  94 129 159 198 246 302 369
#     4  10  18  32  57  92 126 161 202 250 307 365
#     4  12  25  41  64  91 121 160 210 263 313 372
#     4  12  23  41  65  93 123 162 206 262 311 366
#     4  11  25  44  67  91 118 161 217 271 319 370
#
# _framework density 19.973457
#
# number of rings (size 3 to 8) (size 9 to 14) (size 15 to 20)
#    0.000    1.375    3.750    1.875    0.000    6.750 
#    0.000    0.625    0.000    2.250    0.000    0.000 
#    0.000    0.000    0.000    0.000    0.000    0.000 
#
# Total GULP energy -357112.207570 kJ/mol
# GULP energy per Si atom -5579.878243 kJ/mol
# Density = 1.992800 g / cm^3
# Si number density = 19.973457 Si / 1000 Ang^3
#
#
#
# Elastic Constant Matrix: (Units=GPa)
#
#
# Indices 1 2 3 4 5 6 
#
# 1 45.2877 26.5057 22.0343 0.0000 0.0000 0.0000
# 2 26.5057 93.0906 20.5453 0.0000 0.0000 0.0000
# 3 22.0343 20.5453 66.4445 0.0000 0.0000 0.0000
# 4 0.0000 0.0000 0.0000 28.0988 0.0000 0.0000
# 5 0.0000 0.0000 0.0000 0.0000 16.2588 0.0000
# 6 0.0000 0.0000 0.0000 0.0000 0.0000 6.7221
#
#
#
# Elastic Compliance Matrix: (Units=1/GPa)
#
#
# Indices 1 2 3 4 5 6 
#
# 1 0.029842 -0.006775 -0.007801 0.000000 0.000000 0.000000
# 2 -0.006775 0.013067 -0.001794 0.000000 0.000000 0.000000
# 3 -0.007801 -0.001794 0.018192 0.000000 0.000000 0.000000
# 4 0.000000 0.000000 0.000000 0.035589 0.000000 0.000000
# 5 0.000000 0.000000 0.000000 0.000000 0.061505 0.000000
# 6 0.000000 0.000000 0.000000 0.000000 0.000000 0.148762
#
#
# Mechanical properties :
#
#
# Convention : Reuss Voigt Hill
#
# Bulk Modulus (GPa) = 35.25998 38.11037 36.68517
# Shear Modulus (GPa) = 14.32045 19.26512 16.79278
#
# Velocity S-wave (km/s) = 2.68054 3.10907 2.90272
# Velocity P-wave (km/s) = 5.22227 5.65777 5.44438
#
# Compressibility (1/GPa) = 0.02836077
#
# Stress axis : x y z
#
# Youngs Moduli (GPa) = 33.50987 76.52753 54.96974
#
# Poissons Ratio (x) = 0.51849 0.42883
# Poissons Ratio (y) = 0.22703 0.09860
# Poissons Ratio (z) = 0.26142 0.13727
#
# Static dielectric constant tensor:
#      x y z
#    x 1.705920 0.000000 0.000000 
#    y 0.000000 1.752230 0.000000 
#    z 0.000000 0.000000 1.673000 
# 
# From -- ./inp_files/17557.got.cif
#   From: 2010.05.17/outbox.cif.g08.bks.cpg/sg51_9_cif.got.tgz:17557.got - 2010.06.03 11:52:47.
