data_PCOD9399662
_publ_section_title
;
Structure prediction by ZEFSAII (Michael W. Deem and Ramdas Pophale) SiO2 
 PCOD9399662
Probable space group: P M M A
;
_chemical_formula_sum "Si O2"
_cell_formula_units_Z 48
_cell_length_a 17.002512
_cell_length_b 16.706969
_cell_length_c 9.375246
_cell_angle_alpha 90.000000
_cell_angle_beta 90.000000
_cell_angle_gamma 90.000000
_cell_volume 2663.136512
_symmetry_space_group_name_H-M "P M M A"
_symmetry_group_IT_number 51
_symmetry_cell_setting 'orthorhombic'
loop_
_space_group_symop_operation_xyz
x,y,z
1/2-x,-y,z
1/2+x,-y,-z
-x,y,-z
-x,-y,-z
1/2+x,y,-z
1/2-x,y,z
x,-y,z
loop_
_atom_site_type_symbol
_atom_site_label
_atom_site_fract_x
_atom_site_fract_y
_atom_site_fract_z
Si Si1 0.343202 0.818005 0.702942
Si Si2 0.092656 0.257880 0.970033
Si Si3 0.091504 0.089751 0.459049
Si Si4 0.156010 0.590382 0.796708
Si Si5 0.907938 0.332575 0.472622
Si Si6 0.657876 0.763276 0.716871
O O1 0.250000 0.801454 0.706395
O O2 0.378409 0.811071 0.860719
O O3 0.360528 0.894429 0.605476
O O4 0.388743 0.748267 0.616294
O O5 0.115289 0.341703 0.893126
O O6 0.136627 0.249872 0.119643
O O7 0.000000 0.253830 0.000000
O O8 0.114176 0.158694 0.346959
O O9 0.000000 0.097096 0.500000
O O10 0.106411 0.000000 0.405456
O O11 0.250000 0.603070 0.801443
O O12 0.138722 0.500000 0.844468
O O13 0.127433 0.601489 0.633094
O O14 0.867720 0.313850 0.623566
O O15 0.000000 0.343303 0.500000
O O16 0.750000 0.776094 0.695964
#
# Coordination Sequence:
#
# PCOD9399662 Si02
#       6
#     8   8   8   8   8   8
#     4  10  19  34  55  77 105 142 182 214 251 314
#     4  11  21  36  56  78 106 138 176 218 263 316
#     4  10  20  35  55  80 110 142 176 215 260 307
#     4  10  21  38  56  74 103 142 178 213 260 318
#     4  10  18  32  53  77 103 134 174 214 257 308
#     4  11  20  32  54  81 107 134 172 221 266 307
#
# _framework density 18.023859999999999
#
# number of rings (size 3 to 8) (size 9 to 14) (size 15 to 20)
#    0.000    1.667    0.000   10.500    0.000    2.000 
#    0.000    1.667    0.000    8.000    0.000    0.000 
#    0.000    0.000    0.000    0.000    0.000    0.000 
#
# Total GULP energy -267718.174918 kJ/mol
# GULP energy per Si atom -5577.461977 kJ/mol
# Density = 1.798284 g / cm^3
# Si number density = 18.023860 Si / 1000 Ang^3
#
#
#
# Elastic Constant Matrix: (Units=GPa)
#
#
# Indices 1 2 3 4 5 6 
#
# 1 71.7058 14.5451 8.9460 0.0000 0.0000 0.0000
# 2 14.5451 56.4920 4.6401 0.0000 0.0000 0.0000
# 3 8.9460 4.6401 97.0419 0.0000 0.0000 0.0000
# 4 0.0000 0.0000 0.0000 19.9590 0.0000 0.0000
# 5 0.0000 0.0000 0.0000 0.0000 37.7505 0.0000
# 6 0.0000 0.0000 0.0000 0.0000 0.0000 -12.4764
#
#
#
# Elastic Compliance Matrix: (Units=1/GPa)
#
#
# Indices 1 2 3 4 5 6 
#
# 1 0.014850 -0.003726 -0.001191 0.000000 0.000000 0.000000
# 2 -0.003726 0.018706 -0.000551 0.000000 0.000000 0.000000
# 3 -0.001191 -0.000551 0.010441 0.000000 0.000000 0.000000
# 4 0.000000 0.000000 0.000000 0.050103 0.000000 0.000000
# 5 0.000000 0.000000 0.000000 0.000000 0.026490 0.000000
# 6 0.000000 0.000000 0.000000 0.000000 0.000000 -0.080152
#
#
# Mechanical properties :
#
#
# Convention : Reuss Voigt Hill
#
# Bulk Modulus (GPa) = 30.24599 31.27801 30.76200
# Shear Modulus (GPa) = 80.13595 22.18719 51.16157
#
# Velocity S-wave (km/s) = 6.67514 3.51235 5.33358
# Velocity P-wave (km/s) = 8.73084 5.81723 7.41848
#
# Compressibility (1/GPa) = 0.03306224
#
# Stress axis : x y z
#
# Youngs Moduli (GPa) = 67.33925 53.45837 95.77665
#
# Poissons Ratio (x) = 0.19917 0.11406
# Poissons Ratio (y) = 0.25089 0.05277
# Poissons Ratio (z) = 0.08019 0.02945
#
# Static dielectric constant tensor:
#      x y z
#    x 1.605550 0.000000 0.000000 
#    y 0.000000 1.645570 0.000000 
#    z 0.000000 0.000000 1.636040 
# 
# From -- ./inp_files/8208.got.cif
#   From: 2010.05.17/outbox.cif.g08.bks.cpg/sg51_5_cif.got.tgz:8208.got - 2010.06.03 11:52:47.
