data_PCOD9399993
_publ_section_title
;
Structure prediction by ZEFSAII (Michael W. Deem and Ramdas Pophale) SiO2 
 PCOD9399993
Probable space group: P M M A
;
_chemical_formula_sum "Si O2"
_cell_formula_units_Z 56
_cell_length_a 18.542770
_cell_length_b 9.374454
_cell_length_c 19.383629
_cell_angle_alpha 90.000000
_cell_angle_beta 90.000000
_cell_angle_gamma 90.000000
_cell_volume 3369.424137
_symmetry_space_group_name_H-M "P M M A"
_symmetry_group_IT_number 51
_symmetry_cell_setting 'orthorhombic'
loop_
_space_group_symop_operation_xyz
x,y,z
1/2-x,-y,z
1/2+x,-y,-z
-x,y,-z
-x,-y,-z
1/2+x,y,-z
1/2-x,y,z
x,-y,z
loop_
_atom_site_type_symbol
_atom_site_label
_atom_site_fract_x
_atom_site_fract_y
_atom_site_fract_z
Si Si1 0.663278 0.332369 0.589609
Si Si2 0.030162 0.330373 0.076461
Si Si3 0.541692 0.831151 0.200689
Si Si4 0.332655 0.826115 0.699184
Si Si5 0.832458 0.829664 0.870255
Si Si6 0.837798 0.164161 0.453635
Si Si7 0.607756 0.166274 0.720904
O O1 0.750000 0.311958 0.595361
O O2 0.648861 0.500000 0.587213
O O3 0.639385 0.257638 0.518497
O O4 0.627217 0.260879 0.655829
O O5 0.035030 0.500000 0.088026
O O6 0.108059 0.257706 0.087939
O O7 0.978481 0.258159 0.133365
O O8 0.000000 0.305174 0.000000
O O9 0.613386 0.783590 0.240417
O O10 0.474367 0.817813 0.253289
O O11 0.547191 0.000000 0.183338
O O12 0.250000 0.779777 0.709715
O O13 0.358741 0.782352 0.622635
O O14 0.332383 0.000000 0.697373
O O15 0.750000 0.798840 0.889200
O O16 0.845230 0.798598 0.788976
O O17 0.845546 0.000000 0.878371
O O18 0.750000 0.162949 0.452348
O O19 0.861433 0.000000 0.462346
O O20 0.620535 0.000000 0.703784
#
# Coordination Sequence:
#
# PCOD9399993 Si02
#       7
#     8   8   8   8   8   8   8
#     4  10  19  28  40  62  91 123 161 201 237 277
#     4  10  21  36  53  74 103 138 168 193 231 287
#     4   9  18  33  53  75  97 122 156 199 244 290
#     4   8  14  28  52  77  95 115 153 204 250 290
#     4   9  18  33  54  79 102 126 163 208 247 285
#     4   8  14  26  45  66  88 118 155 195 241 289
#     4   9  17  29  45  66  94 126 156 190 236 287
#
# _framework density 16.620049999999999
#
# number of rings (size 3 to 8) (size 9 to 14) (size 15 to 20)
#    0.000    3.000    0.000    3.000    0.000    5.143 
#    0.000    2.143    0.000    8.143    0.000    0.000 
#    0.000    0.000    0.000    0.000    0.000    0.000 
#
# Total GULP energy -312046.833122 kJ/mol
# GULP energy per Si atom -5572.264877 kJ/mol
# Density = 1.658222 g / cm^3
# Si number density = 16.620050 Si / 1000 Ang^3
#
#
#
# Elastic Constant Matrix: (Units=GPa)
#
#
# Indices 1 2 3 4 5 6 
#
# 1 73.6955 50.7096 72.2657 0.0000 0.0000 0.0000
# 2 50.7096 66.5608 79.0150 0.0000 0.0000 0.0000
# 3 72.2657 79.0150 135.3401 0.0000 0.0000 0.0000
# 4 0.0000 0.0000 0.0000 -70.3194 0.0000 0.0000
# 5 0.0000 0.0000 0.0000 0.0000 17.3022 0.0000
# 6 0.0000 0.0000 0.0000 0.0000 0.0000 12.1441
#
#
#
# Elastic Compliance Matrix: (Units=1/GPa)
#
#
# Indices 1 2 3 4 5 6 
#
# 1 0.031689 -0.013214 -0.009206 0.000000 0.000000 0.000000
# 2 -0.013214 0.054458 -0.024738 0.000000 0.000000 0.000000
# 3 -0.009206 -0.024738 0.026747 0.000000 0.000000 0.000000
# 4 0.000000 0.000000 0.000000 -0.014221 0.000000 0.000000
# 5 0.000000 0.000000 0.000000 0.000000 0.057796 0.000000
# 6 0.000000 0.000000 0.000000 0.000000 0.000000 0.082345
#
#
# Mechanical properties :
#
#
# Convention : Reuss Voigt Hill
#
# Bulk Modulus (GPa) = 53.82733 75.50853 64.66793
# Shear Modulus (GPa) = 14.73517 -3.26757 5.73380
#
# Velocity S-wave (km/s) = 2.98080 -1.40368 1.85941
# Velocity P-wave (km/s) = 6.65614 6.55010 6.60333
#
# Compressibility (1/GPa) = 0.01857792
#
# Stress axis : x y z
#
# Youngs Moduli (GPa) = 31.55646 18.36269 37.38706
#
# Poissons Ratio (x) = 0.24265 0.34418
# Poissons Ratio (y) = 0.41699 0.92489
# Poissons Ratio (z) = 0.29051 0.45426
#
# Static dielectric constant tensor:
#      x y z
#    x 1.565590 0.000000 0.000000 
#    y 0.000000 1.548220 0.000000 
#    z 0.000000 0.000000 1.543550 
# 
# From -- ./inp_files/30356.got.cif
#   From: 2010.05.17/outbox.cif.g08.bks.cpg/sg51_16_cif.got.tgz:30356.got - 2010.06.03 11:52:47.
