data_PCOD9399850
_publ_section_title
;
Structure prediction by ZEFSAII (Michael W. Deem and Ramdas Pophale) SiO2 
 PCOD9399850
Probable space group: P M M A
;
_chemical_formula_sum "Si O2"
_cell_formula_units_Z 64
_cell_length_a 15.566260
_cell_length_b 7.692432
_cell_length_c 24.869149
_cell_angle_alpha 90.000000
_cell_angle_beta 90.000000
_cell_angle_gamma 90.000000
_cell_volume 2977.891501
_symmetry_space_group_name_H-M "P M M A"
_symmetry_group_IT_number 51
_symmetry_cell_setting 'orthorhombic'
loop_
_space_group_symop_operation_xyz
x,y,z
1/2-x,-y,z
1/2+x,-y,-z
-x,y,-z
-x,-y,-z
1/2+x,y,-z
1/2-x,y,z
x,-y,z
loop_
_atom_site_type_symbol
_atom_site_label
_atom_site_fract_x
_atom_site_fract_y
_atom_site_fract_z
Si Si1 0.651873 0.200810 0.365148
Si Si2 0.899472 0.709854 0.999582
Si Si3 0.344028 0.203374 0.118557
Si Si4 0.649945 0.286585 0.601772
Si Si5 0.980611 0.298117 0.691917
Si Si6 0.844871 0.287278 0.117607
Si Si7 0.354122 0.301452 0.515507
Si Si8 0.001567 0.702086 0.809878
O O1 0.750000 0.270882 0.359623
O O2 0.576787 0.289991 0.331702
O O3 0.627545 0.210518 0.428308
O O4 0.653665 0.000000 0.348859
O O5 0.892701 0.500000 0.997215
O O6 0.859932 0.768680 0.056026
O O7 0.857756 0.778734 0.945293
O O8 0.000000 0.755397 0.000000
O O9 0.250000 0.273337 0.132517
O O10 0.420244 0.291711 0.150910
O O11 0.347147 0.000000 0.132100
O O12 0.750000 0.237050 0.610116
O O13 0.648503 0.500000 0.599569
O O14 0.586761 0.224388 0.648642
O O15 0.618446 0.229111 0.542360
O O16 0.954673 0.500000 0.697265
O O17 0.981194 0.219684 0.751656
O O18 0.750000 0.238399 0.135651
O O19 0.849831 0.500000 0.116256
O O20 0.918672 0.221528 0.157091
O O21 0.250000 0.305717 0.511346
O O22 0.385293 0.500000 0.520847
O O23 0.024142 0.500000 0.799907
#
# Coordination Sequence:
#
# PCOD9399850 Si02
#       8
#     8   8   8   8   8   8   8   8
#     4  10  21  36  53  75 108 146 180 218 266 322
#     4  10  18  33  59  85 110 140 177 223 274 328
#     4  11  24  39  56  81 114 150 185 223 270 323
#     4   8  15  30  52  79 108 135 169 219 277 330
#     4  10  21  35  56  82 106 138 182 229 272 318
#     4   9  17  31  53  80 108 137 171 217 272 323
#     4   8  14  28  52  77 102 134 172 217 269 325
#     4  10  21  38  57  80 108 141 185 231 271 316
#
# _framework density 21.491717999999999
#
# number of rings (size 3 to 8) (size 9 to 14) (size 15 to 20)
#    0.000    2.500    1.250    1.875    0.000    4.500 
#    0.000    5.625    0.000    1.500    0.000    0.000 
#    0.000    0.000    0.000    0.000    0.000    0.000 
#
# Total GULP energy -357214.088670 kJ/mol
# GULP energy per Si atom -5581.470135 kJ/mol
# Density = 2.144280 g / cm^3
# Si number density = 21.491718 Si / 1000 Ang^3
#
#
#
# Elastic Constant Matrix: (Units=GPa)
#
#
# Indices 1 2 3 4 5 6 
#
# 1 87.2822 -5.7112 23.3433 0.0000 0.0000 0.0000
# 2 -5.7112 31.7867 -5.0060 0.0000 0.0000 0.0000
# 3 23.3433 -5.0060 91.2945 0.0000 0.0000 0.0000
# 4 0.0000 0.0000 0.0000 158.7271 0.0000 0.0000
# 5 0.0000 0.0000 0.0000 0.0000 -42.3039 0.0000
# 6 0.0000 0.0000 0.0000 0.0000 0.0000 -33.3244
#
#
#
# Elastic Compliance Matrix: (Units=1/GPa)
#
#
# Indices 1 2 3 4 5 6 
#
# 1 0.012393 0.001743 -0.003073 0.000000 0.000000 0.000000
# 2 0.001743 0.031979 0.001308 0.000000 0.000000 0.000000
# 3 -0.003073 0.001308 0.011811 0.000000 0.000000 0.000000
# 4 0.000000 0.000000 0.000000 0.006300 0.000000 0.000000
# 5 0.000000 0.000000 0.000000 0.000000 -0.023639 0.000000
# 6 0.000000 0.000000 0.000000 0.000000 0.000000 -0.030008
#
#
# Mechanical properties :
#
#
# Convention : Reuss Voigt Hill
#
# Bulk Modulus (GPa) = 17.81335 26.17951 21.99643
# Shear Modulus (GPa) = 181.19633 29.80225 105.49929
#
# Velocity S-wave (km/s) = 9.19200 3.72786 7.01391
# Velocity P-wave (km/s) = 10.99835 5.54409 8.70921
#
# Compressibility (1/GPa) = 0.05613767
#
# Stress axis : x y z
#
# Youngs Moduli (GPa) = 80.69034 31.27070 84.66622
#
# Poissons Ratio (x) = -0.05450 0.26020
# Poissons Ratio (y) = -0.14062 -0.11074
# Poissons Ratio (z) = 0.24798 -0.04090
#
# Static dielectric constant tensor:
#      x y z
#    x 1.765180 0.000000 0.000000 
#    y 0.000000 1.822480 0.000000 
#    z 0.000000 0.000000 1.772650 
# 
# From -- ./inp_files/35734.got.cif
#   From: 2010.05.17/outbox.cif.g08.bks.cpg/sg51_18_cif.got.tgz:35734.got - 2010.06.03 11:52:47.
