data_PCOD9399890
_publ_section_title
;
Structure prediction by ZEFSAII (Michael W. Deem and Ramdas Pophale) SiO2 
 PCOD9399890
Probable space group: P M M A
;
_chemical_formula_sum "Si O2"
_cell_formula_units_Z 52
_cell_length_a 8.953034
_cell_length_b 13.888062
_cell_length_c 24.134434
_cell_angle_alpha 90.000000
_cell_angle_beta 90.000000
_cell_angle_gamma 90.000000
_cell_volume 3000.882553
_symmetry_space_group_name_H-M "P M M A"
_symmetry_group_IT_number 51
_symmetry_cell_setting 'orthorhombic'
loop_
_space_group_symop_operation_xyz
x,y,z
1/2-x,-y,z
1/2+x,-y,-z
-x,y,-z
-x,-y,-z
1/2+x,y,-z
1/2-x,y,z
x,-y,z
loop_
_atom_site_type_symbol
_atom_site_label
_atom_site_fract_x
_atom_site_fract_y
_atom_site_fract_z
Si Si1 0.573965 0.684821 0.619352
Si Si2 0.074909 0.718367 0.838653
Si Si3 0.927033 0.110866 0.774063
Si Si4 0.080833 0.387616 0.256744
Si Si5 0.428215 0.611827 0.059926
Si Si6 0.568087 0.107928 0.644591
Si Si7 0.428822 0.500000 0.560780
O O1 0.750000 0.677126 0.603921
O O2 0.565108 0.667199 0.685444
O O3 0.521474 0.795743 0.611541
O O4 0.486047 0.597736 0.590743
O O5 0.250000 0.722886 0.848497
O O6 0.012767 0.818192 0.814428
O O7 0.034717 0.644569 0.789242
O O8 0.992715 0.681426 0.893410
O O9 0.750000 0.133149 0.775387
O O10 0.975111 0.118609 0.709491
O O11 0.946580 0.000000 0.790200
O O12 0.250000 0.369878 0.235374
O O13 0.067717 0.500000 0.269034
O O14 0.250000 0.620718 0.056588
O O15 0.463175 0.500000 0.074757
O O16 0.500000 0.630520 0.000000
O O17 0.750000 0.108628 0.643895
O O18 0.520963 0.000000 0.626184
O O19 0.250000 0.500000 0.558855
O O20 0.500000 0.500000 0.500000
#
# Coordination Sequence:
#
# PCOD9399890 Si02
#       7
#     8   8   8   8   8   8   4
#     4  10  18  34  58  82 112 146 183 227 274 323
#     4  12  23  32  48  76 111 144 178 220 270 325
#     4   9  17  32  53  75 103 142 185 222 263 320
#     4  10  19  32  50  74 107 146 182 218 266 322
#     4  10  21  38  58  77 100 134 178 225 272 324
#     4   8  14  27  52  83 111 143 182 222 268 327
#     4  12  26  42  60  82 112 148 193 232 275 330
#
# _framework density 17.328236
#
# number of rings (size 3 to 8) (size 9 to 14) (size 15 to 20)
#    0.000    2.000    2.308    3.923    0.000    4.000 
#    0.000    0.000    0.000    1.385    0.000    0.000 
#    0.000    0.000    0.000    0.000    0.000    0.000 
#
# Total GULP energy -290026.019297 kJ/mol
# GULP energy per Si atom -5577.423448 kJ/mol
# Density = 1.728880 g / cm^3
# Si number density = 17.328236 Si / 1000 Ang^3
#
#
#
# Elastic Constant Matrix: (Units=GPa)
#
#
# Indices 1 2 3 4 5 6 
#
# 1 63.0498 40.3629 26.3629 0.0000 0.0000 0.0000
# 2 40.3629 150.2723 33.1760 0.0000 0.0000 0.0000
# 3 26.3629 33.1760 39.8734 0.0000 0.0000 0.0000
# 4 0.0000 0.0000 0.0000 8.7773 0.0000 0.0000
# 5 0.0000 0.0000 0.0000 0.0000 23.6850 0.0000
# 6 0.0000 0.0000 0.0000 0.0000 0.0000 19.2739
#
#
#
# Elastic Compliance Matrix: (Units=1/GPa)
#
#
# Indices 1 2 3 4 5 6 
#
# 1 0.023337 -0.003506 -0.012512 0.000000 0.000000 0.000000
# 2 -0.003506 0.008679 -0.004903 0.000000 0.000000 0.000000
# 3 -0.012512 -0.004903 0.037432 0.000000 0.000000 0.000000
# 4 0.000000 0.000000 0.000000 0.113931 0.000000 0.000000
# 5 0.000000 0.000000 0.000000 0.000000 0.042221 0.000000
# 6 0.000000 0.000000 0.000000 0.000000 0.000000 0.051884
#
#
# Mechanical properties :
#
#
# Convention : Reuss Voigt Hill
#
# Bulk Modulus (GPa) = 36.22607 50.33323 43.27965
# Shear Modulus (GPa) = 15.21949 20.56680 17.89315
#
# Velocity S-wave (km/s) = 2.96684 3.44887 3.21690
# Velocity P-wave (km/s) = 5.71729 6.70594 6.23125
#
# Compressibility (1/GPa) = 0.02760443
#
# Stress axis : x y z
#
# Youngs Moduli (GPa) = 42.85110 115.22472 26.71535
#
# Poissons Ratio (x) = 0.40395 0.33427
# Poissons Ratio (y) = 0.15023 0.13099
# Poissons Ratio (z) = 0.53617 0.56495
#
# Static dielectric constant tensor:
#      x y z
#    x 1.577880 0.000000 0.000000 
#    y 0.000000 1.633370 0.000000 
#    z 0.000000 0.000000 1.556350 
# 
# From -- ./inp_files/31757.got.cif
#   From: 2010.05.17/outbox.cif.g08.bks.cpg/sg51_16_cif.got.tgz:31757.got - 2010.06.03 11:52:47.
