data_PCOD9399638
_publ_section_title
;
Structure prediction by ZEFSAII (Michael W. Deem and Ramdas Pophale) SiO2 
 PCOD9399638
Probable space group: P M M A
;
_chemical_formula_sum "Si O2"
_cell_formula_units_Z 52
_cell_length_a 8.531231
_cell_length_b 24.130917
_cell_length_c 14.777687
_cell_angle_alpha 90.000000
_cell_angle_beta 90.000000
_cell_angle_gamma 90.000000
_cell_volume 3042.229625
_symmetry_space_group_name_H-M "P M M A"
_symmetry_group_IT_number 51
_symmetry_cell_setting 'orthorhombic'
loop_
_space_group_symop_operation_xyz
x,y,z
1/2-x,-y,z
1/2+x,-y,-z
-x,y,-z
-x,-y,-z
1/2+x,y,-z
1/2-x,y,z
x,-y,z
loop_
_atom_site_type_symbol
_atom_site_label
_atom_site_fract_x
_atom_site_fract_y
_atom_site_fract_z
Si Si1 0.058811 0.561393 0.787859
Si Si2 0.063523 0.734573 0.403426
Si Si3 0.560612 0.331296 0.101507
Si Si4 0.061166 0.121742 0.103269
Si Si5 0.061500 0.000000 0.102459
Si Si6 0.437815 0.390883 0.596562
Si Si7 0.061985 0.224177 0.781466
O O1 0.250000 0.561821 0.789436
O O2 0.006409 0.500000 0.815116
O O3 0.006262 0.611566 0.851780
O O4 0.012451 0.574653 0.684462
O O5 0.250000 0.731261 0.406659
O O6 0.000000 0.755112 0.500000
O O7 0.995932 0.672290 0.391523
O O8 0.008046 0.770407 0.318542
O O9 0.750000 0.331718 0.100192
O O10 0.511701 0.278761 0.161926
O O11 0.500000 0.326174 0.000000
O O12 0.250000 0.125038 0.101540
O O13 0.993914 0.170245 0.164951
O O14 0.013286 0.060283 0.139146
O O15 0.000000 0.127490 0.000000
O O16 0.250000 0.000000 0.101499
O O17 0.000000 0.000000 0.000000
O O18 0.500000 0.411504 0.500000
O O19 0.250000 0.390096 0.593587
O O20 0.250000 0.224783 0.775687
#
# Coordination Sequence:
#
# PCOD9399638 Si02
#       7
#     8   8   8   8   4   8   8
#     4   9  18  34  53  70  94 131 168 205 255 312
#     4  11  21  34  54  78 104 134 166 206 255 312
#     4  10  21  36  52  71  97 129 167 210 257 304
#     4  10  19  32  50  77 109 147 184 220 259 303
#     4   8  16  30  48  70 105 144 183 220 256 298
#     4  10  18  32  52  75 100 128 161 201 253 312
#     4  11  21  35  53  77 106 137 172 215 260 309
#
# _framework density 17.092725999999999
#
# number of rings (size 3 to 8) (size 9 to 14) (size 15 to 20)
#    0.000    2.000    1.538    4.154    0.000    3.692 
#    0.000    0.000    0.000    3.231    0.000    0.538 
#    0.000    0.000    0.000    0.000    0.000    0.000 
#
# Total GULP energy -290158.931257 kJ/mol
# GULP energy per Si atom -5579.979447 kJ/mol
# Density = 1.705382 g / cm^3
# Si number density = 17.092726 Si / 1000 Ang^3
#
#
#
# Elastic Constant Matrix: (Units=GPa)
#
#
# Indices 1 2 3 4 5 6 
#
# 1 46.7123 23.7595 25.3942 0.0000 0.0000 0.0000
# 2 23.7595 131.2307 66.1600 0.0000 0.0000 0.0000
# 3 25.3942 66.1600 115.1822 0.0000 0.0000 0.0000
# 4 0.0000 0.0000 0.0000 20.4569 0.0000 0.0000
# 5 0.0000 0.0000 0.0000 0.0000 29.2351 0.0000
# 6 0.0000 0.0000 0.0000 0.0000 0.0000 25.7599
#
#
#
# Elastic Compliance Matrix: (Units=1/GPa)
#
#
# Indices 1 2 3 4 5 6 
#
# 1 0.024869 -0.002447 -0.004077 0.000000 0.000000 0.000000
# 2 -0.002447 0.010967 -0.005760 0.000000 0.000000 0.000000
# 3 -0.004077 -0.005760 0.012889 0.000000 0.000000 0.000000
# 4 0.000000 0.000000 0.000000 0.048883 0.000000 0.000000
# 5 0.000000 0.000000 0.000000 0.000000 0.034205 0.000000
# 6 0.000000 0.000000 0.000000 0.000000 0.000000 0.038820
#
#
# Mechanical properties :
#
#
# Convention : Reuss Voigt Hill
#
# Bulk Modulus (GPa) = 41.39630 58.19472 49.79551
# Shear Modulus (GPa) = 24.59970 26.94449 25.77209
#
# Velocity S-wave (km/s) = 3.79778 3.97466 3.88723
# Velocity P-wave (km/s) = 6.59561 7.42861 7.02447
#
# Compressibility (1/GPa) = 0.02415675
#
# Stress axis : x y z
#
# Youngs Moduli (GPa) = 40.21108 91.18210 77.58379
#
# Poissons Ratio (x) = 0.22312 0.31633
# Poissons Ratio (y) = 0.09839 0.44688
# Poissons Ratio (z) = 0.16395 0.52520
#
# Static dielectric constant tensor:
#      x y z
#    x 1.583250 0.000000 0.000000 
#    y 0.000000 1.592860 0.000000 
#    z 0.000000 0.000000 1.559800 
# 
# From -- ./inp_files/22106.got.cif
#   From: 2010.05.17/outbox.cif.g08.bks.cpg/sg51_12_cif.got.tgz:22106.got - 2010.06.03 11:52:47.
