data_PCOD9399736
_publ_section_title
;
Structure prediction by ZEFSAII (Michael W. Deem and Ramdas Pophale) SiO2 
 PCOD9399736
Probable space group: P M M A
;
_chemical_formula_sum "Si O2"
_cell_formula_units_Z 64
_cell_length_a 20.147263
_cell_length_b 8.719289
_cell_length_c 21.214711
_cell_angle_alpha 90.000000
_cell_angle_beta 90.000000
_cell_angle_gamma 90.000000
_cell_volume 3726.784222
_symmetry_space_group_name_H-M "P M M A"
_symmetry_group_IT_number 51
_symmetry_cell_setting 'orthorhombic'
loop_
_space_group_symop_operation_xyz
x,y,z
1/2-x,-y,z
1/2+x,-y,-z
-x,y,-z
-x,-y,-z
1/2+x,y,-z
1/2-x,y,z
x,-y,z
loop_
_atom_site_type_symbol
_atom_site_label
_atom_site_fract_x
_atom_site_fract_y
_atom_site_fract_z
Si Si1 0.823240 0.186370 0.514502
Si Si2 0.459055 0.317161 0.681849
Si Si3 0.543096 0.183664 0.938099
Si Si4 0.674707 0.682807 0.989375
Si Si5 0.674958 0.815323 0.366481
Si Si6 0.460141 0.683486 0.822491
Si Si7 0.674768 0.183498 0.130100
Si Si8 0.961602 0.814701 0.564216
O O1 0.750000 0.240029 0.534005
O O2 0.833039 0.224988 0.440683
O O3 0.885661 0.237793 0.555252
O O4 0.822796 0.000000 0.516489
O O5 0.461112 0.500000 0.677901
O O6 0.383693 0.261641 0.671584
O O7 0.481443 0.271075 0.751954
O O8 0.502771 0.248332 0.625753
O O9 0.615867 0.255972 0.945815
O O10 0.504588 0.241065 0.876632
O O11 0.548112 0.000000 0.937350
O O12 0.500000 0.227843 0.000000
O O13 0.750000 0.712999 0.966402
O O14 0.667777 0.500000 0.998273
O O15 0.668140 0.764593 0.057275
O O16 0.750000 0.773465 0.347432
O O17 0.669085 0.000000 0.361748
O O18 0.463749 0.500000 0.828507
O O19 0.384220 0.736262 0.832610
O O20 0.750000 0.223291 0.150528
O O21 0.667259 0.000000 0.134019
O O22 0.000000 0.770524 0.500000
O O23 0.963303 0.000000 0.567162
#
# Coordination Sequence:
#
# PCOD9399736 Si02
#       8
#     8   8   8   8   8   8   8   8
#     4   8  14  27  50  79 106 131 168 219 265 309
#     4  11  24  37  50  75 111 146 180 222 271 320
#     4  11  22  36  58  86 110 138 180 232 279 314
#     4  10  20  34  56  85 114 145 178 214 264 326
#     4   9  17  32  54  77 104 141 182 219 259 313
#     4  11  24  39  54  74 106 149 188 222 268 328
#     4  10  20  34  53  79 110 142 180 225 267 311
#     4  10  18  32  56  81 103 136 182 224 265 317
#
# _framework density 17.172982999999999
#
# number of rings (size 3 to 8) (size 9 to 14) (size 15 to 20)
#    0.000    2.000    2.500    2.625    0.000    5.000 
#    0.000    2.500    0.000    1.125    0.000    3.500 
#    0.000    0.000    0.000    0.000    0.000    0.000 
#
# Total GULP energy -357192.108817 kJ/mol
# GULP energy per Si atom -5581.126700 kJ/mol
# Density = 1.713390 g / cm^3
# Si number density = 17.172983 Si / 1000 Ang^3
#
#
#
# Elastic Constant Matrix: (Units=GPa)
#
#
# Indices 1 2 3 4 5 6 
#
# 1 111.1128 25.5626 60.9443 0.0000 0.0000 0.0000
# 2 25.5626 24.6303 25.5011 0.0000 0.0000 0.0000
# 3 60.9443 25.5011 106.3262 0.0000 0.0000 0.0000
# 4 0.0000 0.0000 0.0000 24.7970 0.0000 0.0000
# 5 0.0000 0.0000 0.0000 0.0000 18.9739 0.0000
# 6 0.0000 0.0000 0.0000 0.0000 0.0000 21.3882
#
#
#
# Elastic Compliance Matrix: (Units=1/GPa)
#
#
# Indices 1 2 3 4 5 6 
#
# 1 0.014345 -0.008481 -0.006188 0.000000 0.000000 0.000000
# 2 -0.008481 0.059027 -0.009296 0.000000 0.000000 0.000000
# 3 -0.006188 -0.009296 0.015182 0.000000 0.000000 0.000000
# 4 0.000000 0.000000 0.000000 0.040327 0.000000 0.000000
# 5 0.000000 0.000000 0.000000 0.000000 0.052704 0.000000
# 6 0.000000 0.000000 0.000000 0.000000 0.000000 0.046755
#
#
# Mechanical properties :
#
#
# Convention : Reuss Voigt Hill
#
# Bulk Modulus (GPa) = 24.61634 51.78724 38.20179
# Shear Modulus (GPa) = 17.25258 21.70256 19.47757
#
# Velocity S-wave (km/s) = 3.17304 3.55880 3.37144
# Velocity P-wave (km/s) = 5.27159 6.86356 6.11956
#
# Compressibility (1/GPa) = 0.04062342
#
# Stress axis : x y z
#
# Youngs Moduli (GPa) = 69.70931 16.94141 65.86940
#
# Poissons Ratio (x) = 0.14368 0.40762
# Poissons Ratio (y) = 0.59121 0.61230
# Poissons Ratio (z) = 0.43139 0.15748
#
# Static dielectric constant tensor:
#      x y z
#    x 1.595480 0.000000 0.000000 
#    y 0.000000 1.574640 0.000000 
#    z 0.000000 0.000000 1.565550 
# 
# From -- ./inp_files/30599.got.cif
#   From: 2010.05.17/outbox.cif.g08.bks.cpg/sg51_16_cif.got.tgz:30599.got - 2010.06.03 11:52:47.
