data_PCOD9399138
_publ_section_title
;
Structure prediction by ZEFSAII (Michael W. Deem and Ramdas Pophale) SiO2 
 PCOD9399138
Probable space group: P M M A
;
_chemical_formula_sum "Si O2"
_cell_formula_units_Z 60
_cell_length_a 8.684411
_cell_length_b 17.446912
_cell_length_c 23.999663
_cell_angle_alpha 90.000000
_cell_angle_beta 90.000000
_cell_angle_gamma 90.000000
_cell_volume 3636.336647
_symmetry_space_group_name_H-M "P M M A"
_symmetry_group_IT_number 51
_symmetry_cell_setting 'orthorhombic'
loop_
_space_group_symop_operation_xyz
x,y,z
1/2-x,-y,z
1/2+x,-y,-z
-x,y,-z
-x,-y,-z
1/2+x,y,-z
1/2-x,y,z
x,-y,z
loop_
_atom_site_type_symbol
_atom_site_label
_atom_site_fract_x
_atom_site_fract_y
_atom_site_fract_z
Si Si1 0.434621 0.000000 0.937135
Si Si2 0.434768 0.585461 0.366271
Si Si3 0.437963 0.085444 0.759947
Si Si4 0.072471 0.329265 0.733225
Si Si5 0.566667 0.269836 0.561407
Si Si6 0.936963 0.768625 0.166184
Si Si7 0.066327 0.161238 0.062309
Si Si8 0.927654 0.175803 0.343363
O O1 0.497246 0.919576 0.914863
O O2 0.250000 0.000000 0.935627
O O3 0.500000 0.000000 0.000000
O O4 0.250000 0.584768 0.370083
O O5 0.492718 0.500000 0.378815
O O6 0.479689 0.610891 0.303830
O O7 0.491162 0.651595 0.408537
O O8 0.250000 0.086372 0.760326
O O9 0.485765 0.154076 0.800619
O O10 0.485005 0.108199 0.696950
O O11 0.488127 0.000000 0.775613
O O12 0.250000 0.354281 0.737073
O O13 0.018362 0.302774 0.794329
O O14 0.070690 0.250474 0.697122
O O15 0.500000 0.262355 0.500000
O O16 0.750000 0.273779 0.558365
O O17 0.519239 0.200494 0.602171
O O18 0.750000 0.768997 0.162410
O O19 0.010645 0.774515 0.105516
O O20 0.250000 0.155725 0.059374
O O21 0.000000 0.172570 0.000000
O O22 0.750000 0.160973 0.358490
#
# Coordination Sequence:
#
# PCOD9399138 Si02
#       8
#     4   8   8   8   8   8   8   8
#     4  10  18  30  44  56  76 110 148 186 227 268
#     4   9  18  31  46  66  93 121 147 177 215 259
#     4   8  14  25  44  68  87 108 141 179 223 270
#     4   8  15  28  45  65  89 116 148 181 215 259
#     4  10  19  30  45  64  87 116 149 180 214 255
#     4   9  17  29  45  66  90 117 149 185 222 265
#     4  11  21  32  44  61  86 117 155 192 230 272
#     4   8  14  27  45  63  85 111 142 178 215 260
#
# _framework density 16.500122000000001
#
# number of rings (size 3 to 8) (size 9 to 14) (size 15 to 20)
#    0.000    2.933    0.000    4.600    0.933    1.600 
#    0.000    2.000    0.000    1.600    0.000    0.000 
#    0.000    0.533    0.000    1.733    0.000    2.533 
#
# Total GULP energy -334067.641826 kJ/mol
# GULP energy per Si atom -5567.794030 kJ/mol
# Density = 1.646257 g / cm^3
# Si number density = 16.500122 Si / 1000 Ang^3
#
#
#
# Elastic Constant Matrix: (Units=GPa)
#
#
# Indices 1 2 3 4 5 6 
#
# 1 43.8391 -0.3377 23.6344 0.0000 0.0000 0.0000
# 2 -0.3377 12.8558 10.8846 0.0000 0.0000 0.0000
# 3 23.6344 10.8846 102.6173 0.0000 0.0000 0.0000
# 4 0.0000 0.0000 0.0000 16.7794 0.0000 0.0000
# 5 0.0000 0.0000 0.0000 0.0000 21.6517 0.0000
# 6 0.0000 0.0000 0.0000 0.0000 0.0000 14.4194
#
#
#
# Elastic Compliance Matrix: (Units=1/GPa)
#
#
# Indices 1 2 3 4 5 6 
#
# 1 0.026522 0.006448 -0.006792 0.000000 0.000000 0.000000
# 2 0.006448 0.087028 -0.010716 0.000000 0.000000 0.000000
# 3 -0.006792 -0.010716 0.012446 0.000000 0.000000 0.000000
# 4 0.000000 0.000000 0.000000 0.059597 0.000000 0.000000
# 5 0.000000 0.000000 0.000000 0.000000 0.046186 0.000000
# 6 0.000000 0.000000 0.000000 0.000000 0.000000 0.069351
#
#
# Mechanical properties :
#
#
# Convention : Reuss Voigt Hill
#
# Bulk Modulus (GPa) = 9.62698 25.29720 17.46209
# Shear Modulus (GPa) = 13.97129 18.91215 16.44172
#
# Velocity S-wave (km/s) = 2.91303 3.38920 3.16010
# Velocity P-wave (km/s) = 4.14265 5.53899 4.89091
#
# Compressibility (1/GPa) = 0.10387473
#
# Stress axis : x y z
#
# Youngs Moduli (GPa) = 37.70418 11.49052 80.34714
#
# Poissons Ratio (x) = -0.07409 0.54575
# Poissons Ratio (y) = -0.24310 0.86100
# Poissons Ratio (z) = 0.25610 0.12313
#
# Static dielectric constant tensor:
#      x y z
#    x 1.589700 0.000000 0.000000 
#    y 0.000000 1.571300 0.000000 
#    z 0.000000 0.000000 1.568150 
# 
# From -- ./inp_files/35152.got.cif
#   From: 2010.05.17/outbox.cif.g08.bks.cpg/sg51_18_cif.got.tgz:35152.got - 2010.06.03 11:52:47.
