data_PCOD9399726
_publ_section_title
;
Structure prediction by ZEFSAII (Michael W. Deem and Ramdas Pophale) SiO2 
 PCOD9399726
Probable space group: P M M A
;
_chemical_formula_sum "Si O2"
_cell_formula_units_Z 44
_cell_length_a 8.413148
_cell_length_b 30.477841
_cell_length_c 9.236209
_cell_angle_alpha 90.000000
_cell_angle_beta 90.000000
_cell_angle_gamma 90.000000
_cell_volume 2368.298717
_symmetry_space_group_name_H-M "P M M A"
_symmetry_group_IT_number 51
_symmetry_cell_setting 'orthorhombic'
loop_
_space_group_symop_operation_xyz
x,y,z
1/2-x,-y,z
1/2+x,-y,-z
-x,y,-z
-x,-y,-z
1/2+x,y,-z
1/2-x,y,z
x,-y,z
loop_
_atom_site_type_symbol
_atom_site_label
_atom_site_fract_x
_atom_site_fract_y
_atom_site_fract_z
Si Si1 0.938904 0.092421 0.665130
Si Si2 0.559247 0.176919 0.163379
Si Si3 0.057574 0.547214 0.667172
Si Si4 0.938876 0.000000 0.333821
Si Si5 0.442080 0.641534 0.666611
Si Si6 0.942305 0.737087 0.334603
O O1 0.750000 0.091515 0.662162
O O2 0.000000 0.096124 0.500000
O O3 0.998830 0.134028 0.753604
O O4 0.999622 0.045966 0.728569
O O5 0.750000 0.176715 0.166219
O O6 0.502191 0.221300 0.243062
O O7 0.500000 0.176456 0.000000
O O8 0.250000 0.547190 0.667765
O O9 0.004512 0.500000 0.730367
O O10 0.004444 0.594414 0.730533
O O11 0.000000 0.547237 0.500000
O O12 0.000000 0.000000 0.500000
O O13 0.750000 0.000000 0.334253
O O14 0.500000 0.641550 0.500000
O O15 0.250000 0.641382 0.668023
O O16 0.494201 0.689098 0.725123
O O17 0.750000 0.737566 0.335900
O O18 0.000000 0.741051 0.500000
#
# Coordination Sequence:
#
# PCOD9399726 Si02
#       6
#     8   8   8   4   8   8
#     4  11  21  36  58  84 111 140 172 207 245 288
#     4  11  23  38  53  73 100 132 168 208 255 303
#     4   8  12  17  27  45  72 106 140 173 215 269
#     4  10  18  32  55  84 113 140 171 208 244 282
#     4   8  13  22  35  54  80 110 144 184 227 274
#     4   9  18  31  49  70  93 122 159 200 243 291
#
# _framework density 18.578738000000001
#
# number of rings (size 3 to 8) (size 9 to 14) (size 15 to 20)
#    0.000    2.545    0.000    4.636    0.000    2.909 
#    0.000    0.455    0.000    0.000    0.000    0.000 
#    0.000    0.727    0.000    0.545    0.000   10.909 
#
# Total GULP energy -245016.273237 kJ/mol
# GULP energy per Si atom -5568.551664 kJ/mol
# Density = 1.853645 g / cm^3
# Si number density = 18.578738 Si / 1000 Ang^3
#
#
#
# Elastic Constant Matrix: (Units=GPa)
#
#
# Indices 1 2 3 4 5 6 
#
# 1 60.6758 40.4443 12.1394 0.0000 0.0000 0.0000
# 2 40.4443 264.0810 63.7726 0.0000 0.0000 0.0000
# 3 12.1394 63.7726 44.1636 0.0000 0.0000 0.0000
# 4 0.0000 0.0000 0.0000 -6.7301 0.0000 0.0000
# 5 0.0000 0.0000 0.0000 0.0000 16.9753 0.0000
# 6 0.0000 0.0000 0.0000 0.0000 0.0000 17.1044
#
#
#
# Elastic Compliance Matrix: (Units=1/GPa)
#
#
# Indices 1 2 3 4 5 6 
#
# 1 0.018421 -0.002454 -0.001519 0.000000 0.000000 0.000000
# 2 -0.002454 0.006141 -0.008193 0.000000 0.000000 0.000000
# 3 -0.001519 -0.008193 0.034892 0.000000 0.000000 0.000000
# 4 0.000000 0.000000 0.000000 -0.148587 0.000000 0.000000
# 5 0.000000 0.000000 0.000000 0.000000 0.058909 0.000000
# 6 0.000000 0.000000 0.000000 0.000000 0.000000 0.058464
#
#
# Mechanical properties :
#
#
# Convention : Reuss Voigt Hill
#
# Bulk Modulus (GPa) = 28.47379 66.84811 47.66095
# Shear Modulus (GPa) = 77.78253 22.30754 50.04504
#
# Velocity S-wave (km/s) = 6.47745 3.46887 5.19569
# Velocity P-wave (km/s) = 8.44407 7.21825 7.85511
#
# Compressibility (1/GPa) = 0.03512001
#
# Stress axis : x y z
#
# Youngs Moduli (GPa) = 54.28597 162.83532 28.65993
#
# Poissons Ratio (x) = 0.39964 0.04355
# Poissons Ratio (y) = 0.13323 0.23482
# Poissons Ratio (z) = 0.08249 1.33416
#
# Static dielectric constant tensor:
#      x y z
#    x 1.629650 0.000000 0.000000 
#    y 0.000000 1.742440 0.000000 
#    z 0.000000 0.000000 1.577780 
# 
# From -- ./inp_files/5857.got.cif
#   From: 2010.05.17/outbox.cif.g08.bks.cpg/sg51_3_cif.got.tgz:5857.got - 2010.06.03 11:52:47.
