data_PCOD9399427
_publ_section_title
;
Structure prediction by ZEFSAII (Michael W. Deem and Ramdas Pophale) SiO2 
 PCOD9399427
Probable space group: P M M A
;
_chemical_formula_sum "Si O2"
_cell_formula_units_Z 64
_cell_length_a 19.220084
_cell_length_b 13.684830
_cell_length_c 12.017728
_cell_angle_alpha 90.000000
_cell_angle_beta 90.000000
_cell_angle_gamma 90.000000
_cell_volume 3160.945868
_symmetry_space_group_name_H-M "P M M A"
_symmetry_group_IT_number 51
_symmetry_cell_setting 'orthorhombic'
loop_
_space_group_symop_operation_xyz
x,y,z
1/2-x,-y,z
1/2+x,-y,-z
-x,y,-z
-x,-y,-z
1/2+x,y,-z
1/2-x,y,z
x,-y,z
loop_
_atom_site_type_symbol
_atom_site_label
_atom_site_fract_x
_atom_site_fract_y
_atom_site_fract_z
Si Si1 0.939886 0.886780 0.918355
Si Si2 0.852472 0.885226 0.346120
Si Si3 0.981313 0.891918 0.662111
Si Si4 0.891072 0.614962 0.722210
Si Si5 0.946881 0.614429 0.339902
Si Si6 0.382538 0.252135 0.470142
Si Si7 0.330669 0.723173 0.069272
Si Si8 0.827731 0.292835 0.192961
O O1 0.966582 0.880856 0.792514
O O2 0.869997 0.825985 0.924310
O O3 0.928469 0.000000 0.948167
O O4 0.000000 0.847374 0.000000
O O5 0.834108 0.818022 0.453699
O O6 0.832744 0.819672 0.238476
O O7 0.936381 0.884431 0.351052
O O8 0.831065 0.000000 0.345340
O O9 0.936713 0.817469 0.592388
O O10 0.959033 0.000000 0.626599
O O11 0.877345 0.500000 0.709631
O O12 0.852577 0.679592 0.627798
O O13 0.868997 0.651962 0.843939
O O14 0.974195 0.631055 0.701777
O O15 0.940526 0.500000 0.364646
O O16 0.924224 0.676203 0.447144
O O17 0.890371 0.648652 0.249404
O O18 0.250000 0.729453 0.100610
O O19 0.334255 0.696126 0.939248
O O20 0.750000 0.327342 0.225764
#
# Coordination Sequence:
#
# PCOD9399427 Si02
#       8
#     8   8   8   8   8   8   8   8
#     4  10  21  36  61  93 125 164 210 256 302 361
#     4  10  20  34  58  92 127 160 202 251 305 371
#     4  10  18  30  54  91 125 158 198 243 299 360
#     4  11  23  39  62  92 126 163 209 264 318 378
#     4  10  22  39  63  93 119 153 205 265 324 376
#     4  11  19  34  61  94 128 162 199 258 317 378
#     4  11  25  42  63  90 125 172 214 256 316 383
#     4  10  23  41  61  86 118 159 205 258 320 377
#
# _framework density 20.247104
#
# number of rings (size 3 to 8) (size 9 to 14) (size 15 to 20)
#    0.000    1.625    1.250    4.500    1.750    5.000 
#    0.000    6.250    0.000    3.000    0.000    0.000 
#    0.000    0.000    0.000    0.000    0.000    0.000 
#
# Total GULP energy -357456.018308 kJ/mol
# GULP energy per Si atom -5585.250286 kJ/mol
# Density = 2.020102 g / cm^3
# Si number density = 20.247104 Si / 1000 Ang^3
#
#
#
# Elastic Constant Matrix: (Units=GPa)
#
#
# Indices 1 2 3 4 5 6 
#
# 1 62.1649 40.7328 32.9093 0.0000 0.0000 0.0000
# 2 40.7328 112.5583 47.4212 0.0000 0.0000 0.0000
# 3 32.9093 47.4212 110.8559 0.0000 0.0000 0.0000
# 4 0.0000 0.0000 0.0000 19.3494 0.0000 0.0000
# 5 0.0000 0.0000 0.0000 0.0000 217.2093 0.0000
# 6 0.0000 0.0000 0.0000 0.0000 0.0000 2.5215
#
#
#
# Elastic Compliance Matrix: (Units=1/GPa)
#
#
# Indices 1 2 3 4 5 6 
#
# 1 0.022374 -0.006463 -0.003877 0.000000 0.000000 0.000000
# 2 -0.006463 0.012704 -0.003516 0.000000 0.000000 0.000000
# 3 -0.003877 -0.003516 0.011676 0.000000 0.000000 0.000000
# 4 0.000000 0.000000 0.000000 0.051681 0.000000 0.000000
# 5 0.000000 0.000000 0.000000 0.000000 0.004604 0.000000
# 6 0.000000 0.000000 0.000000 0.000000 0.000000 0.396596
#
#
# Mechanical properties :
#
#
# Convention : Reuss Voigt Hill
#
# Bulk Modulus (GPa) = 52.51745 58.63397 55.57571
# Shear Modulus (GPa) = 9.36865 58.78375 34.07620
#
# Velocity S-wave (km/s) = 2.15342 5.39409 4.10691
# Velocity P-wave (km/s) = 5.67252 8.23511 7.07087
#
# Compressibility (1/GPa) = 0.01904129
#
# Stress axis : x y z
#
# Youngs Moduli (GPa) = 44.69537 78.71247 85.64755
#
# Poissons Ratio (x) = 0.50873 0.33207
# Poissons Ratio (y) = 0.28887 0.30113
# Poissons Ratio (z) = 0.17329 0.27675
#
# Static dielectric constant tensor:
#      x y z
#    x 1.701100 0.000000 0.000000 
#    y 0.000000 1.744360 0.000000 
#    z 0.000000 0.000000 1.746050 
# 
# From -- ./inp_files/17552.got.cif
#   From: 2010.05.17/outbox.cif.g08.bks.cpg/sg51_9_cif.got.tgz:17552.got - 2010.06.03 11:52:47.
