data_PCOD9399520
_publ_section_title
;
Structure prediction by ZEFSAII (Michael W. Deem and Ramdas Pophale) SiO2 
 PCOD9399520
Probable space group: P M M A
;
_chemical_formula_sum "Si O2"
_cell_formula_units_Z 56
_cell_length_a 20.322407
_cell_length_b 7.720323
_cell_length_c 18.059476
_cell_angle_alpha 90.000000
_cell_angle_beta 90.000000
_cell_angle_gamma 90.000000
_cell_volume 2833.451351
_symmetry_space_group_name_H-M "P M M A"
_symmetry_group_IT_number 51
_symmetry_cell_setting 'orthorhombic'
loop_
_space_group_symop_operation_xyz
x,y,z
1/2-x,-y,z
1/2+x,-y,-z
-x,y,-z
-x,-y,-z
1/2+x,y,-z
1/2-x,y,z
x,-y,z
loop_
_atom_site_type_symbol
_atom_site_label
_atom_site_fract_x
_atom_site_fract_y
_atom_site_fract_z
Si Si1 0.918434 0.707461 0.614006
Si Si2 0.176314 0.287644 0.077859
Si Si3 0.466648 0.795036 0.801480
Si Si4 0.567936 0.290768 0.037809
Si Si5 0.325550 0.792395 0.523677
Si Si6 0.611597 0.300618 0.776059
Si Si7 0.432308 0.206913 0.639066
O O1 0.919255 0.500000 0.617628
O O2 0.868178 0.760286 0.550217
O O3 0.894102 0.777248 0.694031
O O4 0.995043 0.759847 0.604716
O O5 0.250000 0.238334 0.059914
O O6 0.172491 0.500000 0.080393
O O7 0.156148 0.223634 0.159514
O O8 0.126191 0.229800 0.015018
O O9 0.427956 0.765486 0.877105
O O10 0.537421 0.704156 0.807738
O O11 0.434742 0.731823 0.724428
O O12 0.479098 0.000000 0.793410
O O13 0.567458 0.500000 0.037773
O O14 0.500000 0.231469 0.000000
O O15 0.250000 0.726309 0.521166
O O16 0.372175 0.723301 0.590036
O O17 0.320960 0.000000 0.532239
O O18 0.632701 0.500000 0.766043
O O19 0.424468 0.000000 0.641171
#
# Coordination Sequence:
#
# PCOD9399520 Si02
#       7
#     8   8   8   8   8   8   8
#     4  10  20  32  53  82 108 132 165 213 267 313
#     4   9  17  30  49  71  96 130 170 203 237 293
#     4  10  19  31  51  78 102 126 165 215 259 295
#     4  10  18  31  52  74  98 130 168 206 246 296
#     4  10  21  37  55  73  99 140 182 214 253 308
#     4   9  17  32  51  73 101 133 166 201 248 305
#     4   9  19  36  55  75 101 135 176 216 254 306
#
# _framework density 19.763881999999999
#
# number of rings (size 3 to 8) (size 9 to 14) (size 15 to 20)
#    0.000    2.429    1.429    1.286    0.000    4.571 
#    0.000    2.143    0.000    2.571    0.000    0.000 
#    0.000    0.000    0.000    0.000    0.000    0.000 
#
# Total GULP energy -312335.391556 kJ/mol
# GULP energy per Si atom -5577.417706 kJ/mol
# Density = 1.971890 g / cm^3
# Si number density = 19.763882 Si / 1000 Ang^3
#
#
#
# Elastic Constant Matrix: (Units=GPa)
#
#
# Indices 1 2 3 4 5 6 
#
# 1 153.8431 -1.6859 99.9424 0.0000 0.0000 0.0000
# 2 -1.6859 33.0697 -0.4474 0.0000 0.0000 0.0000
# 3 99.9424 -0.4474 134.5034 0.0000 0.0000 0.0000
# 4 0.0000 0.0000 0.0000 14.8037 0.0000 0.0000
# 5 0.0000 0.0000 0.0000 0.0000 26.3620 0.0000
# 6 0.0000 0.0000 0.0000 0.0000 0.0000 7.1849
#
#
#
# Elastic Compliance Matrix: (Units=1/GPa)
#
#
# Indices 1 2 3 4 5 6 
#
# 1 0.012575 0.000515 -0.009342 0.000000 0.000000 0.000000
# 2 0.000515 0.030262 -0.000282 0.000000 0.000000 0.000000
# 3 -0.009342 -0.000282 0.014375 0.000000 0.000000 0.000000
# 4 0.000000 0.000000 0.000000 0.067551 0.000000 0.000000
# 5 0.000000 0.000000 0.000000 0.000000 0.037933 0.000000
# 6 0.000000 0.000000 0.000000 0.000000 0.000000 0.139181
#
#
# Mechanical properties :
#
#
# Convention : Reuss Voigt Hill
#
# Bulk Modulus (GPa) = 25.64528 57.44829 41.54678
# Shear Modulus (GPa) = 15.01087 24.57724 19.79405
#
# Velocity S-wave (km/s) = 2.75891 3.53022 3.16812
# Velocity P-wave (km/s) = 4.81173 6.76365 5.86940
#
# Compressibility (1/GPa) = 0.03899354
#
# Stress axis : x y z
#
# Youngs Moduli (GPa) = 79.52577 33.04524 69.56425
#
# Poissons Ratio (x) = -0.01701 0.64985
# Poissons Ratio (y) = -0.04093 0.01960
# Poissons Ratio (z) = 0.74291 0.00931
#
# Static dielectric constant tensor:
#      x y z
#    x 1.672010 0.000000 0.000000 
#    y 0.000000 1.739870 0.000000 
#    z 0.000000 0.000000 1.718810 
# 
# From -- ./inp_files/30488.got.cif
#   From: 2010.05.17/outbox.cif.g08.bks.cpg/sg51_16_cif.got.tgz:30488.got - 2010.06.03 11:52:47.
