data_PCOD9399444
_publ_section_title
;
Structure prediction by ZEFSAII (Michael W. Deem and Ramdas Pophale) SiO2 
 PCOD9399444
Probable space group: P M M A
;
_chemical_formula_sum "Si O2"
_cell_formula_units_Z 64
_cell_length_a 9.431162
_cell_length_b 23.202974
_cell_length_c 18.588448
_cell_angle_alpha 90.000000
_cell_angle_beta 90.000000
_cell_angle_gamma 90.000000
_cell_volume 4067.728788
_symmetry_space_group_name_H-M "P M M A"
_symmetry_group_IT_number 51
_symmetry_cell_setting 'orthorhombic'
loop_
_space_group_symop_operation_xyz
x,y,z
1/2-x,-y,z
1/2+x,-y,-z
-x,y,-z
-x,-y,-z
1/2+x,y,-z
1/2-x,y,z
x,-y,z
loop_
_atom_site_type_symbol
_atom_site_label
_atom_site_fract_x
_atom_site_fract_y
_atom_site_fract_z
Si Si1 0.416380 0.165700 0.150506
Si Si2 0.919719 0.810333 0.571730
Si Si3 0.089076 0.657071 0.807630
Si Si4 0.081924 0.431337 0.925865
Si Si5 0.909960 0.252272 0.062679
Si Si6 0.416875 0.743995 0.282762
Si Si7 0.082432 0.064635 0.368157
Si Si8 0.086248 0.066456 0.780969
O O1 0.250000 0.159780 0.135646
O O2 0.500726 0.197208 0.087334
O O3 0.431116 0.206636 0.221316
O O4 0.492283 0.106361 0.168794
O O5 0.750000 0.804505 0.563664
O O6 0.962582 0.773185 0.642039
O O7 0.948444 0.878519 0.585638
O O8 0.000000 0.791980 0.500000
O O9 0.250000 0.644405 0.783254
O O10 0.032765 0.602850 0.854256
O O11 0.096397 0.706004 0.869219
O O12 0.999493 0.687327 0.744601
O O13 0.250000 0.417399 0.934818
O O14 0.068650 0.500000 0.915094
O O15 0.000000 0.417319 0.000000
O O16 0.750000 0.239051 0.040029
O O17 0.000000 0.281316 0.000000
O O18 0.250000 0.730571 0.287933
O O19 0.250000 0.068500 0.347791
O O20 0.985222 0.068523 0.297714
O O21 0.061603 0.000000 0.400000
O O22 0.250000 0.086099 0.778084
O O23 0.084162 0.000000 0.804038
#
# Coordination Sequence:
#
# PCOD9399444 Si02
#       8
#     8   8   8   8   8   8   8   8
#     4  10  18  31  49  65  84 113 145 182 226 271
#     4  10  20  33  46  66  91 120 153 188 233 284
#     4   9  18  30  46  68  93 124 161 195 227 261
#     4   9  17  29  45  68 101 137 169 198 226 263
#     4  10  19  30  44  66  92 117 148 186 224 266
#     4   9  18  32  47  65  89 116 153 193 230 272
#     4   9  17  31  48  63  85 117 150 184 223 275
#     4  10  19  29  44  67  89 108 138 181 224 269
#
# _framework density 15.733596
#
# number of rings (size 3 to 8) (size 9 to 14) (size 15 to 20)
#    0.000    2.500    1.250    1.500    0.000    3.500 
#    0.000    0.000    0.000    0.375    0.000    0.000 
#    0.000    0.500    0.000    1.125    0.000    1.750 
#
# Total GULP energy -356450.051895 kJ/mol
# GULP energy per Si atom -5569.532061 kJ/mol
# Density = 1.569779 g / cm^3
# Si number density = 15.733596 Si / 1000 Ang^3
#
#
#
# Elastic Constant Matrix: (Units=GPa)
#
#
# Indices 1 2 3 4 5 6 
#
# 1 69.1195 36.9834 33.0376 0.0000 0.0000 0.0000
# 2 36.9834 68.1081 35.5414 0.0000 0.0000 0.0000
# 3 33.0376 35.5414 63.1986 0.0000 0.0000 0.0000
# 4 0.0000 0.0000 0.0000 18.9013 0.0000 0.0000
# 5 0.0000 0.0000 0.0000 0.0000 24.7159 0.0000
# 6 0.0000 0.0000 0.0000 0.0000 0.0000 19.2232
#
#
#
# Elastic Compliance Matrix: (Units=1/GPa)
#
#
# Indices 1 2 3 4 5 6 
#
# 1 0.022316 -0.008535 -0.006866 0.000000 0.000000 0.000000
# 2 -0.008535 0.024045 -0.009061 0.000000 0.000000 0.000000
# 3 -0.006866 -0.009061 0.024508 0.000000 0.000000 0.000000
# 4 0.000000 0.000000 0.000000 0.052906 0.000000 0.000000
# 5 0.000000 0.000000 0.000000 0.000000 0.040460 0.000000
# 6 0.000000 0.000000 0.000000 0.000000 0.000000 0.052021
#
#
# Mechanical properties :
#
#
# Convention : Reuss Voigt Hill
#
# Bulk Modulus (GPa) = 45.56670 45.72788 45.64729
# Shear Modulus (GPa) = 18.34890 18.89232 18.62061
#
# Velocity S-wave (km/s) = 3.41871 3.46896 3.44393
# Velocity P-wave (km/s) = 6.67890 6.72100 6.69998
#
# Compressibility (1/GPa) = 0.02194585
#
# Stress axis : x y z
#
# Youngs Moduli (GPa) = 44.81022 41.58801 40.80279
#
# Poissons Ratio (x) = 0.35495 0.28016
# Poissons Ratio (y) = 0.38245 0.36971
# Poissons Ratio (z) = 0.30768 0.37682
#
# Static dielectric constant tensor:
#      x y z
#    x 1.538620 0.000000 0.000000 
#    y 0.000000 1.539900 0.000000 
#    z 0.000000 0.000000 1.528010 
# 
# From -- ./inp_files/32694.got.cif
#   From: 2010.05.17/outbox.cif.g08.bks.cpg/sg51_17_cif.got.tgz:32694.got - 2010.06.03 11:52:47.
