data_PCOD9399202
_publ_section_title
;
Structure prediction by ZEFSAII (Michael W. Deem and Ramdas Pophale) SiO2 
 PCOD9399202
Probable space group: P M M A
;
_chemical_formula_sum "Si O2"
_cell_formula_units_Z 64
_cell_length_a 30.747362
_cell_length_b 9.330571
_cell_length_c 14.737460
_cell_angle_alpha 90.000000
_cell_angle_beta 90.000000
_cell_angle_gamma 90.000000
_cell_volume 4228.036446
_symmetry_space_group_name_H-M "P M M A"
_symmetry_group_IT_number 51
_symmetry_cell_setting 'orthorhombic'
loop_
_space_group_symop_operation_xyz
x,y,z
1/2-x,-y,z
1/2+x,-y,-z
-x,y,-z
-x,-y,-z
1/2+x,y,-z
1/2-x,y,z
x,-y,z
loop_
_atom_site_type_symbol
_atom_site_label
_atom_site_fract_x
_atom_site_fract_y
_atom_site_fract_z
Si Si1 0.455897 0.327776 0.446408
Si Si2 0.115339 0.833938 0.559029
Si Si3 0.565780 0.838896 0.249513
Si Si4 0.478770 0.670380 0.241221
Si Si5 0.623177 0.166780 0.069359
Si Si6 0.300524 0.669786 0.849586
Si Si7 0.456873 0.172555 0.058949
Si Si8 0.300212 0.170886 0.657715
O O1 0.500000 0.281275 0.500000
O O2 0.453737 0.500000 0.454615
O O3 0.413637 0.258141 0.491323
O O4 0.459921 0.291143 0.340212
O O5 0.091206 0.828509 0.656416
O O6 0.164483 0.786640 0.582203
O O7 0.116053 0.000000 0.529276
O O8 0.528746 0.721000 0.243876
O O9 0.598390 0.824905 0.165814
O O10 0.546142 0.000000 0.243242
O O11 0.475523 0.500000 0.229699
O O12 0.458254 0.751415 0.155843
O O13 0.665889 0.262100 0.079636
O O14 0.634768 0.000000 0.054297
O O15 0.586922 0.209687 0.995838
O O16 0.250000 0.694469 0.874344
O O17 0.307579 0.500000 0.840858
O O18 0.307315 0.745189 0.751697
O O19 0.458163 0.000000 0.069093
O O20 0.500000 0.211751 0.000000
O O21 0.250000 0.192527 0.630396
O O22 0.306638 0.000000 0.674955
#
# Coordination Sequence:
#
# PCOD9399202 Si02
#       8
#     8   8   8   8   8   8   8   8
#     4  10  21  35  47  65  96 130 162 197 239 283
#     4  10  19  30  48  73  94 124 166 200 235 279
#     4  10  18  30  47  69  98 127 163 201 236 279
#     4  11  22  34  48  68  96 130 166 201 240 282
#     4  10  19  33  51  70  95 131 166 197 238 285
#     4  10  20  31  45  70 102 131 160 197 239 283
#     4  10  20  35  52  70  96 128 161 200 241 283
#     4   9  17  31  49  69  97 129 160 196 238 287
#
# _framework density 15.13705
#
# number of rings (size 3 to 8) (size 9 to 14) (size 15 to 20)
#    0.000    2.000    3.750    0.750    0.000    3.750 
#    0.000    0.000    0.000    0.000    0.000    0.875 
#    0.000    3.000    0.000    0.000    0.000    0.000 
#
# Total GULP energy -356891.641453 kJ/mol
# GULP energy per Si atom -5576.431898 kJ/mol
# Density = 1.510260 g / cm^3
# Si number density = 15.137050 Si / 1000 Ang^3
#
#
#
# Elastic Constant Matrix: (Units=GPa)
#
#
# Indices 1 2 3 4 5 6 
#
# 1 116.3954 51.6882 53.2766 0.0000 0.0000 0.0000
# 2 51.6882 40.6765 43.9810 0.0000 0.0000 0.0000
# 3 53.2766 43.9810 94.9153 0.0000 0.0000 0.0000
# 4 0.0000 0.0000 0.0000 21.2223 0.0000 0.0000
# 5 0.0000 0.0000 0.0000 0.0000 22.1261 0.0000
# 6 0.0000 0.0000 0.0000 0.0000 0.0000 17.8635
#
#
#
# Elastic Compliance Matrix: (Units=1/GPa)
#
#
# Indices 1 2 3 4 5 6 
#
# 1 0.019774 -0.026306 0.001090 0.000000 0.000000 0.000000
# 2 -0.026306 0.084264 -0.024280 0.000000 0.000000 0.000000
# 3 0.001090 -0.024280 0.021174 0.000000 0.000000 0.000000
# 4 0.000000 0.000000 0.000000 0.047120 0.000000 0.000000
# 5 0.000000 0.000000 0.000000 0.000000 0.045196 0.000000
# 6 0.000000 0.000000 0.000000 0.000000 0.000000 0.055980
#
#
# Mechanical properties :
#
#
# Convention : Reuss Voigt Hill
#
# Bulk Modulus (GPa) = 38.13723 61.09767 49.61745
# Shear Modulus (GPa) = 13.11508 19.11180 16.11344
#
# Velocity S-wave (km/s) = 2.94670 3.55714 3.26621
# Velocity P-wave (km/s) = 6.06850 7.57110 6.86106
#
# Compressibility (1/GPa) = 0.02622110
#
# Stress axis : x y z
#
# Youngs Moduli (GPa) = 50.57049 11.86747 47.22692
#
# Poissons Ratio (x) = 0.31219 -0.05148
# Poissons Ratio (y) = 1.33032 1.14665
# Poissons Ratio (z) = -0.05512 0.28814
#
# Static dielectric constant tensor:
#      x y z
#    x 1.509910 0.000000 0.000000 
#    y 0.000000 1.509710 0.000000 
#    z 0.000000 0.000000 1.487160 
# 
# From -- ./inp_files/26681.got.cif
#   From: 2010.05.17/outbox.cif.g08.bks.cpg/sg51_14_cif.got.tgz:26681.got - 2010.06.03 11:52:47.
