data_PCOD9399925
_publ_section_title
;
Structure prediction by ZEFSAII (Michael W. Deem and Ramdas Pophale) SiO2 
 PCOD9399925
Probable space group: P M M A
;
_chemical_formula_sum "Si O2"
_cell_formula_units_Z 56
_cell_length_a 15.193354
_cell_length_b 14.969666
_cell_length_c 13.083457
_cell_angle_alpha 90.000000
_cell_angle_beta 90.000000
_cell_angle_gamma 90.000000
_cell_volume 2975.694065
_symmetry_space_group_name_H-M "P M M A"
_symmetry_group_IT_number 51
_symmetry_cell_setting 'orthorhombic'
loop_
_space_group_symop_operation_xyz
x,y,z
1/2-x,-y,z
1/2+x,-y,-z
-x,y,-z
-x,-y,-z
1/2+x,y,-z
1/2-x,y,z
x,-y,z
loop_
_atom_site_type_symbol
_atom_site_label
_atom_site_fract_x
_atom_site_fract_y
_atom_site_fract_z
Si Si1 0.035553 0.894387 0.227137
Si Si2 0.353713 0.221773 0.076473
Si Si3 0.848442 0.813617 0.164575
Si Si4 0.948114 0.232617 0.595865
Si Si5 0.454000 0.403665 0.110418
Si Si6 0.912646 0.650484 0.280847
Si Si7 0.147004 0.596376 0.501760
O O1 0.089687 0.853499 0.132797
O O2 0.078009 0.845623 0.326799
O O3 0.932118 0.868387 0.208428
O O4 0.043099 0.000000 0.234145
O O5 0.250000 0.215703 0.099451
O O6 0.391986 0.317079 0.114424
O O7 0.364616 0.208901 0.954663
O O8 0.750000 0.854131 0.174666
O O9 0.849176 0.719102 0.223493
O O10 0.887974 0.312201 0.549581
O O11 0.000000 0.191840 0.500000
O O12 0.015694 0.288318 0.663582
O O13 0.407811 0.500000 0.120318
O O14 0.530924 0.399741 0.195112
O O15 0.500000 0.399849 0.000000
O O16 0.869027 0.600579 0.376001
O O17 0.250000 0.594500 0.481961
O O18 0.108472 0.500000 0.464688
#
# Coordination Sequence:
#
# PCOD9399925 Si02
#       7
#     8   8   8   8   8   8   8
#     4  11  23  41  63  88 119 152 198 256 313 368
#     4  11  22  39  59  85 124 165 208 246 289 353
#     4  10  20  36  62  90 123 161 197 243 299 357
#     4   9  20  37  59  82 108 149 190 239 300 361
#     4  11  20  34  58  87 122 163 204 240 288 349
#     4  10  18  35  58  83 118 158 196 238 291 347
#     4  10  21  36  56  86 120 154 200 253 300 353
#
# _framework density 18.819139
#
# number of rings (size 3 to 8) (size 9 to 14) (size 15 to 20)
#    0.000    1.714    4.286    1.286    0.000    6.000 
#    0.000    1.429    0.000    0.000    0.000    2.000 
#    0.000    0.000    0.000    0.000    0.000    0.000 
#
# Total GULP energy -311871.936922 kJ/mol
# GULP energy per Si atom -5569.141731 kJ/mol
# Density = 1.877631 g / cm^3
# Si number density = 18.819139 Si / 1000 Ang^3
#
#
#
# Elastic Constant Matrix: (Units=GPa)
#
#
# Indices 1 2 3 4 5 6 
#
# 1 79.6038 48.2511 36.8166 0.0000 0.0000 0.0000
# 2 48.2511 142.0288 39.0157 0.0000 0.0000 0.0000
# 3 36.8166 39.0157 95.8922 0.0000 0.0000 0.0000
# 4 0.0000 0.0000 0.0000 25.6606 0.0000 0.0000
# 5 0.0000 0.0000 0.0000 0.0000 15.7304 0.0000
# 6 0.0000 0.0000 0.0000 0.0000 0.0000 2.8221
#
#
#
# Elastic Compliance Matrix: (Units=1/GPa)
#
#
# Indices 1 2 3 4 5 6 
#
# 1 0.017639 -0.004652 -0.004879 0.000000 0.000000 0.000000
# 2 -0.004652 0.009154 -0.001938 0.000000 0.000000 0.000000
# 3 -0.004879 -0.001938 0.013090 0.000000 0.000000 0.000000
# 4 0.000000 0.000000 0.000000 0.038970 0.000000 0.000000
# 5 0.000000 0.000000 0.000000 0.000000 0.063571 0.000000
# 6 0.000000 0.000000 0.000000 0.000000 0.000000 0.354346
#
#
# Mechanical properties :
#
#
# Convention : Reuss Voigt Hill
#
# Bulk Modulus (GPa) = 59.01995 62.85464 60.93729
# Shear Modulus (GPa) = 9.51732 21.73869 15.62800
#
# Velocity S-wave (km/s) = 2.25127 3.40242 2.88485
# Velocity P-wave (km/s) = 6.17959 6.99336 6.59903
#
# Compressibility (1/GPa) = 0.01694342
#
# Stress axis : x y z
#
# Youngs Moduli (GPa) = 56.69360 109.24567 76.39181
#
# Poissons Ratio (x) = 0.50821 0.37275
# Poissons Ratio (y) = 0.26374 0.14807
# Poissons Ratio (z) = 0.27663 0.21175
#
# Static dielectric constant tensor:
#      x y z
#    x 1.662830 0.000000 0.000000 
#    y 0.000000 1.709300 0.000000 
#    z 0.000000 0.000000 1.704870 
# 
# From -- ./inp_files/16684.got.cif
#   From: 2010.05.17/outbox.cif.g08.bks.cpg/sg51_9_cif.got.tgz:16684.got - 2010.06.03 11:52:47.
