data_PCOD9399052
_publ_section_title
;
Structure prediction by ZEFSAII (Michael W. Deem and Ramdas Pophale) SiO2 
 PCOD9399052
Probable space group: P M M A
;
_chemical_formula_sum "Si O2"
_cell_formula_units_Z 56
_cell_length_a 8.926637
_cell_length_b 19.039609
_cell_length_c 19.478302
_cell_angle_alpha 90.000000
_cell_angle_beta 90.000000
_cell_angle_gamma 90.000000
_cell_volume 3310.525939
_symmetry_space_group_name_H-M "P M M A"
_symmetry_group_IT_number 51
_symmetry_cell_setting 'orthorhombic'
loop_
_space_group_symop_operation_xyz
x,y,z
1/2-x,-y,z
1/2+x,-y,-z
-x,y,-z
-x,-y,-z
1/2+x,y,-z
1/2-x,y,z
x,-y,z
loop_
_atom_site_type_symbol
_atom_site_label
_atom_site_fract_x
_atom_site_fract_y
_atom_site_fract_z
Si Si1 0.929846 0.920896 0.838625
Si Si2 0.070917 0.809429 0.427977
Si Si3 0.070359 0.215254 0.074588
Si Si4 0.929215 0.356513 0.571213
Si Si5 0.428485 0.294136 0.800379
Si Si6 0.928183 0.845486 0.287707
Si Si7 0.569344 0.418935 0.716907
O O1 0.750000 0.917125 0.829766
O O2 0.971272 0.861242 0.893813
O O3 0.006482 0.900467 0.766867
O O4 0.969693 0.000000 0.859525
O O5 0.250000 0.815653 0.429970
O O6 0.032744 0.726182 0.420541
O O7 0.000000 0.833046 0.500000
O O8 0.004691 0.847885 0.361758
O O9 0.250000 0.219833 0.071450
O O10 0.006627 0.271181 0.129000
O O11 0.000000 0.224106 0.000000
O O12 0.750000 0.361692 0.565612
O O13 0.976605 0.397550 0.639395
O O14 0.000000 0.381721 0.500000
O O15 0.250000 0.297930 0.809497
O O16 0.460222 0.230929 0.746395
O O17 0.492924 0.365391 0.769117
O O18 0.750000 0.853080 0.293901
O O19 0.750000 0.410467 0.720790
O O20 0.533025 0.500000 0.730162
#
# Coordination Sequence:
#
# PCOD9399052 Si02
#       7
#     8   8   8   8   8   8   8
#     4   9  19  35  54  78 109 144 175 203 243 297
#     4  10  18  29  47  70  98 131 171 220 268 311
#     4  10  20  35  57  83 111 140 171 205 246 295
#     4   9  18  30  45  67  97 133 172 214 262 311
#     4  10  20  34  53  76 103 133 173 217 256 302
#     4  10  19  31  50  75 101 133 174 218 260 302
#     4  10  20  34  51  72 101 138 177 217 265 316
#
# _framework density 16.91574
#
# number of rings (size 3 to 8) (size 9 to 14) (size 15 to 20)
#    0.000    2.286    1.429    1.714    0.000    4.000 
#    0.000    0.000    0.000    0.857    0.000    0.000 
#    0.000    0.000    0.000    0.000    0.000    0.000 
#
# Total GULP energy -312480.181112 kJ/mol
# GULP energy per Si atom -5580.003234 kJ/mol
# Density = 1.687724 g / cm^3
# Si number density = 16.915740 Si / 1000 Ang^3
#
#
#
# Elastic Constant Matrix: (Units=GPa)
#
#
# Indices 1 2 3 4 5 6 
#
# 1 28.1023 22.2355 49.1894 0.0000 0.0000 0.0000
# 2 22.2355 68.2886 50.4538 0.0000 0.0000 0.0000
# 3 49.1894 50.4538 153.8512 0.0000 0.0000 0.0000
# 4 0.0000 0.0000 0.0000 15.0568 0.0000 0.0000
# 5 0.0000 0.0000 0.0000 0.0000 32.8379 0.0000
# 6 0.0000 0.0000 0.0000 0.0000 0.0000 18.2766
#
#
#
# Elastic Compliance Matrix: (Units=1/GPa)
#
#
# Indices 1 2 3 4 5 6 
#
# 1 0.085798 -0.010122 -0.024112 0.000000 0.000000 0.000000
# 2 -0.010122 0.020521 -0.003493 0.000000 0.000000 0.000000
# 3 -0.024112 -0.003493 0.015354 0.000000 0.000000 0.000000
# 4 0.000000 0.000000 0.000000 0.066415 0.000000 0.000000
# 5 0.000000 0.000000 0.000000 0.000000 0.030453 0.000000
# 6 0.000000 0.000000 0.000000 0.000000 0.000000 0.054715
#
#
# Mechanical properties :
#
#
# Convention : Reuss Voigt Hill
#
# Bulk Modulus (GPa) = 21.63644 54.88884 38.26264
# Shear Modulus (GPa) = 13.73189 21.79181 17.76185
#
# Velocity S-wave (km/s) = 2.85227 3.59312 3.24392
# Velocity P-wave (km/s) = 4.86474 7.05215 6.05799
#
# Compressibility (1/GPa) = 0.04621833
#
# Stress axis : x y z
#
# Youngs Moduli (GPa) = 11.65530 48.73171 65.12774
#
# Poissons Ratio (x) = 0.49327 1.57036
# Poissons Ratio (y) = 0.11798 0.22751
# Poissons Ratio (z) = 0.28103 0.17023
#
# Static dielectric constant tensor:
#      x y z
#    x 1.560340 0.000000 0.000000 
#    y 0.000000 1.563860 0.000000 
#    z 0.000000 0.000000 1.546960 
# 
# From -- ./inp_files/28198.got.cif
#   From: 2010.05.17/outbox.cif.g08.bks.cpg/sg51_15_cif.got.tgz:28198.got - 2010.06.03 11:52:47.
