data_PCOD9399053
_publ_section_title
;
Structure prediction by ZEFSAII (Michael W. Deem and Ramdas Pophale) SiO2 
 PCOD9399053
Probable space group: P M M A
;
_chemical_formula_sum "Si O2"
_cell_formula_units_Z 60
_cell_length_a 8.908186
_cell_length_b 21.449965
_cell_length_c 19.389452
_cell_angle_alpha 90.000000
_cell_angle_beta 90.000000
_cell_angle_gamma 90.000000
_cell_volume 3704.941877
_symmetry_space_group_name_H-M "P M M A"
_symmetry_group_IT_number 51
_symmetry_cell_setting 'orthorhombic'
loop_
_space_group_symop_operation_xyz
x,y,z
1/2-x,-y,z
1/2+x,-y,-z
-x,y,-z
-x,-y,-z
1/2+x,y,-z
1/2-x,y,z
x,-y,z
loop_
_atom_site_type_symbol
_atom_site_label
_atom_site_fract_x
_atom_site_fract_y
_atom_site_fract_z
Si Si1 0.431461 0.500000 0.923478
Si Si2 0.429278 0.816364 0.201608
Si Si3 0.429625 0.130628 0.571600
Si Si4 0.929021 0.249111 0.074906
Si Si5 0.931281 0.071563 0.284274
Si Si6 0.570012 0.722537 0.426895
Si Si7 0.429379 0.690135 0.285375
Si Si8 0.070080 0.375200 0.841978
O O1 0.250000 0.500000 0.929943
O O2 0.475150 0.561343 0.880091
O O3 0.500000 0.500000 0.000000
O O4 0.250000 0.819055 0.196144
O O5 0.501618 0.799898 0.128355
O O6 0.494423 0.879324 0.233116
O O7 0.467506 0.757905 0.251917
O O8 0.500000 0.108823 0.500000
O O9 0.250000 0.127365 0.566070
O O10 0.476443 0.091652 0.638245
O O11 0.469772 0.203723 0.581280
O O12 0.750000 0.242411 0.071736
O O13 0.963208 0.317184 0.107312
O O14 0.000000 0.243611 0.000000
O O15 0.750000 0.077358 0.280168
O O16 0.971575 0.000000 0.270762
O O17 0.500000 0.702331 0.500000
O O18 0.750000 0.717459 0.428774
O O19 0.504185 0.687688 0.360432
O O20 0.250000 0.685834 0.291004
O O21 0.490696 0.640032 0.230409
O O22 0.250000 0.376566 0.830801
#
# Coordination Sequence:
#
# PCOD9399053 Si02
#       8
#     4   8   8   8   8   8   8   8
#     4  10  20  34  52  76 109 146 179 206 240 286
#     4  10  20  33  50  71  96 124 160 204 249 294
#     4   9  18  30  45  66  93 126 162 200 243 292
#     4  10  19  32  52  76 102 129 161 199 243 289
#     4  10  20  34  50  68  93 127 165 202 246 300
#     4  10  18  29  47  70  99 131 164 206 256 303
#     4  10  19  31  49  73  99 129 169 213 252 293
#     4   9  19  33  50  74 105 141 173 204 241 285
#
# _framework density 16.194586999999999
#
# number of rings (size 3 to 8) (size 9 to 14) (size 15 to 20)
#    0.000    2.267    1.333    2.000    0.000    3.733 
#    0.000    0.000    0.000    0.400    0.000    0.467 
#    0.000    0.000    0.000    0.000    0.000    0.000 
#
# Total GULP energy -334770.311295 kJ/mol
# GULP energy per Si atom -5579.505188 kJ/mol
# Density = 1.615773 g / cm^3
# Si number density = 16.194587 Si / 1000 Ang^3
#
#
#
# Elastic Constant Matrix: (Units=GPa)
#
#
# Indices 1 2 3 4 5 6 
#
# 1 35.9627 37.7741 61.1189 0.0000 0.0000 0.0000
# 2 37.7741 99.4981 75.3815 0.0000 0.0000 0.0000
# 3 61.1189 75.3815 167.0002 0.0000 0.0000 0.0000
# 4 0.0000 0.0000 0.0000 22.9747 0.0000 0.0000
# 5 0.0000 0.0000 0.0000 0.0000 34.7952 0.0000
# 6 0.0000 0.0000 0.0000 0.0000 0.0000 16.6112
#
#
#
# Elastic Compliance Matrix: (Units=1/GPa)
#
#
# Indices 1 2 3 4 5 6 
#
# 1 0.083266 -0.012954 -0.024626 0.000000 0.000000 0.000000
# 2 -0.012954 0.017289 -0.003063 0.000000 0.000000 0.000000
# 3 -0.024626 -0.003063 0.016383 0.000000 0.000000 0.000000
# 4 0.000000 0.000000 0.000000 0.043526 0.000000 0.000000
# 5 0.000000 0.000000 0.000000 0.000000 0.028740 0.000000
# 6 0.000000 0.000000 0.000000 0.000000 0.000000 0.060201
#
#
# Mechanical properties :
#
#
# Convention : Reuss Voigt Hill
#
# Bulk Modulus (GPa) = 28.04952 72.33444 50.19198
# Shear Modulus (GPa) = 14.59527 23.42199 19.00863
#
# Velocity S-wave (km/s) = 3.00533 3.80713 3.42974
# Velocity P-wave (km/s) = 5.42223 8.00553 6.83700
#
# Compressibility (1/GPa) = 0.03565124
#
# Stress axis : x y z
#
# Youngs Moduli (GPa) = 12.00965 57.83990 61.03722
#
# Poissons Ratio (x) = 0.74928 1.50313
# Poissons Ratio (y) = 0.15558 0.18696
# Poissons Ratio (z) = 0.29576 0.17716
#
# Static dielectric constant tensor:
#      x y z
#    x 1.538590 0.000000 0.000000 
#    y 0.000000 1.529920 0.000000 
#    z 0.000000 0.000000 1.526380 
# 
# From -- ./inp_files/28343.got.cif
#   From: 2010.05.17/outbox.cif.g08.bks.cpg/sg51_15_cif.got.tgz:28343.got - 2010.06.03 11:52:47.
