data_PCOD9399969
_publ_section_title
;
Structure prediction by ZEFSAII (Michael W. Deem and Ramdas Pophale) SiO2 
 PCOD9399969
Probable space group: P M M A
;
_chemical_formula_sum "Si O2"
_cell_formula_units_Z 64
_cell_length_a 24.629177
_cell_length_b 9.403498
_cell_length_c 18.821434
_cell_angle_alpha 90.000000
_cell_angle_beta 90.000000
_cell_angle_gamma 90.000000
_cell_volume 4359.051957
_symmetry_space_group_name_H-M "P M M A"
_symmetry_group_IT_number 51
_symmetry_cell_setting 'orthorhombic'
loop_
_space_group_symop_operation_xyz
x,y,z
1/2-x,-y,z
1/2+x,-y,-z
-x,y,-z
-x,-y,-z
1/2+x,y,-z
1/2-x,y,z
x,-y,z
loop_
_atom_site_type_symbol
_atom_site_label
_atom_site_fract_x
_atom_site_fract_y
_atom_site_fract_z
Si Si1 0.540337 0.664608 0.894544
Si Si2 0.814749 0.663746 0.289683
Si Si3 0.813620 0.830967 0.436317
Si Si4 0.090186 0.330935 0.503465
Si Si5 0.417148 0.665140 0.956287
Si Si6 0.503306 0.164354 0.764742
Si Si7 0.997566 0.331139 0.617676
Si Si8 0.119418 0.835263 0.826597
O O1 0.551900 0.500000 0.876989
O O2 0.478801 0.668241 0.925616
O O3 0.539897 0.760530 0.824865
O O4 0.578019 0.707744 0.961082
O O5 0.750000 0.662451 0.278637
O O6 0.833417 0.500000 0.297509
O O7 0.824710 0.752385 0.361469
O O8 0.843634 0.741034 0.224640
O O9 0.750000 0.807185 0.453846
O O10 0.855625 0.760844 0.490819
O O11 0.822157 0.000000 0.429605
O O12 0.102077 0.500000 0.506460
O O13 0.050761 0.296905 0.570376
O O14 0.053965 0.304590 0.433574
O O15 0.399399 0.500000 0.952058
O O16 0.383446 0.766589 0.904833
O O17 0.505122 0.245144 0.690145
O O18 0.441437 0.170174 0.793955
O O19 0.518181 0.000000 0.756207
O O20 0.999431 0.500000 0.632535
O O21 0.136414 0.000000 0.828140
#
# Coordination Sequence:
#
# PCOD9399969 Si02
#       8
#     8   8   8   8   8   8   8   8
#     4   8  14  25  40  56  77 107 139 170 201 232
#     4  10  20  32  45  60  79 107 143 179 211 244
#     4  10  20  32  46  65  88 112 139 175 218 259
#     4   9  18  32  48  64  83 111 146 180 214 255
#     4   8  14  25  40  57  77 105 140 170 198 235
#     4  10  19  27  38  60  86 112 142 172 207 252
#     4   9  18  31  45  62  85 113 145 180 216 254
#     4  10  19  28  40  60  85 112 140 172 211 251
#
# _framework density 14.682092000000001
#
# number of rings (size 3 to 8) (size 9 to 14) (size 15 to 20)
#    0.000    2.750    0.000    3.750    0.000    6.500 
#    0.000    3.750    0.000    0.000    0.000    0.000 
#    0.000    1.000    0.000    5.500    0.000    4.250 
#
# Total GULP energy -356615.325283 kJ/mol
# GULP energy per Si atom -5572.114458 kJ/mol
# Density = 1.464868 g / cm^3
# Si number density = 14.682092 Si / 1000 Ang^3
#
#
#
# Elastic Constant Matrix: (Units=GPa)
#
#
# Indices 1 2 3 4 5 6 
#
# 1 34.1596 33.6088 17.5908 0.0000 0.0000 0.0000
# 2 33.6088 88.7570 59.0911 0.0000 0.0000 0.0000
# 3 17.5908 59.0911 92.6194 0.0000 0.0000 0.0000
# 4 0.0000 0.0000 0.0000 6.7937 0.0000 0.0000
# 5 0.0000 0.0000 0.0000 0.0000 21.7333 0.0000
# 6 0.0000 0.0000 0.0000 0.0000 0.0000 18.1989
#
#
#
# Elastic Compliance Matrix: (Units=1/GPa)
#
#
# Indices 1 2 3 4 5 6 
#
# 1 0.047611 -0.020875 0.004276 0.000000 0.000000 0.000000
# 2 -0.020875 0.028739 -0.014371 0.000000 0.000000 0.000000
# 3 0.004276 -0.014371 0.019153 0.000000 0.000000 0.000000
# 4 0.000000 0.000000 0.000000 0.147195 0.000000 0.000000
# 5 0.000000 0.000000 0.000000 0.000000 0.046012 0.000000
# 6 0.000000 0.000000 0.000000 0.000000 0.000000 0.054948
#
#
# Mechanical properties :
#
#
# Convention : Reuss Voigt Hill
#
# Bulk Modulus (GPa) = 29.79466 48.45750 39.12608
# Shear Modulus (GPa) = 11.99657 16.36153 14.17905
#
# Velocity S-wave (km/s) = 2.86158 3.34186 3.11100
# Velocity P-wave (km/s) = 5.59065 6.92581 6.29374
#
# Compressibility (1/GPa) = 0.03356306
#
# Stress axis : x y z
#
# Youngs Moduli (GPa) = 21.00360 34.79636 52.21057
#
# Poissons Ratio (x) = 0.72637 -0.22324
# Poissons Ratio (y) = 0.43845 0.75029
# Poissons Ratio (z) = -0.08980 0.50004
#
# Static dielectric constant tensor:
#      x y z
#    x 1.478290 0.000000 0.000000 
#    y 0.000000 1.488550 0.000000 
#    z 0.000000 0.000000 1.478360 
# 
# From -- ./inp_files/30856.got.cif
#   From: 2010.05.17/outbox.cif.g08.bks.cpg/sg51_16_cif.got.tgz:30856.got - 2010.06.03 11:52:47.
