data_PCOD9399306
_publ_section_title
;
Structure prediction by ZEFSAII (Michael W. Deem and Ramdas Pophale) SiO2 
 PCOD9399306
Probable space group: P M M A
;
_chemical_formula_sum "Si O2"
_cell_formula_units_Z 56
_cell_length_a 14.090744
_cell_length_b 20.224646
_cell_length_c 8.299516
_cell_angle_alpha 90.000000
_cell_angle_beta 90.000000
_cell_angle_gamma 90.000000
_cell_volume 2365.198637
_symmetry_space_group_name_H-M "P M M A"
_symmetry_group_IT_number 51
_symmetry_cell_setting 'orthorhombic'
loop_
_space_group_symop_operation_xyz
x,y,z
1/2-x,-y,z
1/2+x,-y,-z
-x,y,-z
-x,-y,-z
1/2+x,y,-z
1/2-x,y,z
x,-y,z
loop_
_atom_site_type_symbol
_atom_site_label
_atom_site_fract_x
_atom_site_fract_y
_atom_site_fract_z
Si Si1 0.607331 0.571458 0.941697
Si Si2 0.365902 0.150174 0.729409
Si Si3 0.133466 0.712063 0.586801
Si Si4 0.356188 0.428149 0.692346
Si Si5 0.863488 0.289953 0.777342
Si Si6 0.866079 0.845106 0.916277
Si Si7 0.366098 0.923729 0.404300
O O1 0.633391 0.500000 0.867795
O O2 0.618651 0.635558 0.833555
O O3 0.500000 0.568667 0.000000
O O4 0.655653 0.577877 0.115452
O O5 0.250000 0.147699 0.728663
O O6 0.393239 0.226435 0.697502
O O7 0.396805 0.108241 0.574105
O O8 0.396962 0.129343 0.908304
O O9 0.250000 0.709832 0.593413
O O10 0.097288 0.639789 0.637063
O O11 0.103695 0.724291 0.403554
O O12 0.250000 0.430147 0.620188
O O13 0.402157 0.500000 0.659935
O O14 0.750000 0.283891 0.771722
O O15 0.895405 0.231516 0.894893
O O16 0.750000 0.847674 0.917438
O O17 0.895995 0.883959 0.755560
O O18 0.250000 0.921223 0.405214
O O19 0.394328 0.000000 0.394044
#
# Coordination Sequence:
#
# PCOD9399306 Si02
#       7
#     8   8   8   8   8   8   8
#     4  10  21  35  48  66  96 130 162 201 249 297
#     4   9  15  24  38  57  86 123 158 194 240 286
#     4   9  16  27  45  69  94 118 154 207 252 286
#     4   9  17  30  48  69  92 121 159 199 240 290
#     4  10  18  30  50  72  93 122 165 210 248 291
#     4   9  16  26  42  64  90 124 164 203 243 286
#     4   9  16  25  36  56  91 129 162 195 235 290
#
# _framework density 23.676656999999999
#
# number of rings (size 3 to 8) (size 9 to 14) (size 15 to 20)
#    0.000    2.714    1.429    1.286    0.000    4.286 
#    0.000    5.000    0.000    2.571    0.000    0.000 
#    0.000    0.571    0.000    4.000    0.000    6.143 
#
# Total GULP energy -312811.421687 kJ/mol
# GULP energy per Si atom -5585.918244 kJ/mol
# Density = 2.362277 g / cm^3
# Si number density = 23.676657 Si / 1000 Ang^3
#
#
#
# Elastic Constant Matrix: (Units=GPa)
#
#
# Indices 1 2 3 4 5 6 
#
# 1 65.1416 1.3033 16.0395 0.0000 0.0000 0.0000
# 2 1.3033 159.6737 91.7043 0.0000 0.0000 0.0000
# 3 16.0395 91.7043 177.2866 0.0000 0.0000 0.0000
# 4 0.0000 0.0000 0.0000 18.0103 0.0000 0.0000
# 5 0.0000 0.0000 0.0000 0.0000 20.9950 0.0000
# 6 0.0000 0.0000 0.0000 0.0000 0.0000 14.6704
#
#
#
# Elastic Compliance Matrix: (Units=1/GPa)
#
#
# Indices 1 2 3 4 5 6 
#
# 1 0.015809 0.000985 -0.001940 0.000000 0.000000 0.000000
# 2 0.000985 0.008971 -0.004730 0.000000 0.000000 0.000000
# 3 -0.001940 -0.004730 0.008263 0.000000 0.000000 0.000000
# 4 0.000000 0.000000 0.000000 0.055524 0.000000 0.000000
# 5 0.000000 0.000000 0.000000 0.000000 0.047630 0.000000
# 6 0.000000 0.000000 0.000000 0.000000 0.000000 0.068164
#
#
# Mechanical properties :
#
#
# Convention : Reuss Voigt Hill
#
# Bulk Modulus (GPa) = 46.13817 68.91067 57.52442
# Shear Modulus (GPa) = 22.42611 30.27213 26.34912
#
# Velocity S-wave (km/s) = 3.08097 3.57958 3.33959
# Velocity P-wave (km/s) = 5.67323 6.80093 6.26252
#
# Compressibility (1/GPa) = 0.02167403
#
# Stress axis : x y z
#
# Youngs Moduli (GPa) = 63.25477 111.47024 121.02871
#
# Poissons Ratio (x) = -0.10980 0.23477
# Poissons Ratio (y) = -0.06231 0.57241
# Poissons Ratio (z) = 0.12270 0.52720
#
# Static dielectric constant tensor:
#      x y z
#    x 1.945560 0.000000 0.000000 
#    y 0.000000 1.877200 0.000000 
#    z 0.000000 0.000000 1.894900 
# 
# From -- ./inp_files/11105.got.cif
#   From: 2010.05.17/outbox.cif.g08.bks.cpg/sg51_6_cif.got.tgz:11105.got - 2010.06.03 11:52:47.
