data_PCOD9399055
_publ_section_title
;
Structure prediction by ZEFSAII (Michael W. Deem and Ramdas Pophale) SiO2 
 PCOD9399055
Probable space group: P M M A
;
_chemical_formula_sum "Si O2"
_cell_formula_units_Z 56
_cell_length_a 15.151419
_cell_length_b 14.808135
_cell_length_c 13.317332
_cell_angle_alpha 90.000000
_cell_angle_beta 90.000000
_cell_angle_gamma 90.000000
_cell_volume 2987.933313
_symmetry_space_group_name_H-M "P M M A"
_symmetry_group_IT_number 51
_symmetry_cell_setting 'orthorhombic'
loop_
_space_group_symop_operation_xyz
x,y,z
1/2-x,-y,z
1/2+x,-y,-z
-x,y,-z
-x,-y,-z
1/2+x,y,-z
1/2-x,y,z
x,-y,z
loop_
_atom_site_type_symbol
_atom_site_label
_atom_site_fract_x
_atom_site_fract_y
_atom_site_fract_z
Si Si1 0.104135 0.294230 0.009229
Si Si2 0.356339 0.099857 0.944237
Si Si3 0.642279 0.898843 0.288434
Si Si4 0.402786 0.604103 0.205221
Si Si5 0.856520 0.603375 0.571489
Si Si6 0.852386 0.719634 0.387731
Si Si7 0.115773 0.395534 0.809724
O O1 0.115809 0.186886 0.006138
O O2 0.143734 0.341058 0.909603
O O3 0.134610 0.338105 0.113224
O O4 0.000000 0.312969 0.000000
O O5 0.250000 0.098631 0.943927
O O6 0.384648 0.113222 0.828059
O O7 0.386349 0.000000 0.977665
O O8 0.750000 0.895757 0.288343
O O9 0.608254 0.815805 0.354522
O O10 0.616827 0.000000 0.320636
O O11 0.372710 0.500000 0.196264
O O12 0.379074 0.636147 0.316759
O O13 0.509015 0.604607 0.196334
O O14 0.750000 0.599511 0.563228
O O15 0.889466 0.500000 0.561000
O O16 0.891053 0.666618 0.482447
O O17 0.750000 0.737658 0.412977
O O18 0.853721 0.655266 0.290268
O O19 0.143929 0.500000 0.813471
#
# Coordination Sequence:
#
# PCOD9399055 Si02
#       7
#     8   8   8   8   8   8   8
#     4  10  19  31  48  70  96 123 158 195 234 272
#     4   9  17  30  48  70  95 121 151 190 235 283
#     4   8  14  26  45  68  92 116 144 181 230 285
#     4   9  19  34  48  64  92 130 165 190 220 275
#     4   9  18  32  48  67  92 122 156 192 227 268
#     4  10  18  29  47  71  96 118 148 194 240 276
#     4  10  19  30  46  69  96 124 153 192 239 278
#
# _framework density 18.742052999999999
#
# number of rings (size 3 to 8) (size 9 to 14) (size 15 to 20)
#    0.000    2.714    1.429    1.714    0.000    4.000 
#    0.000    2.143    0.000    3.429    0.000    3.000 
#    0.000    0.000    0.000    0.000    0.000    0.000 
#
# Total GULP energy -312218.658883 kJ/mol
# GULP energy per Si atom -5575.333194 kJ/mol
# Density = 1.869939 g / cm^3
# Si number density = 18.742053 Si / 1000 Ang^3
#
#
#
# Elastic Constant Matrix: (Units=GPa)
#
#
# Indices 1 2 3 4 5 6 
#
# 1 24.1406 -4.5632 0.8111 0.0000 0.0000 0.0000
# 2 -4.5632 134.5723 88.2183 0.0000 0.0000 0.0000
# 3 0.8111 88.2183 146.0075 0.0000 0.0000 0.0000
# 4 0.0000 0.0000 0.0000 18.0677 0.0000 0.0000
# 5 0.0000 0.0000 0.0000 0.0000 19.2984 0.0000
# 6 0.0000 0.0000 0.0000 0.0000 0.0000 48.8331
#
#
#
# Elastic Compliance Matrix: (Units=1/GPa)
#
#
# Indices 1 2 3 4 5 6 
#
# 1 0.041978 0.002610 -0.001810 0.000000 0.000000 0.000000
# 2 0.002610 0.012467 -0.007547 0.000000 0.000000 0.000000
# 3 -0.001810 -0.007547 0.011419 0.000000 0.000000 0.000000
# 4 0.000000 0.000000 0.000000 0.055347 0.000000 0.000000
# 5 0.000000 0.000000 0.000000 0.000000 0.051818 0.000000
# 6 0.000000 0.000000 0.000000 0.000000 0.000000 0.020478
#
#
# Mechanical properties :
#
#
# Convention : Reuss Voigt Hill
#
# Bulk Modulus (GPa) = 19.09503 52.62810 35.86156
# Shear Modulus (GPa) = 22.27591 31.92347 27.09969
#
# Velocity S-wave (km/s) = 3.45128 4.13159 3.80666
# Velocity P-wave (km/s) = 5.10805 7.13451 6.20457
#
# Compressibility (1/GPa) = 0.05236965
#
# Stress axis : x y z
#
# Youngs Moduli (GPa) = 23.82194 80.21243 87.57352
#
# Poissons Ratio (x) = -0.20936 0.15853
# Poissons Ratio (y) = -0.06218 0.66092
# Poissons Ratio (z) = 0.04312 0.60537
#
# Static dielectric constant tensor:
#      x y z
#    x 1.689700 0.000000 0.000000 
#    y 0.000000 1.663980 0.000000 
#    z 0.000000 0.000000 1.642690 
# 
# From -- ./inp_files/11002.got.cif
#   From: 2010.05.17/outbox.cif.g08.bks.cpg/sg51_6_cif.got.tgz:11002.got - 2010.06.03 11:52:47.
