data_PCOD9399478
_publ_section_title
;
Structure prediction by ZEFSAII (Michael W. Deem and Ramdas Pophale) SiO2 
 PCOD9399478
Probable space group: P M M A
;
_chemical_formula_sum "Si O2"
_cell_formula_units_Z 56
_cell_length_a 19.516879
_cell_length_b 17.738733
_cell_length_c 9.565277
_cell_angle_alpha 90.000000
_cell_angle_beta 90.000000
_cell_angle_gamma 90.000000
_cell_volume 3311.543908
_symmetry_space_group_name_H-M "P M M A"
_symmetry_group_IT_number 51
_symmetry_cell_setting 'orthorhombic'
loop_
_space_group_symop_operation_xyz
x,y,z
1/2-x,-y,z
1/2+x,-y,-z
-x,y,-z
-x,-y,-z
1/2+x,y,-z
1/2-x,y,z
x,-y,z
loop_
_atom_site_type_symbol
_atom_site_label
_atom_site_fract_x
_atom_site_fract_y
_atom_site_fract_z
Si Si1 0.912912 0.210861 0.849309
Si Si2 0.927102 0.245583 0.172880
Si Si3 0.962878 0.415475 0.147893
Si Si4 0.328316 0.817534 0.588243
Si Si5 0.168694 0.088971 0.325697
Si Si6 0.442110 0.416304 0.411372
Si Si7 0.172993 0.310723 0.350289
O O1 0.879370 0.136390 0.779483
O O2 0.868714 0.277094 0.779213
O O3 0.992465 0.224141 0.808006
O O4 0.908544 0.216870 0.016765
O O5 0.921793 0.337670 0.176524
O O6 0.880104 0.205760 0.289399
O O7 0.929482 0.500000 0.150984
O O8 0.023770 0.418911 0.260389
O O9 0.000000 0.405634 0.000000
O O10 0.250000 0.827565 0.640444
O O11 0.347096 0.887678 0.486833
O O12 0.327431 0.750703 0.473617
O O13 0.250000 0.108933 0.303927
O O14 0.161087 0.000000 0.305718
O O15 0.500000 0.372989 0.500000
O O16 0.434817 0.500000 0.471757
O O17 0.369073 0.380063 0.407983
O O18 0.250000 0.328266 0.310519
#
# Coordination Sequence:
#
# PCOD9399478 Si02
#       7
#     8   8   8   8   8   8   8
#     4  10  20  33  53  82 106 139 178 220 268 321
#     4  11  19  34  53  80 113 140 180 232 272 312
#     4  10  18  31  50  73 103 142 186 223 263 313
#     4   9  20  34  53  78 102 138 180 222 269 324
#     4   9  19  39  61  80 107 141 176 213 262 330
#     4  10  19  30  47  72  98 132 177 223 271 322
#     4  10  19  32  49  72 102 136 178 222 270 326
#
# _framework density 16.910540999999998
#
# number of rings (size 3 to 8) (size 9 to 14) (size 15 to 20)
#    0.000    2.143    2.857    2.143    0.000    3.143 
#    0.000    3.571    0.000    3.000    0.000    0.000 
#    0.000    0.000    0.000    0.000    0.000    0.000 
#
# Total GULP energy -311754.523475 kJ/mol
# GULP energy per Si atom -5567.045062 kJ/mol
# Density = 1.687205 g / cm^3
# Si number density = 16.910541 Si / 1000 Ang^3
#
#
#
# Elastic Constant Matrix: (Units=GPa)
#
#
# Indices 1 2 3 4 5 6 
#
# 1 117.6283 44.6913 58.7628 0.0000 0.0000 0.0000
# 2 44.6913 100.8537 23.0023 0.0000 0.0000 0.0000
# 3 58.7628 23.0023 73.6653 0.0000 0.0000 0.0000
# 4 0.0000 0.0000 0.0000 1.0188 0.0000 0.0000
# 5 0.0000 0.0000 0.0000 0.0000 25.2736 0.0000
# 6 0.0000 0.0000 0.0000 0.0000 0.0000 24.9600
#
#
#
# Elastic Compliance Matrix: (Units=1/GPa)
#
#
# Indices 1 2 3 4 5 6 
#
# 1 0.015787 -0.004440 -0.011207 0.000000 0.000000 0.000000
# 2 -0.004440 0.011924 -0.000182 0.000000 0.000000 0.000000
# 3 -0.011207 -0.000182 0.022571 0.000000 0.000000 0.000000
# 4 0.000000 0.000000 0.000000 0.981582 0.000000 0.000000
# 5 0.000000 0.000000 0.000000 0.000000 0.039567 0.000000
# 6 0.000000 0.000000 0.000000 0.000000 0.000000 0.040064
#
#
# Mechanical properties :
#
#
# Convention : Reuss Voigt Hill
#
# Bulk Modulus (GPa) = 53.68932 60.56222 57.12577
# Shear Modulus (GPa) = 4.35025 21.29653 12.82339
#
# Velocity S-wave (km/s) = 1.60564 3.55260 2.75673
# Velocity P-wave (km/s) = 5.93763 7.26079 6.63229
#
# Compressibility (1/GPa) = 0.01862568
#
# Stress axis : x y z
#
# Youngs Moduli (GPa) = 63.34524 83.86353 44.30415
#
# Poissons Ratio (x) = 0.37231 0.49650
# Poissons Ratio (y) = 0.28122 0.00806
# Poissons Ratio (z) = 0.70989 0.01526
#
# Static dielectric constant tensor:
#      x y z
#    x 1.558960 0.000000 0.000000 
#    y 0.000000 1.626620 0.000000 
#    z 0.000000 0.000000 1.571940 
# 
# From -- ./inp_files/11147.got.cif
#   From: 2010.05.17/outbox.cif.g08.bks.cpg/sg51_6_cif.got.tgz:11147.got - 2010.06.03 11:52:47.
