data_PCOD9399007
_publ_section_title
;
Structure prediction by ZEFSAII (Michael W. Deem and Ramdas Pophale) SiO2 
 PCOD9399007
Probable space group: P M M A
;
_chemical_formula_sum "Si O2"
_cell_formula_units_Z 56
_cell_length_a 8.657112
_cell_length_b 23.705873
_cell_length_c 14.955803
_cell_angle_alpha 90.000000
_cell_angle_beta 90.000000
_cell_angle_gamma 90.000000
_cell_volume 3069.295662
_symmetry_space_group_name_H-M "P M M A"
_symmetry_group_IT_number 51
_symmetry_cell_setting 'orthorhombic'
loop_
_space_group_symop_operation_xyz
x,y,z
1/2-x,-y,z
1/2+x,-y,-z
-x,y,-z
-x,-y,-z
1/2+x,y,-z
1/2-x,y,z
x,-y,z
loop_
_atom_site_type_symbol
_atom_site_label
_atom_site_fract_x
_atom_site_fract_y
_atom_site_fract_z
Si Si1 0.062744 0.561682 0.711903
Si Si2 0.067254 0.799093 0.592228
Si Si3 0.564777 0.681271 0.334284
Si Si4 0.930518 0.281323 0.851910
Si Si5 0.433460 0.396533 0.908536
Si Si6 0.065133 0.934559 0.099029
Si Si7 0.064595 0.832446 0.791799
O O1 0.250000 0.559320 0.713319
O O2 0.004593 0.500000 0.684999
O O3 0.024885 0.615834 0.650553
O O4 0.014242 0.575618 0.814534
O O5 0.250000 0.807977 0.590228
O O6 0.039839 0.731371 0.596481
O O7 0.012257 0.823220 0.688300
O O8 0.000000 0.822105 0.500000
O O9 0.750000 0.683607 0.310462
O O10 0.463475 0.699670 0.249867
O O11 0.750000 0.281536 0.873610
O O12 0.017568 0.330798 0.904245
O O13 0.998412 0.218364 0.853109
O O14 0.250000 0.400605 0.910909
O O15 0.500000 0.421543 0.000000
O O16 0.250000 0.928170 0.098241
O O17 0.991730 0.891248 0.168557
O O18 0.028401 0.000000 0.119746
O O19 0.000000 0.922692 0.000000
O O20 0.250000 0.828353 0.792936
#
# Coordination Sequence:
#
# PCOD9399007 Si02
#       7
#     8   8   8   8   8   8   8
#     4   8  14  26  45  64  82 112 155 200 246 298
#     4   9  18  31  50  77 106 136 168 208 257 310
#     4   8  15  29  46  66  93 121 153 194 241 293
#     4  10  18  29  46  67  90 119 156 196 245 299
#     4  10  19  30  42  59  86 117 153 198 248 303
#     4  10  21  37  57  82 111 144 182 219 254 294
#     4  10  20  35  54  78 108 139 174 215 259 304
#
# _framework density 18.245228999999998
#
# number of rings (size 3 to 8) (size 9 to 14) (size 15 to 20)
#    0.000    2.714    0.000    4.286    0.000    4.571 
#    0.000    2.857    0.000   11.143    0.000    0.000 
#    0.000    0.000    0.000    0.000    0.000    1.143 
#
# Total GULP energy -311814.343017 kJ/mol
# GULP energy per Si atom -5568.113268 kJ/mol
# Density = 1.820370 g / cm^3
# Si number density = 18.245229 Si / 1000 Ang^3
#
#
#
# Elastic Constant Matrix: (Units=GPa)
#
#
# Indices 1 2 3 4 5 6 
#
# 1 26.9273 17.1765 10.0016 0.0000 0.0000 0.0000
# 2 17.1765 105.3849 32.6908 0.0000 0.0000 0.0000
# 3 10.0016 32.6908 46.9105 0.0000 0.0000 0.0000
# 4 0.0000 0.0000 0.0000 5.9649 0.0000 0.0000
# 5 0.0000 0.0000 0.0000 0.0000 20.7143 0.0000
# 6 0.0000 0.0000 0.0000 0.0000 0.0000 15.4121
#
#
#
# Elastic Compliance Matrix: (Units=1/GPa)
#
#
# Indices 1 2 3 4 5 6 
#
# 1 0.042492 -0.005250 -0.005401 0.000000 0.000000 0.000000
# 2 -0.005250 0.012755 -0.007769 0.000000 0.000000 0.000000
# 3 -0.005401 -0.007769 0.027883 0.000000 0.000000 0.000000
# 4 0.000000 0.000000 0.000000 0.167647 0.000000 0.000000
# 5 0.000000 0.000000 0.000000 0.000000 0.048276 0.000000
# 6 0.000000 0.000000 0.000000 0.000000 0.000000 0.064884
#
#
# Mechanical properties :
#
#
# Convention : Reuss Voigt Hill
#
# Bulk Modulus (GPa) = 21.60325 33.21783 27.41054
# Shear Modulus (GPa) = 12.01326 16.37518 14.19422
#
# Velocity S-wave (km/s) = 2.56878 2.99909 2.79224
# Velocity P-wave (km/s) = 4.54581 5.49896 5.04494
#
# Compressibility (1/GPa) = 0.04628933
#
# Stress axis : x y z
#
# Youngs Moduli (GPa) = 23.53372 78.40195 35.86444
#
# Poissons Ratio (x) = 0.41164 0.19369
# Poissons Ratio (y) = 0.12356 0.27863
# Poissons Ratio (z) = 0.12710 0.60911
#
# Static dielectric constant tensor:
#      x y z
#    x 1.620390 0.000000 0.000000 
#    y 0.000000 1.657730 0.000000 
#    z 0.000000 0.000000 1.640650 
# 
# From -- ./inp_files/21826.got.cif
#   From: 2010.05.17/outbox.cif.g08.bks.cpg/sg51_11_cif.got.tgz:21826.got - 2010.06.03 11:52:47.
