data_PCOD9399285
_publ_section_title
;
Structure prediction by ZEFSAII (Michael W. Deem and Ramdas Pophale) SiO2 
 PCOD9399285
Probable space group: P M M A
;
_chemical_formula_sum "Si O2"
_cell_formula_units_Z 56
_cell_length_a 13.958525
_cell_length_b 31.720969
_cell_length_c 5.388600
_cell_angle_alpha 90.000000
_cell_angle_beta 90.000000
_cell_angle_gamma 90.000000
_cell_volume 2385.953201
_symmetry_space_group_name_H-M "P M M A"
_symmetry_group_IT_number 51
_symmetry_cell_setting 'orthorhombic'
loop_
_space_group_symop_operation_xyz
x,y,z
1/2-x,-y,z
1/2+x,-y,-z
-x,y,-z
-x,-y,-z
1/2+x,y,-z
1/2-x,y,z
x,-y,z
loop_
_atom_site_type_symbol
_atom_site_label
_atom_site_fract_x
_atom_site_fract_y
_atom_site_fract_z
Si Si1 0.063575 0.453780 0.250478
Si Si2 0.386740 0.049719 0.757306
Si Si3 0.862280 0.363247 0.838033
Si Si4 0.132288 0.678508 0.664898
Si Si5 0.133115 0.181207 0.330404
Si Si6 0.601471 0.914651 0.744008
Si Si7 0.133435 0.228387 0.831468
O O1 0.112343 0.500000 0.258738
O O2 0.126212 0.411963 0.232953
O O3 0.000000 0.450799 0.500000
O O4 0.000000 0.453434 0.000000
O O5 0.349467 0.067959 0.501009
O O6 0.499561 0.061503 0.750790
O O7 0.373270 0.000000 0.775748
O O8 0.350366 0.073236 0.999373
O O9 0.750000 0.353005 0.852380
O O10 0.900608 0.335196 0.609345
O O11 0.898860 0.353253 0.115238
O O12 0.250000 0.678377 0.652362
O O13 0.102331 0.724786 0.755112
O O14 0.250000 0.177602 0.324854
O O15 0.091061 0.135242 0.278462
O O16 0.106565 0.197873 0.603316
O O17 0.104807 0.212320 0.104586
O O18 0.250000 0.229269 0.836552
#
# Coordination Sequence:
#
# PCOD9399285 Si02
#       7
#     8   8   8   8   8   8   8
#     4  10  21  37  55  78 107 147 186 217 261 331
#     4  10  19  33  53  71  88 116 162 208 239 279
#     4  10  19  32  54  84 107 133 175 233 276 305
#     4   9  17  30  50  78 106 129 169 218 263 303
#     4  10  19  30  47  73 102 129 158 192 240 297
#     4  10  18  30  49  73  91 118 154 196 238 280
#     4   9  17  30  47  71 101 132 163 199 239 288
#
# _framework density 23.470704000000001
#
# number of rings (size 3 to 8) (size 9 to 14) (size 15 to 20)
#    0.000    2.286    0.000    4.714    0.000    3.714 
#    0.000    0.000    0.000    9.857   74.286    0.000 
#    0.000    0.000    0.000    0.000    0.000    0.000 
#
# Total GULP energy -313120.831147 kJ/mol
# GULP energy per Si atom -5591.443413 kJ/mol
# Density = 2.341728 g / cm^3
# Si number density = 23.470704 Si / 1000 Ang^3
#
#
#
# Elastic Constant Matrix: (Units=GPa)
#
#
# Indices 1 2 3 4 5 6 
#
# 1 63.4512 -19.9416 5.4596 0.0000 0.0000 0.0000
# 2 -19.9416 125.8271 41.8486 0.0000 0.0000 0.0000
# 3 5.4596 41.8486 205.4091 0.0000 0.0000 0.0000
# 4 0.0000 0.0000 0.0000 48.0949 0.0000 0.0000
# 5 0.0000 0.0000 0.0000 0.0000 -5.2756 0.0000
# 6 0.0000 0.0000 0.0000 0.0000 0.0000 44.3064
#
#
#
# Elastic Compliance Matrix: (Units=1/GPa)
#
#
# Indices 1 2 3 4 5 6 
#
# 1 0.016799 0.003015 -0.001061 0.000000 0.000000 0.000000
# 2 0.003015 0.009066 -0.001927 0.000000 0.000000 0.000000
# 3 -0.001061 -0.001927 0.005289 0.000000 0.000000 0.000000
# 4 0.000000 0.000000 0.000000 0.020792 0.000000 0.000000
# 5 0.000000 0.000000 0.000000 0.000000 -0.189552 0.000000
# 6 0.000000 0.000000 0.000000 0.000000 0.000000 0.022570
#
#
# Mechanical properties :
#
#
# Convention : Reuss Voigt Hill
#
# Bulk Modulus (GPa) = 32.04227 49.93561 40.98894
# Shear Modulus (GPa) = -47.76174 41.91320 -2.92427
#
# Velocity S-wave (km/s) = -4.51594 4.23042 -1.11742
# Velocity P-wave (km/s) = 3.67558 6.72189 3.97957
#
# Compressibility (1/GPa) = 0.03120878
#
# Stress axis : x y z
#
# Youngs Moduli (GPa) = 59.52724 110.29923 189.06566
#
# Poissons Ratio (x) = -0.33257 0.20056
# Poissons Ratio (y) = -0.17949 0.36437
# Poissons Ratio (z) = 0.06315 0.21257
#
# Static dielectric constant tensor:
#      x y z
#    x 1.922880 0.000000 0.000000 
#    y 0.000000 1.814070 0.000000 
#    z 0.000000 0.000000 1.662650 
# 
# From -- ./inp_files/1481.got.cif
#   From: 2010.05.17/outbox.cif.g08.bks.cpg/sg51_1_cif.got.tgz:1481.got - 2010.06.03 11:52:47.
