data_PCOD9399618
_publ_section_title
;
Structure prediction by ZEFSAII (Michael W. Deem and Ramdas Pophale) SiO2 
 PCOD9399618
Probable space group: P M M A
;
_chemical_formula_sum "Si O2"
_cell_formula_units_Z 52
_cell_length_a 9.002079
_cell_length_b 20.940330
_cell_length_c 16.208478
_cell_angle_alpha 90.000000
_cell_angle_beta 90.000000
_cell_angle_gamma 90.000000
_cell_volume 3055.403538
_symmetry_space_group_name_H-M "P M M A"
_symmetry_group_IT_number 51
_symmetry_cell_setting 'orthorhombic'
loop_
_space_group_symop_operation_xyz
x,y,z
1/2-x,-y,z
1/2+x,-y,-z
-x,y,-z
-x,-y,-z
1/2+x,y,-z
1/2-x,y,z
x,-y,z
loop_
_atom_site_type_symbol
_atom_site_label
_atom_site_fract_x
_atom_site_fract_y
_atom_site_fract_z
Si Si1 0.930358 0.500000 0.591868
Si Si2 0.572882 0.129507 0.738846
Si Si3 0.423458 0.717638 0.084125
Si Si4 0.576679 0.872871 0.917637
Si Si5 0.916490 0.076599 0.419375
Si Si6 0.428798 0.281732 0.268804
Si Si7 0.070200 0.367943 0.592006
O O1 0.750000 0.500000 0.591233
O O2 0.000000 0.500000 0.500000
O O3 0.997881 0.434196 0.625833
O O4 0.750000 0.119753 0.738182
O O5 0.515821 0.107081 0.828489
O O6 0.500199 0.094097 0.663346
O O7 0.548386 0.205383 0.728992
O O8 0.250000 0.701902 0.079390
O O9 0.434588 0.795232 0.083366
O O10 0.475838 0.697018 0.175694
O O11 0.500000 0.694401 0.000000
O O12 0.750000 0.888755 0.921358
O O13 0.500000 0.897009 0.000000
O O14 0.750000 0.102065 0.417265
O O15 0.000000 0.101687 0.500000
O O16 0.910429 0.000000 0.426054
O O17 0.250000 0.293043 0.277084
O O18 0.517410 0.314933 0.342620
O O19 0.250000 0.372224 0.585575
O O20 0.000000 0.357043 0.500000
#
# Coordination Sequence:
#
# PCOD9399618 Si02
#       7
#     4   8   8   8   8   8   8
#     4  10  18  32  52  70  91 122 159 198 236 276
#     4   9  18  32  50  71  97 126 156 192 235 281
#     4   8  14  25  42  63  91 123 155 190 227 270
#     4   8  14  25  42  66  93 122 152 184 225 272
#     4  10  21  36  53  71  90 116 154 197 238 282
#     4   9  18  32  47  69 100 130 158 191 234 281
#     4  11  21  33  49  70  96 127 162 198 234 277
#
# _framework density 17.019027999999999
#
# number of rings (size 3 to 8) (size 9 to 14) (size 15 to 20)
#    0.000    2.769    0.000    5.308    0.000    3.385 
#    0.000    3.077    0.000    0.462    0.000    0.538 
#    0.000    0.000    0.000    0.000    0.000    0.000 
#
# Total GULP energy -289478.358517 kJ/mol
# GULP energy per Si atom -5566.891510 kJ/mol
# Density = 1.698029 g / cm^3
# Si number density = 17.019028 Si / 1000 Ang^3
#
#
#
# Elastic Constant Matrix: (Units=GPa)
#
#
# Indices 1 2 3 4 5 6 
#
# 1 66.7304 8.3786 46.4915 0.0000 0.0000 0.0000
# 2 8.3786 -16.6460 5.6574 0.0000 0.0000 0.0000
# 3 46.4915 5.6574 138.7569 0.0000 0.0000 0.0000
# 4 0.0000 0.0000 0.0000 -4.2894 0.0000 0.0000
# 5 0.0000 0.0000 0.0000 0.0000 30.5157 0.0000
# 6 0.0000 0.0000 0.0000 0.0000 0.0000 20.1850
#
#
#
# Elastic Compliance Matrix: (Units=1/GPa)
#
#
# Indices 1 2 3 4 5 6 
#
# 1 0.018642 0.007161 -0.006538 0.000000 0.000000 0.000000
# 2 0.007161 -0.056503 -0.000096 0.000000 0.000000 0.000000
# 3 -0.006538 -0.000096 0.009401 0.000000 0.000000 0.000000
# 4 0.000000 0.000000 0.000000 -0.233132 0.000000 0.000000
# 5 0.000000 0.000000 0.000000 0.000000 0.032770 0.000000
# 6 0.000000 0.000000 0.000000 0.000000 0.000000 0.049542
#
#
# Mechanical properties :
#
#
# Convention : Reuss Voigt Hill
#
# Bulk Modulus (GPa) = -36.49004 34.43295 -1.02855
# Shear Modulus (GPa) = -26.38945 17.83652 -4.27646
#
# Velocity S-wave (km/s) = -3.94202 3.24085 -1.58689
# Velocity P-wave (km/s) = 6.49666 5.85492 1.99080
#
# Compressibility (1/GPa) = -0.02740474
#
# Stress axis : x y z
#
# Youngs Moduli (GPa) = 53.64352 -17.69832 106.36774
#
# Poissons Ratio (x) = 0.12674 0.69543
# Poissons Ratio (y) = -0.38414 0.01017
# Poissons Ratio (z) = 0.35072 -0.00169
#
# Static dielectric constant tensor:
#      x y z
#    x 1.577910 0.000000 0.000000 
#    y 0.000000 1.592780 0.000000 
#    z 0.000000 0.000000 1.611610 
# 
# From -- ./inp_files/21581.got.cif
#   From: 2010.05.17/outbox.cif.g08.bks.cpg/sg51_11_cif.got.tgz:21581.got - 2010.06.03 11:52:47.
