data_PCOD9399068
_publ_section_title
;
Structure prediction by ZEFSAII (Michael W. Deem and Ramdas Pophale) SiO2 
 PCOD9399068
Probable space group: P M M A
;
_chemical_formula_sum "Si O2"
_cell_formula_units_Z 64
_cell_length_a 26.579943
_cell_length_b 8.532843
_cell_length_c 17.606907
_cell_angle_alpha 90.000000
_cell_angle_beta 90.000000
_cell_angle_gamma 90.000000
_cell_volume 3993.290183
_symmetry_space_group_name_H-M "P M M A"
_symmetry_group_IT_number 51
_symmetry_cell_setting 'orthorhombic'
loop_
_space_group_symop_operation_xyz
x,y,z
1/2-x,-y,z
1/2+x,-y,-z
-x,y,-z
-x,-y,-z
1/2+x,y,-z
1/2-x,y,z
x,-y,z
loop_
_atom_site_type_symbol
_atom_site_label
_atom_site_fract_x
_atom_site_fract_y
_atom_site_fract_z
Si Si1 0.693352 0.809016 0.414376
Si Si2 0.442489 0.189897 0.839304
Si Si3 0.095996 0.187937 0.319385
Si Si4 0.561066 0.181869 0.994983
Si Si5 0.500126 0.688053 0.411715
Si Si6 0.402954 0.189786 0.678579
Si Si7 0.556392 0.684897 0.834640
Si Si8 0.806657 0.190898 0.589583
O O1 0.750000 0.758833 0.393627
O O2 0.648812 0.755229 0.359706
O O3 0.683724 0.762852 0.501954
O O4 0.693219 0.000000 0.413120
O O5 0.410606 0.237977 0.766096
O O6 0.499497 0.248871 0.828391
O O7 0.444662 0.000000 0.842226
O O8 0.422576 0.241980 0.922031
O O9 0.049235 0.251335 0.368431
O O10 0.088497 0.241162 0.232975
O O11 0.148372 0.243640 0.356341
O O12 0.094585 0.000000 0.322496
O O13 0.575401 0.272803 0.919070
O O14 0.575716 0.000000 0.986070
O O15 0.500000 0.186140 0.000000
O O16 0.500000 0.737567 0.500000
O O17 0.500558 0.500000 0.408750
O O18 0.549505 0.751594 0.369540
O O19 0.403521 0.000000 0.676838
O O20 0.554491 0.500000 0.824810
O O21 0.750000 0.241670 0.610389
O O22 0.806562 0.000000 0.590735
#
# Coordination Sequence:
#
# PCOD9399068 Si02
#       8
#     8   8   8   8   8   8   8   8
#     4   8  14  26  45  70  95 116 148 196 237 267
#     4   9  17  29  44  65  92 122 156 192 226 269
#     4  11  20  31  49  69  91 121 156 190 230 281
#     4   8  15  28  44  61  87 121 155 189 228 266
#     4  11  23  34  43  62  95 128 155 188 229 271
#     4  10  18  29  48  70  92 123 158 187 225 277
#     4  11  20  29  43  65  94 123 153 188 230 275
#     4   8  15  28  46  68  91 115 150 197 238 269
#
# _framework density 16.026883999999999
#
# number of rings (size 3 to 8) (size 9 to 14) (size 15 to 20)
#    0.000    2.500    1.250    4.125    0.000    4.250 
#    0.000    0.000    0.000    1.875    0.000    6.125 
#    0.000    5.000    0.000    0.000    0.000    0.000 
#
# Total GULP energy -356731.435421 kJ/mol
# GULP energy per Si atom -5573.928678 kJ/mol
# Density = 1.599041 g / cm^3
# Si number density = 16.026884 Si / 1000 Ang^3
#
#
#
# Elastic Constant Matrix: (Units=GPa)
#
#
# Indices 1 2 3 4 5 6 
#
# 1 109.1299 12.5804 80.3646 0.0000 0.0000 0.0000
# 2 12.5804 12.9801 20.6752 0.0000 0.0000 0.0000
# 3 80.3646 20.6752 146.7638 0.0000 0.0000 0.0000
# 4 0.0000 0.0000 0.0000 13.1868 0.0000 0.0000
# 5 0.0000 0.0000 0.0000 0.0000 15.3727 0.0000
# 6 0.0000 0.0000 0.0000 0.0000 0.0000 -6.0580
#
#
#
# Elastic Compliance Matrix: (Units=1/GPa)
#
#
# Indices 1 2 3 4 5 6 
#
# 1 0.015393 -0.001925 -0.008157 0.000000 0.000000 0.000000
# 2 -0.001925 0.099571 -0.012973 0.000000 0.000000 0.000000
# 3 -0.008157 -0.012973 0.013108 0.000000 0.000000 0.000000
# 4 0.000000 0.000000 0.000000 0.075834 0.000000 0.000000
# 5 0.000000 0.000000 0.000000 0.000000 0.065050 0.000000
# 6 0.000000 0.000000 0.000000 0.000000 0.000000 -0.165071
#
#
# Mechanical properties :
#
#
# Convention : Reuss Voigt Hill
#
# Bulk Modulus (GPa) = 12.20098 55.12380 33.66239
# Shear Modulus (GPa) = 28.19841 14.85054 21.52447
#
# Velocity S-wave (km/s) = 4.19912 3.04732 3.66870
# Velocity P-wave (km/s) = 5.58028 6.84476 6.24461
#
# Compressibility (1/GPa) = 0.08196064
#
# Stress axis : x y z
#
# Youngs Moduli (GPa) = 64.96663 10.04312 76.28915
#
# Poissons Ratio (x) = 0.01933 0.62232
# Poissons Ratio (y) = 0.12506 0.98969
# Poissons Ratio (z) = 0.52996 0.13029
#
# Static dielectric constant tensor:
#      x y z
#    x 1.513450 0.000000 0.000000 
#    y 0.000000 1.537210 0.000000 
#    z 0.000000 0.000000 1.562050 
# 
# From -- ./inp_files/30902.got.cif
#   From: 2010.05.17/outbox.cif.g08.bks.cpg/sg51_16_cif.got.tgz:30902.got - 2010.06.03 11:52:47.
