data_PCOD9399571
_publ_section_title
;
Structure prediction by ZEFSAII (Michael W. Deem and Ramdas Pophale) SiO2 
 PCOD9399571
Probable space group: P M M A
;
_chemical_formula_sum "Si O2"
_cell_formula_units_Z 40
_cell_length_a 26.992809
_cell_length_b 7.796982
_cell_length_c 9.296502
_cell_angle_alpha 90.000000
_cell_angle_beta 90.000000
_cell_angle_gamma 90.000000
_cell_volume 1956.564549
_symmetry_space_group_name_H-M "P M M A"
_symmetry_group_IT_number 51
_symmetry_cell_setting 'orthorhombic'
loop_
_space_group_symop_operation_xyz
x,y,z
1/2-x,-y,z
1/2+x,-y,-z
-x,y,-z
-x,-y,-z
1/2+x,y,-z
1/2-x,y,z
x,-y,z
loop_
_atom_site_type_symbol
_atom_site_label
_atom_site_fract_x
_atom_site_fract_y
_atom_site_fract_z
Si Si1 0.956085 0.799994 0.903070
Si Si2 0.250000 0.295026 0.598432
Si Si3 0.142927 0.797183 0.610561
Si Si4 0.250000 0.709430 0.933801
Si Si5 0.050674 0.790109 0.420822
Si Si6 0.357597 0.300009 0.943022
O O1 0.950425 0.727169 0.743154
O O2 0.969342 0.000000 0.881324
O O3 0.904445 0.789831 0.987049
O O4 0.000000 0.722608 0.000000
O O5 0.250000 0.500000 0.594359
O O6 0.302883 0.232992 0.541461
O O7 0.250000 0.238267 0.766048
O O8 0.098692 0.732807 0.509944
O O9 0.141114 0.715054 0.769411
O O10 0.136531 0.000000 0.633137
O O11 0.250000 0.500000 0.936606
O O12 0.196712 0.765760 0.992742
O O13 0.000000 0.741642 0.500000
O O14 0.052906 0.000000 0.419536
O O15 0.360992 0.500000 0.980884
#
# Coordination Sequence:
#
# PCOD9399571 Si02
#       6
#     8   4   8   4   8   8
#     4  10  20  35  55  77 102 134 174 220 269 318
#     4   9  17  31  50  75 108 140 172 212 258 305
#     4  10  18  31  54  80 105 137 177 215 256 308
#     4   7  14  29  48  69  96 132 166 200 242 291
#     4   9  18  33  53  77 103 132 170 219 269 313
#     4  10  19  33  53  77 107 139 173 214 260 309
#
# _framework density 20.443997
#
# number of rings (size 3 to 8) (size 9 to 14) (size 15 to 20)
#    0.000    2.600    0.000    3.900    0.000    3.600 
#    0.000    4.500    0.000    7.800    0.000    0.000 
#    0.000    0.000    0.000    0.000    0.000    0.000 
#
# Total GULP energy -223070.892777 kJ/mol
# GULP energy per Si atom -5576.772319 kJ/mol
# Density = 2.039747 g / cm^3
# Si number density = 20.443997 Si / 1000 Ang^3
#
#
#
# Elastic Constant Matrix: (Units=GPa)
#
#
# Indices 1 2 3 4 5 6 
#
# 1 185.5906 -17.8040 68.7299 0.0000 0.0000 0.0000
# 2 -17.8040 27.1048 -11.0662 0.0000 0.0000 0.0000
# 3 68.7299 -11.0662 85.8192 0.0000 0.0000 0.0000
# 4 0.0000 0.0000 0.0000 -10.4048 0.0000 0.0000
# 5 0.0000 0.0000 0.0000 0.0000 26.8066 0.0000
# 6 0.0000 0.0000 0.0000 0.0000 0.0000 23.6820
#
#
#
# Elastic Compliance Matrix: (Units=1/GPa)
#
#
# Indices 1 2 3 4 5 6 
#
# 1 0.007847 0.002733 -0.005932 0.000000 0.000000 0.000000
# 2 0.002733 0.039896 0.002956 0.000000 0.000000 0.000000
# 3 -0.005932 0.002956 0.016785 0.000000 0.000000 0.000000
# 4 0.000000 0.000000 0.000000 -0.096109 0.000000 0.000000
# 5 0.000000 0.000000 0.000000 0.000000 0.037304 0.000000
# 6 0.000000 0.000000 0.000000 0.000000 0.000000 0.042226
#
#
# Mechanical properties :
#
#
# Convention : Reuss Voigt Hill
#
# Bulk Modulus (GPa) = 15.61524 42.02600 28.82062
# Shear Modulus (GPa) = 71.65143 25.26042 48.45592
#
# Velocity S-wave (km/s) = 5.92653 3.51891 4.87373
# Velocity P-wave (km/s) = 7.38148 6.09193 6.76749
#
# Compressibility (1/GPa) = 0.06403999
#
# Stress axis : x y z
#
# Youngs Moduli (GPa) = 127.43341 25.06542 59.57866
#
# Poissons Ratio (x) = -0.06849 0.35344
# Poissons Ratio (y) = -0.34822 -0.17612
# Poissons Ratio (z) = 0.75597 -0.07409
#
# Static dielectric constant tensor:
#      x y z
#    x 1.748530 0.000000 0.000000 
#    y 0.000000 1.749680 0.000000 
#    z 0.000000 0.000000 1.703170 
# 
# From -- ./inp_files/12210.got.cif
#   From: 2010.05.17/outbox.cif.g08.bks.cpg/sg51_7_cif.got.tgz:12210.got - 2010.06.03 11:52:47.
