data_PCOD9399419
_publ_section_title
;
Structure prediction by ZEFSAII (Michael W. Deem and Ramdas Pophale) SiO2 
 PCOD9399419
Probable space group: P M M A
;
_chemical_formula_sum "Si O2"
_cell_formula_units_Z 48
_cell_length_a 8.710978
_cell_length_b 32.088616
_cell_length_c 9.209617
_cell_angle_alpha 90.000000
_cell_angle_beta 90.000000
_cell_angle_gamma 90.000000
_cell_volume 2574.301873
_symmetry_space_group_name_H-M "P M M A"
_symmetry_group_IT_number 51
_symmetry_cell_setting 'orthorhombic'
loop_
_space_group_symop_operation_xyz
x,y,z
1/2-x,-y,z
1/2+x,-y,-z
-x,y,-z
-x,-y,-z
1/2+x,y,-z
1/2-x,y,z
x,-y,z
loop_
_atom_site_type_symbol
_atom_site_label
_atom_site_fract_x
_atom_site_fract_y
_atom_site_fract_z
Si Si1 0.065885 0.252394 0.338238
Si Si2 0.065543 0.000000 0.662770
Si Si3 0.066047 0.586022 0.662788
Si Si4 0.565078 0.091312 0.335989
Si Si5 0.566623 0.500000 0.664354
Si Si6 0.065895 0.830842 0.161284
Si Si7 0.433895 0.669642 0.838375
O O1 0.250000 0.254915 0.343911
O O2 0.022943 0.210065 0.253873
O O3 0.000000 0.251612 0.500000
O O4 0.001460 0.292008 0.252316
O O5 0.020585 0.954810 0.724575
O O6 0.000000 0.000000 0.500000
O O7 0.250000 0.000000 0.655736
O O8 0.250000 0.581768 0.653063
O O9 0.027662 0.626293 0.758091
O O10 0.000000 0.591626 0.500000
O O11 0.995996 0.543347 0.727223
O O12 0.500000 0.094742 0.500000
O O13 0.750000 0.094027 0.341506
O O14 0.499028 0.128253 0.239630
O O15 0.750000 0.500000 0.661013
O O16 0.500000 0.500000 0.500000
O O17 0.250000 0.833202 0.155671
O O18 0.000000 0.827306 0.000000
O O19 0.250000 0.673322 0.843191
O O20 0.500000 0.670126 0.000000
#
# Coordination Sequence:
#
# PCOD9399419 Si02
#       7
#     8   4   8   8   4   8   8
#     4  11  24  41  63  88 115 146 185 231 278 331
#     4   8  16  30  51  80 111 144 184 230 280 328
#     4  10  20  35  56  83 113 147 187 233 280 330
#     4  10  19  34  57  84 114 148 188 234 280 332
#     4  10  18  30  53  82 111 146 186 232 280 328
#     4  11  24  40  58  83 114 150 188 230 281 336
#     4  11  24  40  60  85 116 152 189 231 282 337
#
# _framework density 18.645831000000001
#
# number of rings (size 3 to 8) (size 9 to 14) (size 15 to 20)
#    0.000    1.667    0.000    5.750    0.000   10.000 
#    0.000    0.833    0.000    0.000    0.000    0.000 
#    0.000    0.000    0.000    0.000    0.000    0.000 
#
# Total GULP energy -268124.269684 kJ/mol
# GULP energy per Si atom -5585.922285 kJ/mol
# Density = 1.860339 g / cm^3
# Si number density = 18.645831 Si / 1000 Ang^3
#
#
#
# Elastic Constant Matrix: (Units=GPa)
#
#
# Indices 1 2 3 4 5 6 
#
# 1 70.3596 82.6060 50.1717 0.0000 0.0000 0.0000
# 2 82.6060 234.9424 107.5375 0.0000 0.0000 0.0000
# 3 50.1717 107.5375 133.7467 0.0000 0.0000 0.0000
# 4 0.0000 0.0000 0.0000 -11.0932 0.0000 0.0000
# 5 0.0000 0.0000 0.0000 0.0000 32.5673 0.0000
# 6 0.0000 0.0000 0.0000 0.0000 0.0000 30.0181
#
#
#
# Elastic Compliance Matrix: (Units=1/GPa)
#
#
# Indices 1 2 3 4 5 6 
#
# 1 0.025312 -0.007205 -0.003702 0.000000 0.000000 0.000000
# 2 -0.007205 0.008786 -0.004361 0.000000 0.000000 0.000000
# 3 -0.003702 -0.004361 0.012372 0.000000 0.000000 0.000000
# 4 0.000000 0.000000 0.000000 -0.090146 0.000000 0.000000
# 5 0.000000 0.000000 0.000000 0.000000 0.030706 0.000000
# 6 0.000000 0.000000 0.000000 0.000000 0.000000 0.033313
#
#
# Mechanical properties :
#
#
# Convention : Reuss Voigt Hill
#
# Bulk Modulus (GPa) = 62.76261 102.18656 82.47458
# Shear Modulus (GPa) = 88.98189 23.54734 56.26461
#
# Velocity S-wave (km/s) = 6.91562 3.55755 5.49918
# Velocity P-wave (km/s) = 9.87427 8.47336 9.20051
#
# Compressibility (1/GPa) = 0.01593305
#
# Stress axis : x y z
#
# Youngs Moduli (GPa) = 39.50748 113.81660 80.82634
#
# Poissons Ratio (x) = 0.82008 0.29920
# Poissons Ratio (y) = 0.28466 0.35252
# Poissons Ratio (z) = 0.14625 0.49641
#
# Static dielectric constant tensor:
#      x y z
#    x 1.625890 0.000000 0.000000 
#    y 0.000000 1.668300 0.000000 
#    z 0.000000 0.000000 1.597210 
# 
# From -- ./inp_files/6129.got.cif
#   From: 2010.05.17/outbox.cif.g08.bks.cpg/sg51_4_cif.got.tgz:6129.got - 2010.06.03 11:52:47.
