data_PCOD9399045
_publ_section_title
;
Structure prediction by ZEFSAII (Michael W. Deem and Ramdas Pophale) SiO2 
 PCOD9399045
Probable space group: P M M A
;
_chemical_formula_sum "Si O2"
_cell_formula_units_Z 64
_cell_length_a 26.072238
_cell_length_b 8.932984
_cell_length_c 17.695778
_cell_angle_alpha 90.000000
_cell_angle_beta 90.000000
_cell_angle_gamma 90.000000
_cell_volume 4121.397747
_symmetry_space_group_name_H-M "P M M A"
_symmetry_group_IT_number 51
_symmetry_cell_setting 'orthorhombic'
loop_
_space_group_symop_operation_xyz
x,y,z
1/2-x,-y,z
1/2+x,-y,-z
-x,y,-z
-x,-y,-z
1/2+x,y,-z
1/2-x,y,z
x,-y,z
loop_
_atom_site_type_symbol
_atom_site_label
_atom_site_fract_x
_atom_site_fract_y
_atom_site_fract_z
Si Si1 0.190813 0.180478 0.076975
Si Si2 0.101646 0.181081 0.818229
Si Si3 0.000964 0.817630 0.913063
Si Si4 0.901508 0.817506 0.817314
Si Si5 0.559518 0.820330 0.343338
Si Si6 0.690256 0.678804 0.085689
Si Si7 0.062256 0.326392 0.500466
Si Si8 0.561261 0.819935 0.655904
O O1 0.250000 0.218263 0.094754
O O2 0.150531 0.228005 0.140828
O O3 0.187445 0.000000 0.069097
O O4 0.177401 0.253003 0.996516
O O5 0.052705 0.225877 0.869515
O O6 0.089674 0.224976 0.731934
O O7 0.152304 0.252216 0.852986
O O8 0.105169 0.000000 0.821029
O O9 0.950687 0.769588 0.866778
O O10 0.000186 0.000000 0.913702
O O11 0.000000 0.767369 0.000000
O O12 0.908815 0.769233 0.730759
O O13 0.902354 0.000000 0.816271
O O14 0.578791 0.749774 0.421378
O O15 0.499130 0.781621 0.333240
O O16 0.561828 0.000000 0.349607
O O17 0.750000 0.715848 0.100708
O O18 0.685221 0.500000 0.083349
O O19 0.075956 0.500000 0.500180
O O20 0.079572 0.248710 0.423054
O O21 0.000000 0.314083 0.500000
O O22 0.564113 0.000000 0.650722
#
# Coordination Sequence:
#
# PCOD9399045 Si02
#       8
#     8   8   8   8   8   8   8   8
#     4   9  17  30  49  70  89 114 154 198 230 257
#     4  10  18  29  47  70  90 113 149 190 227 267
#     4   9  15  23  39  64  91 117 145 177 218 269
#     4   9  15  25  43  68  93 118 148 185 228 270
#     4   9  16  27  43  65  90 115 147 183 220 267
#     4  10  21  35  48  63  87 120 155 189 228 271
#     4   9  17  27  40  60  88 121 152 179 218 265
#     4   9  15  26  43  63  89 119 150 182 219 268
#
# _framework density 15.528712000000001
#
# number of rings (size 3 to 8) (size 9 to 14) (size 15 to 20)
#    0.000    2.750    1.250    1.500    0.000    4.750 
#    0.000    0.625    0.000    3.375    0.000    0.875 
#    0.000    5.000    0.000    0.000    0.000    0.000 
#
# Total GULP energy -356613.836546 kJ/mol
# GULP energy per Si atom -5572.091196 kJ/mol
# Density = 1.549337 g / cm^3
# Si number density = 15.528712 Si / 1000 Ang^3
#
#
#
# Elastic Constant Matrix: (Units=GPa)
#
#
# Indices 1 2 3 4 5 6 
#
# 1 69.0516 24.3987 74.5429 0.0000 0.0000 0.0000
# 2 24.3987 13.3039 41.6011 0.0000 0.0000 0.0000
# 3 74.5429 41.6011 184.2400 0.0000 0.0000 0.0000
# 4 0.0000 0.0000 0.0000 -1.6492 0.0000 0.0000
# 5 0.0000 0.0000 0.0000 0.0000 19.7838 0.0000
# 6 0.0000 0.0000 0.0000 0.0000 0.0000 11.5840
#
#
#
# Elastic Compliance Matrix: (Units=1/GPa)
#
#
# Indices 1 2 3 4 5 6 
#
# 1 0.041239 -0.079800 0.001334 0.000000 0.000000 0.000000
# 2 -0.079800 0.410141 -0.060322 0.000000 0.000000 0.000000
# 3 0.001334 -0.060322 0.018509 0.000000 0.000000 0.000000
# 4 0.000000 0.000000 0.000000 -0.606372 0.000000 0.000000
# 5 0.000000 0.000000 0.000000 0.000000 0.050546 0.000000
# 6 0.000000 0.000000 0.000000 0.000000 0.000000 0.086326
#
#
# Mechanical properties :
#
#
# Convention : Reuss Voigt Hill
#
# Bulk Modulus (GPa) = 5.19990 60.85343 33.02667
# Shear Modulus (GPa) = 14.61692 14.34726 14.48209
#
# Velocity S-wave (km/s) = 3.07136 3.04290 3.05716
# Velocity P-wave (km/s) = 3.99168 7.18460 5.81171
#
# Compressibility (1/GPa) = 0.19231139
#
# Stress axis : x y z
#
# Youngs Moduli (GPa) = 24.24908 2.43819 54.02826
#
# Poissons Ratio (x) = 0.19457 -0.07205
# Poissons Ratio (y) = 1.93507 3.25912
# Poissons Ratio (z) = -0.03234 0.14708
#
# Static dielectric constant tensor:
#      x y z
#    x 1.502600 0.000000 0.000000 
#    y 0.000000 1.517500 0.000000 
#    z 0.000000 0.000000 1.516090 
# 
# From -- ./inp_files/30817.got.cif
#   From: 2010.05.17/outbox.cif.g08.bks.cpg/sg51_16_cif.got.tgz:30817.got - 2010.06.03 11:52:47.
