data_PCOD9399074
_publ_section_title
;
Structure prediction by ZEFSAII (Michael W. Deem and Ramdas Pophale) SiO2 
 PCOD9399074
Probable space group: P M M A
;
_chemical_formula_sum "Si O2"
_cell_formula_units_Z 64
_cell_length_a 9.228279
_cell_length_b 19.894770
_cell_length_c 20.012192
_cell_angle_alpha 90.000000
_cell_angle_beta 90.000000
_cell_angle_gamma 90.000000
_cell_volume 3674.128148
_symmetry_space_group_name_H-M "P M M A"
_symmetry_group_IT_number 51
_symmetry_cell_setting 'orthorhombic'
loop_
_space_group_symop_operation_xyz
x,y,z
1/2-x,-y,z
1/2+x,-y,-z
-x,y,-z
-x,-y,-z
1/2+x,y,-z
1/2-x,y,z
x,-y,z
loop_
_atom_site_type_symbol
_atom_site_label
_atom_site_fract_x
_atom_site_fract_y
_atom_site_fract_z
Si Si1 0.580644 0.080691 0.430997
Si Si2 0.420111 0.693852 0.430386
Si Si3 0.916458 0.396555 0.933133
Si Si4 0.920920 0.822036 0.666951
Si Si5 0.417545 0.767325 0.066718
Si Si6 0.577161 0.576063 0.351146
Si Si7 0.920250 0.770530 0.201804
Si Si8 0.080667 0.391940 0.799020
O O1 0.500000 0.099153 0.500000
O O2 0.750000 0.100058 0.434284
O O3 0.500569 0.117250 0.370471
O O4 0.572648 0.000000 0.424221
O O5 0.500000 0.706611 0.500000
O O6 0.250000 0.682326 0.442112
O O7 0.435852 0.757506 0.381566
O O8 0.491301 0.630003 0.394070
O O9 0.750000 0.417909 0.935079
O O10 0.918688 0.314576 0.933627
O O11 0.992346 0.415700 0.863567
O O12 0.000000 0.418384 0.000000
O O13 0.750000 0.835168 0.676149
O O14 0.997740 0.803545 0.736219
O O15 0.250000 0.788208 0.067576
O O16 0.503110 0.789542 0.132489
O O17 0.500000 0.789343 0.000000
O O18 0.750000 0.590847 0.353637
O O19 0.554412 0.500000 0.374954
O O20 0.534170 0.580461 0.272947
O O21 0.750000 0.787146 0.201940
O O22 0.931481 0.689176 0.206587
O O23 0.250000 0.408498 0.809097
#
# Coordination Sequence:
#
# PCOD9399074 Si02
#       8
#     8   8   8   8   8   8   8   8
#     4  10  21  37  57  81 110 145 182 218 258 307
#     4  11  24  39  57  79 104 132 168 211 260 313
#     4   9  16  25  41  65  93 125 160 202 248 300
#     4  11  22  35  54  81 110 142 177 217 260 308
#     4   9  16  26  40  63  97 134 172 212 256 310
#     4  10  21  38  58  77  98 128 167 212 264 320
#     4  10  18  29  48  72 101 137 172 214 264 311
#     4   9  17  30  48  70  96 127 162 205 256 310
#
# _framework density 17.419098000000002
#
# number of rings (size 3 to 8) (size 9 to 14) (size 15 to 20)
#    0.000    2.125    1.250    2.625    0.000    7.750 
#    0.000    0.000    0.000    0.375    0.000    0.000 
#    0.000    0.500    0.000    1.875    0.000    2.875 
#
# Total GULP energy -357408.526310 kJ/mol
# GULP energy per Si atom -5584.508224 kJ/mol
# Density = 1.737945 g / cm^3
# Si number density = 17.419098 Si / 1000 Ang^3
#
#
#
# Elastic Constant Matrix: (Units=GPa)
#
#
# Indices 1 2 3 4 5 6 
#
# 1 144.9728 38.9445 91.2321 0.0000 0.0000 0.0000
# 2 38.9445 29.3434 31.0297 0.0000 0.0000 0.0000
# 3 91.2321 31.0297 143.8445 0.0000 0.0000 0.0000
# 4 0.0000 0.0000 0.0000 49.3665 0.0000 0.0000
# 5 0.0000 0.0000 0.0000 0.0000 39.1473 0.0000
# 6 0.0000 0.0000 0.0000 0.0000 0.0000 4.8228
#
#
#
# Elastic Compliance Matrix: (Units=1/GPa)
#
#
# Indices 1 2 3 4 5 6 
#
# 1 0.014139 -0.012026 -0.006374 0.000000 0.000000 0.000000
# 2 -0.012026 0.054379 -0.004103 0.000000 0.000000 0.000000
# 3 -0.006374 -0.004103 0.011879 0.000000 0.000000 0.000000
# 4 0.000000 0.000000 0.000000 0.020257 0.000000 0.000000
# 5 0.000000 0.000000 0.000000 0.000000 0.025545 0.000000
# 6 0.000000 0.000000 0.000000 0.000000 0.000000 0.207349
#
#
# Mechanical properties :
#
#
# Convention : Reuss Voigt Hill
#
# Bulk Modulus (GPa) = 28.25458 71.17482 49.71470
# Shear Modulus (GPa) = 12.80902 29.13094 20.96998
#
# Velocity S-wave (km/s) = 2.71466 4.09388 3.47342
# Velocity P-wave (km/s) = 5.10701 7.95584 6.68494
#
# Compressibility (1/GPa) = 0.03539249
#
# Stress axis : x y z
#
# Youngs Moduli (GPa) = 70.72497 18.38951 84.17907
#
# Poissons Ratio (x) = 0.22115 0.53652
# Poissons Ratio (y) = 0.85053 0.34540
# Poissons Ratio (z) = 0.45077 0.07546
#
# Static dielectric constant tensor:
#      x y z
#    x 1.581890 0.000000 0.000000 
#    y 0.000000 1.587860 0.000000 
#    z 0.000000 0.000000 1.571260 
# 
# From -- ./inp_files/28324.got.cif
#   From: 2010.05.17/outbox.cif.g08.bks.cpg/sg51_15_cif.got.tgz:28324.got - 2010.06.03 11:52:47.
