data_PCOD9399700
_publ_section_title
;
Structure prediction by ZEFSAII (Michael W. Deem and Ramdas Pophale) SiO2 
 PCOD9399700
Probable space group: P M M A
;
_chemical_formula_sum "Si O2"
_cell_formula_units_Z 32
_cell_length_a 8.598736
_cell_length_b 13.282143
_cell_length_c 14.338204
_cell_angle_alpha 90.000000
_cell_angle_beta 90.000000
_cell_angle_gamma 90.000000
_cell_volume 1637.561134
_symmetry_space_group_name_H-M "P M M A"
_symmetry_group_IT_number 51
_symmetry_cell_setting 'orthorhombic'
loop_
_space_group_symop_operation_xyz
x,y,z
1/2-x,-y,z
1/2+x,-y,-z
-x,y,-z
-x,-y,-z
1/2+x,y,-z
1/2-x,y,z
x,-y,z
loop_
_atom_site_type_symbol
_atom_site_label
_atom_site_fract_x
_atom_site_fract_y
_atom_site_fract_z
Si Si1 0.563868 0.500000 0.893989
Si Si2 0.434915 0.712758 0.895580
Si Si3 0.563672 0.197744 0.719380
Si Si4 0.062374 0.000000 0.395105
Si Si5 0.937151 0.613055 0.394471
O O1 0.750000 0.500000 0.892273
O O2 0.499367 0.605517 0.857208
O O3 0.500000 0.500000 0.000000
O O4 0.250000 0.706955 0.899962
O O5 0.490924 0.795603 0.822248
O O6 0.500000 0.727766 0.000000
O O7 0.750000 0.197584 0.727273
O O8 0.513993 0.099670 0.661264
O O9 0.509255 0.296662 0.663963
O O10 0.000000 0.000000 0.500000
O O11 0.250000 0.000000 0.399424
O O12 0.750000 0.621362 0.393925
O O13 0.978479 0.500000 0.360432
O O14 0.000000 0.620682 0.500000
#
# Coordination Sequence:
#
# PCOD9399700 Si02
#       5
#     4   8   8   4   8
#     4  10  18  32  54  82 117 160 201 244 294 350
#     4  11  22  38  59  87 123 162 205 252 302 360
#     4  11  23  40  62  89 120 158 205 252 308 365
#     4  10  24  44  67  92 121 156 201 258 308 364
#     4  10  21  37  57  85 121 157 196 244 303 366
#
# _framework density 19.541253999999999
#
# number of rings (size 3 to 8) (size 9 to 14) (size 15 to 20)
#    0.000    1.500    0.000    7.125    1.750    5.500 
#    0.000    0.625    0.000    0.000    0.000    0.000 
#    0.000    0.000    0.000    0.000    0.000    0.000 
#
# Total GULP energy -178875.143610 kJ/mol
# GULP energy per Si atom -5589.848238 kJ/mol
# Density = 1.949678 g / cm^3
# Si number density = 19.541254 Si / 1000 Ang^3
#
#
#
# Elastic Constant Matrix: (Units=GPa)
#
#
# Indices 1 2 3 4 5 6 
#
# 1 124.5327 54.4518 47.0938 0.0000 0.0000 0.0000
# 2 54.4518 137.8558 94.6609 0.0000 0.0000 0.0000
# 3 47.0938 94.6609 142.7960 0.0000 0.0000 0.0000
# 4 0.0000 0.0000 0.0000 37.6062 0.0000 0.0000
# 5 0.0000 0.0000 0.0000 0.0000 33.9251 0.0000
# 6 0.0000 0.0000 0.0000 0.0000 0.0000 23.3614
#
#
#
# Elastic Compliance Matrix: (Units=1/GPa)
#
#
# Indices 1 2 3 4 5 6 
#
# 1 0.009822 -0.003038 -0.001225 0.000000 0.000000 0.000000
# 2 -0.003038 0.014255 -0.008448 0.000000 0.000000 0.000000
# 3 -0.001225 -0.008448 0.013007 0.000000 0.000000 0.000000
# 4 0.000000 0.000000 0.000000 0.026591 0.000000 0.000000
# 5 0.000000 0.000000 0.000000 0.000000 0.029477 0.000000
# 6 0.000000 0.000000 0.000000 0.000000 0.000000 0.042806
#
#
# Mechanical properties :
#
#
# Convention : Reuss Voigt Hill
#
# Bulk Modulus (GPa) = 85.75146 88.62195 87.18671
# Shear Modulus (GPa) = 30.25419 32.91040 31.58229
#
# Velocity S-wave (km/s) = 3.93901 4.10829 4.02454
# Velocity P-wave (km/s) = 8.04147 8.24341 8.14307
#
# Compressibility (1/GPa) = 0.01166161
#
# Stress axis : x y z
#
# Youngs Moduli (GPa) = 101.81442 70.15230 76.88170
#
# Poissons Ratio (x) = 0.21314 0.09419
# Poissons Ratio (y) = 0.30934 0.64946
# Poissons Ratio (z) = 0.12473 0.59262
#
# Static dielectric constant tensor:
#      x y z
#    x 1.653970 0.000000 0.000000 
#    y 0.000000 1.694420 0.000000 
#    z 0.000000 0.000000 1.691500 
# 
# From -- ./inp_files/20124.got.cif
#   From: 2010.05.17/outbox.cif.g08.bks.cpg/sg51_11_cif.got.tgz:20124.got - 2010.06.03 11:52:47.
