data_PCOD9399583
_publ_section_title
;
Structure prediction by ZEFSAII (Michael W. Deem and Ramdas Pophale) SiO2 
 PCOD9399583
Probable space group: P M M A
;
_chemical_formula_sum "Si O2"
_cell_formula_units_Z 56
_cell_length_a 16.141124
_cell_length_b 14.996770
_cell_length_c 12.744193
_cell_angle_alpha 90.000000
_cell_angle_beta 90.000000
_cell_angle_gamma 90.000000
_cell_volume 3084.919563
_symmetry_space_group_name_H-M "P M M A"
_symmetry_group_IT_number 51
_symmetry_cell_setting 'orthorhombic'
loop_
_space_group_symop_operation_xyz
x,y,z
1/2-x,-y,z
1/2+x,-y,-z
-x,y,-z
-x,-y,-z
1/2+x,y,-z
1/2-x,y,z
x,-y,z
loop_
_atom_site_type_symbol
_atom_site_label
_atom_site_fract_x
_atom_site_fract_y
_atom_site_fract_z
Si Si1 0.086711 0.212787 0.439820
Si Si2 0.152016 0.105475 0.250517
Si Si3 0.849795 0.400050 0.512115
Si Si4 0.650613 0.784252 0.182583
Si Si5 0.400973 0.100893 0.010975
Si Si6 0.850617 0.598206 0.264585
Si Si7 0.652620 0.900342 0.375765
O O1 0.097368 0.163164 0.329922
O O2 0.110626 0.316329 0.430278
O O3 0.145356 0.160183 0.521444
O O4 0.000000 0.205790 0.500000
O O5 0.250000 0.126063 0.264257
O O6 0.126466 0.120049 0.129759
O O7 0.140953 0.000000 0.272861
O O8 0.750000 0.395467 0.521623
O O9 0.876014 0.500000 0.544531
O O10 0.869635 0.389796 0.388094
O O11 0.750000 0.779597 0.194830
O O12 0.618843 0.683885 0.201173
O O13 0.617097 0.847998 0.275479
O O14 0.632293 0.828319 0.071761
O O15 0.371026 0.000000 0.985006
O O16 0.500000 0.100654 0.000000
O O17 0.750000 0.596378 0.258196
O O18 0.880342 0.500000 0.231377
O O19 0.750000 0.910342 0.355132
O O20 0.616909 0.000000 0.389775
#
# Coordination Sequence:
#
# PCOD9399583 Si02
#       7
#     8   8   8   8   8   8   8
#     4  12  24  34  52  80 114 149 183 223 277 334
#     4  10  22  40  58  76 106 152 198 232 272 339
#     4   9  17  33  56  78 105 143 186 229 274 330
#     4  10  18  31  55  81 105 134 174 224 272 321
#     4  10  22  37  55  77 106 143 185 232 277 326
#     4   8  14  26  49  80 106 128 162 213 270 322
#     4  10  20  33  51  77 107 137 174 224 274 322
#
# _framework density 18.152822
#
# number of rings (size 3 to 8) (size 9 to 14) (size 15 to 20)
#    0.000    2.143    1.429    3.429    2.000    4.000 
#    0.000    0.000    0.000    1.286    0.000    2.000 
#    0.000    0.000    0.000    0.000    0.000    0.000 
#
# Total GULP energy -312376.499230 kJ/mol
# GULP energy per Si atom -5578.151772 kJ/mol
# Density = 1.811151 g / cm^3
# Si number density = 18.152822 Si / 1000 Ang^3
#
#
#
# Elastic Constant Matrix: (Units=GPa)
#
#
# Indices 1 2 3 4 5 6 
#
# 1 25.8250 9.8295 -1.0507 0.0000 0.0000 0.0000
# 2 9.8295 126.7616 46.5430 0.0000 0.0000 0.0000
# 3 -1.0507 46.5430 60.6859 0.0000 0.0000 0.0000
# 4 0.0000 0.0000 0.0000 7.2806 0.0000 0.0000
# 5 0.0000 0.0000 0.0000 0.0000 -661.0585 0.0000
# 6 0.0000 0.0000 0.0000 0.0000 0.0000 2.8626
#
#
#
# Elastic Compliance Matrix: (Units=1/GPa)
#
#
# Indices 1 2 3 4 5 6 
#
# 1 0.040709 -0.004754 0.004351 0.000000 0.000000 0.000000
# 2 -0.004754 0.011536 -0.008930 0.000000 0.000000 0.000000
# 3 0.004351 -0.008930 0.023403 0.000000 0.000000 0.000000
# 4 0.000000 0.000000 0.000000 0.137352 0.000000 0.000000
# 5 0.000000 0.000000 0.000000 0.000000 -0.001513 0.000000
# 6 0.000000 0.000000 0.000000 0.000000 0.000000 0.349333
#
#
# Mechanical properties :
#
#
# Convention : Reuss Voigt Hill
#
# Bulk Modulus (GPa) = 17.54964 35.99065 26.77014
# Shear Modulus (GPa) = 8.35450 -119.65301 -55.64925
#
# Velocity S-wave (km/s) = 2.14763 -8.12757 -5.54279
# Velocity P-wave (km/s) = 3.97975 8.25875 5.11706
#
# Compressibility (1/GPa) = 0.05698124
#
# Stress axis : x y z
#
# Youngs Moduli (GPa) = 24.56470 86.68250 42.73034
#
# Poissons Ratio (x) = 0.41211 -0.18593
# Poissons Ratio (y) = 0.11679 0.38159
# Poissons Ratio (z) = -0.10688 0.77408
#
# Static dielectric constant tensor:
#      x y z
#    x 1.683910 0.000000 0.000000 
#    y 0.000000 1.659420 0.000000 
#    z 0.000000 0.000000 1.590520 
# 
# From -- ./inp_files/16615.got.cif
#   From: 2010.05.17/outbox.cif.g08.bks.cpg/sg51_9_cif.got.tgz:16615.got - 2010.06.03 11:52:47.
