data_PCOD9399495
_publ_section_title
;
Structure prediction by ZEFSAII (Michael W. Deem and Ramdas Pophale) SiO2 
 PCOD9399495
Probable space group: P M M A
;
_chemical_formula_sum "Si O2"
_cell_formula_units_Z 64
_cell_length_a 20.434637
_cell_length_b 8.136705
_cell_length_c 20.455553
_cell_angle_alpha 90.000000
_cell_angle_beta 90.000000
_cell_angle_gamma 90.000000
_cell_volume 3401.157338
_symmetry_space_group_name_H-M "P M M A"
_symmetry_group_IT_number 51
_symmetry_cell_setting 'orthorhombic'
loop_
_space_group_symop_operation_xyz
x,y,z
1/2-x,-y,z
1/2+x,-y,-z
-x,y,-z
-x,-y,-z
1/2+x,y,-z
1/2-x,y,z
x,-y,z
loop_
_atom_site_type_symbol
_atom_site_label
_atom_site_fract_x
_atom_site_fract_y
_atom_site_fract_z
Si Si1 0.673134 0.193234 0.664093
Si Si2 0.090132 0.191622 0.456527
Si Si3 0.174835 0.799002 0.986910
Si Si4 0.551118 0.196785 0.271145
Si Si5 0.951488 0.689509 0.410329
Si Si6 0.912629 0.310772 0.774955
Si Si7 0.062872 0.809488 0.085507
Si Si8 0.580040 0.200351 0.125460
O O1 0.750000 0.203785 0.657017
O O2 0.637920 0.257279 0.599167
O O3 0.648390 0.283917 0.728316
O O4 0.654462 0.000000 0.671243
O O5 0.092812 0.281028 0.526084
O O6 0.017096 0.208579 0.426765
O O7 0.104164 0.000000 0.467909
O O8 0.250000 0.743010 0.996021
O O9 0.142879 0.754111 0.917105
O O10 0.176706 0.000000 0.990699
O O11 0.119914 0.740455 0.039081
O O12 0.577445 0.261270 0.340196
O O13 0.476175 0.256590 0.266052
O O14 0.581305 0.252412 0.201458
O O15 0.552784 0.000000 0.272488
O O16 0.971175 0.500000 0.407798
O O17 0.919444 0.500000 0.794380
O O18 0.911678 0.203904 0.840355
O O19 0.988228 0.742139 0.090964
O O20 0.055377 0.000000 0.065743
O O21 0.576252 0.000000 0.125972
#
# Coordination Sequence:
#
# PCOD9399495 Si02
#       8
#     8   8   8   8   8   8   8   8
#     4  10  21  36  53  71  97 135 173 206 243 295
#     4  10  19  32  51  73 100 132 167 204 248 297
#     4   9  16  27  47  75 100 123 161 213 259 299
#     4  10  18  31  51  73  99 130 163 203 254 306
#     4  11  20  30  49  76 105 129 159 207 253 295
#     4  11  21  32  48  72 101 130 164 207 250 293
#     4   9  17  30  49  71  99 133 165 201 249 308
#     4   8  15  27  46  71  98 128 163 205 253 303
#
# _framework density 18.817125999999998
#
# number of rings (size 3 to 8) (size 9 to 14) (size 15 to 20)
#    0.000    2.250    1.250    4.875    0.000    2.750 
#    0.000    1.250    0.000    7.500    0.000    3.500 
#    0.000    0.000    0.000    0.000    0.000    0.000 
#
# Total GULP energy -356767.715297 kJ/mol
# GULP energy per Si atom -5574.495552 kJ/mol
# Density = 1.877430 g / cm^3
# Si number density = 18.817126 Si / 1000 Ang^3
#
#
#
# Elastic Constant Matrix: (Units=GPa)
#
#
# Indices 1 2 3 4 5 6 
#
# 1 55.1637 1.8159 35.1496 0.0000 0.0000 0.0000
# 2 1.8159 18.6812 3.7194 0.0000 0.0000 0.0000
# 3 35.1496 3.7194 86.6578 0.0000 0.0000 0.0000
# 4 0.0000 0.0000 0.0000 -7.2949 0.0000 0.0000
# 5 0.0000 0.0000 0.0000 0.0000 19.1040 0.0000
# 6 0.0000 0.0000 0.0000 0.0000 0.0000 -6.9172
#
#
#
# Elastic Compliance Matrix: (Units=1/GPa)
#
#
# Indices 1 2 3 4 5 6 
#
# 1 0.024449 -0.000406 -0.009899 0.000000 0.000000 0.000000
# 2 -0.000406 0.053998 -0.002153 0.000000 0.000000 0.000000
# 3 -0.009899 -0.002153 0.015647 0.000000 0.000000 0.000000
# 4 0.000000 0.000000 0.000000 -0.137083 0.000000 0.000000
# 5 0.000000 0.000000 0.000000 0.000000 0.052345 0.000000
# 6 0.000000 0.000000 0.000000 0.000000 0.000000 -0.144566
#
#
# Mechanical properties :
#
#
# Convention : Reuss Voigt Hill
#
# Bulk Modulus (GPa) = 14.45546 26.87472 20.66509
# Shear Modulus (GPa) = -57.31717 8.96622 -24.17547
#
# Velocity S-wave (km/s) = -5.52506 2.18524 -3.58824
# Velocity P-wave (km/s) = 5.74481 4.54754 2.48222
#
# Compressibility (1/GPa) = 0.06917802
#
# Stress axis : x y z
#
# Youngs Moduli (GPa) = 40.90141 18.51925 63.90830
#
# Poissons Ratio (x) = 0.00751 0.63266
# Poissons Ratio (y) = 0.01659 0.13760
# Poissons Ratio (z) = 0.40490 0.03987
#
# Static dielectric constant tensor:
#      x y z
#    x 1.654120 0.000000 0.000000 
#    y 0.000000 1.673670 0.000000 
#    z 0.000000 0.000000 1.687960 
# 
# From -- ./inp_files/34176.got.cif
#   From: 2010.05.17/outbox.cif.g08.bks.cpg/sg51_18_cif.got.tgz:34176.got - 2010.06.03 11:52:47.
