data_PCOD9399509
_publ_section_title
;
Structure prediction by ZEFSAII (Michael W. Deem and Ramdas Pophale) SiO2 
 PCOD9399509
Probable space group: P M M A
;
_chemical_formula_sum "Si O2"
_cell_formula_units_Z 48
_cell_length_a 35.491785
_cell_length_b 8.115352
_cell_length_c 7.440798
_cell_angle_alpha 90.000000
_cell_angle_beta 90.000000
_cell_angle_gamma 90.000000
_cell_volume 2143.160610
_symmetry_space_group_name_H-M "P M M A"
_symmetry_group_IT_number 51
_symmetry_cell_setting 'orthorhombic'
loop_
_space_group_symop_operation_xyz
x,y,z
1/2-x,-y,z
1/2+x,-y,-z
-x,y,-z
-x,-y,-z
1/2+x,y,-z
1/2-x,y,z
x,-y,z
loop_
_atom_site_type_symbol
_atom_site_label
_atom_site_fract_x
_atom_site_fract_y
_atom_site_fract_z
Si Si1 0.250000 0.196504 0.298913
Si Si2 0.828406 0.306527 0.658903
Si Si3 0.542122 0.000000 0.771067
Si Si4 0.250000 0.799370 0.722228
Si Si5 0.087197 0.683650 0.226310
Si Si6 0.831137 0.190451 0.259136
Si Si7 0.587944 0.322057 0.194938
Si Si8 0.454879 0.000000 0.788510
O O1 0.209578 0.261390 0.233822
O O2 0.250000 0.246549 0.511141
O O3 0.250000 0.000000 0.282481
O O4 0.826390 0.500000 0.610920
O O5 0.868266 0.279397 0.754900
O O6 0.829487 0.200519 0.476364
O O7 0.562903 0.164337 0.703046
O O8 0.498038 0.000000 0.729810
O O9 0.545465 0.000000 0.991140
O O10 0.290003 0.746426 0.801437
O O11 0.250000 0.000000 0.728215
O O12 0.080513 0.500000 0.302731
O O13 0.078167 0.673230 0.015297
O O14 0.867316 0.293470 0.205456
O O15 0.836073 0.000000 0.202802
O O16 0.578367 0.500000 0.274639
O O17 0.566942 0.163715 0.272223
#
# Coordination Sequence:
#
# PCOD9399509 Si02
#       8
#     4   8   4   4   8   8   8   4
#     4   9  17  29  46  71  98 132 175 213 248 288
#     4  10  19  32  50  74 103 136 172 211 253 296
#     4   9  18  32  57  74 105 130 166 203 259 299
#     4   7  14  27  44  67  98 129 166 214 244 278
#     4   9  20  34  52  78 105 133 168 208 252 305
#     4  10  18  31  51  76 103 134 174 212 249 298
#     4  10  19  34  53  76 106 135 165 208 256 300
#     4   9  18  34  51  82  99 132 166 207 247 313
#
# _framework density 22.396826999999998
#
# number of rings (size 3 to 8) (size 9 to 14) (size 15 to 20)
#    0.000    2.667    0.833    2.250    2.333    0.667 
#    0.000    5.417    0.000    5.000    0.000    3.500 
#    0.000    0.000    0.000    0.000    0.000    0.000 
#
# Total GULP energy -267873.681931 kJ/mol
# GULP energy per Si atom -5580.701707 kJ/mol
# Density = 2.234585 g / cm^3
# Si number density = 22.396827 Si / 1000 Ang^3
#
#
#
# Elastic Constant Matrix: (Units=GPa)
#
#
# Indices 1 2 3 4 5 6 
#
# 1 158.4272 99.8112 -8.7858 0.0000 0.0000 0.0000
# 2 99.8112 152.1218 2.6601 0.0000 0.0000 0.0000
# 3 -8.7858 2.6601 57.0300 0.0000 0.0000 0.0000
# 4 0.0000 0.0000 0.0000 0.6665 0.0000 0.0000
# 5 0.0000 0.0000 0.0000 0.0000 19.3879 0.0000
# 6 0.0000 0.0000 0.0000 0.0000 0.0000 -4.3299
#
#
#
# Elastic Compliance Matrix: (Units=1/GPa)
#
#
# Indices 1 2 3 4 5 6 
#
# 1 0.010990 -0.007246 0.002031 0.000000 0.000000 0.000000
# 2 -0.007246 0.011357 -0.001646 0.000000 0.000000 0.000000
# 3 0.002031 -0.001646 0.017924 0.000000 0.000000 0.000000
# 4 0.000000 0.000000 0.000000 1.500382 0.000000 0.000000
# 5 0.000000 0.000000 0.000000 0.000000 0.051579 0.000000
# 6 0.000000 0.000000 0.000000 0.000000 0.000000 -0.230954
#
#
# Mechanical properties :
#
#
# Convention : Reuss Voigt Hill
#
# Bulk Modulus (GPa) = 37.66681 61.66112 49.66396
# Shear Modulus (GPa) = 3.61311 21.40447 12.50879
#
# Velocity S-wave (km/s) = 1.27151 3.09478 2.36584
# Velocity P-wave (km/s) = 4.36005 6.35304 5.44845
#
# Compressibility (1/GPa) = 0.02654857
#
# Stress axis : x y z
#
# Youngs Moduli (GPa) = 90.99205 88.05157 55.79017
#
# Poissons Ratio (x) = 0.63805 -0.11331
# Poissons Ratio (y) = 0.65936 0.09183
# Poissons Ratio (z) = -0.18481 0.14494
#
# Static dielectric constant tensor:
#      x y z
#    x 1.828050 0.000000 0.000000 
#    y 0.000000 1.815160 0.000000 
#    z 0.000000 0.000000 1.872750 
# 
# From -- ./inp_files/12992.got.cif
#   From: 2010.05.17/outbox.cif.g08.bks.cpg/sg51_7_cif.got.tgz:12992.got - 2010.06.03 11:52:47.
