data_PCOD9399425
_publ_section_title
;
Structure prediction by ZEFSAII (Michael W. Deem and Ramdas Pophale) SiO2 
 PCOD9399425
Probable space group: P M M A
;
_chemical_formula_sum "Si O2"
_cell_formula_units_Z 40
_cell_length_a 16.832034
_cell_length_b 7.535721
_cell_length_c 12.435336
_cell_angle_alpha 90.000000
_cell_angle_beta 90.000000
_cell_angle_gamma 90.000000
_cell_volume 1577.316822
_symmetry_space_group_name_H-M "P M M A"
_symmetry_group_IT_number 51
_symmetry_cell_setting 'orthorhombic'
loop_
_space_group_symop_operation_xyz
x,y,z
1/2-x,-y,z
1/2+x,-y,-z
-x,y,-z
-x,-y,-z
1/2+x,y,-z
1/2-x,y,z
x,-y,z
loop_
_atom_site_type_symbol
_atom_site_label
_atom_site_fract_x
_atom_site_fract_y
_atom_site_fract_z
Si Si1 0.580814 0.782174 0.058408
Si Si2 0.617917 0.293136 0.449701
Si Si3 0.750000 0.797934 0.034479
Si Si4 0.750000 0.283277 0.283783
Si Si5 0.661354 0.285824 0.687214
Si Si6 0.990676 0.207952 0.274427
O O1 0.663918 0.717337 0.008931
O O2 0.565438 0.719004 0.180352
O O3 0.584807 0.000000 0.059052
O O4 0.500000 0.732383 0.000000
O O5 0.636492 0.500000 0.461247
O O6 0.676142 0.224207 0.356949
O O7 0.639973 0.217943 0.566178
O O8 0.532606 0.281326 0.391382
O O9 0.750000 0.796840 0.165269
O O10 0.750000 0.000000 0.993794
O O11 0.750000 0.500000 0.272315
O O12 0.750000 0.224906 0.718548
O O13 0.663246 0.500000 0.686924
O O14 0.583167 0.235156 0.753571
O O15 0.977638 0.000000 0.280945
#
# Coordination Sequence:
#
# PCOD9399425 Si02
#       6
#     8   8   4   4   8   8
#     4   9  19  36  56  82 110 139 180 226 273 332
#     4  10  19  34  56  80 107 145 187 222 261 315
#     4  10  18  34  60  81 104 142 180 223 282 329
#     4  10  18  30  54  83 108 136 180 229 266 305
#     4  10  21  38  56  75 107 152 193 221 257 321
#     4  11  22  35  54  82 113 139 175 229 281 323
#
# _framework density 25.35952
#
# number of rings (size 3 to 8) (size 9 to 14) (size 15 to 20)
#    0.000    2.000    3.000    1.200    0.000    3.600 
#    1.800    0.000    0.000    5.400    0.000    0.000 
#    0.000    0.000    0.000    0.000    0.000    0.000 
#
# Total GULP energy -223434.875245 kJ/mol
# GULP energy per Si atom -5585.871881 kJ/mol
# Density = 2.530180 g / cm^3
# Si number density = 25.359520 Si / 1000 Ang^3
#
#
#
# Elastic Constant Matrix: (Units=GPa)
#
#
# Indices 1 2 3 4 5 6 
#
# 1 196.9531 -6.5650 16.8833 0.0000 0.0000 0.0000
# 2 -6.5650 76.6787 -3.9591 0.0000 0.0000 0.0000
# 3 16.8833 -3.9591 33.5069 0.0000 0.0000 0.0000
# 4 0.0000 0.0000 0.0000 8.9606 0.0000 0.0000
# 5 0.0000 0.0000 0.0000 0.0000 35.1120 0.0000
# 6 0.0000 0.0000 0.0000 0.0000 0.0000 67.2131
#
#
#
# Elastic Compliance Matrix: (Units=1/GPa)
#
#
# Indices 1 2 3 4 5 6 
#
# 1 0.005314 0.000319 -0.002640 0.000000 0.000000 0.000000
# 2 0.000319 0.013141 0.001392 0.000000 0.000000 0.000000
# 3 -0.002640 0.001392 0.031339 0.000000 0.000000 0.000000
# 4 0.000000 0.000000 0.000000 0.111599 0.000000 0.000000
# 5 0.000000 0.000000 0.000000 0.000000 0.028480 0.000000
# 6 0.000000 0.000000 0.000000 0.000000 0.000000 0.014878
#
#
# Mechanical properties :
#
#
# Convention : Reuss Voigt Hill
#
# Bulk Modulus (GPa) = 20.86134 35.53969 28.20051
# Shear Modulus (GPa) = 22.46293 42.30911 32.38602
#
# Velocity S-wave (km/s) = 2.97943 4.08900 3.57750
# Velocity P-wave (km/s) = 4.48108 6.02810 5.31122
#
# Compressibility (1/GPa) = 0.04793557
#
# Stress axis : x y z
#
# Youngs Moduli (GPa) = 188.17194 76.10007 31.90878
#
# Poissons Ratio (x) = -0.02425 0.08424
# Poissons Ratio (y) = -0.05997 -0.04442
# Poissons Ratio (z) = 0.49679 -0.10594
#
# Static dielectric constant tensor:
#      x y z
#    x 2.086090 0.000000 0.000000 
#    y 0.000000 1.928350 0.000000 
#    z 0.000000 0.000000 2.007820 
# 
# From -- ./inp_files/23729.got.cif
#   From: 2010.05.17/outbox.cif.g08.bks.cpg/sg51_12_cif.got.tgz:23729.got - 2010.06.03 11:52:47.
