data_PCOD9399537
_publ_section_title
;
Structure prediction by ZEFSAII (Michael W. Deem and Ramdas Pophale) SiO2 
 PCOD9399537
Probable space group: P M M A
;
_chemical_formula_sum "Si O2"
_cell_formula_units_Z 56
_cell_length_a 8.453800
_cell_length_b 15.839174
_cell_length_c 21.068538
_cell_angle_alpha 90.000000
_cell_angle_beta 90.000000
_cell_angle_gamma 90.000000
_cell_volume 2821.102713
_symmetry_space_group_name_H-M "P M M A"
_symmetry_group_IT_number 51
_symmetry_cell_setting 'orthorhombic'
loop_
_space_group_symop_operation_xyz
x,y,z
1/2-x,-y,z
1/2+x,-y,-z
-x,y,-z
-x,-y,-z
1/2+x,y,-z
1/2-x,y,z
x,-y,z
loop_
_atom_site_type_symbol
_atom_site_label
_atom_site_fract_x
_atom_site_fract_y
_atom_site_fract_z
Si Si1 0.437050 0.591810 0.100466
Si Si2 0.560495 0.407019 0.624348
Si Si3 0.435836 0.173086 0.798073
Si Si4 0.438388 0.774410 0.932923
Si Si5 0.556298 0.905602 0.328735
Si Si6 0.060747 0.766766 0.569321
Si Si7 0.434785 0.369682 0.764030
O O1 0.250000 0.597915 0.088668
O O2 0.494702 0.500000 0.077430
O O3 0.518627 0.675159 0.073191
O O4 0.470441 0.595474 0.175928
O O5 0.750000 0.402955 0.623434
O O6 0.510918 0.500000 0.600601
O O7 0.494137 0.327573 0.586328
O O8 0.501504 0.397892 0.696807
O O9 0.250000 0.151157 0.805196
O O10 0.503113 0.179782 0.869334
O O11 0.501556 0.114024 0.742763
O O12 0.443082 0.268072 0.770081
O O13 0.250000 0.780427 0.931665
O O14 0.500000 0.806869 0.000000
O O15 0.750000 0.901923 0.327111
O O16 0.503871 0.833155 0.377371
O O17 0.511531 0.000000 0.348419
O O18 0.250000 0.767939 0.569856
O O19 0.000000 0.790669 0.500000
O O20 0.250000 0.393142 0.769820
#
# Coordination Sequence:
#
# PCOD9399537 Si02
#       7
#     8   8   8   8   8   8   8
#     4  10  20  32  46  69 103 141 185 237 289 340
#     4  11  23  37  55  81 113 152 198 244 290 338
#     4   8  15  30  52  80 109 140 181 227 274 330
#     4  10  20  33  51  73 103 142 187 234 284 345
#     4   9  17  33  61  93 119 145 184 233 284 343
#     4  11  23  40  61  86 118 155 192 234 288 344
#     4  10  18  31  52  78 109 146 189 235 285 339
#
# _framework density 19.850394000000001
#
# number of rings (size 3 to 8) (size 9 to 14) (size 15 to 20)
#    0.000    2.143    1.429    3.429    0.000    4.857 
#    0.000    0.000    0.000    1.714    0.000    0.000 
#    0.000    0.000    0.000    0.000    0.000    0.571 
#
# Total GULP energy -312539.493445 kJ/mol
# GULP energy per Si atom -5581.062383 kJ/mol
# Density = 1.980521 g / cm^3
# Si number density = 19.850394 Si / 1000 Ang^3
#
#
#
# Elastic Constant Matrix: (Units=GPa)
#
#
# Indices 1 2 3 4 5 6 
#
# 1 34.3535 14.8007 13.6166 0.0000 0.0000 0.0000
# 2 14.8007 82.6445 51.8881 0.0000 0.0000 0.0000
# 3 13.6166 51.8881 128.7301 0.0000 0.0000 0.0000
# 4 0.0000 0.0000 0.0000 -5.2522 0.0000 0.0000
# 5 0.0000 0.0000 0.0000 0.0000 29.6874 0.0000
# 6 0.0000 0.0000 0.0000 0.0000 0.0000 1.9135
#
#
#
# Elastic Compliance Matrix: (Units=1/GPa)
#
#
# Indices 1 2 3 4 5 6 
#
# 1 0.031738 -0.004788 -0.001427 0.000000 0.000000 0.000000
# 2 -0.004788 0.016922 -0.006314 0.000000 0.000000 0.000000
# 3 -0.001427 -0.006314 0.010464 0.000000 0.000000 0.000000
# 4 0.000000 0.000000 0.000000 -0.190398 0.000000 0.000000
# 5 0.000000 0.000000 0.000000 0.000000 0.033684 0.000000
# 6 0.000000 0.000000 0.000000 0.000000 0.000000 0.522613
#
#
# Mechanical properties :
#
#
# Convention : Reuss Voigt Hill
#
# Bulk Modulus (GPa) = 29.35559 45.14877 37.25218
# Shear Modulus (GPa) = 10.83572 16.29792 13.56682
#
# Velocity S-wave (km/s) = 2.33892 2.86848 2.61713
# Velocity P-wave (km/s) = 4.70261 5.81075 5.28580
#
# Compressibility (1/GPa) = 0.03406506
#
# Stress axis : x y z
#
# Youngs Moduli (GPa) = 31.50837 59.09488 95.56255
#
# Poissons Ratio (x) = 0.28293 0.13639
# Poissons Ratio (y) = 0.15085 0.60342
# Poissons Ratio (z) = 0.04497 0.37315
#
# Static dielectric constant tensor:
#      x y z
#    x 1.681920 0.000000 0.000000 
#    y 0.000000 1.707150 0.000000 
#    z 0.000000 0.000000 1.718990 
# 
# From -- ./inp_files/31973.got.cif
#   From: 2010.05.17/outbox.cif.g08.bks.cpg/sg51_16_cif.got.tgz:31973.got - 2010.06.03 11:52:47.
