data_PCOD9399036
_publ_section_title
;
Structure prediction by ZEFSAII (Michael W. Deem and Ramdas Pophale) SiO2 
 PCOD9399036
Probable space group: P M M A
;
_chemical_formula_sum "Si O2"
_cell_formula_units_Z 56
_cell_length_a 30.202906
_cell_length_b 7.522733
_cell_length_c 13.135160
_cell_angle_alpha 90.000000
_cell_angle_beta 90.000000
_cell_angle_gamma 90.000000
_cell_volume 2984.418657
_symmetry_space_group_name_H-M "P M M A"
_symmetry_group_IT_number 51
_symmetry_cell_setting 'orthorhombic'
loop_
_space_group_symop_operation_xyz
x,y,z
1/2-x,-y,z
1/2+x,-y,-z
-x,y,-z
-x,-y,-z
1/2+x,y,-z
1/2-x,y,z
x,-y,z
loop_
_atom_site_type_symbol
_atom_site_label
_atom_site_fract_x
_atom_site_fract_y
_atom_site_fract_z
Si Si1 0.701420 0.711036 0.869694
Si Si2 0.050286 0.213553 0.388232
Si Si3 0.608799 0.212418 0.194595
Si Si4 0.799255 0.785080 0.109307
Si Si5 0.050307 0.782543 0.618884
Si Si6 0.891955 0.711190 0.805449
Si Si7 0.550434 0.285912 0.995027
O O1 0.750000 0.785976 0.843940
O O2 0.703483 0.500000 0.849657
O O3 0.657815 0.783995 0.815012
O O4 0.694858 0.735069 0.990887
O O5 0.060787 0.273373 0.503219
O O6 0.085086 0.263797 0.302650
O O7 0.000448 0.273409 0.360077
O O8 0.048666 0.000000 0.391748
O O9 0.658227 0.280965 0.171479
O O10 0.583914 0.281054 0.294884
O O11 0.578094 0.244105 0.096228
O O12 0.612734 0.000000 0.206806
O O13 0.750000 0.724148 0.141086
O O14 0.799258 0.000000 0.113878
O O15 0.050722 0.000000 0.620740
O O16 0.888518 0.500000 0.823569
O O17 0.923237 0.781985 0.895993
O O18 0.548085 0.500000 0.987228
O O19 0.500000 0.219190 0.000000
#
# Coordination Sequence:
#
# PCOD9399036 Si02
#       7
#     8   8   8   8   8   8   8
#     4   9  17  30  47  64  86 120 155 184 219 268
#     4   9  17  31  50  66  86 119 157 191 223 261
#     4  10  18  29  47  67  89 117 150 186 223 270
#     4   9  17  28  43  66  92 115 144 185 227 265
#     4   8  16  31  48  67  88 116 156 194 222 259
#     4  10  19  30  44  66  94 118 146 185 226 270
#     4  10  20  31  42  63  97 126 144 176 227 273
#
# _framework density 18.764123000000001
#
# number of rings (size 3 to 8) (size 9 to 14) (size 15 to 20)
#    0.000    2.714    1.429    1.714    0.000    1.429 
#    0.000    2.143    0.000    0.857    0.000    2.000 
#    0.000    0.000    0.000    0.000    0.000    0.000 
#
# Total GULP energy -312345.085730 kJ/mol
# GULP energy per Si atom -5577.590817 kJ/mol
# Density = 1.872142 g / cm^3
# Si number density = 18.764123 Si / 1000 Ang^3
#
#
#
# Elastic Constant Matrix: (Units=GPa)
#
#
# Indices 1 2 3 4 5 6 
#
# 1 213.8314 5.6555 113.3842 0.0000 0.0000 0.0000
# 2 5.6555 46.2760 -5.2957 0.0000 0.0000 0.0000
# 3 113.3842 -5.2957 116.7958 0.0000 0.0000 0.0000
# 4 0.0000 0.0000 0.0000 18.8389 0.0000 0.0000
# 5 0.0000 0.0000 0.0000 0.0000 20.7813 0.0000
# 6 0.0000 0.0000 0.0000 0.0000 0.0000 1.7597
#
#
#
# Elastic Compliance Matrix: (Units=1/GPa)
#
#
# Indices 1 2 3 4 5 6 
#
# 1 0.009879 -0.002317 -0.009695 0.000000 0.000000 0.000000
# 2 -0.002317 0.022266 0.003259 0.000000 0.000000 0.000000
# 3 -0.009695 0.003259 0.018122 0.000000 0.000000 0.000000
# 4 0.000000 0.000000 0.000000 0.053082 0.000000 0.000000
# 5 0.000000 0.000000 0.000000 0.000000 0.048120 0.000000
# 6 0.000000 0.000000 0.000000 0.000000 0.000000 0.568269
#
#
# Mechanical properties :
#
#
# Convention : Reuss Voigt Hill
#
# Bulk Modulus (GPa) = 30.52568 67.15459 48.84013
# Shear Modulus (GPa) = 6.68303 25.81992 16.25147
#
# Velocity S-wave (km/s) = 1.88927 3.71351 2.94614
# Velocity P-wave (km/s) = 4.58939 7.36569 6.13661
#
# Compressibility (1/GPa) = 0.03275930
#
# Stress axis : x y z
#
# Youngs Moduli (GPa) = 101.22697 44.91248 55.18216
#
# Poissons Ratio (x) = 0.10405 0.53501
# Poissons Ratio (y) = 0.23452 -0.17982
# Poissons Ratio (z) = 0.98142 -0.14636
#
# Static dielectric constant tensor:
#      x y z
#    x 1.682360 0.000000 0.000000 
#    y 0.000000 1.696010 0.000000 
#    z 0.000000 0.000000 1.611410 
# 
# From -- ./inp_files/19165.got.cif
#   From: 2010.05.17/outbox.cif.g08.bks.cpg/sg51_10_cif.got.tgz:19165.got - 2010.06.03 11:52:47.
