data_PCOD9399084
_publ_section_title
;
Structure prediction by ZEFSAII (Michael W. Deem and Ramdas Pophale) SiO2 
 PCOD9399084
Probable space group: P M M A
;
_chemical_formula_sum "Si O2"
_cell_formula_units_Z 64
_cell_length_a 21.495150
_cell_length_b 7.901919
_cell_length_c 18.301450
_cell_angle_alpha 90.000000
_cell_angle_beta 90.000000
_cell_angle_gamma 90.000000
_cell_volume 3108.554982
_symmetry_space_group_name_H-M "P M M A"
_symmetry_group_IT_number 51
_symmetry_cell_setting 'orthorhombic'
loop_
_space_group_symop_operation_xyz
x,y,z
1/2-x,-y,z
1/2+x,-y,-z
-x,y,-z
-x,-y,-z
1/2+x,y,-z
1/2-x,y,z
x,-y,z
loop_
_atom_site_type_symbol
_atom_site_label
_atom_site_fract_x
_atom_site_fract_y
_atom_site_fract_z
Si Si1 0.388311 0.294967 0.784418
Si Si2 0.683057 0.297819 0.527564
Si Si3 0.465028 0.794340 0.201974
Si Si4 0.471818 0.191826 0.575481
Si Si5 0.848493 0.309820 0.369612
Si Si6 0.902511 0.812300 0.659830
Si Si7 0.564154 0.795705 0.961656
Si Si8 0.821902 0.703539 0.065819
O O1 0.385435 0.500000 0.781261
O O2 0.461858 0.250152 0.786640
O O3 0.352657 0.230694 0.711122
O O4 0.353031 0.236686 0.857682
O O5 0.750000 0.245782 0.556703
O O6 0.680866 0.500000 0.517882
O O7 0.677616 0.228696 0.444432
O O8 0.633757 0.258390 0.590097
O O9 0.415967 0.726444 0.262460
O O10 0.442261 0.740221 0.122137
O O11 0.462558 0.000000 0.206034
O O12 0.500000 0.255179 0.500000
O O13 0.420628 0.312504 0.607520
O O14 0.527187 0.175159 0.631408
O O15 0.446757 0.000000 0.561896
O O16 0.822809 0.500000 0.362044
O O17 0.876058 0.000000 0.672108
O O18 0.562762 0.000000 0.962888
O O19 0.500000 0.735834 0.000000
O O20 0.627336 0.744737 0.003210
O O21 0.750000 0.763927 0.055924
O O22 0.818682 0.500000 0.070202
#
# Coordination Sequence:
#
# PCOD9399084 Si02
#       8
#     8   8   8   8   8   8   8   8
#     4  10  20  33  53  83 114 145 181 221 270 329
#     4  10  22  38  53  71 101 144 189 229 269 315
#     4  10  20  35  56  85 115 140 174 225 281 333
#     4  10  18  29  48  75 103 131 166 212 266 314
#     4  10  20  32  50  77 106 137 176 220 264 313
#     4  10  20  34  54  78 105 138 174 219 272 322
#     4  10  20  36  61  89 114 145 187 233 281 334
#     4  10  22  39  58  83 117 154 188 224 273 335
#
# _framework density 20.588343999999999
#
# number of rings (size 3 to 8) (size 9 to 14) (size 15 to 20)
#    0.000    2.000    3.750    0.000    0.000    3.000 
#    0.000    3.125    0.000    3.750    0.000    3.500 
#    0.000    0.000    0.000    0.000    0.000    0.000 
#
# Total GULP energy -356359.500977 kJ/mol
# GULP energy per Si atom -5568.117203 kJ/mol
# Density = 2.054148 g / cm^3
# Si number density = 20.588344 Si / 1000 Ang^3
#
#
#
# Elastic Constant Matrix: (Units=GPa)
#
#
# Indices 1 2 3 4 5 6 
#
# 1 123.4691 10.5646 63.9118 0.0000 0.0000 0.0000
# 2 10.5646 21.6162 7.1639 0.0000 0.0000 0.0000
# 3 63.9118 7.1639 180.5888 0.0000 0.0000 0.0000
# 4 0.0000 0.0000 0.0000 43.2507 0.0000 0.0000
# 5 0.0000 0.0000 0.0000 0.0000 1.3525 0.0000
# 6 0.0000 0.0000 0.0000 0.0000 0.0000 21.7195
#
#
#
# Elastic Compliance Matrix: (Units=1/GPa)
#
#
# Indices 1 2 3 4 5 6 
#
# 1 0.010222 -0.003847 -0.003465 0.000000 0.000000 0.000000
# 2 -0.003847 0.048326 -0.000555 0.000000 0.000000 0.000000
# 3 -0.003465 -0.000555 0.006786 0.000000 0.000000 0.000000
# 4 0.000000 0.000000 0.000000 0.023121 0.000000 0.000000
# 5 0.000000 0.000000 0.000000 0.000000 0.739376 0.000000
# 6 0.000000 0.000000 0.000000 0.000000 0.000000 0.046042
#
#
# Mechanical properties :
#
#
# Convention : Reuss Voigt Hill
#
# Bulk Modulus (GPa) = 20.16211 54.32827 37.24519
# Shear Modulus (GPa) = 5.51791 29.53346 17.52568
#
# Velocity S-wave (km/s) = 1.63888 3.79155 2.92077
# Velocity P-wave (km/s) = 3.65998 6.75374 5.43178
#
# Compressibility (1/GPa) = 0.04959797
#
# Stress axis : x y z
#
# Youngs Moduli (GPa) = 97.82806 20.69278 147.36720
#
# Poissons Ratio (x) = 0.07962 0.51063
# Poissons Ratio (y) = 0.37639 0.08185
# Poissons Ratio (z) = 0.33898 0.01149
#
# Static dielectric constant tensor:
#      x y z
#    x 1.736160 0.000000 0.000000 
#    y 0.000000 1.802770 0.000000 
#    z 0.000000 0.000000 1.808230 
# 
# From -- ./inp_files/30575.got.cif
#   From: 2010.05.17/outbox.cif.g08.bks.cpg/sg51_16_cif.got.tgz:30575.got - 2010.06.03 11:52:47.
