data_PCOD9399645
_publ_section_title
;
Structure prediction by ZEFSAII (Michael W. Deem and Ramdas Pophale) SiO2 
 PCOD9399645
Probable space group: P M M A
;
_chemical_formula_sum "Si O2"
_cell_formula_units_Z 48
_cell_length_a 14.464696
_cell_length_b 26.103215
_cell_length_c 5.414933
_cell_angle_alpha 90.000000
_cell_angle_beta 90.000000
_cell_angle_gamma 90.000000
_cell_volume 2044.543704
_symmetry_space_group_name_H-M "P M M A"
_symmetry_group_IT_number 51
_symmetry_cell_setting 'orthorhombic'
loop_
_space_group_symop_operation_xyz
x,y,z
1/2-x,-y,z
1/2+x,-y,-z
-x,y,-z
-x,-y,-z
1/2+x,y,-z
1/2-x,y,z
x,-y,z
loop_
_atom_site_type_symbol
_atom_site_label
_atom_site_fract_x
_atom_site_fract_y
_atom_site_fract_z
Si Si1 0.137248 0.217598 0.623516
Si Si2 0.892424 0.059919 0.782190
Si Si3 0.397852 0.100770 0.717575
Si Si4 0.887978 0.441123 0.473673
Si Si5 0.361715 0.724865 0.123388
Si Si6 0.106759 0.606531 0.026760
O O1 0.250000 0.214878 0.619930
O O2 0.100556 0.160086 0.646564
O O3 0.107376 0.246474 0.373143
O O4 0.108755 0.247312 0.871485
O O5 0.852549 0.072067 0.513368
O O6 0.999538 0.077182 0.750410
O O7 0.886475 0.000000 0.838039
O O8 0.854432 0.091655 0.013579
O O9 0.865827 0.500000 0.418339
O O10 0.855570 0.405841 0.245921
O O11 0.000000 0.437005 0.500000
O O12 0.852775 0.424266 0.742177
O O13 0.250000 0.725847 0.128177
O O14 0.389808 0.665848 0.101961
O O15 0.000000 0.590748 0.000000
#
# Coordination Sequence:
#
# PCOD9399645 Si02
#       6
#     8   8   8   8   8   8
#     4  10  21  37  55  73 100 138 181 216 252 311
#     4  10  19  33  54  77 106 137 163 204 259 319
#     4  10  18  32  52  76 100 130 171 208 251 301
#     4   9  17  30  52  78 107 138 171 211 265 321
#     4  10  21  38  55  73 102 147 180 210 267 325
#     4  10  19  33  52  79 106 133 175 222 262 301
#
# _framework density 23.477122000000001
#
# number of rings (size 3 to 8) (size 9 to 14) (size 15 to 20)
#    0.000    2.167    0.000    5.000    0.000    2.000 
#    9.000    0.000    0.000    8.500    0.000    0.000 
#    0.000    0.000    0.000    0.000    0.000    0.000 
#
# Total GULP energy -268313.737570 kJ/mol
# GULP energy per Si atom -5589.869533 kJ/mol
# Density = 2.342369 g / cm^3
# Si number density = 23.477122 Si / 1000 Ang^3
#
#
#
# Elastic Constant Matrix: (Units=GPa)
#
#
# Indices 1 2 3 4 5 6 
#
# 1 84.2076 -16.4781 17.5837 0.0000 0.0000 0.0000
# 2 -16.4781 103.3174 70.3395 0.0000 0.0000 0.0000
# 3 17.5837 70.3395 246.1782 0.0000 0.0000 0.0000
# 4 0.0000 0.0000 0.0000 54.1513 0.0000 0.0000
# 5 0.0000 0.0000 0.0000 0.0000 -13.5243 0.0000
# 6 0.0000 0.0000 0.0000 0.0000 0.0000 127.1597
#
#
#
# Elastic Compliance Matrix: (Units=1/GPa)
#
#
# Indices 1 2 3 4 5 6 
#
# 1 0.012921 0.003338 -0.001877 0.000000 0.000000 0.000000
# 2 0.003338 0.012879 -0.003918 0.000000 0.000000 0.000000
# 3 -0.001877 -0.003918 0.005316 0.000000 0.000000 0.000000
# 4 0.000000 0.000000 0.000000 0.018467 0.000000 0.000000
# 5 0.000000 0.000000 0.000000 0.000000 -0.073941 0.000000
# 6 0.000000 0.000000 0.000000 0.000000 0.000000 0.007864
#
#
# Mechanical properties :
#
#
# Convention : Reuss Voigt Hill
#
# Bulk Modulus (GPa) = 38.16509 64.06593 51.11551
# Shear Modulus (GPa) = -1755.82068 57.70790 -849.05639
#
# Velocity S-wave (km/s) = -27.37717 4.96325 -19.03780
# Velocity P-wave (km/s) = 31.35370 7.75842 21.48094
#
# Compressibility (1/GPa) = 0.02620196
#
# Stress axis : x y z
#
# Youngs Moduli (GPa) = 77.39598 77.64596 188.12170
#
# Poissons Ratio (x) = -0.25921 0.35306
# Poissons Ratio (y) = -0.25838 0.73712
# Poissons Ratio (z) = 0.14525 0.30424
#
# Static dielectric constant tensor:
#      x y z
#    x 1.888420 0.000000 0.000000 
#    y 0.000000 1.806440 0.000000 
#    z 0.000000 0.000000 1.939640 
# 
# From -- ./inp_files/1441.got.cif
#   From: 2010.05.17/outbox.cif.g08.bks.cpg/sg51_1_cif.got.tgz:1441.got - 2010.06.03 11:52:47.
