data_PCOD9399289
_publ_section_title
;
Structure prediction by ZEFSAII (Michael W. Deem and Ramdas Pophale) SiO2 
 PCOD9399289
Probable space group: P M M A
;
_chemical_formula_sum "Si O2"
_cell_formula_units_Z 48
_cell_length_a 8.646830
_cell_length_b 31.927984
_cell_length_c 9.317140
_cell_angle_alpha 90.000000
_cell_angle_beta 90.000000
_cell_angle_gamma 90.000000
_cell_volume 2572.237344
_symmetry_space_group_name_H-M "P M M A"
_symmetry_group_IT_number 51
_symmetry_cell_setting 'orthorhombic'
loop_
_space_group_symop_operation_xyz
x,y,z
1/2-x,-y,z
1/2+x,-y,-z
-x,y,-z
-x,-y,-z
1/2+x,y,-z
1/2-x,y,z
x,-y,z
loop_
_atom_site_type_symbol
_atom_site_label
_atom_site_fract_x
_atom_site_fract_y
_atom_site_fract_z
Si Si1 0.563838 0.086558 0.338789
Si Si2 0.564014 0.421296 0.838514
Si Si3 0.565162 0.000000 0.663551
Si Si4 0.936115 0.832795 0.159331
Si Si5 0.435151 0.661744 0.340145
Si Si6 0.064879 0.500000 0.661653
Si Si7 0.935819 0.261339 0.161272
O O1 0.500000 0.089393 0.500000
O O2 0.750000 0.084026 0.341708
O O3 0.497703 0.043447 0.272431
O O4 0.513835 0.128353 0.256124
O O5 0.750000 0.424902 0.842146
O O6 0.522420 0.377969 0.758939
O O7 0.495188 0.459451 0.747119
O O8 0.500000 0.421915 0.000000
O O9 0.500000 0.000000 0.500000
O O10 0.750000 0.000000 0.660210
O O11 0.750000 0.833469 0.154766
O O12 0.981656 0.785922 0.207875
O O13 0.000000 0.838259 0.000000
O O14 0.500000 0.656476 0.500000
O O15 0.250000 0.663945 0.346659
O O16 0.499509 0.703575 0.266483
O O17 0.250000 0.500000 0.657356
O O18 0.000000 0.500000 0.500000
O O19 0.750000 0.263834 0.156848
O O20 0.000000 0.267769 0.000000
#
# Coordination Sequence:
#
# PCOD9399289 Si02
#       7
#     8   8   4   8   8   4   8
#     4  10  19  33  52  76 104 136 175 219 267 320
#     4  11  24  42  64  90 121 157 198 239 285 339
#     4  10  18  30  49  74 101 134 174 216 266 320
#     4   9  20  36  55  79 108 142 180 222 271 325
#     4  11  24  40  60  87 118 153 191 236 286 336
#     4  12  25  42  65  92 124 158 196 242 293 342
#     4  10  20  37  59  83 112 147 187 230 277 333
#
# _framework density 18.660796999999999
#
# number of rings (size 3 to 8) (size 9 to 14) (size 15 to 20)
#    0.000    1.667    0.000    5.750    0.000    8.000 
#    0.000    2.083    0.000    0.000    0.000    0.000 
#    0.000    0.000    0.000    0.000    0.000    0.000 
#
# Total GULP energy -268156.998297 kJ/mol
# GULP energy per Si atom -5586.604131 kJ/mol
# Density = 1.861832 g / cm^3
# Si number density = 18.660797 Si / 1000 Ang^3
#
#
#
# Elastic Constant Matrix: (Units=GPa)
#
#
# Indices 1 2 3 4 5 6 
#
# 1 75.7750 67.9947 46.2506 0.0000 0.0000 0.0000
# 2 67.9947 204.5237 108.8957 0.0000 0.0000 0.0000
# 3 46.2506 108.8957 127.8982 0.0000 0.0000 0.0000
# 4 0.0000 0.0000 0.0000 31.6794 0.0000 0.0000
# 5 0.0000 0.0000 0.0000 0.0000 33.6919 0.0000
# 6 0.0000 0.0000 0.0000 0.0000 0.0000 29.8639
#
#
#
# Elastic Compliance Matrix: (Units=1/GPa)
#
#
# Indices 1 2 3 4 5 6 
#
# 1 0.019333 -0.004948 -0.002778 0.000000 0.000000 0.000000
# 2 -0.004948 0.010210 -0.006904 0.000000 0.000000 0.000000
# 3 -0.002778 -0.006904 0.014702 0.000000 0.000000 0.000000
# 4 0.000000 0.000000 0.000000 0.031566 0.000000 0.000000
# 5 0.000000 0.000000 0.000000 0.000000 0.029681 0.000000
# 6 0.000000 0.000000 0.000000 0.000000 0.000000 0.033485
#
#
# Mechanical properties :
#
#
# Convention : Reuss Voigt Hill
#
# Bulk Modulus (GPa) = 66.73733 94.94209 80.83971
# Shear Modulus (GPa) = 28.86300 31.38410 30.12355
#
# Velocity S-wave (km/s) = 3.93710 4.10545 4.02216
# Velocity P-wave (km/s) = 7.51723 8.57095 8.06133
#
# Compressibility (1/GPa) = 0.01498412
#
# Stress axis : x y z
#
# Youngs Moduli (GPa) = 51.72591 97.93986 68.01954
#
# Poissons Ratio (x) = 0.48461 0.18897
# Poissons Ratio (y) = 0.25594 0.46961
# Poissons Ratio (z) = 0.14371 0.67618
#
# Static dielectric constant tensor:
#      x y z
#    x 1.628580 0.000000 0.000000 
#    y 0.000000 1.666960 0.000000 
#    z 0.000000 0.000000 1.602590 
# 
# From -- ./inp_files/6132.got.cif
#   From: 2010.05.17/outbox.cif.g08.bks.cpg/sg51_4_cif.got.tgz:6132.got - 2010.06.03 11:52:47.
