data_PCOD9399249
_publ_section_title
;
Structure prediction by ZEFSAII (Michael W. Deem and Ramdas Pophale) SiO2 
 PCOD9399249
Probable space group: P M M A
;
_chemical_formula_sum "Si O2"
_cell_formula_units_Z 48
_cell_length_a 21.253746
_cell_length_b 8.257947
_cell_length_c 15.421203
_cell_angle_alpha 90.000000
_cell_angle_beta 90.000000
_cell_angle_gamma 90.000000
_cell_volume 2706.610931
_symmetry_space_group_name_H-M "P M M A"
_symmetry_group_IT_number 51
_symmetry_cell_setting 'orthorhombic'
loop_
_space_group_symop_operation_xyz
x,y,z
1/2-x,-y,z
1/2+x,-y,-z
-x,y,-z
-x,-y,-z
1/2+x,y,-z
1/2-x,y,z
x,-y,z
loop_
_atom_site_type_symbol
_atom_site_label
_atom_site_fract_x
_atom_site_fract_y
_atom_site_fract_z
Si Si1 0.845633 0.688462 0.185032
Si Si2 0.479095 0.811479 0.772137
Si Si3 0.458268 0.696505 0.581777
Si Si4 0.681823 0.302942 0.381445
Si Si5 0.949507 0.308853 0.927537
Si Si6 0.818769 0.189909 0.999417
O O1 0.829288 0.500000 0.173030
O O2 0.920788 0.708288 0.190714
O O3 0.821938 0.741509 0.279555
O O4 0.821919 0.786132 0.103081
O O5 0.486184 0.760698 0.672300
O O6 0.536418 0.776602 0.836327
O O7 0.462039 0.000000 0.776143
O O8 0.500000 0.747290 0.500000
O O9 0.458583 0.500000 0.585600
O O10 0.384663 0.749414 0.577311
O O11 0.750000 0.248434 0.416327
O O12 0.681440 0.500000 0.384461
O O13 0.959567 0.500000 0.916799
O O14 0.879217 0.277632 0.960383
O O15 0.000000 0.249746 0.000000
O O16 0.750000 0.249196 0.969742
O O17 0.823879 0.000000 0.979652
#
# Coordination Sequence:
#
# PCOD9399249 Si02
#       6
#     8   8   8   8   8   8
#     4  10  18  30  48  72 102 137 174 209 255 316
#     4  11  21  33  53  78 105 136 172 220 271 320
#     4   9  18  33  53  76 103 134 171 216 262 315
#     4   8  14  25  44  70  98 127 161 202 250 304
#     4  11  22  36  56  78 102 139 185 225 259 311
#     4  11  23  35  49  74 108 143 178 220 270 320
#
# _framework density 17.734355999999998
#
# number of rings (size 3 to 8) (size 9 to 14) (size 15 to 20)
#    0.000    2.000    1.667    4.500    0.000    3.000 
#    0.000    0.000    0.000    5.500    0.000    2.333 
#    0.000    0.000    0.000    0.000    0.000    0.000 
#
# Total GULP energy -267759.843522 kJ/mol
# GULP energy per Si atom -5578.330073 kJ/mol
# Density = 1.769399 g / cm^3
# Si number density = 17.734356 Si / 1000 Ang^3
#
#
#
# Elastic Constant Matrix: (Units=GPa)
#
#
# Indices 1 2 3 4 5 6 
#
# 1 132.1677 9.6682 63.4081 0.0000 0.0000 0.0000
# 2 9.6682 28.6112 11.7845 0.0000 0.0000 0.0000
# 3 63.4081 11.7845 83.3564 0.0000 0.0000 0.0000
# 4 0.0000 0.0000 0.0000 9.3182 0.0000 0.0000
# 5 0.0000 0.0000 0.0000 0.0000 15.1905 0.0000
# 6 0.0000 0.0000 0.0000 0.0000 0.0000 1.2833
#
#
#
# Elastic Compliance Matrix: (Units=1/GPa)
#
#
# Indices 1 2 3 4 5 6 
#
# 1 0.011917 -0.000311 -0.009021 0.000000 0.000000 0.000000
# 2 -0.000311 0.037121 -0.005011 0.000000 0.000000 0.000000
# 3 -0.009021 -0.005011 0.019567 0.000000 0.000000 0.000000
# 4 0.000000 0.000000 0.000000 0.107317 0.000000 0.000000
# 5 0.000000 0.000000 0.000000 0.000000 0.065831 0.000000
# 6 0.000000 0.000000 0.000000 0.000000 0.000000 0.779246
#
#
# Mechanical properties :
#
#
# Convention : Reuss Voigt Hill
#
# Bulk Modulus (GPa) = 25.05145 45.98410 35.51778
# Shear Modulus (GPa) = 4.70371 15.77670 10.24021
#
# Velocity S-wave (km/s) = 1.63036 2.98587 2.40557
# Velocity P-wave (km/s) = 4.20722 6.15410 5.27132
#
# Compressibility (1/GPa) = 0.03991784
#
# Stress axis : x y z
#
# Youngs Moduli (GPa) = 83.91564 26.93927 51.10594
#
# Poissons Ratio (x) = 0.00839 0.46102
# Poissons Ratio (y) = 0.02612 0.25610
# Poissons Ratio (z) = 0.75699 0.13500
#
# Static dielectric constant tensor:
#      x y z
#    x 1.656240 0.000000 0.000000 
#    y 0.000000 1.594300 0.000000 
#    z 0.000000 0.000000 1.583770 
# 
# From -- ./inp_files/25435.got.cif
#   From: 2010.05.17/outbox.cif.g08.bks.cpg/sg51_13_cif.got.tgz:25435.got - 2010.06.03 11:52:47.
