data_PCOD9399079
_publ_section_title
;
Structure prediction by ZEFSAII (Michael W. Deem and Ramdas Pophale) SiO2 
 PCOD9399079
Probable space group: P M M A
;
_chemical_formula_sum "Si O2"
_cell_formula_units_Z 48
_cell_length_a 8.746147
_cell_length_b 16.716387
_cell_length_c 18.930329
_cell_angle_alpha 90.000000
_cell_angle_beta 90.000000
_cell_angle_gamma 90.000000
_cell_volume 2767.689405
_symmetry_space_group_name_H-M "P M M A"
_symmetry_group_IT_number 51
_symmetry_cell_setting 'orthorhombic'
loop_
_space_group_symop_operation_xyz
x,y,z
1/2-x,-y,z
1/2+x,-y,-z
-x,y,-z
-x,-y,-z
1/2+x,y,-z
1/2-x,y,z
x,-y,z
loop_
_atom_site_type_symbol
_atom_site_label
_atom_site_fract_x
_atom_site_fract_y
_atom_site_fract_z
Si Si1 0.934891 0.409618 0.217334
Si Si2 0.068170 0.163899 0.422124
Si Si3 0.067215 0.675505 0.924556
Si Si4 0.066266 0.000000 0.080127
Si Si5 0.067789 0.000000 0.579343
Si Si6 0.932162 0.747601 0.717443
Si Si7 0.934089 0.159866 0.151309
O O1 0.750000 0.404551 0.221862
O O2 0.981278 0.500000 0.234207
O O3 0.978715 0.385401 0.137296
O O4 0.006103 0.340167 0.264623
O O5 0.250000 0.153189 0.429722
O O6 0.036076 0.230405 0.363702
O O7 0.000000 0.178868 0.500000
O O8 0.996724 0.082217 0.390760
O O9 0.250000 0.674130 0.928768
O O10 0.023620 0.765093 0.899416
O O11 0.000000 0.656134 0.000000
O O12 0.007911 0.078914 0.121635
O O13 0.250000 0.000000 0.076783
O O14 0.000000 0.000000 0.000000
O O15 0.000000 0.000000 0.500000
O O16 0.250000 0.000000 0.578269
O O17 0.750000 0.751407 0.728527
O O18 0.009394 0.810478 0.771760
O O19 0.750000 0.151933 0.152012
#
# Coordination Sequence:
#
# PCOD9399079 Si02
#       7
#     8   8   8   4   4   8   8
#     4   9  19  36  55  75 102 136 172 210 256 315
#     4  10  20  34  53  78 109 141 174 213 258 308
#     4   9  18  31  49  73 100 130 165 207 254 303
#     4  12  24  37  54  77 107 143 185 231 272 311
#     4  10  18  29  48  73 102 135 169 203 241 287
#     4  10  21  36  55  80 107 135 170 217 267 314
#     4  10  21  37  54  73 101 140 182 221 263 313
#
# _framework density 17.342986
#
# number of rings (size 3 to 8) (size 9 to 14) (size 15 to 20)
#    0.000    2.167    0.000    5.500    0.000    8.667 
#    0.000    0.833    0.000    0.500    0.000    0.000 
#    0.000    0.000    0.000    0.000    0.000    0.000 
#
# Total GULP energy -267773.125634 kJ/mol
# GULP energy per Si atom -5578.606784 kJ/mol
# Density = 1.730351 g / cm^3
# Si number density = 17.342986 Si / 1000 Ang^3
#
#
#
# Elastic Constant Matrix: (Units=GPa)
#
#
# Indices 1 2 3 4 5 6 
#
# 1 71.5352 54.1921 51.1892 0.0000 0.0000 0.0000
# 2 54.1921 135.0245 70.1168 0.0000 0.0000 0.0000
# 3 51.1892 70.1168 107.6189 0.0000 0.0000 0.0000
# 4 0.0000 0.0000 0.0000 10.5794 0.0000 0.0000
# 5 0.0000 0.0000 0.0000 0.0000 27.7610 0.0000
# 6 0.0000 0.0000 0.0000 0.0000 0.0000 26.2651
#
#
#
# Elastic Compliance Matrix: (Units=1/GPa)
#
#
# Indices 1 2 3 4 5 6 
#
# 1 0.023627 -0.005511 -0.007647 0.000000 0.000000 0.000000
# 2 -0.005511 0.012479 -0.005509 0.000000 0.000000 0.000000
# 3 -0.007647 -0.005509 0.016519 0.000000 0.000000 0.000000
# 4 0.000000 0.000000 0.000000 0.094524 0.000000 0.000000
# 5 0.000000 0.000000 0.000000 0.000000 0.036022 0.000000
# 6 0.000000 0.000000 0.000000 0.000000 0.000000 0.038073
#
#
# Mechanical properties :
#
#
# Convention : Reuss Voigt Hill
#
# Bulk Modulus (GPa) = 65.40588 73.90833 69.65711
# Shear Modulus (GPa) = 18.96285 22.16646 20.56465
#
# Velocity S-wave (km/s) = 3.31025 3.57896 3.44723
# Velocity P-wave (km/s) = 7.23916 7.73219 7.48973
#
# Compressibility (1/GPa) = 0.01528914
#
# Stress axis : x y z
#
# Youngs Moduli (GPa) = 42.32532 80.13664 60.53807
#
# Poissons Ratio (x) = 0.44167 0.46295
# Poissons Ratio (y) = 0.23327 0.33349
# Poissons Ratio (z) = 0.32367 0.44145
#
# Static dielectric constant tensor:
#      x y z
#    x 1.585680 0.000000 0.000000 
#    y 0.000000 1.594820 0.000000 
#    z 0.000000 0.000000 1.562590 
# 
# From -- ./inp_files/27679.got.cif
#   From: 2010.05.17/outbox.cif.g08.bks.cpg/sg51_14_cif.got.tgz:27679.got - 2010.06.03 11:52:47.
