data_PCOD9399664
_publ_section_title
;
Structure prediction by ZEFSAII (Michael W. Deem and Ramdas Pophale) SiO2 
 PCOD9399664
Probable space group: P M M A
;
_chemical_formula_sum "Si O2"
_cell_formula_units_Z 56
_cell_length_a 19.156036
_cell_length_b 7.498983
_cell_length_c 17.468821
_cell_angle_alpha 90.000000
_cell_angle_beta 90.000000
_cell_angle_gamma 90.000000
_cell_volume 2509.409908
_symmetry_space_group_name_H-M "P M M A"
_symmetry_group_IT_number 51
_symmetry_cell_setting 'orthorhombic'
loop_
_space_group_symop_operation_xyz
x,y,z
1/2-x,-y,z
1/2+x,-y,-z
-x,y,-z
-x,-y,-z
1/2+x,y,-z
1/2-x,y,z
x,-y,z
loop_
_atom_site_type_symbol
_atom_site_label
_atom_site_fract_x
_atom_site_fract_y
_atom_site_fract_z
Si Si1 0.331407 0.784004 0.764626
Si Si2 0.329551 0.215651 0.446830
Si Si3 0.106169 0.206564 0.605093
Si Si4 0.446381 0.718215 0.169031
Si Si5 0.918274 0.705426 0.085820
Si Si6 0.670435 0.281909 0.942602
Si Si7 0.459056 0.709211 0.342272
O O1 0.250000 0.738031 0.766102
O O2 0.365766 0.718758 0.685467
O O3 0.371011 0.711204 0.838307
O O4 0.337499 0.000000 0.768037
O O5 0.250000 0.276487 0.435264
O O6 0.360465 0.282487 0.528022
O O7 0.384417 0.265527 0.381460
O O8 0.328525 0.000000 0.448978
O O9 0.022419 0.213339 0.607950
O O10 0.128126 0.000000 0.606018
O O11 0.449451 0.500000 0.170761
O O12 0.507531 0.781789 0.112170
O O13 0.372150 0.767478 0.133363
O O14 0.459128 0.780736 0.255495
O O15 0.932334 0.500000 0.064478
O O16 0.874432 0.781764 0.015520
O O17 0.750000 0.220196 0.944767
O O18 0.672410 0.500000 0.945746
O O19 0.473783 0.500000 0.338137
#
# Coordination Sequence:
#
# PCOD9399664 Si02
#       7
#     8   8   8   8   8   8   8
#     4  10  20  33  52  79 110 142 174 215 270 327
#     4  10  22  40  60  81 107 143 187 230 270 319
#     4  10  20  37  59  80 106 143 185 224 265 322
#     4   9  18  32  50  75 109 144 177 218 269 323
#     4  10  18  32  53  78 106 137 178 223 269 320
#     4   9  17  29  49  77 105 138 182 227 267 313
#     4  11  22  36  56  84 114 145 180 223 277 330
#
# _framework density 22.316004
#
# number of rings (size 3 to 8) (size 9 to 14) (size 15 to 20)
#    0.000    2.143    1.429    2.143    0.000    7.429 
#    0.000    1.429    0.000    6.000    0.000    2.000 
#    0.000    0.000    0.000    0.000    0.000    0.000 
#
# Total GULP energy -312967.891869 kJ/mol
# GULP energy per Si atom -5588.712355 kJ/mol
# Density = 2.226521 g / cm^3
# Si number density = 22.316004 Si / 1000 Ang^3
#
#
#
# Elastic Constant Matrix: (Units=GPa)
#
#
# Indices 1 2 3 4 5 6 
#
# 1 138.6088 -9.4426 37.4787 0.0000 0.0000 0.0000
# 2 -9.4426 61.6935 -3.6637 0.0000 0.0000 0.0000
# 3 37.4787 -3.6637 43.8184 0.0000 0.0000 0.0000
# 4 0.0000 0.0000 0.0000 16.3954 0.0000 0.0000
# 5 0.0000 0.0000 0.0000 0.0000 16.0835 0.0000
# 6 0.0000 0.0000 0.0000 0.0000 0.0000 8.9279
#
#
#
# Elastic Compliance Matrix: (Units=1/GPa)
#
#
# Indices 1 2 3 4 5 6 
#
# 1 0.009442 0.000970 -0.007995 0.000000 0.000000 0.000000
# 2 0.000970 0.016390 0.000540 0.000000 0.000000 0.000000
# 3 -0.007995 0.000540 0.029705 0.000000 0.000000 0.000000
# 4 0.000000 0.000000 0.000000 0.060993 0.000000 0.000000
# 5 0.000000 0.000000 0.000000 0.000000 0.062176 0.000000
# 6 0.000000 0.000000 0.000000 0.000000 0.000000 0.112009
#
#
# Mechanical properties :
#
#
# Convention : Reuss Voigt Hill
#
# Bulk Modulus (GPa) = 23.49155 32.54060 28.01607
# Shear Modulus (GPa) = 15.72957 22.93125 19.33041
#
# Velocity S-wave (km/s) = 2.65779 3.20905 2.94634
# Velocity P-wave (km/s) = 4.46857 5.32391 4.91488
#
# Compressibility (1/GPa) = 0.04256851
#
# Stress axis : x y z
#
# Youngs Moduli (GPa) = 105.90421 61.01361 33.66431
#
# Poissons Ratio (x) = -0.05921 0.26915
# Poissons Ratio (y) = -0.10277 -0.01819
# Poissons Ratio (z) = 0.84672 -0.03297
#
# Static dielectric constant tensor:
#      x y z
#    x 1.787670 0.000000 0.000000 
#    y 0.000000 2.013380 0.000000 
#    z 0.000000 0.000000 1.792300 
# 
# From -- ./inp_files/25716.got.cif
#   From: 2010.05.17/outbox.cif.g08.bks.cpg/sg51_13_cif.got.tgz:25716.got - 2010.06.03 11:52:47.
