data_PCOD9399207
_publ_section_title
;
Structure prediction by ZEFSAII (Michael W. Deem and Ramdas Pophale) SiO2 
 PCOD9399207
Probable space group: P M M A
;
_chemical_formula_sum "Si O2"
_cell_formula_units_Z 56
_cell_length_a 8.686168
_cell_length_b 19.092755
_cell_length_c 19.644900
_cell_angle_alpha 90.000000
_cell_angle_beta 90.000000
_cell_angle_gamma 90.000000
_cell_volume 3257.966744
_symmetry_space_group_name_H-M "P M M A"
_symmetry_group_IT_number 51
_symmetry_cell_setting 'orthorhombic'
loop_
_space_group_symop_operation_xyz
x,y,z
1/2-x,-y,z
1/2+x,-y,-z
-x,y,-z
-x,-y,-z
1/2+x,y,-z
1/2-x,y,z
x,-y,z
loop_
_atom_site_type_symbol
_atom_site_label
_atom_site_fract_x
_atom_site_fract_y
_atom_site_fract_z
Si Si1 0.933722 0.649282 0.428278
Si Si2 0.064744 0.193111 0.428310
Si Si3 0.434233 0.150723 0.281899
Si Si4 0.565917 0.215648 0.074640
Si Si5 0.434409 0.707430 0.200427
Si Si6 0.435652 0.419745 0.294105
Si Si7 0.435279 0.922350 0.845911
O O1 0.750000 0.652860 0.431591
O O2 0.000000 0.622150 0.500000
O O3 0.001092 0.727861 0.419994
O O4 0.988635 0.603621 0.364800
O O5 0.250000 0.196709 0.431030
O O6 0.019734 0.150139 0.360889
O O7 0.000000 0.166030 0.500000
O O8 0.250000 0.141176 0.278109
O O9 0.468881 0.228272 0.251962
O O10 0.512927 0.097137 0.230380
O O11 0.750000 0.214441 0.071888
O O12 0.512230 0.273128 0.129347
O O13 0.510380 0.140524 0.105138
O O14 0.500000 0.227172 0.000000
O O15 0.250000 0.706155 0.190909
O O16 0.482910 0.635396 0.235948
O O17 0.250000 0.413667 0.301564
O O18 0.472861 0.500000 0.277826
O O19 0.250000 0.922045 0.848083
O O20 0.490122 0.000000 0.864982
#
# Coordination Sequence:
#
# PCOD9399207 Si02
#       7
#     8   8   8   8   8   8   8
#     4  11  21  32  48  69  99 135 173 215 261 308
#     4  10  18  30  47  71  99 128 168 216 262 305
#     4   9  17  30  50  72  98 130 167 209 250 297
#     4  10  20  34  54  80 106 135 167 199 242 290
#     4   9  17  33  53  74 101 130 164 206 249 298
#     4  10  20  35  54  74 100 135 171 211 260 309
#     4   9  19  34  51  75 107 137 166 200 240 292
#
# _framework density 17.188634
#
# number of rings (size 3 to 8) (size 9 to 14) (size 15 to 20)
#    0.000    2.286    1.429    3.000    0.000    3.429 
#    0.000    0.000    0.000    0.857    0.000    0.000 
#    0.000    0.000    0.000    0.000    0.000    0.000 
#
# Total GULP energy -312379.017598 kJ/mol
# GULP energy per Si atom -5578.196743 kJ/mol
# Density = 1.714951 g / cm^3
# Si number density = 17.188634 Si / 1000 Ang^3
#
#
#
# Elastic Constant Matrix: (Units=GPa)
#
#
# Indices 1 2 3 4 5 6 
#
# 1 34.4672 19.9701 36.7694 0.0000 0.0000 0.0000
# 2 19.9701 61.6070 45.9230 0.0000 0.0000 0.0000
# 3 36.7694 45.9230 147.1724 0.0000 0.0000 0.0000
# 4 0.0000 0.0000 0.0000 13.4326 0.0000 0.0000
# 5 0.0000 0.0000 0.0000 0.0000 27.5855 0.0000
# 6 0.0000 0.0000 0.0000 0.0000 0.0000 17.1180
#
#
#
# Elastic Compliance Matrix: (Units=1/GPa)
#
#
# Indices 1 2 3 4 5 6 
#
# 1 0.042099 -0.007566 -0.008157 0.000000 0.000000 0.000000
# 2 -0.007566 0.022512 -0.005134 0.000000 0.000000 0.000000
# 3 -0.008157 -0.005134 0.010435 0.000000 0.000000 0.000000
# 4 0.000000 0.000000 0.000000 0.074446 0.000000 0.000000
# 5 0.000000 0.000000 0.000000 0.000000 0.036251 0.000000
# 6 0.000000 0.000000 0.000000 0.000000 0.000000 0.058418
#
#
# Mechanical properties :
#
#
# Convention : Reuss Voigt Hill
#
# Bulk Modulus (GPa) = 30.00248 49.84129 39.92188
# Shear Modulus (GPa) = 16.83590 20.99947 18.91768
#
# Velocity S-wave (km/s) = 3.13306 3.49908 3.32112
# Velocity P-wave (km/s) = 5.52999 6.73679 6.16300
#
# Compressibility (1/GPa) = 0.03333058
#
# Stress axis : x y z
#
# Youngs Moduli (GPa) = 23.75376 44.42172 95.83396
#
# Poissons Ratio (x) = 0.33610 0.78172
# Poissons Ratio (y) = 0.17972 0.49202
# Poissons Ratio (z) = 0.19376 0.22807
#
# Static dielectric constant tensor:
#      x y z
#    x 1.731760 0.000000 0.000000 
#    y 0.000000 1.578220 0.000000 
#    z 0.000000 0.000000 1.574680 
# 
# From -- ./inp_files/32263.got.cif
#   From: 2010.05.17/outbox.cif.g08.bks.cpg/sg51_17_cif.got.tgz:32263.got - 2010.06.03 11:52:47.
