data_PCOD9399979
_publ_section_title
;
Structure prediction by ZEFSAII (Michael W. Deem and Ramdas Pophale) SiO2 
 PCOD9399979
Probable space group: P M M A
;
_chemical_formula_sum "Si O2"
_cell_formula_units_Z 64
_cell_length_a 9.125807
_cell_length_b 24.946529
_cell_length_c 16.088484
_cell_angle_alpha 90.000000
_cell_angle_beta 90.000000
_cell_angle_gamma 90.000000
_cell_volume 3662.659364
_symmetry_space_group_name_H-M "P M M A"
_symmetry_group_IT_number 51
_symmetry_cell_setting 'orthorhombic'
loop_
_space_group_symop_operation_xyz
x,y,z
1/2-x,-y,z
1/2+x,-y,-z
-x,y,-z
-x,-y,-z
1/2+x,y,-z
1/2-x,y,z
x,-y,z
loop_
_atom_site_type_symbol
_atom_site_label
_atom_site_fract_x
_atom_site_fract_y
_atom_site_fract_z
Si Si1 0.417183 0.713070 0.582172
Si Si2 0.923578 0.938217 0.910088
Si Si3 0.424889 0.254151 0.249790
Si Si4 0.579955 0.732533 0.084538
Si Si5 0.414420 0.435816 0.248287
Si Si6 0.418141 0.434509 0.916272
Si Si7 0.915687 0.584547 0.418534
Si Si8 0.079501 0.159754 0.828565
O O1 0.250000 0.733408 0.588991
O O2 0.509001 0.724296 0.664978
O O3 0.504986 0.716266 0.831056
O O4 0.408040 0.648834 0.573745
O O5 0.750000 0.926710 0.917014
O O6 0.003510 0.895351 0.852179
O O7 0.940197 0.000000 0.882002
O O8 0.000000 0.934231 0.000000
O O9 0.500000 0.266287 0.500000
O O10 0.250000 0.256518 0.247383
O O11 0.485814 0.193486 0.238113
O O12 0.750000 0.716242 0.086327
O O13 0.577294 0.797846 0.094110
O O14 0.500000 0.716739 0.000000
O O15 0.250000 0.413192 0.252311
O O16 0.403221 0.500000 0.238333
O O17 0.500730 0.416317 0.167153
O O18 0.499182 0.426676 0.333699
O O19 0.250000 0.417279 0.916721
O O20 0.418629 0.500000 0.916262
O O21 0.500000 0.417426 0.000000
O O22 0.750000 0.563874 0.414662
O O23 0.000000 0.564188 0.500000
O O24 0.250000 0.153637 0.804978
#
# Coordination Sequence:
#
# PCOD9399979 Si02
#       8
#     8   8   8   8   8   8   8   8
#     4  10  20  36  56  78 101 125 157 197 245 299
#     4  10  19  28  39  58  87 126 171 214 253 294
#     4  10  19  31  49  72  96 124 158 199 246 293
#     4   9  17  27  42  65  92 124 160 199 238 284
#     4  10  20  33  50  74 104 136 170 207 244 285
#     4   9  16  27  45  69  96 125 159 198 238 278
#     4  10  21  36  55  76 100 131 164 199 240 292
#     4   9  18  29  43  62  89 123 162 205 245 287
#
# _framework density 17.473642999999999
#
# number of rings (size 3 to 8) (size 9 to 14) (size 15 to 20)
#    0.750    1.625    0.000    3.750    0.000    5.750 
#    0.000    0.000    0.000    0.750    0.000    0.000 
#    0.000    0.500    0.000    1.875    0.000    2.875 
#
# Total GULP energy -356840.862926 kJ/mol
# GULP energy per Si atom -5575.638483 kJ/mol
# Density = 1.743387 g / cm^3
# Si number density = 17.473643 Si / 1000 Ang^3
#
#
#
# Elastic Constant Matrix: (Units=GPa)
#
#
# Indices 1 2 3 4 5 6 
#
# 1 203.5750 22.1068 103.2728 0.0000 0.0000 0.0000
# 2 22.1068 52.6130 8.2369 0.0000 0.0000 0.0000
# 3 103.2728 8.2369 160.0033 0.0000 0.0000 0.0000
# 4 0.0000 0.0000 0.0000 20.4415 0.0000 0.0000
# 5 0.0000 0.0000 0.0000 0.0000 31.6162 0.0000
# 6 0.0000 0.0000 0.0000 0.0000 0.0000 15.0232
#
#
#
# Elastic Compliance Matrix: (Units=1/GPa)
#
#
# Indices 1 2 3 4 5 6 
#
# 1 0.007604 -0.002446 -0.004782 0.000000 0.000000 0.000000
# 2 -0.002446 0.019948 0.000552 0.000000 0.000000 0.000000
# 3 -0.004782 0.000552 0.009308 0.000000 0.000000 0.000000
# 4 0.000000 0.000000 0.000000 0.048920 0.000000 0.000000
# 5 0.000000 0.000000 0.000000 0.000000 0.031629 0.000000
# 6 0.000000 0.000000 0.000000 0.000000 0.000000 0.066564
#
#
# Mechanical properties :
#
#
# Convention : Reuss Voigt Hill
#
# Bulk Modulus (GPa) = 42.53956 75.93603 59.23779
# Shear Modulus (GPa) = 24.37114 32.25449 28.31282
#
# Velocity S-wave (km/s) = 3.73867 4.30105 4.02968
# Velocity P-wave (km/s) = 6.56008 8.25937 7.45828
#
# Compressibility (1/GPa) = 0.02350753
#
# Stress axis : x y z
#
# Youngs Moduli (GPa) = 131.51660 50.12996 107.43681
#
# Poissons Ratio (x) = 0.12263 0.51374
# Poissons Ratio (y) = 0.32172 -0.05930
# Poissons Ratio (z) = 0.62888 -0.02767
#
# Static dielectric constant tensor:
#      x y z
#    x 1.599530 0.000000 0.000000 
#    y 0.000000 1.614610 0.000000 
#    z 0.000000 0.000000 1.566190 
# 
# From -- ./inp_files/14844.got.cif
#   From: 2010.05.17/outbox.cif.g08.bks.cpg/sg51_8_cif.got.tgz:14844.got - 2010.06.03 11:52:47.
