data_PCOD9399415
_publ_section_title
;
Structure prediction by ZEFSAII (Michael W. Deem and Ramdas Pophale) SiO2 
 PCOD9399415
Probable space group: P M M A
;
_chemical_formula_sum "Si O2"
_cell_formula_units_Z 64
_cell_length_a 15.304745
_cell_length_b 7.735234
_cell_length_c 24.735109
_cell_angle_alpha 90.000000
_cell_angle_beta 90.000000
_cell_angle_gamma 90.000000
_cell_volume 2928.285268
_symmetry_space_group_name_H-M "P M M A"
_symmetry_group_IT_number 51
_symmetry_cell_setting 'orthorhombic'
loop_
_space_group_symop_operation_xyz
x,y,z
1/2-x,-y,z
1/2+x,-y,-z
-x,y,-z
-x,-y,-z
1/2+x,y,-z
1/2-x,y,z
x,-y,z
loop_
_atom_site_type_symbol
_atom_site_label
_atom_site_fract_x
_atom_site_fract_y
_atom_site_fract_z
Si Si1 0.347124 0.210988 0.899233
Si Si2 0.846038 0.294407 0.360750
Si Si3 0.536397 0.790885 0.876782
Si Si4 0.475098 0.201578 0.324663
Si Si5 0.156823 0.791071 0.411309
Si Si6 0.847909 0.789648 0.975124
Si Si7 0.849513 0.295059 0.772964
Si Si8 0.090120 0.294988 0.523344
O O1 0.250000 0.268817 0.881220
O O2 0.436000 0.268592 0.869954
O O3 0.345570 0.000000 0.897458
O O4 0.357976 0.261119 0.962413
O O5 0.750000 0.226436 0.345684
O O6 0.837864 0.500000 0.366921
O O7 0.875628 0.224027 0.419782
O O8 0.926579 0.268110 0.320325
O O9 0.578521 0.730528 0.933493
O O10 0.601738 0.740317 0.829229
O O11 0.533911 0.000000 0.878352
O O12 0.423887 0.279037 0.376421
O O13 0.411744 0.224343 0.274052
O O14 0.485050 0.000000 0.334946
O O15 0.250000 0.739581 0.386294
O O16 0.153372 0.731005 0.472827
O O17 0.153203 0.000000 0.410928
O O18 0.750000 0.738306 0.957116
O O19 0.850345 0.000000 0.975087
O O20 0.750000 0.225816 0.772060
O O21 0.844831 0.500000 0.765246
O O22 0.076947 0.500000 0.531441
O O23 0.000000 0.218050 0.500000
#
# Coordination Sequence:
#
# PCOD9399415 Si02
#       8
#     8   8   8   8   8   8   8   8
#     4   8  14  25  44  76 116 151 183 222 268 318
#     4  10  21  38  59  84 117 154 190 228 271 322
#     4  10  18  30  53  82 110 144 186 231 276 322
#     4  11  23  40  62  84 109 140 182 234 283 331
#     4  10  21  35  53  80 112 143 176 220 276 330
#     4   8  13  22  41  74 113 147 181 224 272 323
#     4  11  25  43  61  81 107 140 178 224 283 347
#     4  10  19  33  55  82 114 151 188 222 257 312
#
# _framework density 21.855792000000001
#
# number of rings (size 3 to 8) (size 9 to 14) (size 15 to 20)
#    0.000    2.250    1.250    3.000    0.000    5.750 
#    0.000    0.625    0.000    4.125    0.000    1.750 
#    0.000    0.000    0.000    0.000    0.000    0.000 
#
# Total GULP energy -357149.268820 kJ/mol
# GULP energy per Si atom -5580.457325 kJ/mol
# Density = 2.180605 g / cm^3
# Si number density = 21.855792 Si / 1000 Ang^3
#
#
#
# Elastic Constant Matrix: (Units=GPa)
#
#
# Indices 1 2 3 4 5 6 
#
# 1 211.4507 9.4240 42.5097 0.0000 0.0000 0.0000
# 2 9.4240 34.4310 -7.4546 0.0000 0.0000 0.0000
# 3 42.5097 -7.4546 40.3388 0.0000 0.0000 0.0000
# 4 0.0000 0.0000 0.0000 17.0622 0.0000 0.0000
# 5 0.0000 0.0000 0.0000 0.0000 27.9076 0.0000
# 6 0.0000 0.0000 0.0000 0.0000 0.0000 14.4396
#
#
#
# Elastic Compliance Matrix: (Units=1/GPa)
#
#
# Indices 1 2 3 4 5 6 
#
# 1 0.006344 -0.003317 -0.007299 0.000000 0.000000 0.000000
# 2 -0.003317 0.031988 0.009407 0.000000 0.000000 0.000000
# 3 -0.007299 0.009407 0.034220 0.000000 0.000000 0.000000
# 4 0.000000 0.000000 0.000000 0.058609 0.000000 0.000000
# 5 0.000000 0.000000 0.000000 0.000000 0.035833 0.000000
# 6 0.000000 0.000000 0.000000 0.000000 0.000000 0.069254
#
#
# Mechanical properties :
#
#
# Convention : Reuss Voigt Hill
#
# Bulk Modulus (GPa) = 14.25831 41.68653 27.97242
# Shear Modulus (GPa) = 19.08076 27.99796 23.53936
#
# Velocity S-wave (km/s) = 2.95791 3.58303 3.28538
# Velocity P-wave (km/s) = 4.26657 6.01933 5.21709
#
# Compressibility (1/GPa) = 0.07013454
#
# Stress axis : x y z
#
# Youngs Moduli (GPa) = 157.61966 31.26169 29.22276
#
# Poissons Ratio (x) = 0.10369 0.21329
# Poissons Ratio (y) = 0.52278 -0.27489
# Poissons Ratio (z) = 1.15043 -0.29407
#
# Static dielectric constant tensor:
#      x y z
#    x 1.893590 0.000000 0.000000 
#    y 0.000000 1.814120 0.000000 
#    z 0.000000 0.000000 1.770750 
# 
# From -- ./inp_files/35680.got.cif
#   From: 2010.05.17/outbox.cif.g08.bks.cpg/sg51_18_cif.got.tgz:35680.got - 2010.06.03 11:52:47.
