data_PCOD9399018
_publ_section_title
;
Structure prediction by ZEFSAII (Michael W. Deem and Ramdas Pophale) SiO2 
 PCOD9399018
Probable space group: P M M A
;
_chemical_formula_sum "Si O2"
_cell_formula_units_Z 64
_cell_length_a 9.506885
_cell_length_b 14.722842
_cell_length_c 24.459738
_cell_angle_alpha 90.000000
_cell_angle_beta 90.000000
_cell_angle_gamma 90.000000
_cell_volume 3423.589555
_symmetry_space_group_name_H-M "P M M A"
_symmetry_group_IT_number 51
_symmetry_cell_setting 'orthorhombic'
loop_
_space_group_symop_operation_xyz
x,y,z
1/2-x,-y,z
1/2+x,-y,-z
-x,y,-z
-x,-y,-z
1/2+x,y,-z
1/2-x,y,z
x,-y,z
loop_
_atom_site_type_symbol
_atom_site_label
_atom_site_fract_x
_atom_site_fract_y
_atom_site_fract_z
Si Si1 0.419505 0.396149 0.942807
Si Si2 0.904623 0.599380 0.244777
Si Si3 0.909311 0.638389 0.654868
Si Si4 0.916273 0.105835 0.785931
Si Si5 0.912971 0.137947 0.445967
Si Si6 0.410635 0.640346 0.552159
Si Si7 0.087088 0.253443 0.850194
Si Si8 0.412440 0.857575 0.339217
O O1 0.250000 0.390882 0.949894
O O2 0.449326 0.500000 0.922921
O O3 0.460428 0.315207 0.901425
O O4 0.500000 0.385597 0.000000
O O5 0.750000 0.609227 0.272100
O O6 0.907569 0.500000 0.218378
O O7 0.915894 0.676683 0.200317
O O8 0.026536 0.606147 0.288514
O O9 0.750000 0.608976 0.645942
O O10 0.909987 0.748185 0.656990
O O11 0.010909 0.609328 0.606379
O O12 0.750000 0.128736 0.786403
O O13 0.962542 0.119067 0.722272
O O14 0.996324 0.168990 0.829111
O O15 0.933159 0.000000 0.799308
O O16 0.750000 0.108851 0.447706
O O17 0.911290 0.248718 0.446830
O O18 0.000000 0.109832 0.500000
O O19 0.991359 0.110546 0.389744
O O20 0.500000 0.612034 0.500000
O O21 0.250000 0.611048 0.549238
O O22 0.250000 0.226352 0.859388
O O23 0.250000 0.889272 0.345210
#
# Coordination Sequence:
#
# PCOD9399018 Si02
#       8
#     8   8   8   8   8   8   8   8
#     4   9  18  34  57  88 125 162 196 230 271 320
#     4  10  20  33  50  74 105 141 176 212 260 318
#     4  10  18  29  46  68  96 130 168 213 263 317
#     4  10  21  37  56  79 109 146 187 233 285 335
#     4   9  16  25  41  66  94 125 163 211 267 330
#     4   9  16  26  41  63  90 122 163 210 261 319
#     4  10  20  35  57  83 114 149 187 229 271 318
#     4   9  17  30  47  68  97 132 170 217 272 328
#
# _framework density 18.693829000000001
#
# number of rings (size 3 to 8) (size 9 to 14) (size 15 to 20)
#    0.000    2.500    1.250    1.500    0.000    6.500 
#    0.000    0.000    0.000    3.375    0.000    0.000 
#    0.000    0.000    0.000    0.000    0.000    0.000 
#
# Total GULP energy -357087.415459 kJ/mol
# GULP energy per Si atom -5579.490867 kJ/mol
# Density = 1.865128 g / cm^3
# Si number density = 18.693829 Si / 1000 Ang^3
#
#
#
# Elastic Constant Matrix: (Units=GPa)
#
#
# Indices 1 2 3 4 5 6 
#
# 1 106.6523 35.0984 60.5586 0.0000 0.0000 0.0000
# 2 35.0984 84.7683 37.9531 0.0000 0.0000 0.0000
# 3 60.5586 37.9531 110.6499 0.0000 0.0000 0.0000
# 4 0.0000 0.0000 0.0000 -6.9864 0.0000 0.0000
# 5 0.0000 0.0000 0.0000 0.0000 31.8758 0.0000
# 6 0.0000 0.0000 0.0000 0.0000 0.0000 8.8402
#
#
#
# Elastic Compliance Matrix: (Units=1/GPa)
#
#
# Indices 1 2 3 4 5 6 
#
# 1 0.014155 -0.002826 -0.006777 0.000000 0.000000 0.000000
# 2 -0.002826 0.014502 -0.003427 0.000000 0.000000 0.000000
# 3 -0.006777 -0.003427 0.013922 0.000000 0.000000 0.000000
# 4 0.000000 0.000000 0.000000 -0.143135 0.000000 0.000000
# 5 0.000000 0.000000 0.000000 0.000000 0.031372 0.000000
# 6 0.000000 0.000000 0.000000 0.000000 0.000000 0.113119
#
#
# Mechanical properties :
#
#
# Convention : Reuss Voigt Hill
#
# Bulk Modulus (GPa) = 60.54489 63.25452 61.89971
# Shear Modulus (GPa) = 66.22359 17.97663 42.10011
#
# Velocity S-wave (km/s) = 5.95838 3.10439 4.75076
# Velocity P-wave (km/s) = 8.93277 6.83814 7.95470
#
# Compressibility (1/GPa) = 0.01651667
#
# Stress axis : x y z
#
# Youngs Moduli (GPa) = 70.64801 68.95810 71.82714
#
# Poissons Ratio (x) = 0.19490 0.48680
# Poissons Ratio (y) = 0.19967 0.24617
# Poissons Ratio (z) = 0.47881 0.23633
#
# Static dielectric constant tensor:
#      x y z
#    x 1.643990 0.000000 0.000000 
#    y 0.000000 1.674740 0.000000 
#    z 0.000000 0.000000 1.617410 
# 
# From -- ./inp_files/35019.got.cif
#   From: 2010.05.17/outbox.cif.g08.bks.cpg/sg51_18_cif.got.tgz:35019.got - 2010.06.03 11:52:47.
