data_PCOD9399938
_publ_section_title
;
Structure prediction by ZEFSAII (Michael W. Deem and Ramdas Pophale) SiO2 
 PCOD9399938
Probable space group: P M M A
;
_chemical_formula_sum "Si O2"
_cell_formula_units_Z 52
_cell_length_a 25.939853
_cell_length_b 12.456742
_cell_length_c 8.539835
_cell_angle_alpha 90.000000
_cell_angle_beta 90.000000
_cell_angle_gamma 90.000000
_cell_volume 2759.443205
_symmetry_space_group_name_H-M "P M M A"
_symmetry_group_IT_number 51
_symmetry_cell_setting 'orthorhombic'
loop_
_space_group_symop_operation_xyz
x,y,z
1/2-x,-y,z
1/2+x,-y,-z
-x,y,-z
-x,-y,-z
1/2+x,y,-z
1/2-x,y,z
x,-y,z
loop_
_atom_site_type_symbol
_atom_site_label
_atom_site_fract_x
_atom_site_fract_y
_atom_site_fract_z
Si Si1 0.190960 0.278383 0.977078
Si Si2 0.084911 0.500000 0.715749
Si Si3 0.442207 0.500000 0.062729
Si Si4 0.558507 0.282924 0.437817
Si Si5 0.047801 0.881057 0.082846
Si Si6 0.379201 0.878013 0.784423
Si Si7 0.693233 0.500000 0.214957
Si Si8 0.603919 0.298253 0.760606
O O1 0.250000 0.250405 0.015821
O O2 0.167713 0.195489 0.848099
O O3 0.190501 0.393988 0.892920
O O4 0.155576 0.285074 0.134398
O O5 0.056306 0.607726 0.663545
O O6 0.144998 0.500000 0.667321
O O7 0.089530 0.500000 0.902643
O O8 0.427294 0.395616 0.160949
O O9 0.500000 0.500000 0.000000
O O10 0.500000 0.260889 0.500000
O O11 0.584608 0.187609 0.336656
O O12 0.599516 0.311802 0.575451
O O13 0.088307 0.889564 0.943729
O O14 0.031816 0.000000 0.136121
O O15 0.072208 0.811383 0.216033
O O16 0.000000 0.823970 0.000000
O O17 0.366300 0.000000 0.731169
O O18 0.750000 0.500000 0.291498
#
# Coordination Sequence:
#
# PCOD9399938 Si02
#       8
#     8   4   4   8   8   8   4   8
#     4  10  20  39  64  86 107 142 194 252 299 342
#     4  12  20  39  56  83 118 156 202 244 291 355
#     4  12  21  34  56  79 111 154 200 246 288 343
#     4  12  24  36  54  85 128 166 194 234 295 364
#     4   9  17  32  54  76 102 142 195 242 278 327
#     4  10  21  37  57  83 113 153 199 241 287 348
#     4  10  18  35  65  86 103 136 187 246 297 336
#     4  11  21  35  52  83 114 149 188 239 292 353
#
# _framework density 18.844380999999998
#
# number of rings (size 3 to 8) (size 9 to 14) (size 15 to 20)
#    0.000    1.385    3.077    3.923    0.000    1.231 
#    0.000    1.538    0.000    0.000    0.000    0.000 
#    0.000    0.000    0.000    0.000    0.000    0.000 
#
# Total GULP energy -289727.130659 kJ/mol
# GULP energy per Si atom -5571.675590 kJ/mol
# Density = 1.880149 g / cm^3
# Si number density = 18.844381 Si / 1000 Ang^3
#
#
#
# Elastic Constant Matrix: (Units=GPa)
#
#
# Indices 1 2 3 4 5 6 
#
# 1 108.5427 23.1695 1.9670 0.0000 0.0000 0.0000
# 2 23.1695 112.3741 31.1136 0.0000 0.0000 0.0000
# 3 1.9670 31.1136 60.4712 0.0000 0.0000 0.0000
# 4 0.0000 0.0000 0.0000 -41.3873 0.0000 0.0000
# 5 0.0000 0.0000 0.0000 0.0000 25.0615 0.0000
# 6 0.0000 0.0000 0.0000 0.0000 0.0000 7.3567
#
#
#
# Elastic Compliance Matrix: (Units=1/GPa)
#
#
# Indices 1 2 3 4 5 6 
#
# 1 0.009673 -0.002224 0.000830 0.000000 0.000000 0.000000
# 2 -0.002224 0.010889 -0.005530 0.000000 0.000000 0.000000
# 3 0.000830 -0.005530 0.019355 0.000000 0.000000 0.000000
# 4 0.000000 0.000000 0.000000 -0.024162 0.000000 0.000000
# 5 0.000000 0.000000 0.000000 0.000000 0.039902 0.000000
# 6 0.000000 0.000000 0.000000 0.000000 0.000000 0.135931
#
#
# Mechanical properties :
#
#
# Convention : Reuss Voigt Hill
#
# Bulk Modulus (GPa) = 38.36186 43.76536 41.06361
# Shear Modulus (GPa) = 23.35086 13.21538 18.28312
#
# Velocity S-wave (km/s) = 3.52396 2.65106 3.11821
# Velocity P-wave (km/s) = 6.07940 5.71366 5.89937
#
# Compressibility (1/GPa) = 0.02606756
#
# Stress axis : x y z
#
# Youngs Moduli (GPa) = 103.38396 91.83971 51.66593
#
# Poissons Ratio (x) = 0.20426 -0.04287
# Poissons Ratio (y) = 0.22993 0.28571
# Poissons Ratio (z) = -0.08578 0.50788
#
# Static dielectric constant tensor:
#      x y z
#    x 1.969530 0.000000 0.000000 
#    y 0.000000 1.693270 0.000000 
#    z 0.000000 0.000000 1.671100 
# 
# From -- ./inp_files/12408.got.cif
#   From: 2010.05.17/outbox.cif.g08.bks.cpg/sg51_7_cif.got.tgz:12408.got - 2010.06.03 11:52:47.
