data_PCOD9399639
_publ_section_title
;
Structure prediction by ZEFSAII (Michael W. Deem and Ramdas Pophale) SiO2 
 PCOD9399639
Probable space group: P M M A
;
_chemical_formula_sum "Si O2"
_cell_formula_units_Z 48
_cell_length_a 7.902308
_cell_length_b 21.413380
_cell_length_c 14.777948
_cell_angle_alpha 90.000000
_cell_angle_beta 90.000000
_cell_angle_gamma 90.000000
_cell_volume 2500.652304
_symmetry_space_group_name_H-M "P M M A"
_symmetry_group_IT_number 51
_symmetry_cell_setting 'orthorhombic'
loop_
_space_group_symop_operation_xyz
x,y,z
1/2-x,-y,z
1/2+x,-y,-z
-x,y,-z
-x,-y,-z
1/2+x,y,-z
1/2-x,y,z
x,-y,z
loop_
_atom_site_type_symbol
_atom_site_label
_atom_site_fract_x
_atom_site_fract_y
_atom_site_fract_z
Si Si1 0.545792 0.689718 0.104866
Si Si2 0.948212 0.432314 0.207165
Si Si3 0.454113 0.070566 0.896667
Si Si4 0.952601 0.753136 0.401062
Si Si5 0.543066 0.811471 0.215079
Si Si6 0.054821 0.608784 0.398943
O O1 0.750000 0.689868 0.113230
O O2 0.479149 0.627959 0.155930
O O3 0.486761 0.752849 0.154029
O O4 0.500000 0.689140 0.000000
O O5 0.750000 0.434447 0.182995
O O6 0.023961 0.500000 0.184557
O O7 0.959308 0.421190 0.314710
O O8 0.250000 0.069168 0.891096
O O9 0.516143 0.123740 0.828368
O O10 0.516673 0.000000 0.878940
O O11 0.500000 0.086964 0.000000
O O12 0.750000 0.745034 0.396315
O O13 0.007278 0.796253 0.317815
O O14 0.000000 0.777788 0.500000
O O15 0.029586 0.683755 0.392572
O O16 0.750000 0.812629 0.213601
O O17 0.250000 0.593233 0.387612
O O18 0.000000 0.590172 0.500000
#
# Coordination Sequence:
#
# PCOD9399639 Si02
#       6
#     8   8   8   8   8   8
#     4  10  20  35  52  73  99 129 166 209 254 298
#     4  10  21  38  56  72  97 135 171 207 254 304
#     4   9  17  30  49  75 105 138 172 205 246 297
#     4  10  18  32  52  75 103 133 167 207 253 300
#     4   9  17  31  52  74 102 135 166 205 251 297
#     4  11  21  34  54  78 104 131 164 207 257 307
#
# _framework density 19.194993
#
# number of rings (size 3 to 8) (size 9 to 14) (size 15 to 20)
#    0.000    2.167    1.667    3.500    0.000    1.667 
#    0.000    1.667    0.000    0.500    0.000    0.000 
#    0.000    0.000    0.000    0.000    0.000    0.667 
#
# Total GULP energy -267924.452904 kJ/mol
# GULP energy per Si atom -5581.759436 kJ/mol
# Density = 1.915130 g / cm^3
# Si number density = 19.194993 Si / 1000 Ang^3
#
#
#
# Elastic Constant Matrix: (Units=GPa)
#
#
# Indices 1 2 3 4 5 6 
#
# 1 22.9674 -1.0311 -12.2703 0.0000 0.0000 0.0000
# 2 -1.0311 119.4283 74.0743 0.0000 0.0000 0.0000
# 3 -12.2703 74.0743 124.8750 0.0000 0.0000 0.0000
# 4 0.0000 0.0000 0.0000 -412.9289 0.0000 0.0000
# 5 0.0000 0.0000 0.0000 0.0000 26.1822 0.0000
# 6 0.0000 0.0000 0.0000 0.0000 0.0000 0.3623
#
#
#
# Elastic Compliance Matrix: (Units=1/GPa)
#
#
# Indices 1 2 3 4 5 6 
#
# 1 0.047071 -0.003896 0.006936 0.000000 0.000000 0.000000
# 2 -0.003896 0.013569 -0.008432 0.000000 0.000000 0.000000
# 3 0.006936 -0.008432 0.013691 0.000000 0.000000 0.000000
# 4 0.000000 0.000000 0.000000 -0.002422 0.000000 0.000000
# 5 0.000000 0.000000 0.000000 0.000000 0.038194 0.000000
# 6 0.000000 0.000000 0.000000 0.000000 0.000000 2.760500
#
#
# Mechanical properties :
#
#
# Convention : Reuss Voigt Hill
#
# Bulk Modulus (GPa) = 15.73609 43.20183 29.46896
# Shear Modulus (GPa) = 1.72261 -63.51039 -30.89389
#
# Velocity S-wave (km/s) = 0.94835 -5.75837 -4.01618
# Velocity P-wave (km/s) = 3.06838 4.65360 2.47397
#
# Compressibility (1/GPa) = 0.06354819
#
# Stress axis : x y z
#
# Youngs Moduli (GPa) = 21.24466 73.69479 73.03900
#
# Poissons Ratio (x) = 0.28709 -0.50660
# Poissons Ratio (y) = 0.08276 0.61587
# Poissons Ratio (z) = -0.14735 0.62140
#
# Static dielectric constant tensor:
#      x y z
#    x 1.687480 0.000000 0.000000 
#    y 0.000000 1.682340 0.000000 
#    z 0.000000 0.000000 1.658130 
# 
# From -- ./inp_files/21082.got.cif
#   From: 2010.05.17/outbox.cif.g08.bks.cpg/sg51_11_cif.got.tgz:21082.got - 2010.06.03 11:52:47.
