data_PCOD9399879
_publ_section_title
;
Structure prediction by ZEFSAII (Michael W. Deem and Ramdas Pophale) SiO2 
 PCOD9399879
Probable space group: P M M A
;
_chemical_formula_sum "Si O2"
_cell_formula_units_Z 56
_cell_length_a 21.048507
_cell_length_b 7.841088
_cell_length_c 16.144485
_cell_angle_alpha 90.000000
_cell_angle_beta 90.000000
_cell_angle_gamma 90.000000
_cell_volume 2664.537397
_symmetry_space_group_name_H-M "P M M A"
_symmetry_group_IT_number 51
_symmetry_cell_setting 'orthorhombic'
loop_
_space_group_symop_operation_xyz
x,y,z
1/2-x,-y,z
1/2+x,-y,-z
-x,y,-z
-x,-y,-z
1/2+x,y,-z
1/2-x,y,z
x,-y,z
loop_
_atom_site_type_symbol
_atom_site_label
_atom_site_fract_x
_atom_site_fract_y
_atom_site_fract_z
Si Si1 0.250000 0.291908 0.207760
Si Si2 0.598249 0.689738 0.224604
Si Si3 0.250000 0.702483 0.396841
Si Si4 0.026451 0.201016 0.613487
Si Si5 0.996430 0.802984 0.095009
Si Si6 0.177881 0.708365 0.916751
Si Si7 0.131466 0.707035 0.095331
Si Si8 0.105971 0.205834 0.453478
O O1 0.250000 0.500000 0.210406
O O2 0.250000 0.228763 0.302122
O O3 0.310907 0.241894 0.154069
O O4 0.616200 0.500000 0.251915
O O5 0.561866 0.773793 0.300094
O O6 0.548479 0.687578 0.149168
O O7 0.655941 0.772424 0.173463
O O8 0.250000 0.500000 0.392637
O O9 0.320059 0.744875 0.436675
O O10 0.074286 0.264891 0.541034
O O11 0.952666 0.263593 0.607896
O O12 0.021239 0.000000 0.598400
O O13 0.067162 0.786009 0.128651
O O14 0.975308 0.000000 0.098485
O O15 0.000000 0.746648 0.000000
O O16 0.250000 0.754724 0.931833
O O17 0.173848 0.500000 0.913545
O O18 0.141276 0.763118 0.999710
O O19 0.127500 0.500000 0.095053
O O20 0.108086 0.000000 0.452430
#
# Coordination Sequence:
#
# PCOD9399879 Si02
#       8
#     4   8   4   8   8   8   8   8
#     4   9  20  35  55  84 113 144 184 232 282 327
#     4  11  22  35  57  87 115 147 191 237 286 344
#     4  11  23  37  57  94 131 150 184 246 294 339
#     4   9  20  41  66  88 113 149 195 242 288 348
#     4  11  23  36  51  76 114 153 192 240 285 325
#     4   9  17  32  54  78 107 147 190 232 278 334
#     4  10  18  34  57  77 105 149 196 233 276 333
#     4   9  20  42  67  86 113 157 196 229 289 365
#
# _framework density 21.016781999999999
#
# number of rings (size 3 to 8) (size 9 to 14) (size 15 to 20)
#    0.000    2.143    2.143    1.929    2.000    1.714 
#    1.286    2.500    0.000    3.000    0.000    0.000 
#    0.000    0.000    0.000    0.000    0.000    0.000 
#
# Total GULP energy -311905.066596 kJ/mol
# GULP energy per Si atom -5569.733332 kJ/mol
# Density = 2.096895 g / cm^3
# Si number density = 21.016782 Si / 1000 Ang^3
#
#
#
# Elastic Constant Matrix: (Units=GPa)
#
#
# Indices 1 2 3 4 5 6 
#
# 1 115.4751 3.2222 21.4648 0.0000 0.0000 0.0000
# 2 3.2222 31.1224 8.9274 0.0000 0.0000 0.0000
# 3 21.4648 8.9274 80.1487 0.0000 0.0000 0.0000
# 4 0.0000 0.0000 0.0000 14.8296 0.0000 0.0000
# 5 0.0000 0.0000 0.0000 0.0000 34.1122 0.0000
# 6 0.0000 0.0000 0.0000 0.0000 0.0000 23.3241
#
#
#
# Elastic Compliance Matrix: (Units=1/GPa)
#
#
# Indices 1 2 3 4 5 6 
#
# 1 0.009115 -0.000252 -0.002413 0.000000 0.000000 0.000000
# 2 -0.000252 0.033199 -0.003630 0.000000 0.000000 0.000000
# 3 -0.002413 -0.003630 0.013527 0.000000 0.000000 0.000000
# 4 0.000000 0.000000 0.000000 0.067433 0.000000 0.000000
# 5 0.000000 0.000000 0.000000 0.000000 0.029315 0.000000
# 6 0.000000 0.000000 0.000000 0.000000 0.000000 0.042874
#
#
# Mechanical properties :
#
#
# Convention : Reuss Voigt Hill
#
# Bulk Modulus (GPa) = 23.12082 32.66390 27.89236
# Shear Modulus (GPa) = 22.47484 27.32863 24.90174
#
# Velocity S-wave (km/s) = 3.27368 3.60991 3.44590
# Velocity P-wave (km/s) = 5.03133 5.74028 5.39746
#
# Compressibility (1/GPa) = 0.04325107
#
# Stress axis : x y z
#
# Youngs Moduli (GPa) = 109.70364 30.12175 73.92360
#
# Poissons Ratio (x) = 0.00758 0.17839
# Poissons Ratio (y) = 0.02759 0.26838
# Poissons Ratio (z) = 0.26474 0.10936
#
# Static dielectric constant tensor:
#      x y z
#    x 1.932700 0.000000 0.000000 
#    y 0.000000 1.783870 0.000000 
#    z 0.000000 0.000000 1.763480 
# 
# From -- ./inp_files/25826.got.cif
#   From: 2010.05.17/outbox.cif.g08.bks.cpg/sg51_13_cif.got.tgz:25826.got - 2010.06.03 11:52:47.
