data_PCOD9399464
_publ_section_title
;
Structure prediction by ZEFSAII (Michael W. Deem and Ramdas Pophale) SiO2 
 PCOD9399464
Probable space group: P M M A
;
_chemical_formula_sum "Si O2"
_cell_formula_units_Z 56
_cell_length_a 20.914486
_cell_length_b 9.084004
_cell_length_c 18.315285
_cell_angle_alpha 90.000000
_cell_angle_beta 90.000000
_cell_angle_gamma 90.000000
_cell_volume 3479.671079
_symmetry_space_group_name_H-M "P M M A"
_symmetry_group_IT_number 51
_symmetry_cell_setting 'orthorhombic'
loop_
_space_group_symop_operation_xyz
x,y,z
1/2-x,-y,z
1/2+x,-y,-z
-x,y,-z
-x,-y,-z
1/2+x,y,-z
1/2-x,y,z
x,-y,z
loop_
_atom_site_type_symbol
_atom_site_label
_atom_site_fract_x
_atom_site_fract_y
_atom_site_fract_z
Si Si1 0.423138 0.668941 0.515112
Si Si2 0.055749 0.830422 0.660109
Si Si3 0.393806 0.821714 0.210979
Si Si4 0.066005 0.822993 0.956433
Si Si5 0.178532 0.178714 0.065662
Si Si6 0.097648 0.169172 0.371249
Si Si7 0.032615 0.324085 0.807082
O O1 0.500000 0.673521 0.500000
O O2 0.405544 0.500000 0.526959
O O3 0.412316 0.763193 0.587949
O O4 0.390984 0.733835 0.442445
O O5 0.065219 0.736171 0.733108
O O6 0.979032 0.827759 0.644303
O O7 0.073691 0.000000 0.671561
O O8 0.344735 0.783126 0.147157
O O9 0.372936 0.784092 0.293549
O O10 0.460734 0.742489 0.194286
O O11 0.404459 0.000000 0.209653
O O12 0.064725 0.739950 0.879757
O O13 0.068947 0.000000 0.944347
O O14 0.125084 0.776243 0.007339
O O15 0.000000 0.794309 0.000000
O O16 0.250000 0.232393 0.050628
O O17 0.179533 0.000000 0.063263
O O18 0.115065 0.000000 0.386445
O O19 0.030724 0.500000 0.807155
#
# Coordination Sequence:
#
# PCOD9399464 Si02
#       7
#     8   8   8   8   8   8   8
#     4   9  15  22  33  52  81 113 146 182 221 264
#     4   9  16  26  39  55  81 115 150 184 226 272
#     4   9  16  29  45  63  88 118 153 190 231 273
#     4  10  18  31  50  68  90 120 154 192 237 283
#     4   9  17  30  50  72  91 116 155 198 235 275
#     4   8  14  22  35  53  77 112 149 180 214 264
#     4  11  20  28  42  65  91 117 153 193 231 276
#
# _framework density 16.093475999999999
#
# number of rings (size 3 to 8) (size 9 to 14) (size 15 to 20)
#    0.000    2.714    1.429    3.000    0.000    5.429 
#    0.000    0.000    0.000    1.714    0.000    0.000 
#    0.000    1.143    0.000    9.714    0.000    4.429 
#
# Total GULP energy -311910.478454 kJ/mol
# GULP energy per Si atom -5569.829972 kJ/mol
# Density = 1.605685 g / cm^3
# Si number density = 16.093476 Si / 1000 Ang^3
#
#
#
# Elastic Constant Matrix: (Units=GPa)
#
#
# Indices 1 2 3 4 5 6 
#
# 1 54.8553 20.7893 45.2512 0.0000 0.0000 0.0000
# 2 20.7893 66.3259 58.5835 0.0000 0.0000 0.0000
# 3 45.2512 58.5835 144.7442 0.0000 0.0000 0.0000
# 4 0.0000 0.0000 0.0000 8.2501 0.0000 0.0000
# 5 0.0000 0.0000 0.0000 0.0000 9.6212 0.0000
# 6 0.0000 0.0000 0.0000 0.0000 0.0000 3.1147
#
#
#
# Elastic Compliance Matrix: (Units=1/GPa)
#
#
# Indices 1 2 3 4 5 6 
#
# 1 0.024652 -0.001431 -0.007128 0.000000 0.000000 0.000000
# 2 -0.001431 0.023549 -0.009084 0.000000 0.000000 0.000000
# 3 -0.007128 -0.009084 0.012814 0.000000 0.000000 0.000000
# 4 0.000000 0.000000 0.000000 0.121211 0.000000 0.000000
# 5 0.000000 0.000000 0.000000 0.000000 0.103937 0.000000
# 6 0.000000 0.000000 0.000000 0.000000 0.000000 0.321060
#
#
# Mechanical properties :
#
#
# Convention : Reuss Voigt Hill
#
# Bulk Modulus (GPa) = 38.86637 57.24149 48.05393
# Shear Modulus (GPa) = 7.67950 13.61729 10.64839
#
# Velocity S-wave (km/s) = 2.18682 2.91200 2.57506
# Velocity P-wave (km/s) = 5.52983 6.85213 6.22618
#
# Compressibility (1/GPa) = 0.02572918
#
# Stress axis : x y z
#
# Youngs Moduli (GPa) = 40.56479 42.46453 78.04253
#
# Poissons Ratio (x) = 0.06079 0.55625
# Poissons Ratio (y) = 0.05807 0.70891
# Poissons Ratio (z) = 0.28913 0.38573
#
# Static dielectric constant tensor:
#      x y z
#    x 1.520540 0.000000 0.000000 
#    y 0.000000 1.533030 0.000000 
#    z 0.000000 0.000000 1.557030 
# 
# From -- ./inp_files/30476.got.cif
#   From: 2010.05.17/outbox.cif.g08.bks.cpg/sg51_16_cif.got.tgz:30476.got - 2010.06.03 11:52:47.
