data_PCOD9399851
_publ_section_title
;
Structure prediction by ZEFSAII (Michael W. Deem and Ramdas Pophale) SiO2 
 PCOD9399851
Probable space group: P M M A
;
_chemical_formula_sum "Si O2"
_cell_formula_units_Z 64
_cell_length_a 24.073437
_cell_length_b 8.779147
_cell_length_c 15.566178
_cell_angle_alpha 90.000000
_cell_angle_beta 90.000000
_cell_angle_gamma 90.000000
_cell_volume 3289.822094
_symmetry_space_group_name_H-M "P M M A"
_symmetry_group_IT_number 51
_symmetry_cell_setting 'orthorhombic'
loop_
_space_group_symop_operation_xyz
x,y,z
1/2-x,-y,z
1/2+x,-y,-z
-x,y,-z
-x,-y,-z
1/2+x,y,-z
1/2-x,y,z
x,-y,z
loop_
_atom_site_type_symbol
_atom_site_label
_atom_site_fract_x
_atom_site_fract_y
_atom_site_fract_z
Si Si1 0.894400 0.184355 0.106154
Si Si2 0.621493 0.818216 0.793372
Si Si3 0.607534 0.681579 0.607791
Si Si4 0.187554 0.814472 0.740693
Si Si5 0.868708 0.180534 0.433336
Si Si6 0.995029 0.676633 0.833488
Si Si7 0.687896 0.185524 0.955567
Si Si8 0.519008 0.677024 0.369487
O O1 0.858468 0.231978 0.189871
O O2 0.955620 0.253432 0.110659
O O3 0.898752 0.000000 0.106696
O O4 0.858278 0.233099 0.024239
O O5 0.626535 0.747292 0.699029
O O6 0.562817 0.766154 0.834184
O O7 0.669067 0.770896 0.860099
O O8 0.621526 0.000000 0.785445
O O9 0.609467 0.500000 0.611947
O O10 0.639825 0.742235 0.525264
O O11 0.542021 0.723596 0.597806
O O12 0.250000 0.765255 0.763045
O O13 0.170475 0.766327 0.644808
O O14 0.187330 0.000000 0.741499
O O15 0.930974 0.221564 0.402725
O O16 0.862652 0.000000 0.442516
O O17 0.985565 0.500000 0.854448
O O18 0.014931 0.684592 0.733809
O O19 0.750000 0.238006 0.976750
O O20 0.688531 0.000000 0.958761
O O21 0.529107 0.500000 0.394111
#
# Coordination Sequence:
#
# PCOD9399851 Si02
#       8
#     8   8   8   8   8   8   8   8
#     4  10  18  33  59  86 111 143 184 227 273 333
#     4  10  20  36  58  83 111 142 185 237 280 330
#     4  10  21  36  53  75 107 147 182 219 275 333
#     4   9  18  32  51  78 111 144 180 225 274 323
#     4  11  20  30  50  80 107 138 182 228 267 315
#     4  10  20  34  53  80 118 155 182 219 276 335
#     4   9  19  36  60  88 112 139 182 236 289 331
#     4   9  18  32  49  71 104 144 178 215 267 325
#
# _framework density 19.453938999999998
#
# number of rings (size 3 to 8) (size 9 to 14) (size 15 to 20)
#    0.000    2.250    1.250    3.000    0.000    6.000 
#    0.000    4.375    0.000   11.250    0.000    0.000 
#    0.000    0.000    0.000    0.000    0.000    0.000 
#
# Total GULP energy -357299.501419 kJ/mol
# GULP energy per Si atom -5582.804710 kJ/mol
# Density = 1.940966 g / cm^3
# Si number density = 19.453939 Si / 1000 Ang^3
#
#
#
# Elastic Constant Matrix: (Units=GPa)
#
#
# Indices 1 2 3 4 5 6 
#
# 1 9.5326 0.7678 11.0955 0.0000 0.0000 0.0000
# 2 0.7678 23.0398 10.1477 0.0000 0.0000 0.0000
# 3 11.0955 10.1477 53.5445 0.0000 0.0000 0.0000
# 4 0.0000 0.0000 0.0000 2.6916 0.0000 0.0000
# 5 0.0000 0.0000 0.0000 0.0000 22.6731 0.0000
# 6 0.0000 0.0000 0.0000 0.0000 0.0000 -15.5625
#
#
#
# Elastic Compliance Matrix: (Units=1/GPa)
#
#
# Indices 1 2 3 4 5 6 
#
# 1 0.139880 0.008843 -0.030662 0.000000 0.000000 0.000000
# 2 0.008843 0.047915 -0.010913 0.000000 0.000000 0.000000
# 3 -0.030662 -0.010913 0.027098 0.000000 0.000000 0.000000
# 4 0.000000 0.000000 0.000000 0.371528 0.000000 0.000000
# 5 0.000000 0.000000 0.000000 0.000000 0.044105 0.000000
# 6 0.000000 0.000000 0.000000 0.000000 0.000000 -0.064257
#
#
# Mechanical properties :
#
#
# Convention : Reuss Voigt Hill
#
# Bulk Modulus (GPa) = 6.69212 14.45987 10.57599
# Shear Modulus (GPa) = 7.33629 6.23417 6.78523
#
# Velocity S-wave (km/s) = 1.94404 1.79208 1.86960
# Velocity P-wave (km/s) = 2.91316 3.42506 3.17943
#
# Compressibility (1/GPa) = 0.14942955
#
# Stress axis : x y z
#
# Youngs Moduli (GPa) = 7.14898 20.87026 36.90299
#
# Poissons Ratio (x) = -0.18456 1.13152
# Poissons Ratio (y) = -0.06322 0.40273
# Poissons Ratio (z) = 0.21920 0.22776
#
# Static dielectric constant tensor:
#      x y z
#    x 1.660000 0.000000 0.000000 
#    y 0.000000 1.658110 0.000000 
#    z 0.000000 0.000000 1.703850 
# 
# From -- ./inp_files/26329.got.cif
#   From: 2010.05.17/outbox.cif.g08.bks.cpg/sg51_14_cif.got.tgz:26329.got - 2010.06.03 11:52:47.
