data_PCOD9399908
_publ_section_title
;
Structure prediction by ZEFSAII (Michael W. Deem and Ramdas Pophale) SiO2 
 PCOD9399908
Probable space group: P M M A
;
_chemical_formula_sum "Si O2"
_cell_formula_units_Z 56
_cell_length_a 15.272112
_cell_length_b 8.626354
_cell_length_c 22.460726
_cell_angle_alpha 90.000000
_cell_angle_beta 90.000000
_cell_angle_gamma 90.000000
_cell_volume 2959.035439
_symmetry_space_group_name_H-M "P M M A"
_symmetry_group_IT_number 51
_symmetry_cell_setting 'orthorhombic'
loop_
_space_group_symop_operation_xyz
x,y,z
1/2-x,-y,z
1/2+x,-y,-z
-x,y,-z
-x,-y,-z
1/2+x,y,-z
1/2-x,y,z
x,-y,z
loop_
_atom_site_type_symbol
_atom_site_label
_atom_site_fract_x
_atom_site_fract_y
_atom_site_fract_z
Si Si1 0.556145 0.812625 0.440862
Si Si2 0.850891 0.316101 0.141289
Si Si3 0.154535 0.188511 0.115107
Si Si4 0.489346 0.185342 0.209760
Si Si5 0.103311 0.819662 0.986260
Si Si6 0.750000 0.188526 0.477614
Si Si7 0.934116 0.315690 0.662997
Si Si8 0.250000 0.186358 0.383172
O O1 0.500000 0.773416 0.500000
O O2 0.657575 0.761992 0.448567
O O3 0.505070 0.743129 0.385020
O O4 0.555475 0.000000 0.435738
O O5 0.750000 0.275183 0.151798
O O6 0.861780 0.500000 0.148480
O O7 0.915251 0.229617 0.186195
O O8 0.874517 0.270115 0.073544
O O9 0.250000 0.229315 0.139223
O O10 0.077673 0.240689 0.158216
O O11 0.148457 0.000000 0.111989
O O12 0.145960 0.242024 0.047004
O O13 0.463976 0.260432 0.272029
O O14 0.481476 0.000000 0.214988
O O15 0.129333 0.000000 0.977316
O O16 0.000000 0.817693 0.000000
O O17 0.750000 0.233800 0.547183
O O18 0.750000 0.000000 0.476281
O O19 0.928842 0.500000 0.660749
O O20 0.838864 0.246634 0.646830
O O21 0.250000 0.000000 0.380895
#
# Coordination Sequence:
#
# PCOD9399908 Si02
#       8
#     8   8   8   8   8   4   8   4
#     4  10  19  38  66  94 124 163 212 259 301 358
#     4  11  24  41  61  87 121 160 201 255 321 378
#     4   9  18  33  56  87 117 147 192 248 300 351
#     4  11  23  42  65  87 115 161 213 256 301 364
#     4  10  18  34  60  89 118 151 198 252 301 361
#     4   9  18  35  65  99 125 155 210 267 302 345
#     4  12  26  42  60  93 134 169 203 254 318 374
#     4  11  21  41  69  97 125 167 212 251 296 363
#
# _framework density 18.925084999999999
#
# number of rings (size 3 to 8) (size 9 to 14) (size 15 to 20)
#    0.000    1.571    2.857    2.786    1.000    2.286 
#    1.286    0.357    0.000    0.857    0.000    0.000 
#    0.000    0.000    0.000    0.000    0.000    0.000 
#
# Total GULP energy -312839.837255 kJ/mol
# GULP energy per Si atom -5586.425665 kJ/mol
# Density = 1.888201 g / cm^3
# Si number density = 18.925085 Si / 1000 Ang^3
#
#
#
# Elastic Constant Matrix: (Units=GPa)
#
#
# Indices 1 2 3 4 5 6 
#
# 1 151.0702 40.3549 72.7665 0.0000 0.0000 0.0000
# 2 40.3549 41.9548 34.9147 0.0000 0.0000 0.0000
# 3 72.7665 34.9147 129.2816 0.0000 0.0000 0.0000
# 4 0.0000 0.0000 0.0000 -68.2713 0.0000 0.0000
# 5 0.0000 0.0000 0.0000 0.0000 6.6016 0.0000
# 6 0.0000 0.0000 0.0000 0.0000 0.0000 16.4174
#
#
#
# Elastic Compliance Matrix: (Units=1/GPa)
#
#
# Indices 1 2 3 4 5 6 
#
# 1 0.010316 -0.006566 -0.004033 0.000000 0.000000 0.000000
# 2 -0.006566 0.034925 -0.005736 0.000000 0.000000 0.000000
# 3 -0.004033 -0.005736 0.011554 0.000000 0.000000 0.000000
# 4 0.000000 0.000000 0.000000 -0.014647 0.000000 0.000000
# 5 0.000000 0.000000 0.000000 0.000000 0.151478 0.000000
# 6 0.000000 0.000000 0.000000 0.000000 0.000000 0.060911
#
#
# Mechanical properties :
#
#
# Convention : Reuss Voigt Hill
#
# Bulk Modulus (GPa) = 41.45268 68.70875 55.08071
# Shear Modulus (GPa) = 16.93485 2.56759 9.75122
#
# Velocity S-wave (km/s) = 2.99463 1.16604 2.27238
# Velocity P-wave (km/s) = 5.82307 6.18040 6.00439
#
# Compressibility (1/GPa) = 0.02412389
#
# Stress axis : x y z
#
# Youngs Moduli (GPa) = 96.93556 28.63302 86.54851
#
# Poissons Ratio (x) = 0.18802 0.34906
# Poissons Ratio (y) = 0.63652 0.49645
# Poissons Ratio (z) = 0.39095 0.16424
#
# Static dielectric constant tensor:
#      x y z
#    x 1.688320 0.000000 0.000000 
#    y 0.000000 1.644560 0.000000 
#    z 0.000000 0.000000 1.627110 
# 
# From -- ./inp_files/33524.got.cif
#   From: 2010.05.17/outbox.cif.g08.bks.cpg/sg51_17_cif.got.tgz:33524.got - 2010.06.03 11:52:47.
