data_PCOD9399250
_publ_section_title
;
Structure prediction by ZEFSAII (Michael W. Deem and Ramdas Pophale) SiO2 
 PCOD9399250
Probable space group: P M M A
;
_chemical_formula_sum "Si O2"
_cell_formula_units_Z 48
_cell_length_a 21.281453
_cell_length_b 8.474871
_cell_length_c 15.326263
_cell_angle_alpha 90.000000
_cell_angle_beta 90.000000
_cell_angle_gamma 90.000000
_cell_volume 2764.207535
_symmetry_space_group_name_H-M "P M M A"
_symmetry_group_IT_number 51
_symmetry_cell_setting 'orthorhombic'
loop_
_space_group_symop_operation_xyz
x,y,z
1/2-x,-y,z
1/2+x,-y,-z
-x,y,-z
-x,-y,-z
1/2+x,y,-z
1/2-x,y,z
x,-y,z
loop_
_atom_site_type_symbol
_atom_site_label
_atom_site_fract_x
_atom_site_fract_y
_atom_site_fract_z
Si Si1 0.846071 0.685274 0.184841
Si Si2 0.478974 0.812768 0.774583
Si Si3 0.454521 0.810315 0.576549
Si Si4 0.681194 0.309714 0.383321
Si Si5 0.948215 0.312634 0.927794
Si Si6 0.818716 0.186291 0.000289
O O1 0.832217 0.500000 0.173229
O O2 0.920597 0.715138 0.186913
O O3 0.822994 0.735215 0.280682
O O4 0.819949 0.780627 0.103799
O O5 0.482000 0.769746 0.672379
O O6 0.536965 0.770973 0.836120
O O7 0.465477 0.000000 0.780054
O O8 0.500000 0.750669 0.500000
O O9 0.382424 0.752399 0.572752
O O10 0.452799 0.000000 0.571339
O O11 0.750000 0.258544 0.417012
O O12 0.679043 0.500000 0.386227
O O13 0.955453 0.500000 0.917721
O O14 0.878631 0.273540 0.960676
O O15 0.000000 0.259000 0.000000
O O16 0.750000 0.237624 0.966963
O O17 0.825611 0.000000 0.985051
#
# Coordination Sequence:
#
# PCOD9399250 Si02
#       6
#     8   8   8   8   8   8
#     4  10  18  30  48  72 103 137 169 203 250 305
#     4  10  19  32  53  77 102 134 170 214 257 299
#     4   9  19  35  54  78 106 134 169 212 260 309
#     4   9  18  31  48  73 105 137 168 205 252 307
#     4  11  22  35  53  76 102 137 176 213 253 302
#     4  11  23  35  49  72 102 137 176 217 259 304
#
# _framework density 17.364833000000001
#
# number of rings (size 3 to 8) (size 9 to 14) (size 15 to 20)
#    0.000    2.000    1.667    2.500    0.000    4.667 
#    0.000    0.000    0.000    1.000    0.000    2.333 
#    0.000    0.000    0.000    0.000    0.000    0.000 
#
# Total GULP energy -267747.600543 kJ/mol
# GULP energy per Si atom -5578.075011 kJ/mol
# Density = 1.732531 g / cm^3
# Si number density = 17.364833 Si / 1000 Ang^3
#
#
#
# Elastic Constant Matrix: (Units=GPa)
#
#
# Indices 1 2 3 4 5 6 
#
# 1 130.9697 14.0107 59.3845 0.0000 0.0000 0.0000
# 2 14.0107 19.9667 14.3659 0.0000 0.0000 0.0000
# 3 59.3845 14.3659 72.4607 0.0000 0.0000 0.0000
# 4 0.0000 0.0000 0.0000 18.2976 0.0000 0.0000
# 5 0.0000 0.0000 0.0000 0.0000 18.2071 0.0000
# 6 0.0000 0.0000 0.0000 0.0000 0.0000 9.9807
#
#
#
# Elastic Compliance Matrix: (Units=1/GPa)
#
#
# Indices 1 2 3 4 5 6 
#
# 1 0.012194 -0.001594 -0.009677 0.000000 0.000000 0.000000
# 2 -0.001594 0.058624 -0.010317 0.000000 0.000000 0.000000
# 3 -0.009677 -0.010317 0.023777 0.000000 0.000000 0.000000
# 4 0.000000 0.000000 0.000000 0.054652 0.000000 0.000000
# 5 0.000000 0.000000 0.000000 0.000000 0.054924 0.000000
# 6 0.000000 0.000000 0.000000 0.000000 0.000000 0.100194
#
#
# Mechanical properties :
#
#
# Convention : Reuss Voigt Hill
#
# Bulk Modulus (GPa) = 19.44780 44.32436 31.88608
# Shear Modulus (GPa) = 13.71069 18.33949 16.02509
#
# Velocity S-wave (km/s) = 2.81297 3.25334 3.04114
# Velocity P-wave (km/s) = 4.66629 6.30024 5.54379
#
# Compressibility (1/GPa) = 0.05141971
#
# Stress axis : x y z
#
# Youngs Moduli (GPa) = 82.00930 17.05779 42.05769
#
# Poissons Ratio (x) = 0.02718 0.40701
# Poissons Ratio (y) = 0.13069 0.43389
# Poissons Ratio (z) = 0.79363 0.17598
#
# Static dielectric constant tensor:
#      x y z
#    x 1.629140 0.000000 0.000000 
#    y 0.000000 1.583380 0.000000 
#    z 0.000000 0.000000 1.587380 
# 
# From -- ./inp_files/25477.got.cif
#   From: 2010.05.17/outbox.cif.g08.bks.cpg/sg51_13_cif.got.tgz:25477.got - 2010.06.03 11:52:47.
