data_PCOD9399881
_publ_section_title
;
Structure prediction by ZEFSAII (Michael W. Deem and Ramdas Pophale) SiO2 
 PCOD9399881
Probable space group: P M M A
;
_chemical_formula_sum "Si O2"
_cell_formula_units_Z 64
_cell_length_a 24.964479
_cell_length_b 14.902082
_cell_length_c 8.380228
_cell_angle_alpha 90.000000
_cell_angle_beta 90.000000
_cell_angle_gamma 90.000000
_cell_volume 3117.635157
_symmetry_space_group_name_H-M "P M M A"
_symmetry_group_IT_number 51
_symmetry_cell_setting 'orthorhombic'
loop_
_space_group_symop_operation_xyz
x,y,z
1/2-x,-y,z
1/2+x,-y,-z
-x,y,-z
-x,-y,-z
1/2+x,y,-z
1/2-x,y,z
x,-y,z
loop_
_atom_site_type_symbol
_atom_site_label
_atom_site_fract_x
_atom_site_fract_y
_atom_site_fract_z
Si Si1 0.617549 0.732715 0.327403
Si Si2 0.897902 0.401403 0.821311
Si Si3 0.308411 0.899655 0.247809
Si Si4 0.137486 0.779274 0.016130
Si Si5 0.687282 0.398300 0.532347
Si Si6 0.087746 0.902520 0.467624
Si Si7 0.006081 0.680016 0.691416
Si Si8 0.031350 0.138161 0.149914
O O1 0.662790 0.678905 0.421572
O O2 0.588420 0.813341 0.425809
O O3 0.569276 0.663122 0.285733
O O4 0.642534 0.777778 0.171869
O O5 0.897123 0.500000 0.895815
O O6 0.880325 0.320057 0.932695
O O7 0.853256 0.398785 0.681939
O O8 0.957383 0.383382 0.749169
O O9 0.250000 0.892852 0.323903
O O10 0.314939 0.821070 0.118971
O O11 0.355284 0.895033 0.376999
O O12 0.312711 0.000000 0.173699
O O13 0.088770 0.841713 0.073372
O O14 0.750000 0.382229 0.572323
O O15 0.684492 0.500000 0.463106
O O16 0.043944 0.902395 0.324457
O O17 0.084367 0.000000 0.550213
O O18 0.000000 0.689757 0.500000
O O19 0.996259 0.768535 0.799025
O O20 0.000000 0.096983 0.000000
#
# Coordination Sequence:
#
# PCOD9399881 Si02
#       8
#     8   8   8   8   8   8   8   8
#     4  12  22  37  59  86 122 160 189 239 297 356
#     4  10  22  39  60  88 117 153 201 248 289 349
#     4   9  19  39  64  86 111 149 201 254 296 341
#     4  10  22  35  58  86 118 155 190 236 294 350
#     4  10  22  40  61  86 115 150 195 244 296 353
#     4  10  22  37  55  85 117 151 196 240 286 348
#     4  11  19  35  59  86 116 155 199 239 289 342
#     4  10  18  34  57  78 113 154 195 238 279 335
#
# _framework density 20.528379999999999
#
# number of rings (size 3 to 8) (size 9 to 14) (size 15 to 20)
#    0.000    1.750    3.750    1.500    0.000    4.500 
#    0.000    1.875    0.000    3.750    0.000    0.000 
#    0.000    0.000    0.000    0.000    0.000    0.000 
#
# Total GULP energy -356549.559700 kJ/mol
# GULP energy per Si atom -5571.086870 kJ/mol
# Density = 2.048166 g / cm^3
# Si number density = 20.528380 Si / 1000 Ang^3
#
#
#
# Elastic Constant Matrix: (Units=GPa)
#
#
# Indices 1 2 3 4 5 6 
#
# 1 92.3975 15.5398 -9.8641 0.0000 0.0000 0.0000
# 2 15.5398 91.1910 18.9213 0.0000 0.0000 0.0000
# 3 -9.8641 18.9213 44.7820 0.0000 0.0000 0.0000
# 4 0.0000 0.0000 0.0000 -23.5425 0.0000 0.0000
# 5 0.0000 0.0000 0.0000 0.0000 11.3647 0.0000
# 6 0.0000 0.0000 0.0000 0.0000 0.0000 32.1652
#
#
#
# Elastic Compliance Matrix: (Units=1/GPa)
#
#
# Indices 1 2 3 4 5 6 
#
# 1 0.011688 -0.002769 0.003744 0.000000 0.000000 0.000000
# 2 -0.002769 0.012676 -0.005966 0.000000 0.000000 0.000000
# 3 0.003744 -0.005966 0.025676 0.000000 0.000000 0.000000
# 4 0.000000 0.000000 0.000000 -0.042476 0.000000 0.000000
# 5 0.000000 0.000000 0.000000 0.000000 0.087991 0.000000
# 6 0.000000 0.000000 0.000000 0.000000 0.000000 0.031090
#
#
# Mechanical properties :
#
#
# Convention : Reuss Voigt Hill
#
# Bulk Modulus (GPa) = 24.96268 30.84050 27.90159
# Shear Modulus (GPa) = 33.33837 17.58237 25.46037
#
# Velocity S-wave (km/s) = 4.03428 2.92976 3.52554
# Velocity P-wave (km/s) = 5.82125 5.14788 5.49489
#
# Compressibility (1/GPa) = 0.04005981
#
# Stress axis : x y z
#
# Youngs Moduli (GPa) = 85.55635 78.89166 38.94722
#
# Poissons Ratio (x) = 0.21843 -0.14583
# Poissons Ratio (y) = 0.23688 0.23234
# Poissons Ratio (z) = -0.32036 0.47063
#
# Static dielectric constant tensor:
#      x y z
#    x 1.764180 0.000000 0.000000 
#    y 0.000000 1.778150 0.000000 
#    z 0.000000 0.000000 1.729390 
# 
# From -- ./inp_files/11881.got.cif
#   From: 2010.05.17/outbox.cif.g08.bks.cpg/sg51_6_cif.got.tgz:11881.got - 2010.06.03 11:52:47.
