data_PCOD9399926
_publ_section_title
;
Structure prediction by ZEFSAII (Michael W. Deem and Ramdas Pophale) SiO2 
 PCOD9399926
Probable space group: P M M A
;
_chemical_formula_sum "Si O2"
_cell_formula_units_Z 48
_cell_length_a 14.808082
_cell_length_b 16.269363
_cell_length_c 10.240879
_cell_angle_alpha 90.000000
_cell_angle_beta 90.000000
_cell_angle_gamma 90.000000
_cell_volume 2467.212716
_symmetry_space_group_name_H-M "P M M A"
_symmetry_group_IT_number 51
_symmetry_cell_setting 'orthorhombic'
loop_
_space_group_symop_operation_xyz
x,y,z
1/2-x,-y,z
1/2+x,-y,-z
-x,y,-z
-x,-y,-z
1/2+x,y,-z
1/2-x,y,z
x,-y,z
loop_
_atom_site_type_symbol
_atom_site_label
_atom_site_fract_x
_atom_site_fract_y
_atom_site_fract_z
Si Si1 0.852997 0.795353 0.239124
Si Si2 0.904115 0.500000 0.076363
Si Si3 0.860762 0.500000 0.376589
Si Si4 0.140425 0.677788 0.522846
Si Si5 0.145912 0.231773 0.262150
Si Si6 0.510355 0.904072 0.843529
Si Si7 0.890589 0.322627 0.998865
O O1 0.750000 0.819811 0.263889
O O2 0.884096 0.734795 0.354529
O O3 0.918105 0.872255 0.221154
O O4 0.857906 0.741478 0.107290
O O5 0.860050 0.414173 0.035116
O O6 0.906301 0.500000 0.233584
O O7 0.000000 0.500000 0.000000
O O8 0.750000 0.500000 0.358605
O O9 0.886657 0.583628 0.451559
O O10 0.250000 0.675850 0.517363
O O11 0.109631 0.721592 0.390293
O O12 0.250000 0.207675 0.285127
O O13 0.087412 0.154238 0.215834
O O14 0.141510 0.295231 0.142422
O O15 0.527377 0.000000 0.820973
O O16 0.500000 0.891274 0.000000
O O17 0.000000 0.320082 0.000000
#
# Coordination Sequence:
#
# PCOD9399926 Si02
#       7
#     8   4   4   8   8   8   8
#     4  11  20  38  64  90 118 158 203 247 303 366
#     4  10  22  33  56  88 127 162 208 255 296 339
#     4  10  18  35  58  87 126 168 215 256 299 362
#     4   9  21  36  59  89 123 164 206 249 297 361
#     4  11  22  40  62  90 124 161 201 252 312 364
#     4  11  24  42  64  92 122 152 196 256 312 375
#     4  11  20  37  58  86 126 161 206 254 295 354
#
# _framework density 19.455151999999998
#
# number of rings (size 3 to 8) (size 9 to 14) (size 15 to 20)
#    0.000    1.500    5.000    0.500    0.000    2.667 
#    0.000    4.167    0.000    6.000    0.000    0.000 
#    0.000    0.000    0.000    0.000    0.000    0.000 
#
# Total GULP energy -268145.487449 kJ/mol
# GULP energy per Si atom -5586.364322 kJ/mol
# Density = 1.941087 g / cm^3
# Si number density = 19.455152 Si / 1000 Ang^3
#
#
#
# Elastic Constant Matrix: (Units=GPa)
#
#
# Indices 1 2 3 4 5 6 
#
# 1 92.2292 34.6375 16.9376 0.0000 0.0000 0.0000
# 2 34.6375 151.8754 60.9237 0.0000 0.0000 0.0000
# 3 16.9376 60.9237 131.2041 0.0000 0.0000 0.0000
# 4 0.0000 0.0000 0.0000 20.6266 0.0000 0.0000
# 5 0.0000 0.0000 0.0000 0.0000 34.0994 0.0000
# 6 0.0000 0.0000 0.0000 0.0000 0.0000 -5.5902
#
#
#
# Elastic Compliance Matrix: (Units=1/GPa)
#
#
# Indices 1 2 3 4 5 6 
#
# 1 0.011870 -0.002572 -0.000338 0.000000 0.000000 0.000000
# 2 -0.002572 0.008649 -0.003684 0.000000 0.000000 0.000000
# 3 -0.000338 -0.003684 0.009376 0.000000 0.000000 0.000000
# 4 0.000000 0.000000 0.000000 0.048481 0.000000 0.000000
# 5 0.000000 0.000000 0.000000 0.000000 0.029326 0.000000
# 6 0.000000 0.000000 0.000000 0.000000 0.000000 -0.178885
#
#
# Mechanical properties :
#
#
# Convention : Reuss Voigt Hill
#
# Bulk Modulus (GPa) = 59.85353 66.70072 63.27713
# Shear Modulus (GPa) = -95.37169 27.34782 -34.01193
#
# Velocity S-wave (km/s) = -7.00912 3.75331 -4.18571
# Velocity P-wave (km/s) = 5.88829 7.28985 3.03891
#
# Compressibility (1/GPa) = 0.01670745
#
# Stress axis : x y z
#
# Youngs Moduli (GPa) = 84.24287 115.62550 106.65516
#
# Poissons Ratio (x) = 0.29733 0.03608
# Poissons Ratio (y) = 0.21663 0.39291
# Poissons Ratio (z) = 0.02850 0.42596
#
# Static dielectric constant tensor:
#      x y z
#    x 1.739690 0.000000 0.000000 
#    y 0.000000 1.650610 0.000000 
#    z 0.000000 0.000000 1.665410 
# 
# From -- ./inp_files/8313.got.cif
#   From: 2010.05.17/outbox.cif.g08.bks.cpg/sg51_5_cif.got.tgz:8313.got - 2010.06.03 11:52:47.
