data_PCOD9399725
_publ_section_title
;
Structure prediction by ZEFSAII (Michael W. Deem and Ramdas Pophale) SiO2 
 PCOD9399725
Probable space group: P M M A
;
_chemical_formula_sum "Si O2"
_cell_formula_units_Z 40
_cell_length_a 21.982284
_cell_length_b 11.306836
_cell_length_c 7.821448
_cell_angle_alpha 90.000000
_cell_angle_beta 90.000000
_cell_angle_gamma 90.000000
_cell_volume 1944.021527
_symmetry_space_group_name_H-M "P M M A"
_symmetry_group_IT_number 51
_symmetry_cell_setting 'orthorhombic'
loop_
_space_group_symop_operation_xyz
x,y,z
1/2-x,-y,z
1/2+x,-y,-z
-x,y,-z
-x,-y,-z
1/2+x,y,-z
1/2-x,y,z
x,-y,z
loop_
_atom_site_type_symbol
_atom_site_label
_atom_site_fract_x
_atom_site_fract_y
_atom_site_fract_z
Si Si1 0.319324 0.364854 0.820841
Si Si2 0.509230 0.368300 0.294861
Si Si3 0.681171 0.209599 0.520643
Si Si4 0.871789 0.639886 0.825604
Si Si5 0.441579 0.873267 0.625806
O O1 0.250000 0.363523 0.885141
O O2 0.335456 0.500000 0.779931
O O3 0.357615 0.322218 0.982076
O O4 0.319636 0.293258 0.646243
O O5 0.500000 0.377196 0.500000
O O6 0.530454 0.500000 0.237104
O O7 0.443125 0.347758 0.214765
O O8 0.549408 0.250325 0.272596
O O9 0.750000 0.158293 0.532085
O O10 0.666309 0.286076 0.688325
O O11 0.621033 0.132395 0.482499
O O12 0.856857 0.500000 0.810234
O O13 0.500000 0.874861 0.500000
O O14 0.441715 0.000000 0.720919
#
# Coordination Sequence:
#
# PCOD9399725 Si02
#       5
#     8   8   8   8   8
#     4   9  19  33  50  82 123 155 192 239 287 351
#     4   9  16  30  55  83 112 149 191 238 286 337
#     4  11  21  34  57  85 112 150 197 244 292 345
#     4  10  18  32  55  83 118 157 190 233 294 348
#     4  10  20  37  60  84 115 156 195 239 293 349
#
# _framework density 20.575903
#
# number of rings (size 3 to 8) (size 9 to 14) (size 15 to 20)
#    0.000    2.200    4.000    1.200    0.000    3.200 
#    0.000    1.000    0.000    7.200    0.000    2.800 
#    0.000    0.000    0.000    0.000    0.000    0.000 
#
# Total GULP energy -222938.396662 kJ/mol
# GULP energy per Si atom -5573.459917 kJ/mol
# Density = 2.052907 g / cm^3
# Si number density = 20.575903 Si / 1000 Ang^3
#
#
#
# Elastic Constant Matrix: (Units=GPa)
#
#
# Indices 1 2 3 4 5 6 
#
# 1 156.2309 35.5657 26.1728 0.0000 0.0000 0.0000
# 2 35.5657 119.1776 28.9316 0.0000 0.0000 0.0000
# 3 26.1728 28.9316 77.3820 0.0000 0.0000 0.0000
# 4 0.0000 0.0000 0.0000 2.2761 0.0000 0.0000
# 5 0.0000 0.0000 0.0000 0.0000 34.2819 0.0000
# 6 0.0000 0.0000 0.0000 0.0000 0.0000 -20.8345
#
#
#
# Elastic Compliance Matrix: (Units=1/GPa)
#
#
# Indices 1 2 3 4 5 6 
#
# 1 0.007080 -0.001684 -0.001765 0.000000 0.000000 0.000000
# 2 -0.001684 0.009629 -0.003030 0.000000 0.000000 0.000000
# 3 -0.001765 -0.003030 0.014653 0.000000 0.000000 0.000000
# 4 0.000000 0.000000 0.000000 0.439357 0.000000 0.000000
# 5 0.000000 0.000000 0.000000 0.000000 0.029170 0.000000
# 6 0.000000 0.000000 0.000000 0.000000 0.000000 -0.047997
#
#
# Mechanical properties :
#
#
# Convention : Reuss Voigt Hill
#
# Bulk Modulus (GPa) = 54.34038 59.34786 56.84412
# Shear Modulus (GPa) = 10.61605 20.61939 15.61772
#
# Velocity S-wave (km/s) = 2.27391 3.16905 2.75804
# Velocity P-wave (km/s) = 5.77592 6.50358 6.15052
#
# Compressibility (1/GPa) = 0.01840252
#
# Stress axis : x y z
#
# Youngs Moduli (GPa) = 141.24512 103.85110 68.24609
#
# Poissons Ratio (x) = 0.17492 0.12045
# Poissons Ratio (y) = 0.23791 0.20682
# Poissons Ratio (z) = 0.24928 0.31472
#
# Static dielectric constant tensor:
#      x y z
#    x 1.795460 0.000000 0.000000 
#    y 0.000000 1.759660 0.000000 
#    z 0.000000 0.000000 1.687370 
# 
# From -- ./inp_files/10622.got.cif
#   From: 2010.05.17/outbox.cif.g08.bks.cpg/sg51_6_cif.got.tgz:10622.got - 2010.06.03 11:52:47.
