data_PCOD9399631
_publ_section_title
;
Structure prediction by ZEFSAII (Michael W. Deem and Ramdas Pophale) SiO2 
 PCOD9399631
Probable space group: P M M A
;
_chemical_formula_sum "Si O2"
_cell_formula_units_Z 48
_cell_length_a 8.463767
_cell_length_b 21.177685
_cell_length_c 14.899791
_cell_angle_alpha 90.000000
_cell_angle_beta 90.000000
_cell_angle_gamma 90.000000
_cell_volume 2670.683111
_symmetry_space_group_name_H-M "P M M A"
_symmetry_group_IT_number 51
_symmetry_cell_setting 'orthorhombic'
loop_
_space_group_symop_operation_xyz
x,y,z
1/2-x,-y,z
1/2+x,-y,-z
-x,y,-z
-x,-y,-z
1/2+x,y,-z
1/2-x,y,z
x,-y,z
loop_
_atom_site_type_symbol
_atom_site_label
_atom_site_fract_x
_atom_site_fract_y
_atom_site_fract_z
Si Si1 0.442888 0.930266 0.211849
Si Si2 0.559240 0.428077 0.900533
Si Si3 0.062446 0.262133 0.595333
Si Si4 0.938780 0.881238 0.596117
Si Si5 0.440843 0.191954 0.101264
Si Si6 0.941316 0.312294 0.778719
O O1 0.250000 0.929188 0.211364
O O2 0.492330 0.917674 0.314800
O O3 0.495725 0.872591 0.149342
O O4 0.493701 0.000000 0.182425
O O5 0.750000 0.427560 0.902173
O O6 0.507119 0.500000 0.881148
O O7 0.507678 0.376199 0.828567
O O8 0.500000 0.411193 0.000000
O O9 0.250000 0.256665 0.591882
O O10 0.000000 0.286871 0.500000
O O11 0.991412 0.191632 0.606220
O O12 0.009102 0.303016 0.679860
O O13 0.750000 0.882977 0.593809
O O14 0.000000 0.904808 0.500000
O O15 0.250000 0.191465 0.100395
O O16 0.489937 0.252177 0.160663
O O17 0.500000 0.196651 0.000000
O O18 0.750000 0.311759 0.773288
#
# Coordination Sequence:
#
# PCOD9399631 Si02
#       6
#     8   8   8   8   8   8
#     4   9  18  33  51  69  96 135 171 205 255 310
#     4   9  18  32  52  79 112 146 177 211 254 304
#     4  11  21  33  53  79 106 134 169 210 257 306
#     4  10  18  32  52  74 101 131 166 206 258 309
#     4  10  20  34  51  72  98 130 169 213 256 299
#     4  10  19  34  54  77 106 138 172 210 255 302
#
# _framework density 17.972930000000002
#
# number of rings (size 3 to 8) (size 9 to 14) (size 15 to 20)
#    0.000    2.167    1.667    3.500    0.000    2.000 
#    0.000    0.000    0.000    4.000    0.000    0.000 
#    0.000    0.000    0.000    0.000    0.000    0.000 
#
# Total GULP energy -267905.490156 kJ/mol
# GULP energy per Si atom -5581.364378 kJ/mol
# Density = 1.793202 g / cm^3
# Si number density = 17.972930 Si / 1000 Ang^3
#
#
#
# Elastic Constant Matrix: (Units=GPa)
#
#
# Indices 1 2 3 4 5 6 
#
# 1 23.1544 14.2684 18.8629 0.0000 0.0000 0.0000
# 2 14.2684 94.5324 69.2166 0.0000 0.0000 0.0000
# 3 18.8629 69.2166 140.9660 0.0000 0.0000 0.0000
# 4 0.0000 0.0000 0.0000 25.9462 0.0000 0.0000
# 5 0.0000 0.0000 0.0000 0.0000 32.8678 0.0000
# 6 0.0000 0.0000 0.0000 0.0000 0.0000 -5.9974
#
#
#
# Elastic Compliance Matrix: (Units=1/GPa)
#
#
# Indices 1 2 3 4 5 6 
#
# 1 0.049465 -0.004090 -0.004611 0.000000 0.000000 0.000000
# 2 -0.004090 0.016855 -0.007729 0.000000 0.000000 0.000000
# 3 -0.004611 -0.007729 0.011506 0.000000 0.000000 0.000000
# 4 0.000000 0.000000 0.000000 0.038541 0.000000 0.000000
# 5 0.000000 0.000000 0.000000 0.000000 0.030425 0.000000
# 6 0.000000 0.000000 0.000000 0.000000 0.000000 -0.166739
#
#
# Mechanical properties :
#
#
# Convention : Reuss Voigt Hill
#
# Bulk Modulus (GPa) = 22.23881 51.48316 36.86099
# Shear Modulus (GPa) = 179.21195 20.98366 100.09780
#
# Velocity S-wave (km/s) = 9.99643 3.42060 7.47091
# Velocity P-wave (km/s) = 12.06808 6.65640 9.74541
#
# Compressibility (1/GPa) = 0.04496643
#
# Stress axis : x y z
#
# Youngs Moduli (GPa) = 20.21639 59.33102 86.91328
#
# Poissons Ratio (x) = 0.24267 0.40073
# Poissons Ratio (y) = 0.08269 0.67172
# Poissons Ratio (z) = 0.09321 0.45854
#
# Static dielectric constant tensor:
#      x y z
#    x 1.612020 0.000000 0.000000 
#    y 0.000000 1.617890 0.000000 
#    z 0.000000 0.000000 1.599500 
# 
# From -- ./inp_files/21128.got.cif
#   From: 2010.05.17/outbox.cif.g08.bks.cpg/sg51_11_cif.got.tgz:21128.got - 2010.06.03 11:52:47.
