data_PCOD9399603
_publ_section_title
;
Structure prediction by ZEFSAII (Michael W. Deem and Ramdas Pophale) SiO2 
 PCOD9399603
Probable space group: P M M A
;
_chemical_formula_sum "Si O2"
_cell_formula_units_Z 64
_cell_length_a 8.552761
_cell_length_b 32.178788
_cell_length_c 14.756514
_cell_angle_alpha 90.000000
_cell_angle_beta 90.000000
_cell_angle_gamma 90.000000
_cell_volume 4061.250641
_symmetry_space_group_name_H-M "P M M A"
_symmetry_group_IT_number 51
_symmetry_cell_setting 'orthorhombic'
loop_
_space_group_symop_operation_xyz
x,y,z
1/2-x,-y,z
1/2+x,-y,-z
-x,y,-z
-x,-y,-z
1/2+x,y,-z
1/2-x,y,z
x,-y,z
loop_
_atom_site_type_symbol
_atom_site_label
_atom_site_fract_x
_atom_site_fract_y
_atom_site_fract_z
Si Si1 0.437400 0.954798 0.896761
Si Si2 0.062859 0.867819 0.102723
Si Si3 0.559361 0.625723 0.785617
Si Si4 0.437739 0.337552 0.402683
Si Si5 0.939090 0.547200 0.899179
Si Si6 0.061228 0.706846 0.101895
Si Si7 0.939150 0.787568 0.782079
Si Si8 0.063913 0.243775 0.597368
O O1 0.250000 0.952153 0.898607
O O2 0.504896 0.912028 0.858327
O O3 0.481161 0.000000 0.856334
O O4 0.500000 0.955426 0.000000
O O5 0.250000 0.868494 0.097762
O O6 0.013607 0.829013 0.164275
O O7 0.000000 0.862990 0.000000
O O8 0.750000 0.625570 0.785843
O O9 0.510707 0.634899 0.682692
O O10 0.507023 0.582491 0.829504
O O11 0.509929 0.664671 0.847789
O O12 0.500000 0.351894 0.500000
O O13 0.250000 0.336345 0.404920
O O14 0.496944 0.290412 0.388588
O O15 0.750000 0.547938 0.901402
O O16 0.988081 0.500000 0.876226
O O17 0.000000 0.556666 0.000000
O O18 0.250000 0.706750 0.099726
O O19 0.012246 0.747085 0.159783
O O20 0.000000 0.708784 0.000000
O O21 0.750000 0.786970 0.775752
O O22 0.008331 0.783399 0.682016
O O23 0.250000 0.246042 0.593747
O O24 0.000000 0.229229 0.500000
#
# Coordination Sequence:
#
# PCOD9399603 Si02
#       8
#     8   8   8   8   8   8   8   8
#     4   9  16  26  41  60  84 116 156 200 240 276
#     4  10  19  29  44  64  91 126 161 195 234 276
#     4   9  17  30  48  66  90 122 149 185 231 271
#     4  10  18  32  50  68  92 117 148 187 231 275
#     4   9  17  30  48  70  93 119 152 186 225 272
#     4  10  19  31  44  61  89 122 154 187 222 263
#     4  10  20  34  47  63  92 127 156 189 229 272
#     4  11  21  33  51  71  91 117 152 192 234 275
#
# _framework density 15.758692999999999
#
# number of rings (size 3 to 8) (size 9 to 14) (size 15 to 20)
#    0.000    2.250    1.250    4.500    0.000    2.250 
#    0.000    1.250    0.000    0.375    0.000    0.000 
#    0.000    0.500    0.000    1.625    0.000    3.125 
#
# Total GULP energy -356860.427039 kJ/mol
# GULP energy per Si atom -5575.944172 kJ/mol
# Density = 1.572283 g / cm^3
# Si number density = 15.758693 Si / 1000 Ang^3
#
#
#
# Elastic Constant Matrix: (Units=GPa)
#
#
# Indices 1 2 3 4 5 6 
#
# 1 35.7689 28.9435 28.2341 0.0000 0.0000 0.0000
# 2 28.9435 132.0618 80.0291 0.0000 0.0000 0.0000
# 3 28.2341 80.0291 125.8307 0.0000 0.0000 0.0000
# 4 0.0000 0.0000 0.0000 6.4939 0.0000 0.0000
# 5 0.0000 0.0000 0.0000 0.0000 24.9779 0.0000
# 6 0.0000 0.0000 0.0000 0.0000 0.0000 25.0652
#
#
#
# Elastic Compliance Matrix: (Units=1/GPa)
#
#
# Indices 1 2 3 4 5 6 
#
# 1 0.035783 -0.004844 -0.004948 0.000000 0.000000 0.000000
# 2 -0.004844 0.012977 -0.007166 0.000000 0.000000 0.000000
# 3 -0.004948 -0.007166 0.013615 0.000000 0.000000 0.000000
# 4 0.000000 0.000000 0.000000 0.153990 0.000000 0.000000
# 5 0.000000 0.000000 0.000000 0.000000 0.040035 0.000000
# 6 0.000000 0.000000 0.000000 0.000000 0.000000 0.039896
#
#
# Mechanical properties :
#
#
# Convention : Reuss Voigt Hill
#
# Bulk Modulus (GPa) = 35.13976 63.11943 49.12960
# Shear Modulus (GPa) = 14.71896 21.73775 18.22835
#
# Velocity S-wave (km/s) = 3.05949 3.71807 3.40474
# Velocity P-wave (km/s) = 5.90150 7.65329 6.83376
#
# Compressibility (1/GPa) = 0.02845779
#
# Stress axis : x y z
#
# Youngs Moduli (GPa) = 27.94653 77.06210 73.44654
#
# Poissons Ratio (x) = 0.37326 0.36344
# Poissons Ratio (y) = 0.13536 0.52634
# Poissons Ratio (z) = 0.13829 0.55225
#
# Static dielectric constant tensor:
#      x y z
#    x 1.537170 0.000000 0.000000 
#    y 0.000000 1.544890 0.000000 
#    z 0.000000 0.000000 1.508530 
# 
# From -- ./inp_files/22614.got.cif
#   From: 2010.05.17/outbox.cif.g08.bks.cpg/sg51_12_cif.got.tgz:22614.got - 2010.06.03 11:52:47.
