data_PCOD9399924
_publ_section_title
;
Structure prediction by ZEFSAII (Michael W. Deem and Ramdas Pophale) SiO2 
 PCOD9399924
Probable space group: P M M A
;
_chemical_formula_sum "Si O2"
_cell_formula_units_Z 58
_cell_length_a 31.294360
_cell_length_b 7.645551
_cell_length_c 12.461630
_cell_angle_alpha 90.000000
_cell_angle_beta 90.000000
_cell_angle_gamma 90.000000
_cell_volume 2981.602310
_symmetry_space_group_name_H-M "P M M A"
_symmetry_group_IT_number 51
_symmetry_cell_setting 'orthorhombic'
loop_
_space_group_symop_operation_xyz
x,y,z
1/2-x,-y,z
1/2+x,-y,-z
-x,y,-z
-x,-y,-z
1/2+x,y,-z
1/2-x,y,z
x,-y,z
loop_
_atom_site_type_symbol
_atom_site_label
_atom_site_fract_x
_atom_site_fract_y
_atom_site_fract_z
Si Si1 0.459495 0.288094 0.840797
Si Si2 0.445905 0.795368 0.197094
Si Si3 0.111689 0.703954 0.006911
Si Si4 0.040607 0.793251 0.435705
Si Si5 0.203199 0.712186 0.937308
Si Si6 0.688487 0.801233 0.312200
Si Si7 0.250000 0.500000 0.611766
Si Si8 0.592460 0.709781 0.364579
O O1 0.460793 0.500000 0.846498
O O2 0.507706 0.226589 0.857769
O O3 0.443298 0.234925 0.722373
O O4 0.423819 0.222430 0.924587
O O5 0.409077 0.715782 0.123731
O O6 0.450782 0.720431 0.317367
O O7 0.436063 0.000000 0.204874
O O8 0.115347 0.500000 0.976852
O O9 0.159691 0.775785 0.994292
O O10 0.079583 0.770232 0.517302
O O11 0.000000 0.716832 0.500000
O O12 0.032188 0.000000 0.420455
O O13 0.250000 0.773226 0.976693
O O14 0.204046 0.500000 0.942644
O O15 0.199128 0.763017 0.812480
O O16 0.713107 0.654392 0.378868
O O17 0.637940 0.780133 0.327888
O O18 0.700460 0.000000 0.338157
O O19 0.594035 0.500000 0.362004
#
# Coordination Sequence:
#
# PCOD9399924 Si02
#       8
#     8   8   8   8   8   8   2   8
#     4  10  20  34  55  78 116 154 188 229 294 357
#     4  11  23  37  53  78 112 151 200 251 286 341
#     4  10  21  36  55  79 116 154 187 236 297 356
#     4  10  21  38  56  78 111 150 198 250 295 347
#     4  10  18  35  57  83 116 150 189 241 291 355
#     4  12  22  35  60  88 123 161 191 243 305 355
#     4  12  22  40  56  86 130 152 206 240 292 386
#     4  11  21  36  57  87 119 150 195 248 293 355
#
# _framework density 19.452628000000001
#
# number of rings (size 3 to 8) (size 9 to 14) (size 15 to 20)
#    0.000    1.379    4.828    1.448    0.000    4.690 
#    0.000    0.000    0.000    0.000    1.793    0.000 
#    0.000    0.000    0.000    0.000    0.000    0.000 
#
# Total GULP energy -323349.933213 kJ/mol
# GULP energy per Si atom -5574.998848 kJ/mol
# Density = 1.940835 g / cm^3
# Si number density = 19.452628 Si / 1000 Ang^3
#
#
#
# Elastic Constant Matrix: (Units=GPa)
#
#
# Indices 1 2 3 4 5 6 
#
# 1 141.1786 -5.3311 42.2398 0.0000 0.0000 0.0000
# 2 -5.3311 55.4543 -7.7456 0.0000 0.0000 0.0000
# 3 42.2398 -7.7456 86.4358 0.0000 0.0000 0.0000
# 4 0.0000 0.0000 0.0000 16.5867 0.0000 0.0000
# 5 0.0000 0.0000 0.0000 0.0000 35.1378 0.0000
# 6 0.0000 0.0000 0.0000 0.0000 0.0000 20.3402
#
#
#
# Elastic Compliance Matrix: (Units=1/GPa)
#
#
# Indices 1 2 3 4 5 6 
#
# 1 0.008299 0.000234 -0.004035 0.000000 0.000000 0.000000
# 2 0.000234 0.018268 0.001523 0.000000 0.000000 0.000000
# 3 -0.004035 0.001523 0.013677 0.000000 0.000000 0.000000
# 4 0.000000 0.000000 0.000000 0.060289 0.000000 0.000000
# 5 0.000000 0.000000 0.000000 0.000000 0.028459 0.000000
# 6 0.000000 0.000000 0.000000 0.000000 0.000000 0.049164
#
#
# Mechanical properties :
#
#
# Convention : Reuss Voigt Hill
#
# Bulk Modulus (GPa) = 28.01990 37.93277 32.97634
# Shear Modulus (GPa) = 25.69250 31.33996 28.51623
#
# Velocity S-wave (km/s) = 3.63819 4.01819 3.83290
# Velocity P-wave (km/s) = 5.66427 6.40861 6.04790
#
# Compressibility (1/GPa) = 0.03568892
#
# Stress axis : x y z
#
# Youngs Moduli (GPa) = 120.49302 54.74035 73.11324
#
# Poissons Ratio (x) = -0.01283 0.29499
# Poissons Ratio (y) = -0.02823 -0.11132
# Poissons Ratio (z) = 0.48615 -0.08334
#
# Static dielectric constant tensor:
#      x y z
#    x 1.720760 0.000000 0.000000 
#    y 0.000000 1.711580 0.000000 
#    z 0.000000 0.000000 1.683640 
# 
# From -- ./inp_files/26432.got.cif
#   From: 2010.05.17/outbox.cif.g08.bks.cpg/sg51_14_cif.got.tgz:26432.got - 2010.06.03 11:52:47.
