data_PCOD9399133
_publ_section_title
;
Structure prediction by ZEFSAII (Michael W. Deem and Ramdas Pophale) SiO2 
 PCOD9399133
Probable space group: P M M A
;
_chemical_formula_sum "Si O2"
_cell_formula_units_Z 40
_cell_length_a 9.735838
_cell_length_b 21.113358
_cell_length_c 11.546216
_cell_angle_alpha 90.000000
_cell_angle_beta 90.000000
_cell_angle_gamma 90.000000
_cell_volume 2373.396668
_symmetry_space_group_name_H-M "P M M A"
_symmetry_group_IT_number 51
_symmetry_cell_setting 'orthorhombic'
loop_
_space_group_symop_operation_xyz
x,y,z
1/2-x,-y,z
1/2+x,-y,-z
-x,y,-z
-x,-y,-z
1/2+x,y,-z
1/2-x,y,z
x,-y,z
loop_
_atom_site_type_symbol
_atom_site_label
_atom_site_fract_x
_atom_site_fract_y
_atom_site_fract_z
Si Si1 0.592933 0.638644 0.707865
Si Si2 0.410014 0.286069 0.884873
Si Si3 0.909719 0.500000 0.613683
Si Si4 0.901993 0.821139 0.304062
Si Si5 0.500000 0.726349 0.500000
Si Si6 0.588600 0.928398 0.617843
O O1 0.750000 0.646334 0.749361
O O2 0.483842 0.663981 0.799953
O O3 0.566425 0.565080 0.681794
O O4 0.578396 0.680012 0.589521
O O5 0.250000 0.301508 0.907701
O O6 0.412490 0.221481 0.810214
O O7 0.500000 0.280934 0.000000
O O8 0.750000 0.500000 0.579601
O O9 0.000000 0.500000 0.500000
O O10 0.750000 0.850409 0.310084
O O11 0.917909 0.773540 0.414174
O O12 0.020359 0.873372 0.307197
O O13 0.500000 0.926633 0.500000
O O14 0.750000 0.916599 0.596347
O O15 0.575835 0.000000 0.665320
#
# Coordination Sequence:
#
# PCOD9399133 Si02
#       6
#     8   8   4   8   4   8
#     4  10  20  34  54  79 110 143 177 219 266 315
#     4  10  22  39  58  80 105 136 179 224 271 318
#     4  10  20  34  53  80 111 146 179 213 261 319
#     4  10  20  32  51  79 107 137 174 216 263 314
#     4  10  18  29  51  78 110 138 176 210 264 314
#     4  10  20  32  48  73 107 145 179 212 255 309
#
# _framework density 16.853484000000002
#
# number of rings (size 3 to 8) (size 9 to 14) (size 15 to 20)
#    0.000    2.000    2.000    1.800    0.000    6.800 
#    0.000    0.500    0.000    0.600    0.000    0.000 
#    0.000    0.000    0.000    0.000    0.000    0.000 
#
# Total GULP energy -222981.543525 kJ/mol
# GULP energy per Si atom -5574.538588 kJ/mol
# Density = 1.681512 g / cm^3
# Si number density = 16.853484 Si / 1000 Ang^3
#
#
#
# Elastic Constant Matrix: (Units=GPa)
#
#
# Indices 1 2 3 4 5 6 
#
# 1 152.1585 72.7728 60.4006 0.0000 0.0000 0.0000
# 2 72.7728 100.8795 29.3865 0.0000 0.0000 0.0000
# 3 60.4006 29.3865 89.3863 0.0000 0.0000 0.0000
# 4 0.0000 0.0000 0.0000 6.4310 0.0000 0.0000
# 5 0.0000 0.0000 0.0000 0.0000 24.2191 0.0000
# 6 0.0000 0.0000 0.0000 0.0000 0.0000 24.5304
#
#
#
# Elastic Compliance Matrix: (Units=1/GPa)
#
#
# Indices 1 2 3 4 5 6 
#
# 1 0.012400 -0.007193 -0.006014 0.000000 0.000000 0.000000
# 2 -0.007193 0.015135 -0.000115 0.000000 0.000000 0.000000
# 3 -0.006014 -0.000115 0.015289 0.000000 0.000000 0.000000
# 4 0.000000 0.000000 0.000000 0.155498 0.000000 0.000000
# 5 0.000000 0.000000 0.000000 0.000000 0.041290 0.000000
# 6 0.000000 0.000000 0.000000 0.000000 0.000000 0.040766
#
#
# Mechanical properties :
#
#
# Convention : Reuss Voigt Hill
#
# Bulk Modulus (GPa) = 61.80709 74.17156 67.98932
# Shear Modulus (GPa) = 16.00436 23.02706 19.51571
#
# Velocity S-wave (km/s) = 3.08493 3.70037 3.40658
# Velocity P-wave (km/s) = 7.03149 7.89697 7.47676
#
# Compressibility (1/GPa) = 0.01617937
#
# Stress axis : x y z
#
# Youngs Moduli (GPa) = 80.64804 66.07071 65.40603
#
# Poissons Ratio (x) = 0.47524 0.39335
# Poissons Ratio (y) = 0.58010 0.00755
# Poissons Ratio (z) = 0.48501 0.00762
#
# Static dielectric constant tensor:
#      x y z
#    x 1.574810 0.000000 0.000000 
#    y 0.000000 1.578350 0.000000 
#    z 0.000000 0.000000 1.543680 
# 
# From -- ./inp_files/14245.got.cif
#   From: 2010.05.17/outbox.cif.g08.bks.cpg/sg51_8_cif.got.tgz:14245.got - 2010.06.03 11:52:47.
