data_PCOD9399843
_publ_section_title
;
Structure prediction by ZEFSAII (Michael W. Deem and Ramdas Pophale) SiO2 
 PCOD9399843
Probable space group: P M M A
;
_chemical_formula_sum "Si O2"
_cell_formula_units_Z 48
_cell_length_a 22.664581
_cell_length_b 7.652789
_cell_length_c 12.278387
_cell_angle_alpha 90.000000
_cell_angle_beta 90.000000
_cell_angle_gamma 90.000000
_cell_volume 2129.652535
_symmetry_space_group_name_H-M "P M M A"
_symmetry_group_IT_number 51
_symmetry_cell_setting 'orthorhombic'
loop_
_space_group_symop_operation_xyz
x,y,z
1/2-x,-y,z
1/2+x,-y,-z
-x,y,-z
-x,-y,-z
1/2+x,y,-z
1/2-x,y,z
x,-y,z
loop_
_atom_site_type_symbol
_atom_site_label
_atom_site_fract_x
_atom_site_fract_y
_atom_site_fract_z
Si Si1 0.433371 0.196443 0.505177
Si Si2 0.314652 0.214086 0.622787
Si Si3 0.980865 0.788998 0.120920
Si Si4 0.185668 0.211276 0.104259
Si Si5 0.085104 0.305227 0.274183
Si Si6 0.655159 0.787877 0.137357
O O1 0.500000 0.276155 0.500000
O O2 0.376623 0.273438 0.568737
O O3 0.412951 0.186974 0.380040
O O4 0.442210 0.000000 0.551920
O O5 0.250000 0.266978 0.576858
O O6 0.316271 0.267490 0.749713
O O7 0.316001 0.000000 0.617181
O O8 0.913609 0.742278 0.140887
O O9 0.023469 0.716094 0.212289
O O10 0.986211 0.000000 0.123650
O O11 0.000000 0.732166 0.000000
O O12 0.250000 0.263691 0.145376
O O13 0.134275 0.271007 0.183383
O O14 0.182673 0.000000 0.101453
O O15 0.178694 0.272967 0.979500
O O16 0.091703 0.500000 0.316860
O O17 0.660216 0.000000 0.135440
#
# Coordination Sequence:
#
# PCOD9399843 Si02
#       6
#     8   8   8   8   8   8
#     4  10  21  39  62  84 110 147 197 250 297 347
#     4   9  17  30  53  86 115 139 179 239 300 350
#     4  10  18  33  58  84 113 146 188 234 280 342
#     4  10  20  36  59  85 114 151 195 238 283 342
#     4  12  25  38  55  82 120 155 190 234 289 358
#     4   9  16  30  55  87 117 143 176 232 295 345
#
# _framework density 22.538886999999999
#
# number of rings (size 3 to 8) (size 9 to 14) (size 15 to 20)
#    0.000    2.000    1.667    3.000    0.000    6.333 
#    0.000    1.667    0.000    1.000    0.000    0.000 
#    0.000    0.000    0.000    0.000    0.000    0.000 
#
# Total GULP energy -268032.375691 kJ/mol
# GULP energy per Si atom -5584.007827 kJ/mol
# Density = 2.248759 g / cm^3
# Si number density = 22.538887 Si / 1000 Ang^3
#
#
#
# Elastic Constant Matrix: (Units=GPa)
#
#
# Indices 1 2 3 4 5 6 
#
# 1 165.9579 13.5783 43.6673 0.0000 0.0000 0.0000
# 2 13.5783 48.9482 -0.8465 0.0000 0.0000 0.0000
# 3 43.6673 -0.8465 96.9373 0.0000 0.0000 0.0000
# 4 0.0000 0.0000 0.0000 50.3462 0.0000 0.0000
# 5 0.0000 0.0000 0.0000 0.0000 18.0995 0.0000
# 6 0.0000 0.0000 0.0000 0.0000 0.0000 13.3330
#
#
#
# Elastic Compliance Matrix: (Units=1/GPa)
#
#
# Indices 1 2 3 4 5 6 
#
# 1 0.007027 -0.002004 -0.003183 0.000000 0.000000 0.000000
# 2 -0.002004 0.021005 0.001086 0.000000 0.000000 0.000000
# 3 -0.003183 0.001086 0.011759 0.000000 0.000000 0.000000
# 4 0.000000 0.000000 0.000000 0.019862 0.000000 0.000000
# 5 0.000000 0.000000 0.000000 0.000000 0.055250 0.000000
# 6 0.000000 0.000000 0.000000 0.000000 0.000000 0.075002
#
#
# Mechanical properties :
#
#
# Convention : Reuss Voigt Hill
#
# Bulk Modulus (GPa) = 31.65674 47.18241 39.41957
# Shear Modulus (GPa) = 23.96506 33.38537 28.67522
#
# Velocity S-wave (km/s) = 3.26433 3.85286 3.57074
# Velocity P-wave (km/s) = 5.31824 6.38529 5.87603
#
# Compressibility (1/GPa) = 0.03158885
#
# Stress axis : x y z
#
# Youngs Moduli (GPa) = 142.30533 47.60872 85.03921
#
# Poissons Ratio (x) = 0.09543 0.27068
# Poissons Ratio (y) = 0.28523 -0.09238
# Poissons Ratio (z) = 0.45296 -0.05172
#
# Static dielectric constant tensor:
#      x y z
#    x 1.822460 0.000000 0.000000 
#    y 0.000000 1.879570 0.000000 
#    z 0.000000 0.000000 1.789960 
# 
# From -- ./inp_files/18604.got.cif
#   From: 2010.05.17/outbox.cif.g08.bks.cpg/sg51_10_cif.got.tgz:18604.got - 2010.06.03 11:52:47.
