data_PCOD9399020
_publ_section_title
;
Structure prediction by ZEFSAII (Michael W. Deem and Ramdas Pophale) SiO2 
 PCOD9399020
Probable space group: P M M A
;
_chemical_formula_sum "Si O2"
_cell_formula_units_Z 64
_cell_length_a 26.053565
_cell_length_b 8.889767
_cell_length_c 17.625258
_cell_angle_alpha 90.000000
_cell_angle_beta 90.000000
_cell_angle_gamma 90.000000
_cell_volume 4082.188162
_symmetry_space_group_name_H-M "P M M A"
_symmetry_group_IT_number 51
_symmetry_cell_setting 'orthorhombic'
loop_
_space_group_symop_operation_xyz
x,y,z
1/2-x,-y,z
1/2+x,-y,-z
-x,y,-z
-x,-y,-z
1/2+x,y,-z
1/2-x,y,z
x,-y,z
loop_
_atom_site_type_symbol
_atom_site_label
_atom_site_fract_x
_atom_site_fract_y
_atom_site_fract_z
Si Si1 0.440488 0.180926 0.662348
Si Si2 0.398493 0.681212 0.181368
Si Si3 0.000606 0.682966 0.087144
Si Si4 0.309415 0.820289 0.085583
Si Si5 0.190812 0.680860 0.922523
Si Si6 0.446036 0.320772 0.340044
Si Si7 0.401469 0.318234 0.813667
Si Si8 0.437686 0.826289 0.494904
O O1 0.498271 0.244600 0.670536
O O2 0.407873 0.244127 0.731777
O O3 0.420508 0.225925 0.578360
O O4 0.442687 0.000000 0.663539
O O5 0.394381 0.500000 0.175917
O O6 0.447837 0.728374 0.131054
O O7 0.347949 0.754585 0.147265
O O8 0.410893 0.720099 0.268405
O O9 0.000345 0.500000 0.085689
O O10 0.950179 0.727595 0.134263
O O11 0.000000 0.735045 0.000000
O O12 0.250000 0.777725 0.100129
O O13 0.312766 0.000000 0.083639
O O14 0.323194 0.754719 0.002814
O O15 0.250000 0.720520 0.904903
O O16 0.187944 0.500000 0.931579
O O17 0.150454 0.723283 0.857752
O O18 0.453555 0.500000 0.339387
O O19 0.424048 0.268938 0.421053
O O20 0.403131 0.500000 0.805760
O O21 0.500000 0.823308 0.500000
O O22 0.422560 0.000000 0.483482
#
# Coordination Sequence:
#
# PCOD9399020 Si02
#       8
#     8   8   8   8   8   8   8   8
#     4  10  19  30  44  65  97 130 158 190 230 279
#     4  10  19  31  47  69  95 123 157 193 235 283
#     4   9  16  27  43  63  90 123 153 183 227 278
#     4  10  21  35  50  69  93 122 159 201 240 277
#     4   9  18  33  53  73  92 121 161 201 242 281
#     4  10  18  29  46  69  95 123 157 195 232 276
#     4  10  18  30  48  69  95 125 158 197 235 276
#     4   8  16  29  43  62  91 127 159 188 228 275
#
# _framework density 15.677867000000001
#
# number of rings (size 3 to 8) (size 9 to 14) (size 15 to 20)
#    0.000    2.500    1.250    2.625    0.000    7.000 
#    0.000    0.000    0.000    1.500    0.000    0.875 
#    0.000    3.000    0.000    0.000    0.000    0.000 
#
# Total GULP energy -356780.400625 kJ/mol
# GULP energy per Si atom -5574.693760 kJ/mol
# Density = 1.564218 g / cm^3
# Si number density = 15.677867 Si / 1000 Ang^3
#
#
#
# Elastic Constant Matrix: (Units=GPa)
#
#
# Indices 1 2 3 4 5 6 
#
# 1 67.7946 27.9282 68.6918 0.0000 0.0000 0.0000
# 2 27.9282 27.0431 47.0863 0.0000 0.0000 0.0000
# 3 68.6918 47.0863 168.8195 0.0000 0.0000 0.0000
# 4 0.0000 0.0000 0.0000 15.1072 0.0000 0.0000
# 5 0.0000 0.0000 0.0000 0.0000 18.6543 0.0000
# 6 0.0000 0.0000 0.0000 0.0000 0.0000 14.7743
#
#
#
# Elastic Compliance Matrix: (Units=1/GPa)
#
#
# Indices 1 2 3 4 5 6 
#
# 1 0.029141 -0.018371 -0.006733 0.000000 0.000000 0.000000
# 2 -0.018371 0.083472 -0.015807 0.000000 0.000000 0.000000
# 3 -0.006733 -0.015807 0.013072 0.000000 0.000000 0.000000
# 4 0.000000 0.000000 0.000000 0.066193 0.000000 0.000000
# 5 0.000000 0.000000 0.000000 0.000000 0.053607 0.000000
# 6 0.000000 0.000000 0.000000 0.000000 0.000000 0.067685
#
#
# Mechanical properties :
#
#
# Convention : Reuss Voigt Hill
#
# Bulk Modulus (GPa) = 22.79813 61.23000 42.01407
# Shear Modulus (GPa) = 12.20664 17.70389 14.95527
#
# Velocity S-wave (km/s) = 2.79335 3.36404 3.09189
# Velocity P-wave (km/s) = 4.99769 7.36403 6.29308
#
# Compressibility (1/GPa) = 0.04386324
#
# Stress axis : x y z
#
# Youngs Moduli (GPa) = 34.31608 11.98006 76.49954
#
# Poissons Ratio (x) = 0.22008 0.51510
# Poissons Ratio (y) = 0.63041 1.20920
# Poissons Ratio (z) = 0.23106 0.18936
#
# Static dielectric constant tensor:
#      x y z
#    x 1.503190 0.000000 0.000000 
#    y 0.000000 1.527190 0.000000 
#    z 0.000000 0.000000 1.533880 
# 
# From -- ./inp_files/30914.got.cif
#   From: 2010.05.17/outbox.cif.g08.bks.cpg/sg51_16_cif.got.tgz:30914.got - 2010.06.03 11:52:47.
