data_PCOD9399150
_publ_section_title
;
Structure prediction by ZEFSAII (Michael W. Deem and Ramdas Pophale) SiO2 
 PCOD9399150
Probable space group: P M M A
;
_chemical_formula_sum "Si O2"
_cell_formula_units_Z 64
_cell_length_a 8.583224
_cell_length_b 24.449625
_cell_length_c 19.683256
_cell_angle_alpha 90.000000
_cell_angle_beta 90.000000
_cell_angle_gamma 90.000000
_cell_volume 4130.661340
_symmetry_space_group_name_H-M "P M M A"
_symmetry_group_IT_number 51
_symmetry_cell_setting 'orthorhombic'
loop_
_space_group_symop_operation_xyz
x,y,z
1/2-x,-y,z
1/2+x,-y,-z
-x,y,-z
-x,-y,-z
1/2+x,y,-z
1/2-x,y,z
x,-y,z
loop_
_atom_site_type_symbol
_atom_site_label
_atom_site_fract_x
_atom_site_fract_y
_atom_site_fract_z
Si Si1 0.564836 0.728226 0.286054
Si Si2 0.061288 0.166762 0.205976
Si Si3 0.940301 0.061551 0.712885
Si Si4 0.438350 0.664755 0.162055
Si Si5 0.562507 0.884332 0.572455
Si Si6 0.562917 0.770939 0.924720
Si Si7 0.438163 0.562441 0.074926
Si Si8 0.436592 0.756536 0.426995
O O1 0.750000 0.730066 0.286436
O O2 0.499269 0.784886 0.254430
O O3 0.506906 0.681251 0.234737
O O4 0.501481 0.724373 0.362406
O O5 0.250000 0.168735 0.209056
O O6 0.010115 0.108091 0.233937
O O7 0.013691 0.182785 0.129569
O O8 0.750000 0.061356 0.713170
O O9 0.988873 0.081173 0.637655
O O10 0.992777 0.000000 0.727357
O O11 0.250000 0.665687 0.167295
O O12 0.483919 0.713125 0.109451
O O13 0.488095 0.607124 0.130146
O O14 0.500000 0.904065 0.500000
O O15 0.750000 0.885453 0.570640
O O16 0.514913 0.820642 0.580787
O O17 0.750000 0.771260 0.927790
O O18 0.500000 0.777488 0.000000
O O19 0.250000 0.563513 0.072491
O O20 0.487485 0.500000 0.089835
O O21 0.500000 0.576898 0.000000
O O22 0.500000 0.737972 0.500000
O O23 0.250000 0.754759 0.426731
#
# Coordination Sequence:
#
# PCOD9399150 Si02
#       8
#     8   8   8   8   8   8   8   8
#     4  11  20  29  45  68  90 117 152 189 228 271
#     4   9  17  32  47  62  85 113 141 178 226 273
#     4   9  16  28  47  65  80 106 146 183 215 261
#     4   9  18  31  45  64  93 126 155 189 227 264
#     4   9  17  28  43  62  84 111 140 174 211 253
#     4   9  17  27  43  63  85 111 141 177 223 268
#     4   9  17  29  46  68  96 132 169 199 229 267
#     4  10  18  30  46  65  91 121 149 183 223 270
#
# _framework density 15.493887000000001
#
# number of rings (size 3 to 8) (size 9 to 14) (size 15 to 20)
#    0.000    2.625    1.250    2.625    0.000    3.250 
#    0.000    0.000    0.000    1.500    0.000    0.000 
#    0.000    0.500    0.000    1.375    0.000    2.250 
#
# Total GULP energy -356727.008319 kJ/mol
# GULP energy per Si atom -5573.859505 kJ/mol
# Density = 1.545862 g / cm^3
# Si number density = 15.493887 Si / 1000 Ang^3
#
#
#
# Elastic Constant Matrix: (Units=GPa)
#
#
# Indices 1 2 3 4 5 6 
#
# 1 14.8928 19.4491 27.9708 0.0000 0.0000 0.0000
# 2 19.4491 93.4695 68.9078 0.0000 0.0000 0.0000
# 3 27.9708 68.9078 144.9091 0.0000 0.0000 0.0000
# 4 0.0000 0.0000 0.0000 25.3813 0.0000 0.0000
# 5 0.0000 0.0000 0.0000 0.0000 27.2043 0.0000
# 6 0.0000 0.0000 0.0000 0.0000 0.0000 3.2541
#
#
#
# Elastic Compliance Matrix: (Units=1/GPa)
#
#
# Indices 1 2 3 4 5 6 
#
# 1 0.112726 -0.011418 -0.016329 0.000000 0.000000 0.000000
# 2 -0.011418 0.017630 -0.006180 0.000000 0.000000 0.000000
# 3 -0.016329 -0.006180 0.012991 0.000000 0.000000 0.000000
# 4 0.000000 0.000000 0.000000 0.039399 0.000000 0.000000
# 5 0.000000 0.000000 0.000000 0.000000 0.036759 0.000000
# 6 0.000000 0.000000 0.000000 0.000000 0.000000 0.307306
#
#
# Mechanical properties :
#
#
# Convention : Reuss Voigt Hill
#
# Bulk Modulus (GPa) = 13.24605 53.99187 33.61896
# Shear Modulus (GPa) = 8.06673 20.29750 14.18211
#
# Velocity S-wave (km/s) = 2.28423 3.62336 3.02873
# Velocity P-wave (km/s) = 3.94014 7.24071 5.82892
#
# Compressibility (1/GPa) = 0.07549419
#
# Stress axis : x y z
#
# Youngs Moduli (GPa) = 8.87107 56.72050 76.97369
#
# Poissons Ratio (x) = 0.64761 1.25693
# Poissons Ratio (y) = 0.10129 0.47568
# Poissons Ratio (z) = 0.14486 0.35052
#
# Static dielectric constant tensor:
#      x y z
#    x 1.523270 0.000000 0.000000 
#    y 0.000000 1.515470 0.000000 
#    z 0.000000 0.000000 1.512580 
# 
# From -- ./inp_files/28704.got.cif
#   From: 2010.05.17/outbox.cif.g08.bks.cpg/sg51_15_cif.got.tgz:28704.got - 2010.06.03 11:52:47.
