data_PCOD9399964
_publ_section_title
;
Structure prediction by ZEFSAII (Michael W. Deem and Ramdas Pophale) SiO2 
 PCOD9399964
Probable space group: P M M A
;
_chemical_formula_sum "Si O2"
_cell_formula_units_Z 64
_cell_length_a 7.637726
_cell_length_b 19.499856
_cell_length_c 22.310754
_cell_angle_alpha 90.000000
_cell_angle_beta 90.000000
_cell_angle_gamma 90.000000
_cell_volume 3322.842267
_symmetry_space_group_name_H-M "P M M A"
_symmetry_group_IT_number 51
_symmetry_cell_setting 'orthorhombic'
loop_
_space_group_symop_operation_xyz
x,y,z
1/2-x,-y,z
1/2+x,-y,-z
-x,y,-z
-x,-y,-z
1/2+x,y,-z
1/2-x,y,z
x,-y,z
loop_
_atom_site_type_symbol
_atom_site_label
_atom_site_fract_x
_atom_site_fract_y
_atom_site_fract_z
Si Si1 0.444185 0.680020 0.671504
Si Si2 0.964790 0.777740 0.233353
Si Si3 0.963908 0.925338 0.191056
Si Si4 0.046660 0.425011 0.911354
Si Si5 0.535799 0.277554 0.102723
Si Si6 0.041043 0.870850 0.935290
Si Si7 0.956539 0.577527 0.772462
Si Si8 0.455927 0.424061 0.431098
O O1 0.250000 0.703075 0.656263
O O2 0.532950 0.743980 0.705381
O O3 0.448054 0.626249 0.726451
O O4 0.503724 0.636828 0.614619
O O5 0.750000 0.775707 0.233663
O O6 0.018559 0.856500 0.225144
O O7 0.014458 0.735629 0.172751
O O8 0.750000 0.925504 0.192098
O O9 0.020210 0.913108 0.122125
O O10 0.022615 0.000000 0.212370
O O11 0.250000 0.426107 0.929987
O O12 0.969331 0.500000 0.928896
O O13 0.971080 0.349492 0.925431
O O14 0.035867 0.422778 0.838841
O O15 0.750000 0.280749 0.101612
O O16 0.476631 0.208002 0.070116
O O17 0.250000 0.866919 0.929598
O O18 0.000000 0.900081 0.000000
O O19 0.750000 0.595037 0.776319
O O20 0.967336 0.500000 0.749154
O O21 0.500000 0.408198 0.500000
O O22 0.250000 0.431563 0.427434
O O23 0.534308 0.500000 0.416678
#
# Coordination Sequence:
#
# PCOD9399964 Si02
#       8
#     8   8   8   8   8   8   8   8
#     4  11  19  28  45  65  87 117 153 191 226 261
#     4   8  14  24  40  63  88 112 143 181 218 263
#     4   8  14  26  45  67  91 120 148 176 216 265
#     4   9  15  24  40  58  74  98 135 175 216 263
#     4   8  13  25  41  57  80 108 137 177 222 263
#     4   9  17  28  44  63  85 112 145 183 221 261
#     4  10  19  27  35  54  85 114 139 173 218 262
#     4  10  21  36  50  65  90 125 164 201 233 264
#
# _framework density 19.260618000000001
#
# number of rings (size 3 to 8) (size 9 to 14) (size 15 to 20)
#    0.000    2.875    1.250    3.000    0.000    3.250 
#    0.000    0.625    0.000    0.375    0.000    0.000 
#    0.000    0.500    0.000    0.875    0.000    1.250 
#
# Total GULP energy -356542.760737 kJ/mol
# GULP energy per Si atom -5570.980637 kJ/mol
# Density = 1.921678 g / cm^3
# Si number density = 19.260618 Si / 1000 Ang^3
#
#
#
# Elastic Constant Matrix: (Units=GPa)
#
#
# Indices 1 2 3 4 5 6 
#
# 1 37.3929 8.4806 0.5665 0.0000 0.0000 0.0000
# 2 8.4806 137.1015 42.0317 0.0000 0.0000 0.0000
# 3 0.5665 42.0317 93.6423 0.0000 0.0000 0.0000
# 4 0.0000 0.0000 0.0000 6.6206 0.0000 0.0000
# 5 0.0000 0.0000 0.0000 0.0000 7.1603 0.0000
# 6 0.0000 0.0000 0.0000 0.0000 0.0000 48.9156
#
#
#
# Elastic Compliance Matrix: (Units=1/GPa)
#
#
# Indices 1 2 3 4 5 6 
#
# 1 0.027161 -0.001890 0.000684 0.000000 0.000000 0.000000
# 2 -0.001890 0.008589 -0.003844 0.000000 0.000000 0.000000
# 3 0.000684 -0.003844 0.012400 0.000000 0.000000 0.000000
# 4 0.000000 0.000000 0.000000 0.151044 0.000000 0.000000
# 5 0.000000 0.000000 0.000000 0.000000 0.139659 0.000000
# 6 0.000000 0.000000 0.000000 0.000000 0.000000 0.020443
#
#
# Mechanical properties :
#
#
# Convention : Reuss Voigt Hill
#
# Bulk Modulus (GPa) = 26.28042 41.14383 33.71213
# Shear Modulus (GPa) = 13.08624 27.00982 20.04803
#
# Velocity S-wave (km/s) = 2.60942 3.74884 3.22977
# Velocity P-wave (km/s) = 4.77001 6.33612 5.60800
#
# Compressibility (1/GPa) = 0.03805114
#
# Stress axis : x y z
#
# Youngs Moduli (GPa) = 36.81714 116.42544 80.64431
#
# Poissons Ratio (x) = 0.22002 -0.05515
# Poissons Ratio (y) = 0.06958 0.30999
# Poissons Ratio (z) = -0.02518 0.44752
#
# Static dielectric constant tensor:
#      x y z
#    x 1.721430 0.000000 0.000000 
#    y 0.000000 1.750010 0.000000 
#    z 0.000000 0.000000 1.635840 
# 
# From -- ./inp_files/32666.got.cif
#   From: 2010.05.17/outbox.cif.g08.bks.cpg/sg51_17_cif.got.tgz:32666.got - 2010.06.03 11:52:47.
