data_PCOD9399699
_publ_section_title
;
Structure prediction by ZEFSAII (Michael W. Deem and Ramdas Pophale) SiO2 
 PCOD9399699
Probable space group: P M M A
;
_chemical_formula_sum "Si O2"
_cell_formula_units_Z 52
_cell_length_a 8.811969
_cell_length_b 18.500199
_cell_length_c 17.059285
_cell_angle_alpha 90.000000
_cell_angle_beta 90.000000
_cell_angle_gamma 90.000000
_cell_volume 2781.058891
_symmetry_space_group_name_H-M "P M M A"
_symmetry_group_IT_number 51
_symmetry_cell_setting 'orthorhombic'
loop_
_space_group_symop_operation_xyz
x,y,z
1/2-x,-y,z
1/2+x,-y,-z
-x,y,-z
-x,-y,-z
1/2+x,y,-z
1/2-x,y,z
x,-y,z
loop_
_atom_site_type_symbol
_atom_site_label
_atom_site_fract_x
_atom_site_fract_y
_atom_site_fract_z
Si Si1 0.076653 0.722600 0.682586
Si Si2 0.922862 0.223972 0.138487
Si Si3 0.432790 0.418229 0.254068
Si Si4 0.931201 0.079736 0.912807
Si Si5 0.931191 0.851232 0.587245
Si Si6 0.930494 0.632666 0.919279
Si Si7 0.067399 0.000000 0.588821
O O1 0.250000 0.720887 0.653136
O O2 0.078864 0.751558 0.771615
O O3 0.007760 0.642600 0.691708
O O4 0.978904 0.779426 0.633436
O O5 0.750000 0.221982 0.108686
O O6 0.997882 0.146065 0.132898
O O7 0.015925 0.284461 0.091539
O O8 0.250000 0.409875 0.257096
O O9 0.472202 0.500000 0.276256
O O10 0.477447 0.405328 0.162527
O O11 0.750000 0.086704 0.916867
O O12 0.967706 0.000000 0.880216
O O13 0.000000 0.083044 0.000000
O O14 0.750000 0.859406 0.583867
O O15 0.000000 0.844842 0.500000
O O16 0.004495 0.924665 0.623401
O O17 0.750000 0.628747 0.924697
O O18 0.000000 0.603483 0.000000
O O19 0.000000 0.000000 0.500000
O O20 0.250000 0.000000 0.587183
#
# Coordination Sequence:
#
# PCOD9399699 Si02
#       7
#     8   8   8   8   8   8   4
#     4  10  21  37  56  81 109 141 180 221 267 322
#     4  10  20  34  51  70  97 132 171 216 264 316
#     4   9  19  36  56  78 106 142 181 223 273 328
#     4  10  20  33  49  68  92 126 169 218 266 315
#     4  11  21  36  59  86 116 150 185 223 266 316
#     4  10  19  31  49  73 102 135 173 219 267 320
#     4  10  18  32  54  82 116 148 181 218 259 308
#
# _framework density 18.697914000000001
#
# number of rings (size 3 to 8) (size 9 to 14) (size 15 to 20)
#    0.000    2.000    0.000    5.308    0.000    4.000 
#    1.385    0.000    0.000    0.462    0.000    0.000 
#    0.000    0.000    0.000    0.000    0.000    0.000 
#
# Total GULP energy -290245.396552 kJ/mol
# GULP energy per Si atom -5581.642241 kJ/mol
# Density = 1.865536 g / cm^3
# Si number density = 18.697914 Si / 1000 Ang^3
#
#
#
# Elastic Constant Matrix: (Units=GPa)
#
#
# Indices 1 2 3 4 5 6 
#
# 1 107.4103 54.2950 20.4557 0.0000 0.0000 0.0000
# 2 54.2950 152.4460 24.5502 0.0000 0.0000 0.0000
# 3 20.4557 24.5502 29.5106 0.0000 0.0000 0.0000
# 4 0.0000 0.0000 0.0000 17.8209 0.0000 0.0000
# 5 0.0000 0.0000 0.0000 0.0000 25.3903 0.0000
# 6 0.0000 0.0000 0.0000 0.0000 0.0000 27.6335
#
#
#
# Elastic Compliance Matrix: (Units=1/GPa)
#
#
# Indices 1 2 3 4 5 6 
#
# 1 0.012091 -0.003414 -0.005541 0.000000 0.000000 0.000000
# 2 -0.003414 0.008538 -0.004737 0.000000 0.000000 0.000000
# 3 -0.005541 -0.004737 0.041667 0.000000 0.000000 0.000000
# 4 0.000000 0.000000 0.000000 0.056114 0.000000 0.000000
# 5 0.000000 0.000000 0.000000 0.000000 0.039385 0.000000
# 6 0.000000 0.000000 0.000000 0.000000 0.000000 0.036188
#
#
# Mechanical properties :
#
#
# Convention : Reuss Voigt Hill
#
# Bulk Modulus (GPa) = 28.64215 54.21874 41.43045
# Shear Modulus (GPa) = 21.45872 26.84000 24.14936
#
# Velocity S-wave (km/s) = 3.39138 3.79285 3.59772
# Velocity P-wave (km/s) = 5.53957 6.94558 6.28204
#
# Compressibility (1/GPa) = 0.03491358
#
# Stress axis : x y z
#
# Youngs Moduli (GPa) = 82.70545 117.11729 23.99954
#
# Poissons Ratio (x) = 0.39984 0.13298
# Poissons Ratio (y) = 0.28236 0.11368
# Poissons Ratio (z) = 0.45827 0.55475
#
# Static dielectric constant tensor:
#      x y z
#    x 1.640100 0.000000 0.000000 
#    y 0.000000 1.663790 0.000000 
#    z 0.000000 0.000000 1.681500 
# 
# From -- ./inp_files/27948.got.cif
#   From: 2010.05.17/outbox.cif.g08.bks.cpg/sg51_14_cif.got.tgz:27948.got - 2010.06.03 11:52:47.
