data_PCOD9399784
_publ_section_title
;
Structure prediction by ZEFSAII (Michael W. Deem and Ramdas Pophale) SiO2 
 PCOD9399784
Probable space group: P M M A
;
_chemical_formula_sum "Si O2"
_cell_formula_units_Z 64
_cell_length_a 25.666708
_cell_length_b 8.254013
_cell_length_c 15.419094
_cell_angle_alpha 90.000000
_cell_angle_beta 90.000000
_cell_angle_gamma 90.000000
_cell_volume 3266.586587
_symmetry_space_group_name_H-M "P M M A"
_symmetry_group_IT_number 51
_symmetry_cell_setting 'orthorhombic'
loop_
_space_group_symop_operation_xyz
x,y,z
1/2-x,-y,z
1/2+x,-y,-z
-x,y,-z
-x,-y,-z
1/2+x,y,-z
1/2-x,y,z
x,-y,z
loop_
_atom_site_type_symbol
_atom_site_label
_atom_site_fract_x
_atom_site_fract_y
_atom_site_fract_z
Si Si1 0.957507 0.679712 0.574502
Si Si2 0.151010 0.312116 0.525779
Si Si3 0.809109 0.197384 0.943189
Si Si4 0.887006 0.800963 0.792556
Si Si5 0.887581 0.691508 0.289470
Si Si6 0.504103 0.817389 0.741798
Si Si7 0.190325 0.804234 0.857931
Si Si8 0.806639 0.193234 0.647100
O O1 0.961477 0.500000 0.615885
O O2 0.903578 0.692352 0.525266
O O3 0.000000 0.688802 0.500000
O O4 0.970131 0.811015 0.646222
O O5 0.167822 0.500000 0.534808
O O6 0.138151 0.241412 0.620944
O O7 0.187552 0.227877 0.455166
O O8 0.750000 0.248588 0.920597
O O9 0.852269 0.249389 0.874496
O O10 0.808774 0.000000 0.941684
O O11 0.819973 0.245793 0.042484
O O12 0.854457 0.746187 0.707001
O O13 0.947170 0.744359 0.795633
O O14 0.889230 0.000000 0.790713
O O15 0.889371 0.500000 0.303096
O O16 0.946943 0.742716 0.269412
O O17 0.850538 0.735162 0.209754
O O18 0.495550 0.000000 0.772294
O O19 0.250000 0.757145 0.836704
O O20 0.187763 0.000000 0.854951
O O21 0.750000 0.255616 0.676847
O O22 0.806694 0.000000 0.658922
#
# Coordination Sequence:
#
# PCOD9399784 Si02
#       8
#     8   8   8   8   8   8   8   8
#     4  10  18  33  52  70  98 138 183 223 261 310
#     4  10  21  35  51  70  98 139 183 219 255 310
#     4   8  14  29  56  84 108 136 171 214 265 321
#     4   9  17  30  50  80 112 141 173 210 262 324
#     4  11  23  39  56  76 105 146 187 221 264 322
#     4  11  21  32  51  81 112 140 177 225 268 311
#     4   9  19  37  61  87 108 129 169 225 275 315
#     4  10  20  33  50  76 110 142 175 220 270 317
#
# _framework density 19.592317000000001
#
# number of rings (size 3 to 8) (size 9 to 14) (size 15 to 20)
#    0.000    2.250    2.500    1.875    0.000    3.750 
#    0.000    3.125    0.000    6.000    0.000    1.750 
#    0.000    0.000    0.000    0.000    0.000    0.000 
#
# Total GULP energy -356594.180311 kJ/mol
# GULP energy per Si atom -5571.784067 kJ/mol
# Density = 1.954772 g / cm^3
# Si number density = 19.592317 Si / 1000 Ang^3
#
#
#
# Elastic Constant Matrix: (Units=GPa)
#
#
# Indices 1 2 3 4 5 6 
#
# 1 89.0707 8.1335 52.0419 0.0000 0.0000 0.0000
# 2 8.1335 7.2818 2.2936 0.0000 0.0000 0.0000
# 3 52.0419 2.2936 96.6156 0.0000 0.0000 0.0000
# 4 0.0000 0.0000 0.0000 94.8570 0.0000 0.0000
# 5 0.0000 0.0000 0.0000 0.0000 25.5423 0.0000
# 6 0.0000 0.0000 0.0000 0.0000 0.0000 1.2517
#
#
#
# Elastic Compliance Matrix: (Units=1/GPa)
#
#
# Indices 1 2 3 4 5 6 
#
# 1 0.018364 -0.017527 -0.009476 0.000000 0.000000 0.000000
# 2 -0.017527 0.155091 0.005759 0.000000 0.000000 0.000000
# 3 -0.009476 0.005759 0.015318 0.000000 0.000000 0.000000
# 4 0.000000 0.000000 0.000000 0.010542 0.000000 0.000000
# 5 0.000000 0.000000 0.000000 0.000000 0.039151 0.000000
# 6 0.000000 0.000000 0.000000 0.000000 0.000000 0.798900
#
#
# Mechanical properties :
#
#
# Convention : Reuss Voigt Hill
#
# Bulk Modulus (GPa) = 6.83593 35.32291 21.07942
# Shear Modulus (GPa) = 4.43021 33.03013 18.73017
#
# Velocity S-wave (km/s) = 1.50536 4.11039 3.09527
# Velocity P-wave (km/s) = 2.55306 6.37144 4.85352
#
# Compressibility (1/GPa) = 0.14628586
#
# Stress axis : x y z
#
# Youngs Moduli (GPa) = 54.45471 6.44781 65.28435
#
# Poissons Ratio (x) = 0.11301 0.61861
# Poissons Ratio (y) = 0.95443 -0.37598
# Poissons Ratio (z) = 0.51599 -0.03713
#
# Static dielectric constant tensor:
#      x y z
#    x 1.500360 0.000000 0.000000 
#    y 0.000000 1.722800 0.000000 
#    z 0.000000 0.000000 1.691630 
# 
# From -- ./inp_files/26363.got.cif
#   From: 2010.05.17/outbox.cif.g08.bks.cpg/sg51_14_cif.got.tgz:26363.got - 2010.06.03 11:52:47.
