data_PCOD9399343
_publ_section_title
;
Structure prediction by ZEFSAII (Michael W. Deem and Ramdas Pophale) SiO2 
 PCOD9399343
Probable space group: P M M A
;
_chemical_formula_sum "Si O2"
_cell_formula_units_Z 56
_cell_length_a 19.880396
_cell_length_b 7.535252
_cell_length_c 18.157173
_cell_angle_alpha 90.000000
_cell_angle_beta 90.000000
_cell_angle_gamma 90.000000
_cell_volume 2720.013399
_symmetry_space_group_name_H-M "P M M A"
_symmetry_group_IT_number 51
_symmetry_cell_setting 'orthorhombic'
loop_
_space_group_symop_operation_xyz
x,y,z
1/2-x,-y,z
1/2+x,-y,-z
-x,y,-z
-x,-y,-z
1/2+x,y,-z
1/2-x,y,z
x,-y,z
loop_
_atom_site_type_symbol
_atom_site_label
_atom_site_fract_x
_atom_site_fract_y
_atom_site_fract_z
Si Si1 0.960992 0.203900 0.188555
Si Si2 0.173891 0.783103 0.747955
Si Si3 0.569074 0.785831 0.537855
Si Si4 0.447808 0.699945 0.058583
Si Si5 0.828445 0.283091 0.841369
Si Si6 0.826216 0.216190 0.418611
Si Si7 0.573720 0.709334 0.709242
O O1 0.886331 0.275410 0.199950
O O2 0.006717 0.306689 0.131507
O O3 0.003442 0.206940 0.264093
O O4 0.956974 0.000000 0.163380
O O5 0.250000 0.727452 0.765602
O O6 0.156928 0.727749 0.664455
O O7 0.173364 0.000000 0.748913
O O8 0.500000 0.724033 0.500000
O O9 0.626622 0.720591 0.483167
O O10 0.582048 0.738751 0.622574
O O11 0.567964 0.000000 0.535987
O O12 0.432987 0.500000 0.031141
O O13 0.377127 0.775509 0.090450
O O14 0.500000 0.784508 0.000000
O O15 0.750000 0.227537 0.844720
O O16 0.828675 0.500000 0.843043
O O17 0.866639 0.228957 0.765115
O O18 0.750000 0.268817 0.432626
O O19 0.828754 0.000000 0.417814
O O20 0.567980 0.500000 0.721020
#
# Coordination Sequence:
#
# PCOD9399343 Si02
#       7
#     8   8   8   8   8   8   8
#     4  10  18  30  51  74  95 122 156 192 231 277
#     4   8  14  26  45  68  92 120 155 192 231 277
#     4  10  19  30  45  66  91 120 159 203 244 288
#     4   9  18  33  52  74 101 130 158 190 231 280
#     4   8  15  30  51  71  92 125 167 202 234 280
#     4   8  14  25  41  61  86 116 150 190 235 278
#     4  10  20  32  47  68  94 125 161 202 246 289
#
# _framework density 20.588134
#
# number of rings (size 3 to 8) (size 9 to 14) (size 15 to 20)
#    0.000    3.000    0.000    3.429    0.000    3.429 
#    0.000    0.714    0.000   12.857    0.000    4.000 
#    0.000    0.000    0.000    0.000    0.000    0.000 
#
# Total GULP energy -311986.746309 kJ/mol
# GULP energy per Si atom -5571.191898 kJ/mol
# Density = 2.054127 g / cm^3
# Si number density = 20.588134 Si / 1000 Ang^3
#
#
#
# Elastic Constant Matrix: (Units=GPa)
#
#
# Indices 1 2 3 4 5 6 
#
# 1 144.2379 4.3379 62.3633 0.0000 0.0000 0.0000
# 2 4.3379 56.1069 2.5905 0.0000 0.0000 0.0000
# 3 62.3633 2.5905 43.5708 0.0000 0.0000 0.0000
# 4 0.0000 0.0000 0.0000 11.4439 0.0000 0.0000
# 5 0.0000 0.0000 0.0000 0.0000 32.2038 0.0000
# 6 0.0000 0.0000 0.0000 0.0000 0.0000 0.9781
#
#
#
# Elastic Compliance Matrix: (Units=1/GPa)
#
#
# Indices 1 2 3 4 5 6 
#
# 1 0.018192 -0.000205 -0.026026 0.000000 0.000000 0.000000
# 2 -0.000205 0.017874 -0.000770 0.000000 0.000000 0.000000
# 3 -0.026026 -0.000770 0.060248 0.000000 0.000000 0.000000
# 4 0.000000 0.000000 0.000000 0.087383 0.000000 0.000000
# 5 0.000000 0.000000 0.000000 0.000000 0.031052 0.000000
# 6 0.000000 0.000000 0.000000 0.000000 0.000000 1.022347
#
#
# Mechanical properties :
#
#
# Convention : Reuss Voigt Hill
#
# Bulk Modulus (GPa) = 23.63298 42.49989 33.06644
# Shear Modulus (GPa) = 3.83082 20.56676 12.19879
#
# Velocity S-wave (km/s) = 1.36555 3.16406 2.43681
# Velocity P-wave (km/s) = 3.74034 5.83405 4.90032
#
# Compressibility (1/GPa) = 0.04231375
#
# Stress axis : x y z
#
# Youngs Moduli (GPa) = 54.96958 55.94570 16.59799
#
# Poissons Ratio (x) = 0.01146 0.43198
# Poissons Ratio (y) = 0.01126 0.01277
# Poissons Ratio (z) = 1.43064 0.04305
#
# Static dielectric constant tensor:
#      x y z
#    x 1.678180 0.000000 0.000000 
#    y 0.000000 1.805550 0.000000 
#    z 0.000000 0.000000 1.766060 
# 
# From -- ./inp_files/30374.got.cif
#   From: 2010.05.17/outbox.cif.g08.bks.cpg/sg51_16_cif.got.tgz:30374.got - 2010.06.03 11:52:47.
