data_PCOD9399533
_publ_section_title
;
Structure prediction by ZEFSAII (Michael W. Deem and Ramdas Pophale) SiO2 
 PCOD9399533
Probable space group: P M M A
;
_chemical_formula_sum "Si O2"
_cell_formula_units_Z 64
_cell_length_a 19.055928
_cell_length_b 7.391203
_cell_length_c 20.617332
_cell_angle_alpha 90.000000
_cell_angle_beta 90.000000
_cell_angle_gamma 90.000000
_cell_volume 2903.873530
_symmetry_space_group_name_H-M "P M M A"
_symmetry_group_IT_number 51
_symmetry_cell_setting 'orthorhombic'
loop_
_space_group_symop_operation_xyz
x,y,z
1/2-x,-y,z
1/2+x,-y,-z
-x,y,-z
-x,-y,-z
1/2+x,y,-z
1/2-x,y,z
x,-y,z
loop_
_atom_site_type_symbol
_atom_site_label
_atom_site_fract_x
_atom_site_fract_y
_atom_site_fract_z
Si Si1 0.576244 0.779194 0.358520
Si Si2 0.169885 0.280299 0.293707
Si Si3 0.596102 0.290231 0.834809
Si Si4 0.561556 0.219603 0.210457
Si Si5 0.570104 0.208697 0.586330
Si Si6 0.670431 0.783138 0.101548
Si Si7 0.329225 0.778938 0.526459
Si Si8 0.923775 0.284139 0.977320
O O1 0.576588 0.720971 0.283921
O O2 0.505287 0.714610 0.394133
O O3 0.641983 0.728472 0.402815
O O4 0.573709 0.000000 0.357035
O O5 0.250000 0.226266 0.305696
O O6 0.166699 0.500000 0.294466
O O7 0.142598 0.214713 0.223735
O O8 0.118357 0.214979 0.349861
O O9 0.617640 0.500000 0.840082
O O10 0.515246 0.280762 0.812176
O O11 0.598953 0.211165 0.907091
O O12 0.620079 0.282241 0.159405
O O13 0.560406 0.000000 0.209716
O O14 0.615619 0.286105 0.527543
O O15 0.556428 0.000000 0.568390
O O16 0.750000 0.714144 0.104005
O O17 0.673700 0.000000 0.108208
O O18 0.632532 0.745302 0.033488
O O19 0.250000 0.718194 0.514040
O O20 0.328384 0.000000 0.523316
O O21 0.932503 0.500000 0.968906
O O22 0.000000 0.213413 0.000000
#
# Coordination Sequence:
#
# PCOD9399533 Si02
#       8
#     8   8   8   8   8   8   8   8
#     4   9  17  29  48  74 102 134 173 216 257 303
#     4  10  21  35  51  74 104 136 166 202 256 313
#     4  10  20  35  55  77 103 133 171 216 257 307
#     4  10  19  33  54  78 104 139 177 214 260 309
#     4  10  18  31  52  77 103 132 171 215 257 304
#     4  10  22  37  53  79 113 144 176 217 266 317
#     4   9  17  28  45  73 106 137 170 213 263 306
#     4  10  20  35  57  82 104 134 178 221 261 310
#
# _framework density 22.039527
#
# number of rings (size 3 to 8) (size 9 to 14) (size 15 to 20)
#    0.000    2.250    2.500    0.750    0.000    4.250 
#    0.000    3.750    0.000    2.250    0.000    0.000 
#    0.000    0.000    0.000    0.000    0.000    0.000 
#
# Total GULP energy -357630.657333 kJ/mol
# GULP energy per Si atom -5587.979021 kJ/mol
# Density = 2.198936 g / cm^3
# Si number density = 22.039527 Si / 1000 Ang^3
#
#
#
# Elastic Constant Matrix: (Units=GPa)
#
#
# Indices 1 2 3 4 5 6 
#
# 1 57.9833 -11.7368 18.6792 0.0000 0.0000 0.0000
# 2 -11.7368 75.3039 -5.9317 0.0000 0.0000 0.0000
# 3 18.6792 -5.9317 137.6874 0.0000 0.0000 0.0000
# 4 0.0000 0.0000 0.0000 -16.4780 0.0000 0.0000
# 5 0.0000 0.0000 0.0000 0.0000 27.9931 0.0000
# 6 0.0000 0.0000 0.0000 0.0000 0.0000 14.3978
#
#
#
# Elastic Compliance Matrix: (Units=1/GPa)
#
#
# Indices 1 2 3 4 5 6 
#
# 1 0.018568 0.002705 -0.002402 0.000000 0.000000 0.000000
# 2 0.002705 0.013719 0.000224 0.000000 0.000000 0.000000
# 3 -0.002402 0.000224 0.007598 0.000000 0.000000 0.000000
# 4 0.000000 0.000000 0.000000 -0.060687 0.000000 0.000000
# 5 0.000000 0.000000 0.000000 0.000000 0.035723 0.000000
# 6 0.000000 0.000000 0.000000 0.000000 0.000000 0.069455
#
#
# Mechanical properties :
#
#
# Convention : Reuss Voigt Hill
#
# Bulk Modulus (GPa) = 24.42743 30.33290 27.38016
# Shear Modulus (GPa) = 51.56255 23.18014 37.37135
#
# Velocity S-wave (km/s) = 4.84214 3.24659 4.12230
# Velocity P-wave (km/s) = 6.50916 5.27699 5.92520
#
# Compressibility (1/GPa) = 0.04093759
#
# Stress axis : x y z
#
# Youngs Moduli (GPa) = 53.85672 72.89308 131.60646
#
# Poissons Ratio (x) = -0.19716 0.31618
# Poissons Ratio (y) = -0.14567 -0.02949
# Poissons Ratio (z) = 0.12939 -0.01633
#
# Static dielectric constant tensor:
#      x y z
#    x 1.751250 0.000000 0.000000 
#    y 0.000000 1.894370 0.000000 
#    z 0.000000 0.000000 1.785340 
# 
# From -- ./inp_files/30592.got.cif
#   From: 2010.05.17/outbox.cif.g08.bks.cpg/sg51_16_cif.got.tgz:30592.got - 2010.06.03 11:52:47.
