data_PCOD9399044
_publ_section_title
;
Structure prediction by ZEFSAII (Michael W. Deem and Ramdas Pophale) SiO2 
 PCOD9399044
Probable space group: P M M A
;
_chemical_formula_sum "Si O2"
_cell_formula_units_Z 64
_cell_length_a 18.553581
_cell_length_b 8.961173
_cell_length_c 22.470778
_cell_angle_alpha 90.000000
_cell_angle_beta 90.000000
_cell_angle_gamma 90.000000
_cell_volume 3736.033101
_symmetry_space_group_name_H-M "P M M A"
_symmetry_group_IT_number 51
_symmetry_cell_setting 'orthorhombic'
loop_
_space_group_symop_operation_xyz
x,y,z
1/2-x,-y,z
1/2+x,-y,-z
-x,y,-z
-x,-y,-z
1/2+x,y,-z
1/2-x,y,z
x,-y,z
loop_
_atom_site_type_symbol
_atom_site_label
_atom_site_fract_x
_atom_site_fract_y
_atom_site_fract_z
Si Si1 0.662221 0.829559 0.381937
Si Si2 0.335818 0.675175 0.740536
Si Si3 0.332003 0.179773 0.132443
Si Si4 0.333319 0.318201 0.366660
Si Si5 0.454846 0.821542 0.813654
Si Si6 0.662079 0.672947 0.502505
Si Si7 0.026578 0.181013 0.063764
Si Si8 0.092986 0.320352 0.244691
O O1 0.750000 0.827159 0.383575
O O2 0.641102 0.732911 0.324766
O O3 0.637606 0.764119 0.445081
O O4 0.639291 0.000000 0.373960
O O5 0.250000 0.698155 0.745481
O O6 0.350865 0.500000 0.745616
O O7 0.378784 0.764514 0.790394
O O8 0.250000 0.213870 0.115233
O O9 0.392800 0.224426 0.084365
O O10 0.352871 0.258733 0.194224
O O11 0.338048 0.000000 0.140687
O O12 0.250000 0.270951 0.358432
O O13 0.332655 0.500000 0.368694
O O14 0.359727 0.269837 0.432104
O O15 0.380140 0.273865 0.310032
O O16 0.474537 0.777664 0.881355
O O17 0.516013 0.747717 0.772416
O O18 0.459817 0.000000 0.809519
O O19 0.750000 0.674910 0.503374
O O20 0.640531 0.500000 0.495744
O O21 0.026488 0.000000 0.060781
O O22 0.000000 0.237793 0.000000
O O23 0.090724 0.500000 0.242138
#
# Coordination Sequence:
#
# PCOD9399044 Si02
#       8
#     8   8   8   8   8   8   8   8
#     4   9  16  26  42  66  94 121 152 193 240 286
#     4  10  20  34  53  75  97 123 157 196 239 288
#     4   9  17  29  46  70  99 129 164 208 252 288
#     4   8  14  24  40  64  92 123 161 202 238 276
#     4  10  20  34  52  74  99 125 155 194 240 286
#     4   8  13  23  39  59  86 120 157 195 235 280
#     4   8  15  30  51  73  98 130 166 201 238 285
#     4  10  18  29  47  69  95 129 166 200 238 287
#
# _framework density 17.130469000000002
#
# number of rings (size 3 to 8) (size 9 to 14) (size 15 to 20)
#    0.000    3.000    0.000    3.375    0.000    3.000 
#    0.000    1.875    0.000   15.375    0.000    5.250 
#    0.000    0.000    0.000    0.000    0.000    0.000 
#
# Total GULP energy -356510.124351 kJ/mol
# GULP energy per Si atom -5570.470693 kJ/mol
# Density = 1.709148 g / cm^3
# Si number density = 17.130469 Si / 1000 Ang^3
#
#
#
# Elastic Constant Matrix: (Units=GPa)
#
#
# Indices 1 2 3 4 5 6 
#
# 1 36.8403 29.4110 48.9564 0.0000 0.0000 0.0000
# 2 29.4110 42.7422 35.4504 0.0000 0.0000 0.0000
# 3 48.9564 35.4504 121.1690 0.0000 0.0000 0.0000
# 4 0.0000 0.0000 0.0000 25.6368 0.0000 0.0000
# 5 0.0000 0.0000 0.0000 0.0000 18.3652 0.0000
# 6 0.0000 0.0000 0.0000 0.0000 0.0000 20.7025
#
#
#
# Elastic Compliance Matrix: (Units=1/GPa)
#
#
# Indices 1 2 3 4 5 6 
#
# 1 0.099723 -0.046481 -0.026693 0.000000 0.000000 0.000000
# 2 -0.046481 0.052557 0.003403 0.000000 0.000000 0.000000
# 3 -0.026693 0.003403 0.018042 0.000000 0.000000 0.000000
# 4 0.000000 0.000000 0.000000 0.039006 0.000000 0.000000
# 5 0.000000 0.000000 0.000000 0.000000 0.054451 0.000000
# 6 0.000000 0.000000 0.000000 0.000000 0.000000 0.048303
#
#
# Mechanical properties :
#
#
# Convention : Reuss Voigt Hill
#
# Bulk Modulus (GPa) = 32.48692 47.59855 40.04273
# Shear Modulus (GPa) = 10.82522 18.73647 14.78084
#
# Velocity S-wave (km/s) = 2.51654 3.31078 2.94060
# Velocity P-wave (km/s) = 5.23923 6.51623 5.91231
#
# Compressibility (1/GPa) = 0.03078162
#
# Stress axis : x y z
#
# Youngs Moduli (GPa) = 10.02774 19.02690 55.42622
#
# Poissons Ratio (x) = 0.88439 1.47948
# Poissons Ratio (y) = 0.46610 -0.18863
# Poissons Ratio (z) = 0.26767 -0.06475
#
# Static dielectric constant tensor:
#      x y z
#    x 1.584870 0.000000 0.000000 
#    y 0.000000 1.576100 0.000000 
#    z 0.000000 0.000000 1.582360 
# 
# From -- ./inp_files/34118.got.cif
#   From: 2010.05.17/outbox.cif.g08.bks.cpg/sg51_18_cif.got.tgz:34118.got - 2010.06.03 11:52:47.
