data_PCOD9399319
_publ_section_title
;
Structure prediction by ZEFSAII (Michael W. Deem and Ramdas Pophale) SiO2 
 PCOD9399319
Probable space group: P M M A
;
_chemical_formula_sum "Si O2"
_cell_formula_units_Z 52
_cell_length_a 28.408632
_cell_length_b 7.605735
_cell_length_c 11.734217
_cell_angle_alpha 90.000000
_cell_angle_beta 90.000000
_cell_angle_gamma 90.000000
_cell_volume 2535.394979
_symmetry_space_group_name_H-M "P M M A"
_symmetry_group_IT_number 51
_symmetry_cell_setting 'orthorhombic'
loop_
_space_group_symop_operation_xyz
x,y,z
1/2-x,-y,z
1/2+x,-y,-z
-x,y,-z
-x,-y,-z
1/2+x,y,-z
1/2-x,y,z
x,-y,z
loop_
_atom_site_type_symbol
_atom_site_label
_atom_site_fract_x
_atom_site_fract_y
_atom_site_fract_z
Si Si1 0.000000 0.746593 0.000000
Si Si2 0.600679 0.715057 0.092575
Si Si3 0.696915 0.708528 0.973963
Si Si4 0.106523 0.211898 0.412894
Si Si5 0.431275 0.293986 0.660736
Si Si6 0.301941 0.787404 0.291451
Si Si7 0.026805 0.203228 0.242285
O O1 0.014861 0.689511 0.128234
O O2 0.946287 0.801639 0.038327
O O3 0.595468 0.500000 0.076034
O O4 0.599294 0.751902 0.227730
O O5 0.650225 0.773552 0.038682
O O6 0.750000 0.778708 0.000402
O O7 0.698650 0.500000 0.996663
O O8 0.689119 0.735997 0.839335
O O9 0.092176 0.259446 0.540087
O O10 0.157591 0.275565 0.375059
O O11 0.069604 0.272443 0.317034
O O12 0.105383 0.000000 0.406664
O O13 0.441408 0.500000 0.668364
O O14 0.481299 0.201731 0.676825
O O15 0.250000 0.724418 0.322658
O O16 0.301873 0.000000 0.294405
O O17 0.035225 0.000000 0.204779
#
# Coordination Sequence:
#
# PCOD9399319 Si02
#       7
#     4   8   8   8   8   8   8
#     4  10  18  30  50  74  99 128 161 196 239 296
#     4   9  18  32  48  70 100 129 158 197 245 289
#     4   9  17  31  52  75  98 125 158 197 242 291
#     4  10  20  34  51  71  97 131 165 198 242 289
#     4  10  21  35  50  70  97 130 168 205 239 283
#     4   9  18  33  52  74 100 127 157 198 245 290
#     4  10  20  33  50  73 101 129 159 198 243 292
#
# _framework density 20.509625
#
# number of rings (size 3 to 8) (size 9 to 14) (size 15 to 20)
#    0.000    2.462    0.000    2.308    0.000    3.692 
#    0.000    4.615    0.000    0.923    0.000    0.000 
#    0.000    0.000    0.000    0.000    0.000    0.000 
#
# Total GULP energy -289558.871340 kJ/mol
# GULP energy per Si atom -5568.439833 kJ/mol
# Density = 2.046294 g / cm^3
# Si number density = 20.509625 Si / 1000 Ang^3
#
#
#
# Elastic Constant Matrix: (Units=GPa)
#
#
# Indices 1 2 3 4 5 6 
#
# 1 161.5820 16.8335 112.9726 0.0000 0.0000 0.0000
# 2 16.8335 55.8593 14.7234 0.0000 0.0000 0.0000
# 3 112.9726 14.7234 142.6304 0.0000 0.0000 0.0000
# 4 0.0000 0.0000 0.0000 5.3531 0.0000 0.0000
# 5 0.0000 0.0000 0.0000 0.0000 32.4086 0.0000
# 6 0.0000 0.0000 0.0000 0.0000 0.0000 -70.4481
#
#
#
# Elastic Compliance Matrix: (Units=1/GPa)
#
#
# Indices 1 2 3 4 5 6 
#
# 1 0.013965 -0.001329 -0.010924 0.000000 0.000000 0.000000
# 2 -0.001329 0.018529 -0.000860 0.000000 0.000000 0.000000
# 3 -0.010924 -0.000860 0.015752 0.000000 0.000000 0.000000
# 4 0.000000 0.000000 0.000000 0.186806 0.000000 0.000000
# 5 0.000000 0.000000 0.000000 0.000000 0.030856 0.000000
# 6 0.000000 0.000000 0.000000 0.000000 0.000000 -0.014195
#
#
# Mechanical properties :
#
#
# Convention : Reuss Voigt Hill
#
# Bulk Modulus (GPa) = 45.41207 72.12563 58.76885
# Shear Modulus (GPa) = 17.52664 7.83221 12.67943
#
# Velocity S-wave (km/s) = 2.92645 1.95629 2.48910
# Velocity P-wave (km/s) = 5.79730 6.35184 6.08090
#
# Compressibility (1/GPa) = 0.02202058
#
# Stress axis : x y z
#
# Youngs Moduli (GPa) = 71.60809 53.96845 63.48253
#
# Poissons Ratio (x) = 0.07173 0.69348
# Poissons Ratio (y) = 0.09517 0.05460
# Poissons Ratio (z) = 0.78224 0.04641
#
# Static dielectric constant tensor:
#      x y z
#    x 1.741220 0.000000 0.000000 
#    y 0.000000 1.064670 0.000000 
#    z 0.000000 0.000000 1.681340 
# 
# From -- ./inp_files/19056.got.cif
#   From: 2010.05.17/outbox.cif.g08.bks.cpg/sg51_10_cif.got.tgz:19056.got - 2010.06.03 11:52:47.
