data_PCOD9399821
_publ_section_title
;
Structure prediction by ZEFSAII (Michael W. Deem and Ramdas Pophale) SiO2 
 PCOD9399821
Probable space group: P M M A
;
_chemical_formula_sum "Si O2"
_cell_formula_units_Z 64
_cell_length_a 9.328725
_cell_length_b 18.999207
_cell_length_c 20.144578
_cell_angle_alpha 90.000000
_cell_angle_beta 90.000000
_cell_angle_gamma 90.000000
_cell_volume 3570.392317
_symmetry_space_group_name_H-M "P M M A"
_symmetry_group_IT_number 51
_symmetry_cell_setting 'orthorhombic'
loop_
_space_group_symop_operation_xyz
x,y,z
1/2-x,-y,z
1/2+x,-y,-z
-x,y,-z
-x,-y,-z
1/2+x,y,-z
1/2-x,y,z
x,-y,z
loop_
_atom_site_type_symbol
_atom_site_label
_atom_site_fract_x
_atom_site_fract_y
_atom_site_fract_z
Si Si1 0.911095 0.415876 0.437089
Si Si2 0.424178 0.919032 0.328433
Si Si3 0.423110 0.853635 0.185880
Si Si4 0.587169 0.084334 0.063570
Si Si5 0.576286 0.309186 0.816219
Si Si6 0.421396 0.333509 0.334880
Si Si7 0.077935 0.199506 0.429770
Si Si8 0.422490 0.417969 0.069918
O O1 0.750000 0.387370 0.437877
O O2 0.903779 0.500000 0.442468
O O3 0.000000 0.388626 0.500000
O O4 0.995060 0.394833 0.371697
O O5 0.250000 0.919929 0.329033
O O6 0.463720 0.880689 0.259360
O O7 0.467807 0.871647 0.391133
O O8 0.473666 0.000000 0.330144
O O9 0.250000 0.860183 0.180366
O O10 0.501677 0.898071 0.129955
O O11 0.462900 0.772244 0.173745
O O12 0.750000 0.111498 0.065030
O O13 0.594578 0.000000 0.057325
O O14 0.500000 0.112043 0.000000
O O15 0.750000 0.311445 0.816412
O O16 0.532255 0.327801 0.741293
O O17 0.529194 0.363866 0.872714
O O18 0.250000 0.344874 0.336762
O O19 0.450262 0.263153 0.377992
O O20 0.250000 0.197662 0.440130
O O21 0.000000 0.207998 0.500000
O O22 0.250000 0.411074 0.061883
O O23 0.451027 0.500000 0.087886
O O24 0.500000 0.403711 0.000000
#
# Coordination Sequence:
#
# PCOD9399821 Si02
#       8
#     8   8   8   8   8   8   8   8
#     4  10  21  36  53  76 106 139 177 220 267 321
#     4   9  17  31  53  77 101 136 179 217 262 323
#     4  10  18  33  56  80 106 138 176 221 270 320
#     4  10  21  36  53  76 107 141 178 220 266 320
#     4   9  18  33  55  81 108 139 177 219 260 312
#     4  10  19  34  55  78 107 140 176 220 268 318
#     4  10  20  34  52  76 104 136 176 220 266 317
#     4   9  18  34  55  78 106 141 179 217 259 308
#
# _framework density 17.925201000000001
#
# number of rings (size 3 to 8) (size 9 to 14) (size 15 to 20)
#    0.000    2.375    1.250    1.500    0.000    4.750 
#    0.000    5.000    0.000    2.250    0.000    0.000 
#    0.000    0.000    0.000    0.000    0.000    0.000 
#
# Total GULP energy -356860.622189 kJ/mol
# GULP energy per Si atom -5575.947222 kJ/mol
# Density = 1.788440 g / cm^3
# Si number density = 17.925201 Si / 1000 Ang^3
#
#
#
# Elastic Constant Matrix: (Units=GPa)
#
#
# Indices 1 2 3 4 5 6 
#
# 1 41.1088 27.8526 42.2539 0.0000 0.0000 0.0000
# 2 27.8526 66.6849 48.7660 0.0000 0.0000 0.0000
# 3 42.2539 48.7660 130.9430 0.0000 0.0000 0.0000
# 4 0.0000 0.0000 0.0000 30.7272 0.0000 0.0000
# 5 0.0000 0.0000 0.0000 0.0000 22.6026 0.0000
# 6 0.0000 0.0000 0.0000 0.0000 0.0000 15.6423
#
#
#
# Elastic Compliance Matrix: (Units=1/GPa)
#
#
# Indices 1 2 3 4 5 6 
#
# 1 0.040902 -0.010213 -0.009395 0.000000 0.000000 0.000000
# 2 -0.010213 0.023159 -0.005329 0.000000 0.000000 0.000000
# 3 -0.009395 -0.005329 0.012653 0.000000 0.000000 0.000000
# 4 0.000000 0.000000 0.000000 0.032544 0.000000 0.000000
# 5 0.000000 0.000000 0.000000 0.000000 0.044243 0.000000
# 6 0.000000 0.000000 0.000000 0.000000 0.000000 0.063929
#
#
# Mechanical properties :
#
#
# Convention : Reuss Voigt Hill
#
# Bulk Modulus (GPa) = 37.25868 52.94241 45.10054
# Shear Modulus (GPa) = 18.09939 21.78537 19.94238
#
# Velocity S-wave (km/s) = 3.18105 3.48997 3.33908
# Velocity P-wave (km/s) = 5.85857 6.77046 6.33096
#
# Compressibility (1/GPa) = 0.02683939
#
# Stress axis : x y z
#
# Youngs Moduli (GPa) = 24.44850 43.17995 79.03090
#
# Poissons Ratio (x) = 0.44101 0.74250
# Poissons Ratio (y) = 0.24970 0.42117
# Poissons Ratio (z) = 0.22970 0.23011
#
# Static dielectric constant tensor:
#      x y z
#    x 1.600580 0.000000 0.000000 
#    y 0.000000 1.636870 0.000000 
#    z 0.000000 0.000000 1.595950 
# 
# From -- ./inp_files/32397.got.cif
#   From: 2010.05.17/outbox.cif.g08.bks.cpg/sg51_17_cif.got.tgz:32397.got - 2010.06.03 11:52:47.
