data_PCOD9399184
_publ_section_title
;
Structure prediction by ZEFSAII (Michael W. Deem and Ramdas Pophale) SiO2 
 PCOD9399184
Probable space group: P M M A
;
_chemical_formula_sum "Si O2"
_cell_formula_units_Z 48
_cell_length_a 31.102011
_cell_length_b 7.423567
_cell_length_c 10.123181
_cell_angle_alpha 90.000000
_cell_angle_beta 90.000000
_cell_angle_gamma 90.000000
_cell_volume 2337.319623
_symmetry_space_group_name_H-M "P M M A"
_symmetry_group_IT_number 51
_symmetry_cell_setting 'orthorhombic'
loop_
_space_group_symop_operation_xyz
x,y,z
1/2-x,-y,z
1/2+x,-y,-z
-x,y,-z
-x,-y,-z
1/2+x,y,-z
1/2-x,y,z
x,-y,z
loop_
_atom_site_type_symbol
_atom_site_label
_atom_site_fract_x
_atom_site_fract_y
_atom_site_fract_z
Si Si1 0.861943 0.220030 0.416879
Si Si2 0.616825 0.205522 0.699944
Si Si3 0.201205 0.780551 0.809962
Si Si4 0.125968 0.779610 0.006432
Si Si5 0.562600 0.782668 0.218976
Si Si6 0.021233 0.291642 0.365382
O O1 0.863017 0.285805 0.566793
O O2 0.821642 0.273555 0.327015
O O3 0.904903 0.273867 0.336725
O O4 0.862842 0.000000 0.420018
O O5 0.624867 0.286458 0.843803
O O6 0.565657 0.202113 0.674702
O O7 0.632878 0.000000 0.707295
O O8 0.250000 0.718463 0.823374
O O9 0.201720 0.000000 0.810708
O O10 0.168770 0.726530 0.926768
O O11 0.124812 0.000000 0.008294
O O12 0.085099 0.724229 0.917159
O O13 0.515037 0.719889 0.253060
O O14 0.561659 0.000000 0.218701
O O15 0.031719 0.500000 0.390854
O O16 0.000000 0.216567 0.500000
#
# Coordination Sequence:
#
# PCOD9399184 Si02
#       6
#     8   8   8   8   8   8
#     4   8  14  24  42  64  85 116 155 184 211 261
#     4  10  18  30  47  66  91 122 157 191 223 263
#     4   8  13  24  42  65  95 124 145 176 228 276
#     4   8  16  28  44  67  92 121 155 188 222 269
#     4   9  16  30  48  64  86 121 161 188 218 264
#     4  11  22  32  44  66  93 118 154 198 236 269
#
# _framework density 20.536342999999999
#
# number of rings (size 3 to 8) (size 9 to 14) (size 15 to 20)
#    0.000    3.000    1.667    2.500    0.000    1.333 
#    0.000    5.000    0.000    5.000    0.000    0.000 
#    0.000   25.333    0.000    0.000    0.000    0.000 
#
# Total GULP energy -267809.457693 kJ/mol
# GULP energy per Si atom -5579.363702 kJ/mol
# Density = 2.048960 g / cm^3
# Si number density = 20.536343 Si / 1000 Ang^3
#
#
#
# Elastic Constant Matrix: (Units=GPa)
#
#
# Indices 1 2 3 4 5 6 
#
# 1 98.0973 -6.1052 59.9607 0.0000 0.0000 0.0000
# 2 -6.1052 66.6342 5.1942 0.0000 0.0000 0.0000
# 3 59.9607 5.1942 198.3549 0.0000 0.0000 0.0000
# 4 0.0000 0.0000 0.0000 -8.0906 0.0000 0.0000
# 5 0.0000 0.0000 0.0000 0.0000 16.9561 0.0000
# 6 0.0000 0.0000 0.0000 0.0000 0.0000 -70.1402
#
#
#
# Elastic Compliance Matrix: (Units=1/GPa)
#
#
# Indices 1 2 3 4 5 6 
#
# 1 0.012644 0.001459 -0.003861 0.000000 0.000000 0.000000
# 2 0.001459 0.015206 -0.000839 0.000000 0.000000 0.000000
# 3 -0.003861 -0.000839 0.006230 0.000000 0.000000 0.000000
# 4 0.000000 0.000000 0.000000 -0.123600 0.000000 0.000000
# 5 0.000000 0.000000 0.000000 0.000000 0.058976 0.000000
# 6 0.000000 0.000000 0.000000 0.000000 0.000000 -0.014257
#
#
# Mechanical properties :
#
#
# Convention : Reuss Voigt Hill
#
# Bulk Modulus (GPa) = 36.23123 53.46508 44.84815
# Shear Modulus (GPa) = -171.70947 8.01417 -81.84765
#
# Velocity S-wave (km/s) = -9.15391 1.97760 -6.31993
# Velocity P-wave (km/s) = 9.69766 5.59513 5.60085
#
# Compressibility (1/GPa) = 0.02760050
#
# Stress axis : x y z
#
# Youngs Moduli (GPa) = 79.08589 65.76154 160.50221
#
# Poissons Ratio (x) = -0.09598 0.61962
# Poissons Ratio (y) = -0.11542 0.13472
# Poissons Ratio (z) = 0.30531 0.05520
#
# Static dielectric constant tensor:
#      x y z
#    x 1.682510 0.000000 0.000000 
#    y 0.000000 1.786010 0.000000 
#    z 0.000000 0.000000 1.747070 
# 
# From -- ./inp_files/13025.got.cif
#   From: 2010.05.17/outbox.cif.g08.bks.cpg/sg51_7_cif.got.tgz:13025.got - 2010.06.03 11:52:47.
