data_PCOD9399134
_publ_section_title
;
Structure prediction by ZEFSAII (Michael W. Deem and Ramdas Pophale) SiO2 
 PCOD9399134
Probable space group: P M M A
;
_chemical_formula_sum "Si O2"
_cell_formula_units_Z 40
_cell_length_a 26.597921
_cell_length_b 8.799586
_cell_length_c 9.986845
_cell_angle_alpha 90.000000
_cell_angle_beta 90.000000
_cell_angle_gamma 90.000000
_cell_volume 2337.427996
_symmetry_space_group_name_H-M "P M M A"
_symmetry_group_IT_number 51
_symmetry_cell_setting 'orthorhombic'
loop_
_space_group_symop_operation_xyz
x,y,z
1/2-x,-y,z
1/2+x,-y,-z
-x,y,-z
-x,-y,-z
1/2+x,y,-z
1/2-x,y,z
x,-y,z
loop_
_atom_site_type_symbol
_atom_site_label
_atom_site_fract_x
_atom_site_fract_y
_atom_site_fract_z
Si Si1 0.106673 0.318254 0.648000
Si Si2 0.997493 0.824954 0.337358
Si Si3 0.608062 0.182581 0.648834
Si Si4 0.191899 0.316920 0.159327
Si Si5 0.306726 0.684930 0.850196
O O1 0.108845 0.500000 0.637154
O O2 0.113814 0.248079 0.500667
O O3 0.150444 0.264497 0.748040
O O4 0.051532 0.269804 0.699851
O O5 0.052835 0.769276 0.295973
O O6 0.000000 0.823982 0.500000
O O7 0.990673 0.000000 0.295246
O O8 0.652450 0.239703 0.742854
O O9 0.607159 0.000000 0.640774
O O10 0.250000 0.279842 0.192426
O O11 0.186857 0.500000 0.168193
O O12 0.183335 0.271857 0.004311
O O13 0.250000 0.734274 0.813993
O O14 0.306550 0.500000 0.848006
#
# Coordination Sequence:
#
# PCOD9399134 Si02
#       5
#     8   8   8   8   8
#     4  10  18  29  51  78  98 123 162 203 241 284
#     4   8  16  31  47  65  96 133 161 192 239 286
#     4  10  20  33  49  71 100 131 161 196 239 287
#     4   9  18  34  54  72  93 125 162 199 240 284
#     4   8  16  32  51  71  97 126 156 195 243 289
#
# _framework density 17.112826999999999
#
# number of rings (size 3 to 8) (size 9 to 14) (size 15 to 20)
#    0.000    3.000    0.000    3.600    0.000    5.600 
#    0.000    5.000    0.000   10.200    0.000    0.000 
#    0.000    0.000    0.000    0.000    0.000    0.000 
#
# Total GULP energy -222829.975509 kJ/mol
# GULP energy per Si atom -5570.749388 kJ/mol
# Density = 1.707388 g / cm^3
# Si number density = 17.112827 Si / 1000 Ang^3
#
#
#
# Elastic Constant Matrix: (Units=GPa)
#
#
# Indices 1 2 3 4 5 6 
#
# 1 184.8117 50.5129 97.6319 0.0000 0.0000 0.0000
# 2 50.5129 34.3301 30.2711 0.0000 0.0000 0.0000
# 3 97.6319 30.2711 74.2409 0.0000 0.0000 0.0000
# 4 0.0000 0.0000 0.0000 -3.3670 0.0000 0.0000
# 5 0.0000 0.0000 0.0000 0.0000 -22.8881 0.0000
# 6 0.0000 0.0000 0.0000 0.0000 0.0000 17.9764
#
#
#
# Elastic Compliance Matrix: (Units=1/GPa)
#
#
# Indices 1 2 3 4 5 6 
#
# 1 0.019528 -0.009507 -0.021805 0.000000 0.000000 0.000000
# 2 -0.009507 0.050109 -0.007929 0.000000 0.000000 0.000000
# 3 -0.021805 -0.007929 0.045377 0.000000 0.000000 0.000000
# 4 0.000000 0.000000 0.000000 -0.297001 0.000000 0.000000
# 5 0.000000 0.000000 0.000000 0.000000 -0.043691 0.000000
# 6 0.000000 0.000000 0.000000 0.000000 0.000000 0.055629
#
#
# Mechanical properties :
#
#
# Convention : Reuss Voigt Hill
#
# Bulk Modulus (GPa) = 27.37243 72.24606 49.80924
# Shear Modulus (GPa) = -62.98050 6.00872 -28.48589
#
# Velocity S-wave (km/s) = -6.07314 1.87586 -4.08437
# Velocity P-wave (km/s) = 5.75737 6.85572 2.63188
#
# Compressibility (1/GPa) = 0.03653312
#
# Stress axis : x y z
#
# Youngs Moduli (GPa) = 51.20776 19.95644 22.03751
#
# Poissons Ratio (x) = 0.18973 0.48052
# Poissons Ratio (y) = 0.48684 0.17474
# Poissons Ratio (z) = 1.11656 0.15823
#
# Static dielectric constant tensor:
#      x y z
#    x 1.600410 0.000000 0.000000 
#    y 0.000000 1.578640 0.000000 
#    z 0.000000 0.000000 1.553890 
# 
# From -- ./inp_files/12117.got.cif
#   From: 2010.05.17/outbox.cif.g08.bks.cpg/sg51_7_cif.got.tgz:12117.got - 2010.06.03 11:52:47.
