data_PCOD9399734
_publ_section_title
;
Structure prediction by ZEFSAII (Michael W. Deem and Ramdas Pophale) SiO2 
 PCOD9399734
Probable space group: P M M A
;
_chemical_formula_sum "Si O2"
_cell_formula_units_Z 48
_cell_length_a 8.617098
_cell_length_b 31.734109
_cell_length_c 9.140603
_cell_angle_alpha 90.000000
_cell_angle_beta 90.000000
_cell_angle_gamma 90.000000
_cell_volume 2499.552068
_symmetry_space_group_name_H-M "P M M A"
_symmetry_group_IT_number 51
_symmetry_cell_setting 'orthorhombic'
loop_
_space_group_symop_operation_xyz
x,y,z
1/2-x,-y,z
1/2+x,-y,-z
-x,y,-z
-x,-y,-z
1/2+x,y,-z
1/2-x,y,z
x,-y,z
loop_
_atom_site_type_symbol
_atom_site_label
_atom_site_fract_x
_atom_site_fract_y
_atom_site_fract_z
Si Si1 0.063467 0.250551 0.335890
Si Si2 0.062735 0.000000 0.835884
Si Si3 0.935857 0.588133 0.665956
Si Si4 0.563606 0.084240 0.335802
Si Si5 0.435836 0.500000 0.666504
Si Si6 0.064102 0.835126 0.164049
Si Si7 0.435758 0.668807 0.836031
O O1 0.250000 0.254861 0.338279
O O2 0.023391 0.208013 0.248043
O O3 0.000000 0.247794 0.500000
O O4 0.990688 0.290689 0.255421
O O5 0.013341 0.041954 0.749441
O O6 0.250000 0.000000 0.841419
O O7 0.000000 0.000000 0.000000
O O8 0.750000 0.586971 0.660747
O O9 0.000000 0.592645 0.500000
O O10 0.999891 0.543814 0.728933
O O11 0.995417 0.627220 0.759865
O O12 0.500000 0.083972 0.500000
O O13 0.750000 0.085057 0.339852
O O14 0.503586 0.125074 0.250304
O O15 0.250000 0.500000 0.665576
O O16 0.500000 0.500000 0.500000
O O17 0.250000 0.838532 0.160094
O O18 0.000000 0.834175 0.000000
O O19 0.250000 0.666570 0.837488
O O20 0.500000 0.672340 0.000000
#
# Coordination Sequence:
#
# PCOD9399734 Si02
#       7
#     8   4   8   8   4   8   8
#     4  11  24  42  64  91 121 156 197 244 294 350
#     4  10  23  40  60  88 120 158 201 250 303 360
#     4  11  21  37  60  88 120 157 199 245 296 351
#     4  11  23  40  62  89 122 159 203 250 301 356
#     4  10  18  32  55  86 119 154 197 246 296 348
#     4  11  24  41  63  91 124 160 200 245 298 355
#     4  12  25  42  62  87 119 156 197 244 297 355
#
# _framework density 19.203443
#
# number of rings (size 3 to 8) (size 9 to 14) (size 15 to 20)
#    0.000    1.000    0.000    8.500    0.000    8.000 
#    0.000    0.417    0.000    0.000    0.000    0.000 
#    0.000    0.000    0.000    0.000    0.000    0.000 
#
# Total GULP energy -268596.110422 kJ/mol
# GULP energy per Si atom -5595.752300 kJ/mol
# Density = 1.915973 g / cm^3
# Si number density = 19.203443 Si / 1000 Ang^3
#
#
#
# Elastic Constant Matrix: (Units=GPa)
#
#
# Indices 1 2 3 4 5 6 
#
# 1 137.1195 90.5364 66.0608 0.0000 0.0000 0.0000
# 2 90.5364 221.2898 115.5903 0.0000 0.0000 0.0000
# 3 66.0608 115.5903 180.0537 0.0000 0.0000 0.0000
# 4 0.0000 0.0000 0.0000 -96.7463 0.0000 0.0000
# 5 0.0000 0.0000 0.0000 0.0000 37.5181 0.0000
# 6 0.0000 0.0000 0.0000 0.0000 0.0000 34.5554
#
#
#
# Elastic Compliance Matrix: (Units=1/GPa)
#
#
# Indices 1 2 3 4 5 6 
#
# 1 0.010295 -0.003369 -0.001615 0.000000 0.000000 0.000000
# 2 -0.003369 0.007901 -0.003836 0.000000 0.000000 0.000000
# 3 -0.001615 -0.003836 0.008609 0.000000 0.000000 0.000000
# 4 0.000000 0.000000 0.000000 -0.010336 0.000000 0.000000
# 5 0.000000 0.000000 0.000000 0.000000 0.026654 0.000000
# 6 0.000000 0.000000 0.000000 0.000000 0.000000 0.028939
#
#
# Mechanical properties :
#
#
# Convention : Reuss Voigt Hill
#
# Bulk Modulus (GPa) = 109.09853 120.31534 114.70694
# Shear Modulus (GPa) = 53.90467 12.81714 33.36090
#
# Velocity S-wave (km/s) = 5.30389 2.58629 4.17254
# Velocity P-wave (km/s) = 9.71821 8.46803 9.11458
#
# Compressibility (1/GPa) = 0.00916603
#
# Stress axis : x y z
#
# Youngs Moduli (GPa) = 97.13458 126.56471 116.15519
#
# Poissons Ratio (x) = 0.42635 0.18755
# Poissons Ratio (y) = 0.32721 0.44562
# Poissons Ratio (z) = 0.15684 0.48555
#
# Static dielectric constant tensor:
#      x y z
#    x 1.644710 0.000000 0.000000 
#    y 0.000000 1.662020 0.000000 
#    z 0.000000 0.000000 1.637200 
# 
# From -- ./inp_files/6294.got.cif
#   From: 2010.05.17/outbox.cif.g08.bks.cpg/sg51_4_cif.got.tgz:6294.got - 2010.06.03 11:52:47.
