data_PCOD9399941
_publ_section_title
;
Structure prediction by ZEFSAII (Michael W. Deem and Ramdas Pophale) SiO2 
 PCOD9399941
Probable space group: P M M A
;
_chemical_formula_sum "Si O2"
_cell_formula_units_Z 64
_cell_length_a 14.578325
_cell_length_b 23.181617
_cell_length_c 9.437710
_cell_angle_alpha 90.000000
_cell_angle_beta 90.000000
_cell_angle_gamma 90.000000
_cell_volume 3189.466041
_symmetry_space_group_name_H-M "P M M A"
_symmetry_group_IT_number 51
_symmetry_cell_setting 'orthorhombic'
loop_
_space_group_symop_operation_xyz
x,y,z
1/2-x,-y,z
1/2+x,-y,-z
-x,y,-z
-x,-y,-z
1/2+x,y,-z
1/2-x,y,z
x,-y,z
loop_
_atom_site_type_symbol
_atom_site_label
_atom_site_fract_x
_atom_site_fract_y
_atom_site_fract_z
Si Si1 0.857063 0.155521 0.852282
Si Si2 0.523178 0.884714 0.345884
Si Si3 0.070467 0.239438 0.627842
Si Si4 0.857813 0.383579 0.693499
Si Si5 0.857546 0.064866 0.103220
Si Si6 0.353334 0.359892 0.633262
Si Si7 0.561910 0.722866 0.870487
Si Si8 0.520162 0.564177 0.166003
O O1 0.750000 0.149763 0.809826
O O2 0.874945 0.221534 0.902081
O O3 0.929146 0.137956 0.729173
O O4 0.875421 0.112573 0.983223
O O5 0.500000 0.909778 0.500000
O O6 0.588430 0.828520 0.374851
O O7 0.576640 0.924285 0.235892
O O8 0.143946 0.290123 0.628785
O O9 0.000000 0.250954 0.500000
O O10 0.014141 0.250793 0.768404
O O11 0.750000 0.393823 0.706424
O O12 0.880315 0.376925 0.527024
O O13 0.884289 0.326286 0.784272
O O14 0.921840 0.432217 0.758250
O O15 0.750000 0.070063 0.143614
O O16 0.871501 0.000000 0.046894
O O17 0.250000 0.379468 0.660572
O O18 0.418752 0.388318 0.751323
O O19 0.500000 0.701073 0.000000
O O20 0.560747 0.500000 0.182484
O O21 0.500000 0.573697 0.000000
#
# Coordination Sequence:
#
# PCOD9399941 Si02
#       8
#     8   8   8   8   8   8   8   8
#     4  10  21  38  60  90 124 165 212 259 314 377
#     4  10  22  36  59  93 125 165 208 263 321 383
#     4  10  18  36  57  84 127 165 200 245 311 377
#     4  11  23  39  63  94 125 164 208 255 314 377
#     4  10  22  42  64  86 120 167 218 268 317 377
#     4  11  23  40  65  95 126 166 212 255 308 375
#     4  11  20  35  59  88 127 162 202 255 311 369
#     4  11  25  46  67  90 126 167 206 260 314 363
#
# _framework density 20.066054999999999
#
# number of rings (size 3 to 8) (size 9 to 14) (size 15 to 20)
#    0.000    1.500    2.500    3.000    0.000    4.250 
#    0.000    3.125    0.000    1.500    0.000    0.000 
#    0.000    0.000    0.000    0.000    0.000    0.000 
#
# Total GULP energy -356961.298355 kJ/mol
# GULP energy per Si atom -5577.520287 kJ/mol
# Density = 2.002038 g / cm^3
# Si number density = 20.066055 Si / 1000 Ang^3
#
#
#
# Elastic Constant Matrix: (Units=GPa)
#
#
# Indices 1 2 3 4 5 6 
#
# 1 76.0168 20.9317 45.6822 0.0000 0.0000 0.0000
# 2 20.9317 90.7597 29.9339 0.0000 0.0000 0.0000
# 3 45.6822 29.9339 108.4436 0.0000 0.0000 0.0000
# 4 0.0000 0.0000 0.0000 -50.6151 0.0000 0.0000
# 5 0.0000 0.0000 0.0000 0.0000 20.7841 0.0000
# 6 0.0000 0.0000 0.0000 0.0000 0.0000 45.6015
#
#
#
# Elastic Compliance Matrix: (Units=1/GPa)
#
#
# Indices 1 2 3 4 5 6 
#
# 1 0.017878 -0.001803 -0.007033 0.000000 0.000000 0.000000
# 2 -0.001803 0.012304 -0.002636 0.000000 0.000000 0.000000
# 3 -0.007033 -0.002636 0.012912 0.000000 0.000000 0.000000
# 4 0.000000 0.000000 0.000000 -0.019757 0.000000 0.000000
# 5 0.000000 0.000000 0.000000 0.000000 0.048114 0.000000
# 6 0.000000 0.000000 0.000000 0.000000 0.000000 0.021929
#
#
# Mechanical properties :
#
#
# Convention : Reuss Voigt Hill
#
# Bulk Modulus (GPa) = 49.63501 52.03509 50.83505
# Shear Modulus (GPa) = 40.63639 15.06558 27.85099
#
# Velocity S-wave (km/s) = 4.50503 2.74304 3.72958
# Velocity P-wave (km/s) = 7.20069 6.00172 6.62837
#
# Compressibility (1/GPa) = 0.02014707
#
# Stress axis : x y z
#
# Youngs Moduli (GPa) = 55.93359 81.27707 77.44729
#
# Poissons Ratio (x) = 0.14658 0.54472
# Poissons Ratio (y) = 0.10088 0.20419
# Poissons Ratio (z) = 0.39341 0.21428
#
# Static dielectric constant tensor:
#      x y z
#    x 1.715230 0.000000 0.000000 
#    y 0.000000 1.766190 0.000000 
#    z 0.000000 0.000000 1.697200 
# 
# From -- ./inp_files/8708.got.cif
#   From: 2010.05.17/outbox.cif.g08.bks.cpg/sg51_5_cif.got.tgz:8708.got - 2010.06.03 11:52:47.
