data_PCOD9399733
_publ_section_title
;
Structure prediction by ZEFSAII (Michael W. Deem and Ramdas Pophale) SiO2 
 PCOD9399733
Probable space group: P M M A
;
_chemical_formula_sum "Si O2"
_cell_formula_units_Z 36
_cell_length_a 8.664163
_cell_length_b 23.640536
_cell_length_c 9.357321
_cell_angle_alpha 90.000000
_cell_angle_beta 90.000000
_cell_angle_gamma 90.000000
_cell_volume 1916.617553
_symmetry_space_group_name_H-M "P M M A"
_symmetry_group_IT_number 51
_symmetry_cell_setting 'orthorhombic'
loop_
_space_group_symop_operation_xyz
x,y,z
1/2-x,-y,z
1/2+x,-y,-z
-x,y,-z
-x,-y,-z
1/2+x,y,-z
1/2-x,y,z
x,-y,z
loop_
_atom_site_type_symbol
_atom_site_label
_atom_site_fract_x
_atom_site_fract_y
_atom_site_fract_z
Si Si1 0.065154 0.618008 0.661533
Si Si2 0.065480 0.834034 0.341879
Si Si3 0.434992 0.500000 0.337827
Si Si4 0.564313 0.277167 0.840108
Si Si5 0.434842 0.065209 0.842609
O O1 0.250000 0.615537 0.655166
O O2 0.000000 0.624634 0.500000
O O3 0.999359 0.558763 0.723092
O O4 0.007730 0.670092 0.755751
O O5 0.250000 0.837342 0.348217
O O6 0.023380 0.780407 0.243561
O O7 0.000000 0.826255 0.500000
O O8 0.000527 0.890749 0.270358
O O9 0.250000 0.500000 0.339017
O O10 0.500000 0.500000 0.500000
O O11 0.750000 0.282425 0.842043
O O12 0.500000 0.275025 0.000000
O O13 0.250000 0.068954 0.846246
O O14 0.477932 0.000000 0.810194
O O15 0.500000 0.078699 0.000000
#
# Coordination Sequence:
#
# PCOD9399733 Si02
#       5
#     8   8   4   8   8
#     4  11  21  36  59  87 118 153 193 238 286 339
#     4  11  24  40  61  87 117 152 193 240 289 342
#     4  10  18  32  55  84 117 152 191 236 284 338
#     4  11  24  41  60  85 115 151 192 236 289 346
#     4  10  21  38  61  88 119 155 194 236 285 342
#
# _framework density 18.783089
#
# number of rings (size 3 to 8) (size 9 to 14) (size 15 to 20)
#    0.000    1.333    0.000    7.667    0.000    8.889 
#    0.000    0.556    0.000    0.000    0.000    0.000 
#    0.000    0.000    0.000    0.000    0.000    0.000 
#
# Total GULP energy -201286.726853 kJ/mol
# GULP energy per Si atom -5591.297968 kJ/mol
# Density = 1.874034 g / cm^3
# Si number density = 18.783089 Si / 1000 Ang^3
#
#
#
# Elastic Constant Matrix: (Units=GPa)
#
#
# Indices 1 2 3 4 5 6 
#
# 1 115.1801 67.8306 59.1826 0.0000 0.0000 0.0000
# 2 67.8306 141.8167 95.0989 0.0000 0.0000 0.0000
# 3 59.1826 95.0989 135.9950 0.0000 0.0000 0.0000
# 4 0.0000 0.0000 0.0000 99.6844 0.0000 0.0000
# 5 0.0000 0.0000 0.0000 0.0000 34.9149 0.0000
# 6 0.0000 0.0000 0.0000 0.0000 0.0000 67.5447
#
#
#
# Elastic Compliance Matrix: (Units=1/GPa)
#
#
# Indices 1 2 3 4 5 6 
#
# 1 0.012478 -0.004381 -0.002366 0.000000 0.000000 0.000000
# 2 -0.004381 0.014816 -0.008454 0.000000 0.000000 0.000000
# 3 -0.002366 -0.008454 0.014295 0.000000 0.000000 0.000000
# 4 0.000000 0.000000 0.000000 0.010032 0.000000 0.000000
# 5 0.000000 0.000000 0.000000 0.000000 0.028641 0.000000
# 6 0.000000 0.000000 0.000000 0.000000 0.000000 0.014805
#
#
# Mechanical properties :
#
#
# Convention : Reuss Voigt Hill
#
# Bulk Modulus (GPa) = 89.40182 93.02401 91.21292
# Shear Modulus (GPa) = 38.70020 51.82078 45.26049
#
# Velocity S-wave (km/s) = 4.54406 5.25823 4.91413
# Velocity P-wave (km/s) = 8.67362 9.30044 8.99249
#
# Compressibility (1/GPa) = 0.01118545
#
# Stress axis : x y z
#
# Youngs Moduli (GPa) = 80.13933 67.49514 69.95641
#
# Poissons Ratio (x) = 0.29573 0.16555
# Poissons Ratio (y) = 0.35113 0.59139
# Poissons Ratio (z) = 0.18965 0.57059
#
# Static dielectric constant tensor:
#      x y z
#    x 1.626860 0.000000 0.000000 
#    y 0.000000 1.658550 0.000000 
#    z 0.000000 0.000000 1.620100 
# 
# From -- ./inp_files/5200.got.cif
#   From: 2010.05.17/outbox.cif.g08.bks.cpg/sg51_3_cif.got.tgz:5200.got - 2010.06.03 11:52:47.
