data_PCOD9399944
_publ_section_title
;
Structure prediction by ZEFSAII (Michael W. Deem and Ramdas Pophale) SiO2 
 PCOD9399944
Probable space group: P M M A
;
_chemical_formula_sum "Si O2"
_cell_formula_units_Z 48
_cell_length_a 15.045479
_cell_length_b 7.792426
_cell_length_c 20.379026
_cell_angle_alpha 90.000000
_cell_angle_beta 90.000000
_cell_angle_gamma 90.000000
_cell_volume 2389.252939
_symmetry_space_group_name_H-M "P M M A"
_symmetry_group_IT_number 51
_symmetry_cell_setting 'orthorhombic'
loop_
_space_group_symop_operation_xyz
x,y,z
1/2-x,-y,z
1/2+x,-y,-z
-x,y,-z
-x,-y,-z
1/2+x,y,-z
1/2-x,y,z
x,-y,z
loop_
_atom_site_type_symbol
_atom_site_label
_atom_site_fract_x
_atom_site_fract_y
_atom_site_fract_z
Si Si1 0.441794 0.711312 0.684268
Si Si2 0.559492 0.707235 0.561652
Si Si3 0.750000 0.198398 0.510888
Si Si4 0.250000 0.300825 0.637865
Si Si5 0.351669 0.707722 0.078584
Si Si6 0.497285 0.299227 0.827048
Si Si7 0.648009 0.795976 0.069005
O O1 0.439818 0.500000 0.683814
O O2 0.511688 0.763912 0.628337
O O3 0.342743 0.771885 0.664885
O O4 0.471249 0.771692 0.756117
O O5 0.500000 0.766541 0.500000
O O6 0.558291 0.500000 0.560999
O O7 0.660718 0.761636 0.550832
O O8 0.750000 0.295057 0.441176
O O9 0.750000 0.000000 0.493021
O O10 0.250000 0.500000 0.658036
O O11 0.250000 0.766629 0.087168
O O12 0.351994 0.500000 0.080475
O O13 0.417979 0.774465 0.134264
O O14 0.381494 0.758603 0.005472
O O15 0.516802 0.500000 0.816027
O O16 0.415419 0.285021 0.877156
O O17 0.750000 0.734189 0.074743
O O18 0.647039 0.000000 0.078723
#
# Coordination Sequence:
#
# PCOD9399944 Si02
#       7
#     8   8   4   4   8   8   8
#     4   9  19  34  57  86 111 139 180 226 270 321
#     4  10  19  37  62  84 108 143 190 232 266 319
#     4  12  24  36  56  86 116 145 180 227 282 329
#     4  10  18  36  60  82 110 145 184 221 266 327
#     4   9  18  34  54  76 105 139 177 223 270 315
#     4  10  20  34  54  82 110 138 174 220 276 325
#     4  10  21  35  52  77 107 141 182 221 261 317
#
# _framework density 20.089962
#
# number of rings (size 3 to 8) (size 9 to 14) (size 15 to 20)
#    0.000    2.167    1.667    1.750    1.167    4.000 
#    1.500    1.667    0.000    0.000    0.000    0.000 
#    0.000    0.000    0.000    0.000    0.000    0.000 
#
# Total GULP energy -268015.894858 kJ/mol
# GULP energy per Si atom -5583.664476 kJ/mol
# Density = 2.004424 g / cm^3
# Si number density = 20.089962 Si / 1000 Ang^3
#
#
#
# Elastic Constant Matrix: (Units=GPa)
#
#
# Indices 1 2 3 4 5 6 
#
# 1 146.0913 -5.8873 98.5603 0.0000 0.0000 0.0000
# 2 -5.8873 24.4339 -6.2346 0.0000 0.0000 0.0000
# 3 98.5603 -6.2346 168.7999 0.0000 0.0000 0.0000
# 4 0.0000 0.0000 0.0000 -19.9974 0.0000 0.0000
# 5 0.0000 0.0000 0.0000 0.0000 -12.1886 0.0000
# 6 0.0000 0.0000 0.0000 0.0000 0.0000 -8.9514
#
#
#
# Elastic Compliance Matrix: (Units=1/GPa)
#
#
# Indices 1 2 3 4 5 6 
#
# 1 0.011321 0.001051 -0.006571 0.000000 0.000000 0.000000
# 2 0.001051 0.041414 0.000916 0.000000 0.000000 0.000000
# 3 -0.006571 0.000916 0.009795 0.000000 0.000000 0.000000
# 4 0.000000 0.000000 0.000000 -0.050007 0.000000 0.000000
# 5 0.000000 0.000000 0.000000 0.000000 -0.082044 0.000000
# 6 0.000000 0.000000 0.000000 0.000000 0.000000 -0.111714
#
#
# Mechanical properties :
#
#
# Convention : Reuss Voigt Hill
#
# Bulk Modulus (GPa) = 18.75443 56.91131 37.83287
# Shear Modulus (GPa) = -32.41407 8.63164 -11.89122
#
# Velocity S-wave (km/s) = -4.02113 2.07505 -2.43554
# Velocity P-wave (km/s) = 3.49340 5.84216 3.31112
#
# Compressibility (1/GPa) = 0.05332073
#
# Stress axis : x y z
#
# Youngs Moduli (GPa) = 88.33448 24.14658 102.09474
#
# Poissons Ratio (x) = -0.02538 0.67088
# Poissons Ratio (y) = -0.09284 -0.09351
# Poissons Ratio (z) = 0.58046 -0.02212
#
# Static dielectric constant tensor:
#      x y z
#    x 1.705780 0.000000 0.000000 
#    y 0.000000 1.727890 0.000000 
#    z 0.000000 0.000000 1.677820 
# 
# From -- ./inp_files/29604.got.cif
#   From: 2010.05.17/outbox.cif.g08.bks.cpg/sg51_15_cif.got.tgz:29604.got - 2010.06.03 11:52:47.
