data_PCOD9399569
_publ_section_title
;
Structure prediction by ZEFSAII (Michael W. Deem and Ramdas Pophale) SiO2 
 PCOD9399569
Probable space group: P M M A
;
_chemical_formula_sum "Si O2"
_cell_formula_units_Z 48
_cell_length_a 11.370741
_cell_length_b 7.344599
_cell_length_c 23.851183
_cell_angle_alpha 90.000000
_cell_angle_beta 90.000000
_cell_angle_gamma 90.000000
_cell_volume 1991.896558
_symmetry_space_group_name_H-M "P M M A"
_symmetry_group_IT_number 51
_symmetry_cell_setting 'orthorhombic'
loop_
_space_group_symop_operation_xyz
x,y,z
1/2-x,-y,z
1/2+x,-y,-z
-x,y,-z
-x,-y,-z
1/2+x,y,-z
1/2-x,y,z
x,-y,z
loop_
_atom_site_type_symbol
_atom_site_label
_atom_site_fract_x
_atom_site_fract_y
_atom_site_fract_z
Si Si1 0.117315 0.721988 0.751435
Si Si2 0.750000 0.279510 0.738768
Si Si3 0.992570 0.719824 0.132796
Si Si4 0.622664 0.212286 0.021845
Si Si5 0.957788 0.719684 0.656771
Si Si6 0.250000 0.279051 0.132022
Si Si7 0.615304 0.209570 0.531027
O O1 0.250000 0.778083 0.762322
O O2 0.112468 0.500000 0.751650
O O3 0.036915 0.779693 0.803988
O O4 0.075772 0.776244 0.689147
O O5 0.750000 0.500000 0.741141
O O6 0.638896 0.225799 0.702437
O O7 0.750000 0.222758 0.802606
O O8 0.994821 0.500000 0.133919
O O9 0.894093 0.777066 0.088883
O O10 0.121737 0.782009 0.111593
O O11 0.750000 0.290794 0.005413
O O12 0.624054 0.000000 0.006157
O O13 0.500000 0.295202 0.000000
O O14 0.957339 0.500000 0.651370
O O15 0.920186 0.789426 0.596424
O O16 0.250000 0.500000 0.128580
O O17 0.500000 0.291419 0.500000
O O18 0.750000 0.284535 0.524726
O O19 0.622922 0.000000 0.511588
#
# Coordination Sequence:
#
# PCOD9399569 Si02
#       7
#     8   4   8   8   8   4   8
#     4   9  17  29  49  80 114 143 170 208 262 319
#     4   9  14  26  49  77 105 133 165 202 253 306
#     4  10  19  33  56  84 113 143 180 222 266 317
#     4  10  23  42  60  78 105 143 184 227 276 326
#     4  10  18  31  54  79 103 134 173 214 256 307
#     4   9  16  28  51  85 117 145 175 214 263 318
#     4  10  22  39  56  74 101 138 177 218 266 316
#
# _framework density 24.097636999999999
#
# number of rings (size 3 to 8) (size 9 to 14) (size 15 to 20)
#    0.000    2.333    2.500    0.500    1.167    2.333 
#    0.000    0.833    0.000    2.000    0.000    0.000 
#    0.000    0.000    0.000    0.000    0.000    0.000 
#
# Total GULP energy -267965.374890 kJ/mol
# GULP energy per Si atom -5582.611977 kJ/mol
# Density = 2.404279 g / cm^3
# Si number density = 24.097637 Si / 1000 Ang^3
#
#
#
# Elastic Constant Matrix: (Units=GPa)
#
#
# Indices 1 2 3 4 5 6 
#
# 1 209.9350 12.8351 55.6206 0.0000 0.0000 0.0000
# 2 12.8351 95.7218 -0.6717 0.0000 0.0000 0.0000
# 3 55.6206 -0.6717 92.3500 0.0000 0.0000 0.0000
# 4 0.0000 0.0000 0.0000 21.7829 0.0000 0.0000
# 5 0.0000 0.0000 0.0000 0.0000 39.7323 0.0000
# 6 0.0000 0.0000 0.0000 0.0000 0.0000 -3.4460
#
#
#
# Elastic Compliance Matrix: (Units=1/GPa)
#
#
# Indices 1 2 3 4 5 6 
#
# 1 0.005727 -0.000792 -0.003455 0.000000 0.000000 0.000000
# 2 -0.000792 0.010557 0.000554 0.000000 0.000000 0.000000
# 3 -0.003455 0.000554 0.012913 0.000000 0.000000 0.000000
# 4 0.000000 0.000000 0.000000 0.045908 0.000000 0.000000
# 5 0.000000 0.000000 0.000000 0.000000 0.025168 0.000000
# 6 0.000000 0.000000 0.000000 0.000000 0.000000 -0.290191
#
#
# Mechanical properties :
#
#
# Convention : Reuss Voigt Hill
#
# Bulk Modulus (GPa) = 45.84894 59.28610 52.56752
# Shear Modulus (GPa) = -28.52907 33.62870 2.54981
#
# Velocity S-wave (km/s) = -3.44451 3.73972 1.02976
# Velocity P-wave (km/s) = 1.80225 6.58051 4.82448
#
# Compressibility (1/GPa) = 0.02181075
#
# Stress axis : x y z
#
# Youngs Moduli (GPa) = 174.60456 94.72345 77.43916
#
# Poissons Ratio (x) = 0.07504 0.26756
# Poissons Ratio (y) = 0.13832 -0.04289
# Poissons Ratio (z) = 0.60329 -0.05247
#
# Static dielectric constant tensor:
#      x y z
#    x 1.978150 0.000000 0.000000 
#    y 0.000000 1.958850 0.000000 
#    z 0.000000 0.000000 1.868350 
# 
# From -- ./inp_files/32964.got.cif
#   From: 2010.05.17/outbox.cif.g08.bks.cpg/sg51_17_cif.got.tgz:32964.got - 2010.06.03 11:52:47.
