data_PCOD9399061
_publ_section_title
;
Structure prediction by ZEFSAII (Michael W. Deem and Ramdas Pophale) SiO2 
 PCOD9399061
Probable space group: P M M A
;
_chemical_formula_sum "Si O2"
_cell_formula_units_Z 48
_cell_length_a 16.239539
_cell_length_b 19.337055
_cell_length_c 8.376346
_cell_angle_alpha 90.000000
_cell_angle_beta 90.000000
_cell_angle_gamma 90.000000
_cell_volume 2630.380870
_symmetry_space_group_name_H-M "P M M A"
_symmetry_group_IT_number 51
_symmetry_cell_setting 'orthorhombic'
loop_
_space_group_symop_operation_xyz
x,y,z
1/2-x,-y,z
1/2+x,-y,-z
-x,y,-z
-x,-y,-z
1/2+x,y,-z
1/2-x,y,z
x,-y,z
loop_
_atom_site_type_symbol
_atom_site_label
_atom_site_fract_x
_atom_site_fract_y
_atom_site_fract_z
Si Si1 0.350255 0.919189 0.167155
Si Si2 0.849873 0.839795 0.154349
Si Si3 0.850318 0.080786 0.475166
Si Si4 0.416087 0.687745 0.897029
Si Si5 0.993167 0.575950 0.312773
Si Si6 0.660087 0.578111 0.878647
O O1 0.250000 0.916299 0.167375
O O2 0.376801 0.895440 0.345962
O O3 0.372851 0.000000 0.150982
O O4 0.377789 0.877449 0.010289
O O5 0.750000 0.841750 0.154368
O O6 0.877806 0.877372 0.318343
O O7 0.880044 0.761294 0.148514
O O8 0.750000 0.083128 0.475382
O O9 0.873508 0.000000 0.458859
O O10 0.440220 0.639168 0.749865
O O11 0.500000 0.696735 0.000000
O O12 0.354143 0.640085 0.998649
O O13 0.961661 0.500000 0.259743
O O14 0.084446 0.582556 0.241450
O O15 0.000000 0.576532 0.500000
O O16 0.750000 0.584831 0.802891
O O17 0.656044 0.500000 0.949108
#
# Coordination Sequence:
#
# PCOD9399061 Si02
#       6
#     8   8   8   8   8   8
#     4   8  14  26  46  71  97 127 165 209 257 306
#     4  10  18  29  47  73 103 131 165 211 260 308
#     4   8  14  26  45  70  97 127 167 212 258 307
#     4  10  20  34  49  70 101 136 171 204 256 317
#     4   9  18  35  57  77 101 137 178 214 257 316
#     4   9  17  32  55  79 101 130 172 219 258 299
#
# _framework density 18.248308000000002
#
# number of rings (size 3 to 8) (size 9 to 14) (size 15 to 20)
#    0.000    3.000    0.000    2.500    0.000    4.000 
#    6.000    1.667    0.000    6.000    0.000    2.333 
#    0.000    0.000    0.000    0.000    0.000    0.000 
#
# Total GULP energy -267268.347918 kJ/mol
# GULP energy per Si atom -5568.090582 kJ/mol
# Density = 1.820677 g / cm^3
# Si number density = 18.248308 Si / 1000 Ang^3
#
#
#
# Elastic Constant Matrix: (Units=GPa)
#
#
# Indices 1 2 3 4 5 6 
#
# 1 13.6963 24.1315 25.8542 0.0000 0.0000 0.0000
# 2 24.1315 129.3872 91.8679 0.0000 0.0000 0.0000
# 3 25.8542 91.8679 148.9583 0.0000 0.0000 0.0000
# 4 0.0000 0.0000 0.0000 34.8987 0.0000 0.0000
# 5 0.0000 0.0000 0.0000 0.0000 -3.1924 0.0000
# 6 0.0000 0.0000 0.0000 0.0000 0.0000 25.6551
#
#
#
# Elastic Compliance Matrix: (Units=1/GPa)
#
#
# Indices 1 2 3 4 5 6 
#
# 1 0.120664 -0.013582 -0.012567 0.000000 0.000000 0.000000
# 2 -0.013582 0.015278 -0.007065 0.000000 0.000000 0.000000
# 3 -0.012567 -0.007065 0.013252 0.000000 0.000000 0.000000
# 4 0.000000 0.000000 0.000000 0.028654 0.000000 0.000000
# 5 0.000000 0.000000 0.000000 0.000000 -0.313247 0.000000
# 6 0.000000 0.000000 0.000000 0.000000 0.000000 0.038979
#
#
# Mechanical properties :
#
#
# Convention : Reuss Voigt Hill
#
# Bulk Modulus (GPa) = 12.08223 63.97211 38.02717
# Shear Modulus (GPa) = -2080.93436 21.48484 -1029.72476
#
# Velocity S-wave (km/s) = -33.80561 3.43499 -23.78046
# Velocity P-wave (km/s) = 38.95027 7.13196 27.07636
#
# Compressibility (1/GPa) = 0.08276615
#
# Stress axis : x y z
#
# Youngs Moduli (GPa) = 8.28749 65.45177 75.46060
#
# Poissons Ratio (x) = 0.88895 0.94830
# Poissons Ratio (y) = 0.11256 0.53316
# Poissons Ratio (z) = 0.10415 0.46244
#
# Static dielectric constant tensor:
#      x y z
#    x 1.631630 0.000000 0.000000 
#    y 0.000000 1.611910 0.000000 
#    z 0.000000 0.000000 1.634210 
# 
# From -- ./inp_files/9644.got.cif
#   From: 2010.05.17/outbox.cif.g08.bks.cpg/sg51_5_cif.got.tgz:9644.got - 2010.06.03 11:52:47.
