data_PCOD9399613
_publ_section_title
;
Structure prediction by ZEFSAII (Michael W. Deem and Ramdas Pophale) SiO2 
 PCOD9399613
Probable space group: P M M A
;
_chemical_formula_sum "Si O2"
_cell_formula_units_Z 52
_cell_length_a 16.891851
_cell_length_b 8.608838
_cell_length_c 19.191767
_cell_angle_alpha 90.000000
_cell_angle_beta 90.000000
_cell_angle_gamma 90.000000
_cell_volume 2790.851572
_symmetry_space_group_name_H-M "P M M A"
_symmetry_group_IT_number 51
_symmetry_cell_setting 'orthorhombic'
loop_
_space_group_symop_operation_xyz
x,y,z
1/2-x,-y,z
1/2+x,-y,-z
-x,y,-z
-x,-y,-z
1/2+x,y,-z
1/2-x,y,z
x,-y,z
loop_
_atom_site_type_symbol
_atom_site_label
_atom_site_fract_x
_atom_site_fract_y
_atom_site_fract_z
Si Si1 0.069029 0.674300 0.697030
Si Si2 0.157713 0.813725 0.101176
Si Si3 0.750000 0.174308 0.452559
Si Si4 0.385630 0.184262 0.942238
Si Si5 0.750000 0.745519 0.295355
Si Si6 0.250000 0.681456 0.849432
Si Si7 0.508257 0.315329 0.842447
Si Si8 0.927056 0.813391 0.452200
O O1 0.037936 0.500000 0.686703
O O2 0.164275 0.665498 0.702982
O O3 0.053890 0.772600 0.627885
O O4 0.032850 0.733958 0.769720
O O5 0.250000 0.773920 0.107969
O O6 0.100406 0.726527 0.154363
O O7 0.149728 0.000000 0.109829
O O8 0.129485 0.775582 0.022500
O O9 0.750000 0.163082 0.367909
O O10 0.663079 0.246351 0.469142
O O11 0.750000 0.000000 0.482171
O O12 0.325333 0.282832 0.895998
O O13 0.469109 0.225505 0.907575
O O14 0.370397 0.000000 0.935366
O O15 0.750000 0.800653 0.215531
O O16 0.250000 0.500000 0.827167
O O17 0.495571 0.500000 0.850191
O O18 0.000000 0.757578 0.500000
O O19 0.922549 0.000000 0.458732
#
# Coordination Sequence:
#
# PCOD9399613 Si02
#       8
#     8   8   4   8   4   4   8   8
#     4  10  20  34  53  79 111 144 175 212 262 319
#     4  10  22  41  58  74 101 139 184 232 280 328
#     4   8  16  30  50  79 107 134 174 212 250 312
#     4  11  22  37  55  78 107 142 180 222 274 331
#     4  10  18  32  51  75 112 145 168 207 262 318
#     4  12  21  32  51  78 112 143 175 221 271 322
#     4  11  23  37  55  82 109 139 180 226 273 323
#     4   9  18  33  54  80 109 140 174 215 260 309
#
# _framework density 18.632304999999999
#
# number of rings (size 3 to 8) (size 9 to 14) (size 15 to 20)
#    0.000    1.846    2.308    2.308    0.000    5.538 
#    0.000    0.000    1.692    0.000    0.000    0.000 
#    0.000    0.000    0.000    0.000    0.000    0.000 
#
# Total GULP energy -289630.281562 kJ/mol
# GULP energy per Si atom -5569.813107 kJ/mol
# Density = 1.858990 g / cm^3
# Si number density = 18.632305 Si / 1000 Ang^3
#
#
#
# Elastic Constant Matrix: (Units=GPa)
#
#
# Indices 1 2 3 4 5 6 
#
# 1 134.2603 18.8734 60.3196 0.0000 0.0000 0.0000
# 2 18.8734 18.7989 16.3037 0.0000 0.0000 0.0000
# 3 60.3196 16.3037 71.5098 0.0000 0.0000 0.0000
# 4 0.0000 0.0000 0.0000 20.8752 0.0000 0.0000
# 5 0.0000 0.0000 0.0000 0.0000 30.3957 0.0000
# 6 0.0000 0.0000 0.0000 0.0000 0.0000 14.1216
#
#
#
# Elastic Compliance Matrix: (Units=1/GPa)
#
#
# Indices 1 2 3 4 5 6 
#
# 1 0.012249 -0.004159 -0.009384 0.000000 0.000000 0.000000
# 2 -0.004159 0.067718 -0.011931 0.000000 0.000000 0.000000
# 3 -0.009384 -0.011931 0.024620 0.000000 0.000000 0.000000
# 4 0.000000 0.000000 0.000000 0.047904 0.000000 0.000000
# 5 0.000000 0.000000 0.000000 0.000000 0.032899 0.000000
# 6 0.000000 0.000000 0.000000 0.000000 0.000000 0.070814
#
#
# Mechanical properties :
#
#
# Convention : Reuss Voigt Hill
#
# Bulk Modulus (GPa) = 18.64332 46.17359 32.40846
# Shear Modulus (GPa) = 15.38321 21.68331 18.53326
#
# Velocity S-wave (km/s) = 2.87648 3.41508 3.15728
# Velocity P-wave (km/s) = 4.58910 6.35497 5.54281
#
# Compressibility (1/GPa) = 0.05363852
#
# Stress axis : x y z
#
# Youngs Moduli (GPa) = 81.64091 14.76723 40.61801
#
# Poissons Ratio (x) = 0.06142 0.38115
# Poissons Ratio (y) = 0.33955 0.48461
# Poissons Ratio (z) = 0.76610 0.17619
#
# Static dielectric constant tensor:
#      x y z
#    x 1.709280 0.000000 0.000000 
#    y 0.000000 1.649470 0.000000 
#    z 0.000000 0.000000 1.627320 
# 
# From -- ./inp_files/30141.got.cif
#   From: 2010.05.17/outbox.cif.g08.bks.cpg/sg51_16_cif.got.tgz:30141.got - 2010.06.03 11:52:47.
