data_PCOD9399376
_publ_section_title
;
Structure prediction by ZEFSAII (Michael W. Deem and Ramdas Pophale) SiO2 
 PCOD9399376
Probable space group: P M M A
;
_chemical_formula_sum "Si O2"
_cell_formula_units_Z 64
_cell_length_a 16.619555
_cell_length_b 13.096668
_cell_length_c 15.896788
_cell_angle_alpha 90.000000
_cell_angle_beta 90.000000
_cell_angle_gamma 90.000000
_cell_volume 3460.107500
_symmetry_space_group_name_H-M "P M M A"
_symmetry_group_IT_number 51
_symmetry_cell_setting 'orthorhombic'
loop_
_space_group_symop_operation_xyz
x,y,z
1/2-x,-y,z
1/2+x,-y,-z
-x,y,-z
-x,-y,-z
1/2+x,y,-z
1/2-x,y,z
x,-y,z
loop_
_atom_site_type_symbol
_atom_site_label
_atom_site_fract_x
_atom_site_fract_y
_atom_site_fract_z
Si Si1 0.154280 0.616348 0.853683
Si Si2 0.883834 0.616241 0.648138
Si Si3 0.157636 0.386209 0.167653
Si Si4 0.500824 0.886920 0.213496
Si Si5 0.417152 0.805070 0.951182
Si Si6 0.556734 0.687061 0.309377
Si Si7 0.654606 0.620112 0.463704
Si Si8 0.154842 0.830233 0.115153
O O1 0.250000 0.626739 0.839158
O O2 0.139069 0.500000 0.882355
O O3 0.125123 0.702170 0.918503
O O4 0.105602 0.637088 0.767629
O O5 0.854770 0.500000 0.640754
O O6 0.845336 0.651743 0.735465
O O7 0.864710 0.661508 0.557270
O O8 0.978136 0.622794 0.666130
O O9 0.250000 0.397599 0.142953
O O10 0.119657 0.500000 0.161922
O O11 0.127803 0.290002 0.115949
O O12 0.556534 0.868110 0.131222
O O13 0.523817 0.796409 0.277419
O O14 0.408636 0.878991 0.179642
O O15 0.514321 0.000000 0.247766
O O16 0.500000 0.783491 0.000000
O O17 0.362214 0.863051 0.019427
O O18 0.612077 0.684741 0.391447
O O19 0.750000 0.620605 0.451939
O O20 0.627656 0.500000 0.457656
O O21 0.250000 0.839313 0.135378
#
# Coordination Sequence:
#
# PCOD9399376 Si02
#       8
#     8   8   8   8   8   8   8   8
#     4  10  20  33  50  74 109 147 177 211 258 314
#     4  10  18  30  51  80 113 143 173 205 243 301
#     4   9  17  29  47  75 113 149 173 200 246 307
#     4  10  22  40  57  75 101 134 176 230 283 321
#     4   9  20  35  53  78 104 135 176 223 270 319
#     4  11  20  34  53  77 103 139 181 218 263 311
#     4  10  20  33  53  83 116 146 175 209 252 304
#     4  10  19  34  55  80 106 137 176 218 265 321
#
# _framework density 18.496535999999999
#
# number of rings (size 3 to 8) (size 9 to 14) (size 15 to 20)
#    0.000    2.125    1.250    2.625    0.000    6.750 
#    0.000    1.250    0.000   14.625    0.000    0.000 
#    0.000    0.000    0.000    0.000    0.000    0.000 
#
# Total GULP energy -356635.843997 kJ/mol
# GULP energy per Si atom -5572.435062 kJ/mol
# Density = 1.845444 g / cm^3
# Si number density = 18.496536 Si / 1000 Ang^3
#
#
#
# Elastic Constant Matrix: (Units=GPa)
#
#
# Indices 1 2 3 4 5 6 
#
# 1 62.8315 23.0566 7.2849 0.0000 0.0000 0.0000
# 2 23.0566 66.5686 9.7862 0.0000 0.0000 0.0000
# 3 7.2849 9.7862 58.8087 0.0000 0.0000 0.0000
# 4 0.0000 0.0000 0.0000 -0.4500 0.0000 0.0000
# 5 0.0000 0.0000 0.0000 0.0000 12.2779 0.0000
# 6 0.0000 0.0000 0.0000 0.0000 0.0000 9.5442
#
#
#
# Elastic Compliance Matrix: (Units=1/GPa)
#
#
# Indices 1 2 3 4 5 6 
#
# 1 0.018321 -0.006163 -0.001244 0.000000 0.000000 0.000000
# 2 -0.006163 0.017472 -0.002144 0.000000 0.000000 0.000000
# 3 -0.001244 -0.002144 0.017515 0.000000 0.000000 0.000000
# 4 0.000000 0.000000 0.000000 -2.222326 0.000000 0.000000
# 5 0.000000 0.000000 0.000000 0.000000 0.081447 0.000000
# 6 0.000000 0.000000 0.000000 0.000000 0.000000 0.104776
#
#
# Mechanical properties :
#
#
# Convention : Reuss Voigt Hill
#
# Bulk Modulus (GPa) = 29.23415 29.82936 29.53176
# Shear Modulus (GPa) = -2.56109 14.14651 5.79271
#
# Velocity S-wave (km/s) = -1.17798 2.76854 1.77160
# Velocity P-wave (km/s) = 3.74023 5.13632 4.49283
#
# Compressibility (1/GPa) = 0.03420656
#
# Stress axis : x y z
#
# Youngs Moduli (GPa) = 54.58118 57.23496 57.09335
#
# Poissons Ratio (x) = 0.35273 0.07102
# Poissons Ratio (y) = 0.33638 0.12241
# Poissons Ratio (z) = 0.06790 0.12271
#
# Static dielectric constant tensor:
#      x y z
#    x 1.669230 0.000000 0.000000 
#    y 0.000000 1.653180 0.000000 
#    z 0.000000 0.000000 1.670420 
# 
# From -- ./inp_files/25209.got.cif
#   From: 2010.05.17/outbox.cif.g08.bks.cpg/sg51_13_cif.got.tgz:25209.got - 2010.06.03 11:52:47.
