data_PCOD9399640
_publ_section_title
;
Structure prediction by ZEFSAII (Michael W. Deem and Ramdas Pophale) SiO2 
 PCOD9399640
Probable space group: P M M A
;
_chemical_formula_sum "Si O2"
_cell_formula_units_Z 64
_cell_length_a 8.826262
_cell_length_b 25.593667
_cell_length_c 15.646536
_cell_angle_alpha 90.000000
_cell_angle_beta 90.000000
_cell_angle_gamma 90.000000
_cell_volume 3534.496319
_symmetry_space_group_name_H-M "P M M A"
_symmetry_group_IT_number 51
_symmetry_cell_setting 'orthorhombic'
loop_
_space_group_symop_operation_xyz
x,y,z
1/2-x,-y,z
1/2+x,-y,-z
-x,y,-z
-x,-y,-z
1/2+x,y,-z
1/2-x,y,z
x,-y,z
loop_
_atom_site_type_symbol
_atom_site_label
_atom_site_fract_x
_atom_site_fract_y
_atom_site_fract_z
Si Si1 0.067736 0.940319 0.727747
Si Si2 0.932215 0.351410 0.276659
Si Si3 0.074017 0.242907 0.324268
Si Si4 0.567972 0.138543 0.590571
Si Si5 0.568591 0.675127 0.087313
Si Si6 0.573670 0.213537 0.873398
Si Si7 0.433034 0.439691 0.592329
Si Si8 0.069021 0.101892 0.913164
O O1 0.250000 0.934344 0.720186
O O2 0.028037 0.928220 0.826260
O O3 0.988803 0.899809 0.664673
O O4 0.028222 0.000000 0.706607
O O5 0.750000 0.351732 0.275485
O O6 0.981690 0.351114 0.177068
O O7 0.984016 0.400137 0.333659
O O8 0.985693 0.297129 0.318793
O O9 0.250000 0.254277 0.343291
O O10 0.017179 0.197863 0.387321
O O11 0.068260 0.217590 0.229537
O O12 0.500000 0.122364 0.500000
O O13 0.750000 0.138304 0.588546
O O14 0.750000 0.674078 0.082815
O O15 0.511321 0.734886 0.094453
O O16 0.500000 0.652528 0.000000
O O17 0.750000 0.214548 0.900006
O O18 0.495161 0.160535 0.902550
O O19 0.500000 0.425081 0.500000
O O20 0.250000 0.437459 0.587490
O O21 0.475990 0.500000 0.609759
O O22 0.250000 0.103415 0.920022
O O23 0.000000 0.079163 0.000000
#
# Coordination Sequence:
#
# PCOD9399640 Si02
#       8
#     8   8   8   8   8   8   8   8
#     4  10  23  43  63  82 106 138 178 225 272 319
#     4   9  19  33  52  78 108 144 183 219 264 321
#     4   9  19  34  53  78 110 142 175 216 263 315
#     4  11  23  40  61  86 111 141 178 218 269 327
#     4  10  19  31  47  72 105 142 182 220 263 312
#     4  10  18  32  52  75 105 139 177 217 260 312
#     4   9  18  34  55  79 107 140 180 226 271 317
#     4  11  22  35  55  81 109 140 175 216 265 320
#
# _framework density 18.107247000000001
#
# number of rings (size 3 to 8) (size 9 to 14) (size 15 to 20)
#    0.000    2.125    1.250    1.875    0.000    4.250 
#    0.000    2.500    0.000    0.375    0.000    0.000 
#    0.000    0.000    0.000    0.000    0.000    0.375 
#
# Total GULP energy -357206.639360 kJ/mol
# GULP energy per Si atom -5581.353740 kJ/mol
# Density = 1.806603 g / cm^3
# Si number density = 18.107247 Si / 1000 Ang^3
#
#
#
# Elastic Constant Matrix: (Units=GPa)
#
#
# Indices 1 2 3 4 5 6 
#
# 1 36.1921 24.2172 37.3545 0.0000 0.0000 0.0000
# 2 24.2172 84.6328 63.4368 0.0000 0.0000 0.0000
# 3 37.3545 63.4368 119.6570 0.0000 0.0000 0.0000
# 4 0.0000 0.0000 0.0000 4.5768 0.0000 0.0000
# 5 0.0000 0.0000 0.0000 0.0000 27.6907 0.0000
# 6 0.0000 0.0000 0.0000 0.0000 0.0000 17.3710
#
#
#
# Elastic Compliance Matrix: (Units=1/GPa)
#
#
# Indices 1 2 3 4 5 6 
#
# 1 0.041410 -0.003583 -0.011028 0.000000 0.000000 0.000000
# 2 -0.003583 0.019917 -0.009441 0.000000 0.000000 0.000000
# 3 -0.011028 -0.009441 0.016805 0.000000 0.000000 0.000000
# 4 0.000000 0.000000 0.000000 0.218492 0.000000 0.000000
# 5 0.000000 0.000000 0.000000 0.000000 0.036113 0.000000
# 6 0.000000 0.000000 0.000000 0.000000 0.000000 0.057567
#
#
# Mechanical properties :
#
#
# Convention : Reuss Voigt Hill
#
# Bulk Modulus (GPa) = 33.30134 54.49988 43.90061
# Shear Modulus (GPa) = 11.15033 17.62593 14.38813
#
# Velocity S-wave (km/s) = 2.48421 3.12335 2.82193
# Velocity P-wave (km/s) = 5.16328 6.57045 5.90890
#
# Compressibility (1/GPa) = 0.03002883
#
# Stress axis : x y z
#
# Youngs Moduli (GPa) = 24.14878 50.20742 59.50675
#
# Poissons Ratio (x) = 0.17992 0.65622
# Poissons Ratio (y) = 0.08654 0.56178
# Poissons Ratio (z) = 0.26630 0.47399
#
# Static dielectric constant tensor:
#      x y z
#    x 1.611140 0.000000 0.000000 
#    y 0.000000 1.594890 0.000000 
#    z 0.000000 0.000000 1.650480 
# 
# From -- ./inp_files/22352.got.cif
#   From: 2010.05.17/outbox.cif.g08.bks.cpg/sg51_12_cif.got.tgz:22352.got - 2010.06.03 11:52:47.
