data_PCOD9399864
_publ_section_title
;
Structure prediction by ZEFSAII (Michael W. Deem and Ramdas Pophale) SiO2 
 PCOD9399864
Probable space group: P M M A
;
_chemical_formula_sum "Si O2"
_cell_formula_units_Z 44
_cell_length_a 14.308338
_cell_length_b 18.093008
_cell_length_c 8.836043
_cell_angle_alpha 90.000000
_cell_angle_beta 90.000000
_cell_angle_gamma 90.000000
_cell_volume 2287.482534
_symmetry_space_group_name_H-M "P M M A"
_symmetry_group_IT_number 51
_symmetry_cell_setting 'orthorhombic'
loop_
_space_group_symop_operation_xyz
x,y,z
1/2-x,-y,z
1/2+x,-y,-z
-x,y,-z
-x,-y,-z
1/2+x,y,-z
1/2-x,y,z
x,-y,z
loop_
_atom_site_type_symbol
_atom_site_label
_atom_site_fract_x
_atom_site_fract_y
_atom_site_fract_z
Si Si1 0.900482 0.663478 0.558609
Si Si2 0.750000 0.919930 0.715036
Si Si3 0.595055 0.198212 0.788924
Si Si4 0.750000 0.894702 0.370320
Si Si5 0.250000 0.278546 0.020368
Si Si6 0.250000 0.414861 0.241448
Si Si7 0.463693 0.915687 0.676835
Si Si8 0.250000 0.720976 0.664420
O O1 0.909899 0.737948 0.660992
O O2 0.840449 0.606377 0.657724
O O3 0.839346 0.684563 0.413512
O O4 0.000000 0.637349 0.500000
O O5 0.838257 0.870201 0.749993
O O6 0.750000 0.926961 0.536712
O O7 0.750000 0.000000 0.789251
O O8 0.654714 0.236871 0.923514
O O9 0.498376 0.152550 0.782293
O O10 0.648778 0.916052 0.306379
O O11 0.750000 0.806446 0.380587
O O12 0.250000 0.357563 0.103071
O O13 0.250000 0.285387 0.842579
O O14 0.250000 0.500000 0.198357
O O15 0.500000 0.902196 0.500000
O O16 0.496708 0.000000 0.712966
#
# Coordination Sequence:
#
# PCOD9399864 Si02
#       8
#     8   4   8   4   4   4   8   4
#     4  10  19  35  61  90 116 143 189 238 285 338
#     4  11  17  26  48  74 102 139 192 248 294 343
#     4  10  18  34  51  80 107 145 193 242 290 344
#     4  12  20  30  45  76 110 137 190 251 302 335
#     4   9  22  37  60  84 109 154 196 222 279 353
#     4   9  20  40  62  87 122 151 180 232 287 343
#     4  11  20  29  48  77 106 140 189 251 305 345
#     4  11  19  37  60  85 116 151 190 239 278 330
#
# _framework density 19.235119000000001
#
# number of rings (size 3 to 8) (size 9 to 14) (size 15 to 20)
#    0.000    1.636    3.636    4.091    0.000    0.364 
#    0.000   10.000    0.000   12.000    0.000    0.000 
#    0.000    0.000    0.000    0.000    0.000    0.000 
#
# Total GULP energy -245159.995140 kJ/mol
# GULP energy per Si atom -5571.818071 kJ/mol
# Density = 1.919134 g / cm^3
# Si number density = 19.235119 Si / 1000 Ang^3
#
#
#
# Elastic Constant Matrix: (Units=GPa)
#
#
# Indices 1 2 3 4 5 6 
#
# 1 108.9261 21.1623 14.3011 0.0000 0.0000 0.0000
# 2 21.1623 110.1811 16.1627 0.0000 0.0000 0.0000
# 3 14.3011 16.1627 72.0429 0.0000 0.0000 0.0000
# 4 0.0000 0.0000 0.0000 3.9238 0.0000 0.0000
# 5 0.0000 0.0000 0.0000 0.0000 -13.3820 0.0000
# 6 0.0000 0.0000 0.0000 0.0000 0.0000 -6.4698
#
#
#
# Elastic Compliance Matrix: (Units=1/GPa)
#
#
# Indices 1 2 3 4 5 6 
#
# 1 0.009703 -0.001635 -0.001559 0.000000 0.000000 0.000000
# 2 -0.001635 0.009660 -0.001843 0.000000 0.000000 0.000000
# 3 -0.001559 -0.001843 0.014604 0.000000 0.000000 0.000000
# 4 0.000000 0.000000 0.000000 0.254854 0.000000 0.000000
# 5 0.000000 0.000000 0.000000 0.000000 -0.074727 0.000000
# 6 0.000000 0.000000 0.000000 0.000000 0.000000 -0.154563
#
#
# Mechanical properties :
#
#
# Convention : Reuss Voigt Hill
#
# Bulk Modulus (GPa) = 41.85345 43.82247 42.83796
# Shear Modulus (GPa) = 64.45969 12.78266 38.62117
#
# Velocity S-wave (km/s) = 5.79519 2.58068 4.48576
# Velocity P-wave (km/s) = 8.15997 5.63133 7.01060
#
# Compressibility (1/GPa) = 0.02389289
#
# Stress axis : x y z
#
# Youngs Moduli (GPa) = 103.06204 103.51660 68.47638
#
# Poissons Ratio (x) = 0.16924 0.10678
# Poissons Ratio (y) = 0.16849 0.12618
# Poissons Ratio (z) = 0.16071 0.19075
#
# Static dielectric constant tensor:
#      x y z
#    x 1.931380 0.000000 0.000000 
#    y 0.000000 2.352820 0.000000 
#    z 0.000000 0.000000 1.675090 
# 
# From -- ./inp_files/8195.got.cif
#   From: 2010.05.17/outbox.cif.g08.bks.cpg/sg51_5_cif.got.tgz:8195.got - 2010.06.03 11:52:47.
