data_PCOD9399241
_publ_section_title
;
Structure prediction by ZEFSAII (Michael W. Deem and Ramdas Pophale) SiO2 
 PCOD9399241
Probable space group: P M M A
;
_chemical_formula_sum "Si O2"
_cell_formula_units_Z 64
_cell_length_a 20.085253
_cell_length_b 9.388181
_cell_length_c 20.191729
_cell_angle_alpha 90.000000
_cell_angle_beta 90.000000
_cell_angle_gamma 90.000000
_cell_volume 3807.432997
_symmetry_space_group_name_H-M "P M M A"
_symmetry_group_IT_number 51
_symmetry_cell_setting 'orthorhombic'
loop_
_space_group_symop_operation_xyz
x,y,z
1/2-x,-y,z
1/2+x,-y,-z
-x,y,-z
-x,-y,-z
1/2+x,y,-z
1/2-x,y,z
x,-y,z
loop_
_atom_site_type_symbol
_atom_site_label
_atom_site_fract_x
_atom_site_fract_y
_atom_site_fract_z
Si Si1 0.826351 0.170216 0.394838
Si Si2 0.577747 0.336188 0.022922
Si Si3 0.114003 0.166490 0.103220
Si Si4 0.920941 0.328818 0.654491
Si Si5 0.040328 0.167038 0.851727
Si Si6 0.327062 0.329293 0.467932
Si Si7 0.326078 0.667038 0.222153
Si Si8 0.948530 0.171249 0.301640
O O1 0.750000 0.204560 0.375988
O O2 0.841330 0.250809 0.463243
O O3 0.879904 0.206177 0.338760
O O4 0.829943 0.000000 0.406097
O O5 0.599328 0.500000 0.025931
O O6 0.578665 0.260072 0.093976
O O7 0.500000 0.335072 0.000000
O O8 0.615720 0.248105 0.966501
O O9 0.159966 0.239546 0.157836
O O10 0.038276 0.179206 0.131282
O O11 0.128506 0.000000 0.094899
O O12 0.930927 0.500000 0.653130
O O13 0.878410 0.288935 0.589690
O O14 0.876233 0.295139 0.718919
O O15 0.990398 0.248657 0.662319
O O16 0.051942 0.211418 0.775959
O O17 0.057935 0.000000 0.858899
O O18 0.250000 0.297256 0.449128
O O19 0.331394 0.500000 0.476958
O O20 0.250000 0.683016 0.244845
O O21 0.336725 0.500000 0.205857
O O22 0.958314 0.000000 0.304231
#
# Coordination Sequence:
#
# PCOD9399241 Si02
#       8
#     8   8   8   8   8   8   8   8
#     4   9  19  36  56  76  98 129 169 209 253 309
#     4   9  17  28  46  71  97 127 165 205 246 295
#     4  10  18  30  48  70  98 130 168 211 251 298
#     4  10  20  33  51  75 103 134 171 211 253 304
#     4   9  17  30  47  70  99 130 162 203 255 301
#     4   9  18  34  54  74 100 135 173 212 251 296
#     4  10  20  33  49  70 100 138 175 211 254 303
#     4  10  20  34  52  75 105 135 165 209 262 308
#
# _framework density 16.809225000000001
#
# number of rings (size 3 to 8) (size 9 to 14) (size 15 to 20)
#    0.000    2.500    1.250    1.125    0.000    5.750 
#    0.000    2.500    0.000    3.000    0.000    1.750 
#    0.000    0.000    0.000    0.000    0.000    0.000 
#
# Total GULP energy -356891.915707 kJ/mol
# GULP energy per Si atom -5576.436183 kJ/mol
# Density = 1.677097 g / cm^3
# Si number density = 16.809225 Si / 1000 Ang^3
#
#
#
# Elastic Constant Matrix: (Units=GPa)
#
#
# Indices 1 2 3 4 5 6 
#
# 1 71.6938 39.8660 62.7951 0.0000 0.0000 0.0000
# 2 39.8660 48.2296 51.5454 0.0000 0.0000 0.0000
# 3 62.7951 51.5454 127.7786 0.0000 0.0000 0.0000
# 4 0.0000 0.0000 0.0000 29.8999 0.0000 0.0000
# 5 0.0000 0.0000 0.0000 0.0000 22.4613 0.0000
# 6 0.0000 0.0000 0.0000 0.0000 0.0000 20.0448
#
#
#
# Elastic Compliance Matrix: (Units=1/GPa)
#
#
# Indices 1 2 3 4 5 6 
#
# 1 0.030180 -0.015988 -0.008382 0.000000 0.000000 0.000000
# 2 -0.015988 0.044918 -0.010262 0.000000 0.000000 0.000000
# 3 -0.008382 -0.010262 0.016085 0.000000 0.000000 0.000000
# 4 0.000000 0.000000 0.000000 0.033445 0.000000 0.000000
# 5 0.000000 0.000000 0.000000 0.000000 0.044521 0.000000
# 6 0.000000 0.000000 0.000000 0.000000 0.000000 0.049888
#
#
# Mechanical properties :
#
#
# Convention : Reuss Voigt Hill
#
# Bulk Modulus (GPa) = 45.62539 61.79055 53.70797
# Shear Modulus (GPa) = 16.91422 20.71424 18.81423
#
# Velocity S-wave (km/s) = 3.17558 3.51424 3.34919
# Velocity P-wave (km/s) = 6.37556 7.30111 6.85398
#
# Compressibility (1/GPa) = 0.02191762
#
# Stress axis : x y z
#
# Youngs Moduli (GPa) = 33.13413 22.26284 62.16923
#
# Poissons Ratio (x) = 0.35595 0.52111
# Poissons Ratio (y) = 0.52976 0.63801
# Poissons Ratio (z) = 0.27773 0.22847
#
# Static dielectric constant tensor:
#      x y z
#    x 1.553930 0.000000 0.000000 
#    y 0.000000 1.561820 0.000000 
#    z 0.000000 0.000000 1.547780 
# 
# From -- ./inp_files/30545.got.cif
#   From: 2010.05.17/outbox.cif.g08.bks.cpg/sg51_16_cif.got.tgz:30545.got - 2010.06.03 11:52:47.
