data_PCOD9399112
_publ_section_title
;
Structure prediction by ZEFSAII (Michael W. Deem and Ramdas Pophale) SiO2 
 PCOD9399112
Probable space group: P M M A
;
_chemical_formula_sum "Si O2"
_cell_formula_units_Z 64
_cell_length_a 24.767046
_cell_length_b 7.471447
_cell_length_c 15.207151
_cell_angle_alpha 90.000000
_cell_angle_beta 90.000000
_cell_angle_gamma 90.000000
_cell_volume 2814.017469
_symmetry_space_group_name_H-M "P M M A"
_symmetry_group_IT_number 51
_symmetry_cell_setting 'orthorhombic'
loop_
_space_group_symop_operation_xyz
x,y,z
1/2-x,-y,z
1/2+x,-y,-z
-x,y,-z
-x,-y,-z
1/2+x,y,-z
1/2-x,y,z
x,-y,z
loop_
_atom_site_type_symbol
_atom_site_label
_atom_site_fract_x
_atom_site_fract_y
_atom_site_fract_z
Si Si1 0.489720 0.291415 0.280922
Si Si2 0.193073 0.212126 0.779955
Si Si3 0.028985 0.281151 0.909211
Si Si4 0.127751 0.718672 0.324347
Si Si5 0.603806 0.209996 0.345501
Si Si6 0.687778 0.281419 0.852786
Si Si7 0.311774 0.283984 0.499482
Si Si8 0.352742 0.715035 0.958748
O O1 0.478248 0.500000 0.265229
O O2 0.503891 0.217725 0.183324
O O3 0.434721 0.220326 0.324238
O O4 0.543162 0.282631 0.341170
O O5 0.250000 0.285486 0.745532
O O6 0.140071 0.288529 0.733788
O O7 0.189652 0.238889 0.883669
O O8 0.192902 0.000000 0.761891
O O9 0.028490 0.500000 0.906251
O O10 0.090207 0.219428 0.922007
O O11 0.000000 0.229986 0.000000
O O12 0.128795 0.500000 0.328422
O O13 0.153927 0.773316 0.231957
O O14 0.164480 0.778042 0.405824
O O15 0.642865 0.234905 0.428780
O O16 0.595884 0.000000 0.331876
O O17 0.750000 0.226240 0.846355
O O18 0.687263 0.500000 0.853943
O O19 0.662337 0.219742 0.944675
O O20 0.250000 0.220281 0.515716
O O21 0.309245 0.500000 0.498663
O O22 0.355900 0.500000 0.964568
#
# Coordination Sequence:
#
# PCOD9399112 Si02
#       8
#     8   8   8   8   8   8   8   8
#     4  10  19  34  56  82 112 146 186 228 274 328
#     4  10  21  36  52  71 101 141 178 215 267 327
#     4   9  16  27  47  76 110 146 183 223 264 310
#     4   9  18  33  55  82 112 145 180 224 279 335
#     4  11  23  39  58  79 110 147 185 227 277 332
#     4   9  16  27  47  79 115 145 177 223 278 330
#     4  10  21  38  61  87 111 139 181 231 280 332
#     4  10  18  29  49  80 111 139 179 225 265 311
#
# _framework density 22.743283000000002
#
# number of rings (size 3 to 8) (size 9 to 14) (size 15 to 20)
#    0.000    2.250    1.250    2.250    0.000    7.000 
#    0.000    3.125    0.000    4.500    0.000    0.000 
#    0.000    0.000    0.000    0.000    0.000    0.000 
#
# Total GULP energy -357398.322010 kJ/mol
# GULP energy per Si atom -5584.348781 kJ/mol
# Density = 2.269152 g / cm^3
# Si number density = 22.743283 Si / 1000 Ang^3
#
#
#
# Elastic Constant Matrix: (Units=GPa)
#
#
# Indices 1 2 3 4 5 6 
#
# 1 122.1131 -4.4551 41.2061 0.0000 0.0000 0.0000
# 2 -4.4551 63.9299 -8.3770 0.0000 0.0000 0.0000
# 3 41.2061 -8.3770 105.1003 0.0000 0.0000 0.0000
# 4 0.0000 0.0000 0.0000 0.1281 0.0000 0.0000
# 5 0.0000 0.0000 0.0000 0.0000 37.7708 0.0000
# 6 0.0000 0.0000 0.0000 0.0000 0.0000 -13.5804
#
#
#
# Elastic Compliance Matrix: (Units=1/GPa)
#
#
# Indices 1 2 3 4 5 6 
#
# 1 0.009440 0.000175 -0.003687 0.000000 0.000000 0.000000
# 2 0.000175 0.015810 0.001192 0.000000 0.000000 0.000000
# 3 -0.003687 0.001192 0.011055 0.000000 0.000000 0.000000
# 4 0.000000 0.000000 0.000000 7.805879 0.000000 0.000000
# 5 0.000000 0.000000 0.000000 0.000000 0.026475 0.000000
# 6 0.000000 0.000000 0.000000 0.000000 0.000000 -0.073636
#
#
# Mechanical properties :
#
#
# Convention : Reuss Voigt Hill
#
# Bulk Modulus (GPa) = 31.58156 38.65460 35.11808
# Shear Modulus (GPa) = 0.64019 22.38167 11.51093
#
# Velocity S-wave (km/s) = 0.53113 3.14044 2.25216
# Velocity P-wave (km/s) = 3.78053 5.49388 4.71567
#
# Compressibility (1/GPa) = 0.03166405
#
# Stress axis : x y z
#
# Youngs Moduli (GPa) = 105.93598 63.24931 90.45468
#
# Poissons Ratio (x) = -0.01105 0.33351
# Poissons Ratio (y) = -0.01851 -0.10779
# Poissons Ratio (z) = 0.39059 -0.07537
#
# Static dielectric constant tensor:
#      x y z
#    x 1.879270 0.000000 0.000000 
#    y 0.000000 1.869940 0.000000 
#    z 0.000000 0.000000 1.828590 
# 
# From -- ./inp_files/26298.got.cif
#   From: 2010.05.17/outbox.cif.g08.bks.cpg/sg51_14_cif.got.tgz:26298.got - 2010.06.03 11:52:47.
