data_PCOD9399489
_publ_section_title
;
Structure prediction by ZEFSAII (Michael W. Deem and Ramdas Pophale) SiO2 
 PCOD9399489
Probable space group: P M M A
;
_chemical_formula_sum "Si O2"
_cell_formula_units_Z 64
_cell_length_a 20.475305
_cell_length_b 20.968706
_cell_length_c 9.329711
_cell_angle_alpha 90.000000
_cell_angle_beta 90.000000
_cell_angle_gamma 90.000000
_cell_volume 4005.624193
_symmetry_space_group_name_H-M "P M M A"
_symmetry_group_IT_number 51
_symmetry_cell_setting 'orthorhombic'
loop_
_space_group_symop_operation_xyz
x,y,z
1/2-x,-y,z
1/2+x,-y,-z
-x,y,-z
-x,-y,-z
1/2+x,y,-z
1/2-x,y,z
x,-y,z
loop_
_atom_site_type_symbol
_atom_site_label
_atom_site_fract_x
_atom_site_fract_y
_atom_site_fract_z
Si Si1 0.056183 0.575337 0.380745
Si Si2 0.378157 0.266715 0.696505
Si Si3 0.889561 0.774173 0.762906
Si Si4 0.173777 0.178999 0.945356
Si Si5 0.999846 0.327833 0.830295
Si Si6 0.575298 0.850749 0.488355
Si Si7 0.323240 0.331928 0.424349
Si Si8 0.826769 0.075644 0.285764
O O1 0.066240 0.500000 0.368827
O O2 0.030027 0.608580 0.237214
O O3 0.122261 0.613220 0.417164
O O4 0.000000 0.587180 0.500000
O O5 0.339971 0.231948 0.823716
O O6 0.428939 0.315629 0.765329
O O7 0.419352 0.213253 0.609006
O O8 0.332195 0.298692 0.578827
O O9 0.954875 0.732308 0.784814
O O10 0.900922 0.828867 0.645053
O O11 0.839708 0.722633 0.693583
O O12 0.866438 0.803417 0.913120
O O13 0.250000 0.177444 0.982979
O O14 0.157124 0.113380 0.861489
O O15 0.000000 0.330494 0.000000
O O16 0.500000 0.872066 0.500000
O O17 0.624858 0.898920 0.409455
O O18 0.250000 0.355490 0.404475
O O19 0.750000 0.090802 0.318536
O O20 0.832599 0.000000 0.269329
#
# Coordination Sequence:
#
# PCOD9399489 Si02
#       8
#     8   8   8   8   8   8   8   8
#     4  10  21  36  54  76 103 138 182 218 251 303
#     4  10  18  31  50  78 104 134 170 206 262 320
#     4  10  20  30  51  82 110 130 165 214 275 316
#     4  10  19  32  51  76 105 134 169 216 264 313
#     4  11  19  32  54  78 106 139 168 211 263 317
#     4  10  19  31  54  78 107 136 168 219 259 307
#     4  10  20  33  53  77 106 137 170 217 265 312
#     4   9  20  38  55  71 100 145 185 211 251 313
#
# _framework density 15.977535
#
# number of rings (size 3 to 8) (size 9 to 14) (size 15 to 20)
#    0.000    2.000    3.750    0.750    0.000    4.250 
#    0.000    0.625    0.000    2.250    0.000    0.000 
#    0.000    0.000    0.000    0.000    0.000    0.000 
#
# Total GULP energy -356773.292119 kJ/mol
# GULP energy per Si atom -5574.582689 kJ/mol
# Density = 1.594117 g / cm^3
# Si number density = 15.977535 Si / 1000 Ang^3
#
#
#
# Elastic Constant Matrix: (Units=GPa)
#
#
# Indices 1 2 3 4 5 6 
#
# 1 78.1386 40.5200 15.9321 0.0000 0.0000 0.0000
# 2 40.5200 85.1216 36.6780 0.0000 0.0000 0.0000
# 3 15.9321 36.6780 86.7768 0.0000 0.0000 0.0000
# 4 0.0000 0.0000 0.0000 16.2630 0.0000 0.0000
# 5 0.0000 0.0000 0.0000 0.0000 18.6445 0.0000
# 6 0.0000 0.0000 0.0000 0.0000 0.0000 15.9999
#
#
#
# Elastic Compliance Matrix: (Units=1/GPa)
#
#
# Indices 1 2 3 4 5 6 
#
# 1 0.017002 -0.008251 0.000366 0.000000 0.000000 0.000000
# 2 -0.008251 0.018368 -0.006249 0.000000 0.000000 0.000000
# 3 0.000366 -0.006249 0.014098 0.000000 0.000000 0.000000
# 4 0.000000 0.000000 0.000000 0.061489 0.000000 0.000000
# 5 0.000000 0.000000 0.000000 0.000000 0.053635 0.000000
# 6 0.000000 0.000000 0.000000 0.000000 0.000000 0.062500
#
#
# Mechanical properties :
#
#
# Convention : Reuss Voigt Hill
#
# Bulk Modulus (GPa) = 47.16963 48.47747 47.82355
# Shear Modulus (GPa) = 19.05292 20.64194 19.84743
#
# Velocity S-wave (km/s) = 3.45698 3.59825 3.52832
# Velocity P-wave (km/s) = 6.74691 6.90435 6.82609
#
# Compressibility (1/GPa) = 0.02120008
#
# Stress axis : x y z
#
# Youngs Moduli (GPa) = 58.81717 54.44220 70.93304
#
# Poissons Ratio (x) = 0.44920 -0.02596
# Poissons Ratio (y) = 0.48530 0.44324
# Poissons Ratio (z) = -0.02152 0.34020
#
# Static dielectric constant tensor:
#      x y z
#    x 1.541620 0.000000 0.000000 
#    y 0.000000 1.514340 0.000000 
#    z 0.000000 0.000000 1.518700 
# 
# From -- ./inp_files/11255.got.cif
#   From: 2010.05.17/outbox.cif.g08.bks.cpg/sg51_6_cif.got.tgz:11255.got - 2010.06.03 11:52:47.
