data_PCOD9399326
_publ_section_title
;
Structure prediction by ZEFSAII (Michael W. Deem and Ramdas Pophale) SiO2 
 PCOD9399326
Probable space group: P M M A
;
_chemical_formula_sum "Si O2"
_cell_formula_units_Z 64
_cell_length_a 25.019066
_cell_length_b 7.357501
_cell_length_c 15.067732
_cell_angle_alpha 90.000000
_cell_angle_beta 90.000000
_cell_angle_gamma 90.000000
_cell_volume 2773.635004
_symmetry_space_group_name_H-M "P M M A"
_symmetry_group_IT_number 51
_symmetry_cell_setting 'orthorhombic'
loop_
_space_group_symop_operation_xyz
x,y,z
1/2-x,-y,z
1/2+x,-y,-z
-x,y,-z
-x,-y,-z
1/2+x,y,-z
1/2-x,y,z
x,-y,z
loop_
_atom_site_type_symbol
_atom_site_label
_atom_site_fract_x
_atom_site_fract_y
_atom_site_fract_z
Si Si1 0.890904 0.221023 0.633349
Si Si2 0.116996 0.793169 0.685134
Si Si3 0.190766 0.709771 0.839330
Si Si4 0.501338 0.222757 0.718771
Si Si5 0.193375 0.221050 0.224728
Si Si6 0.688319 0.222075 0.475389
Si Si7 0.156667 0.780526 0.037496
Si Si8 0.963821 0.778644 0.917193
O O1 0.951901 0.277782 0.650294
O O2 0.857478 0.278746 0.719812
O O3 0.854295 0.278337 0.550790
O O4 0.891990 0.000000 0.630234
O O5 0.144165 0.796535 0.781534
O O6 0.161014 0.718777 0.616977
O O7 0.057755 0.712815 0.692066
O O8 0.108353 0.000000 0.654276
O O9 0.250000 0.787192 0.822782
O O10 0.191473 0.500000 0.812642
O O11 0.177985 0.718172 0.943312
O O12 0.516547 0.279024 0.819546
O O13 0.500513 0.000000 0.720447
O O14 0.250000 0.276609 0.265323
O O15 0.189987 0.277566 0.123009
O O16 0.192076 0.000000 0.225782
O O17 0.750000 0.282751 0.485743
O O18 0.691018 0.000000 0.478071
O O19 0.096323 0.723945 0.059343
O O20 0.157829 0.000000 0.034069
O O21 0.964425 0.000000 0.914988
O O22 0.000000 0.721038 0.000000
#
# Coordination Sequence:
#
# PCOD9399326 Si02
#       8
#     8   8   8   8   8   8   8   8
#     4   9  15  25  41  68 108 140 163 202 258 311
#     4  10  20  34  54  77 102 135 175 218 258 301
#     4  11  24  39  53  72 101 136 172 213 263 313
#     4   9  16  27  44  72 105 137 172 209 255 306
#     4   9  15  23  39  67 101 133 164 200 247 303
#     4   9  17  28  44  70 104 140 173 209 260 312
#     4  10  18  30  50  76 101 129 168 213 254 300
#     4   9  15  24  41  67  99 133 168 205 245 292
#
# _framework density 23.074414000000001
#
# number of rings (size 3 to 8) (size 9 to 14) (size 15 to 20)
#    0.000    2.500    1.250    2.250    0.000    6.000 
#    0.000    2.500    0.000    3.375    0.000    2.625 
#    0.000    4.000    0.000    0.000    0.000    0.000 
#
# Total GULP energy -357411.274840 kJ/mol
# GULP energy per Si atom -5584.551169 kJ/mol
# Density = 2.302190 g / cm^3
# Si number density = 23.074414 Si / 1000 Ang^3
#
#
#
# Elastic Constant Matrix: (Units=GPa)
#
#
# Indices 1 2 3 4 5 6 
#
# 1 195.3444 7.3028 48.1099 0.0000 0.0000 0.0000
# 2 7.3028 83.1484 -2.9661 0.0000 0.0000 0.0000
# 3 48.1099 -2.9661 93.2811 0.0000 0.0000 0.0000
# 4 0.0000 0.0000 0.0000 -70.1534 0.0000 0.0000
# 5 0.0000 0.0000 0.0000 0.0000 38.0457 0.0000
# 6 0.0000 0.0000 0.0000 0.0000 0.0000 -9.3383
#
#
#
# Elastic Compliance Matrix: (Units=1/GPa)
#
#
# Indices 1 2 3 4 5 6 
#
# 1 0.005896 -0.000627 -0.003061 0.000000 0.000000 0.000000
# 2 -0.000627 0.012107 0.000708 0.000000 0.000000 0.000000
# 3 -0.003061 0.000708 0.012322 0.000000 0.000000 0.000000
# 4 0.000000 0.000000 0.000000 -0.014254 0.000000 0.000000
# 5 0.000000 0.000000 0.000000 0.000000 0.026284 0.000000
# 6 0.000000 0.000000 0.000000 0.000000 0.000000 -0.107086
#
#
# Mechanical properties :
#
#
# Convention : Reuss Voigt Hill
#
# Bulk Modulus (GPa) = 41.04152 52.96302 47.00227
# Shear Modulus (GPa) = -98.71682 12.99930 -42.85876
#
# Velocity S-wave (km/s) = -6.54789 2.37610 -4.31445
# Velocity P-wave (km/s) = 6.27226 5.52547 2.09886
#
# Compressibility (1/GPa) = 0.02436557
#
# Stress axis : x y z
#
# Youngs Moduli (GPa) = 169.59233 82.59662 81.15861
#
# Poissons Ratio (x) = 0.05179 0.24843
# Poissons Ratio (y) = 0.10635 -0.05749
# Poissons Ratio (z) = 0.51913 -0.05851
#
# Static dielectric constant tensor:
#      x y z
#    x 1.858990 0.000000 0.000000 
#    y 0.000000 1.919900 0.000000 
#    z 0.000000 0.000000 1.820750 
# 
# From -- ./inp_files/26270.got.cif
#   From: 2010.05.17/outbox.cif.g08.bks.cpg/sg51_14_cif.got.tgz:26270.got - 2010.06.03 11:52:47.
