data_PCOD9399951
_publ_section_title
;
Structure prediction by ZEFSAII (Michael W. Deem and Ramdas Pophale) SiO2 
 PCOD9399951
Probable space group: P M M A
;
_chemical_formula_sum "Si O2"
_cell_formula_units_Z 48
_cell_length_a 15.017690
_cell_length_b 8.578480
_cell_length_c 20.139313
_cell_angle_alpha 90.000000
_cell_angle_beta 90.000000
_cell_angle_gamma 90.000000
_cell_volume 2594.526614
_symmetry_space_group_name_H-M "P M M A"
_symmetry_group_IT_number 51
_symmetry_cell_setting 'orthorhombic'
loop_
_space_group_symop_operation_xyz
x,y,z
1/2-x,-y,z
1/2+x,-y,-z
-x,y,-z
-x,-y,-z
1/2+x,y,-z
1/2-x,y,z
x,-y,z
loop_
_atom_site_type_symbol
_atom_site_label
_atom_site_fract_x
_atom_site_fract_y
_atom_site_fract_z
Si Si1 0.066877 0.686835 0.186038
Si Si2 0.145976 0.812765 0.447590
Si Si3 0.646379 0.314121 0.407801
Si Si4 0.943491 0.689849 0.064655
Si Si5 0.750000 0.814494 0.871669
Si Si6 0.750000 0.311155 0.021800
Si Si7 0.015198 0.813924 0.329057
O O1 0.073468 0.500000 0.182397
O O2 0.161787 0.757416 0.165906
O O3 0.038246 0.737365 0.259153
O O4 0.994299 0.739115 0.131118
O O5 0.250000 0.777036 0.434743
O O6 0.120437 0.736116 0.517492
O O7 0.084707 0.763195 0.386434
O O8 0.137518 0.000000 0.455080
O O9 0.750000 0.269317 0.398980
O O10 0.639275 0.500000 0.401557
O O11 0.581587 0.233288 0.355728
O O12 0.942947 0.500000 0.064415
O O13 0.841417 0.741235 0.056628
O O14 0.000000 0.739051 0.000000
O O15 0.750000 0.000000 0.875773
O O16 0.750000 0.744052 0.945753
O O17 0.750000 0.500000 0.021219
O O18 0.021929 0.000000 0.322582
#
# Coordination Sequence:
#
# PCOD9399951 Si02
#       7
#     8   8   8   8   4   4   8
#     4  11  23  40  60  86 118 156 197 240 289 349
#     4   9  19  36  58  84 115 152 189 232 292 358
#     4  10  21  38  60  85 113 149 198 250 290 338
#     4   9  17  33  60  89 114 145 192 239 285 342
#     4  12  24  38  58  88 120 153 188 235 296 352
#     4  10  18  36  64  88 112 149 194 241 290 348
#     4  11  23  38  58  85 119 158 193 236 296 358
#
# _framework density 18.500484
#
# number of rings (size 3 to 8) (size 9 to 14) (size 15 to 20)
#    0.000    1.833    1.667    2.750    1.167    4.333 
#    1.500    2.500    0.000    0.000    0.000    0.000 
#    0.000    0.000    0.000    0.000    0.000    0.000 
#
# Total GULP energy -268154.863868 kJ/mol
# GULP energy per Si atom -5586.559664 kJ/mol
# Density = 1.845838 g / cm^3
# Si number density = 18.500484 Si / 1000 Ang^3
#
#
#
# Elastic Constant Matrix: (Units=GPa)
#
#
# Indices 1 2 3 4 5 6 
#
# 1 142.4082 25.4785 78.9730 0.0000 0.0000 0.0000
# 2 25.4785 26.5165 18.3993 0.0000 0.0000 0.0000
# 3 78.9730 18.3993 114.3757 0.0000 0.0000 0.0000
# 4 0.0000 0.0000 0.0000 219.1820 0.0000 0.0000
# 5 0.0000 0.0000 0.0000 0.0000 11.1067 0.0000
# 6 0.0000 0.0000 0.0000 0.0000 0.0000 18.3041
#
#
#
# Elastic Compliance Matrix: (Units=1/GPa)
#
#
# Indices 1 2 3 4 5 6 
#
# 1 0.012353 -0.006699 -0.007452 0.000000 0.000000 0.000000
# 2 -0.006699 0.046083 -0.002788 0.000000 0.000000 0.000000
# 3 -0.007452 -0.002788 0.014337 0.000000 0.000000 0.000000
# 4 0.000000 0.000000 0.000000 0.004562 0.000000 0.000000
# 5 0.000000 0.000000 0.000000 0.000000 0.090036 0.000000
# 6 0.000000 0.000000 0.000000 0.000000 0.000000 0.054632
#
#
# Mechanical properties :
#
#
# Convention : Reuss Voigt Hill
#
# Bulk Modulus (GPa) = 25.70946 58.77800 42.24373
# Shear Modulus (GPa) = 18.59798 60.41520 39.50659
#
# Velocity S-wave (km/s) = 3.17404 5.72074 4.62609
# Velocity P-wave (km/s) = 5.23063 8.68769 7.17061
#
# Compressibility (1/GPa) = 0.03889619
#
# Stress axis : x y z
#
# Youngs Moduli (GPa) = 80.95242 21.69976 69.75053
#
# Poissons Ratio (x) = 0.14536 0.51976
# Poissons Ratio (y) = 0.54228 0.19447
# Poissons Ratio (z) = 0.60323 0.06050
#
# Static dielectric constant tensor:
#      x y z
#    x 1.639350 0.000000 0.000000 
#    y 0.000000 1.624560 0.000000 
#    z 0.000000 0.000000 1.597690 
# 
# From -- ./inp_files/29653.got.cif
#   From: 2010.05.17/outbox.cif.g08.bks.cpg/sg51_15_cif.got.tgz:29653.got - 2010.06.03 11:52:47.
