data_PCOD9399387
_publ_section_title
;
Structure prediction by ZEFSAII (Michael W. Deem and Ramdas Pophale) SiO2 
 PCOD9399387
Probable space group: P M M A
;
_chemical_formula_sum "Si O2"
_cell_formula_units_Z 48
_cell_length_a 17.682443
_cell_length_b 12.078178
_cell_length_c 13.969900
_cell_angle_alpha 90.000000
_cell_angle_beta 90.000000
_cell_angle_gamma 90.000000
_cell_volume 2983.575208
_symmetry_space_group_name_H-M "P M M A"
_symmetry_group_IT_number 51
_symmetry_cell_setting 'orthorhombic'
loop_
_space_group_symop_operation_xyz
x,y,z
1/2-x,-y,z
1/2+x,-y,-z
-x,y,-z
-x,-y,-z
1/2+x,y,-z
1/2-x,y,z
x,-y,z
loop_
_atom_site_type_symbol
_atom_site_label
_atom_site_fract_x
_atom_site_fract_y
_atom_site_fract_z
Si Si1 0.882792 0.130619 0.385778
Si Si2 0.047771 0.871400 0.299615
Si Si3 0.662909 0.264188 0.199654
Si Si4 0.537055 0.130142 0.102633
Si Si5 0.158088 0.500000 0.498487
Si Si6 0.839954 0.738636 0.577603
Si Si7 0.342018 0.500000 0.718966
O O1 0.843213 0.191098 0.296485
O O2 0.858097 0.188806 0.483220
O O3 0.972586 0.142305 0.365099
O O4 0.865493 0.000000 0.387134
O O5 0.020425 0.850928 0.191096
O O6 0.112533 0.791312 0.336746
O O7 0.071437 0.000000 0.307831
O O8 0.750000 0.269204 0.169193
O O9 0.608982 0.206261 0.123316
O O10 0.635835 0.387265 0.228127
O O11 0.558814 0.000000 0.108762
O O12 0.500000 0.149885 0.000000
O O13 0.250000 0.500000 0.502200
O O14 0.135885 0.612923 0.446135
O O15 0.131469 0.500000 0.608794
O O16 0.750000 0.740743 0.594712
O O17 0.250000 0.500000 0.715647
#
# Coordination Sequence:
#
# PCOD9399387 Si02
#       7
#     8   8   8   8   4   8   4
#     4  10  19  30  46  70 103 134 158 197 250 295
#     4   9  19  34  49  69  99 130 161 200 249 298
#     4  10  18  30  52  78 101 127 167 210 246 294
#     4   9  19  37  57  74  99 132 160 201 265 314
#     4   9  18  32  46  66 101 141 170 201 244 280
#     4  11  20  31  48  69  98 135 172 201 231 286
#     4   9  16  30  48  71 105 136 161 203 258 288
#
# _framework density 16.088080999999999
#
# number of rings (size 3 to 8) (size 9 to 14) (size 15 to 20)
#    0.000    2.333    1.667    3.000    0.000    4.667 
#    0.000    6.250    0.000    3.000    0.000    3.500 
#    0.000    0.000    0.000    0.000    0.000    0.000 
#
# Total GULP energy -267751.300413 kJ/mol
# GULP energy per Si atom -5578.152092 kJ/mol
# Density = 1.605146 g / cm^3
# Si number density = 16.088081 Si / 1000 Ang^3
#
#
#
# Elastic Constant Matrix: (Units=GPa)
#
#
# Indices 1 2 3 4 5 6 
#
# 1 66.4359 63.0628 48.2017 0.0000 0.0000 0.0000
# 2 63.0628 136.2191 55.7599 0.0000 0.0000 0.0000
# 3 48.2017 55.7599 67.7616 0.0000 0.0000 0.0000
# 4 0.0000 0.0000 0.0000 15.4198 0.0000 0.0000
# 5 0.0000 0.0000 0.0000 0.0000 17.9415 0.0000
# 6 0.0000 0.0000 0.0000 0.0000 0.0000 37.2983
#
#
#
# Elastic Compliance Matrix: (Units=1/GPa)
#
#
# Indices 1 2 3 4 5 6 
#
# 1 0.038333 -0.009929 -0.019097 0.000000 0.000000 0.000000
# 2 -0.009929 0.013642 -0.004163 0.000000 0.000000 0.000000
# 3 -0.019097 -0.004163 0.031768 0.000000 0.000000 0.000000
# 4 0.000000 0.000000 0.000000 0.064852 0.000000 0.000000
# 5 0.000000 0.000000 0.000000 0.000000 0.055737 0.000000
# 6 0.000000 0.000000 0.000000 0.000000 0.000000 0.026811
#
#
# Mechanical properties :
#
#
# Convention : Reuss Voigt Hill
#
# Bulk Modulus (GPa) = 57.58936 67.16284 62.37610
# Shear Modulus (GPa) = 16.48491 21.02473 18.75482
#
# Velocity S-wave (km/s) = 3.20451 3.61896 3.41802
# Velocity P-wave (km/s) = 7.04030 7.70066 7.37787
#
# Compressibility (1/GPa) = 0.01736432
#
# Stress axis : x y z
#
# Youngs Moduli (GPa) = 26.08731 73.30499 31.47835
#
# Poissons Ratio (x) = 0.72784 0.60116
# Poissons Ratio (y) = 0.25902 0.13103
# Poissons Ratio (z) = 0.49820 0.30514
#
# Static dielectric constant tensor:
#      x y z
#    x 1.543570 0.000000 0.000000 
#    y 0.000000 1.542790 0.000000 
#    z 0.000000 0.000000 1.515400 
# 
# From -- ./inp_files/24070.got.cif
#   From: 2010.05.17/outbox.cif.g08.bks.cpg/sg51_13_cif.got.tgz:24070.got - 2010.06.03 11:52:47.
