data_PCOD9399986
_publ_section_title
;
Structure prediction by ZEFSAII (Michael W. Deem and Ramdas Pophale) SiO2 
 PCOD9399986
Probable space group: P M M A
;
_chemical_formula_sum "Si O2"
_cell_formula_units_Z 64
_cell_length_a 9.173300
_cell_length_b 18.692520
_cell_length_c 27.284375
_cell_angle_alpha 90.000000
_cell_angle_beta 90.000000
_cell_angle_gamma 90.000000
_cell_volume 4678.508907
_symmetry_space_group_name_H-M "P M M A"
_symmetry_group_IT_number 51
_symmetry_cell_setting 'orthorhombic'
loop_
_space_group_symop_operation_xyz
x,y,z
1/2-x,-y,z
1/2+x,-y,-z
-x,y,-z
-x,-y,-z
1/2+x,y,-z
1/2-x,y,z
x,-y,z
loop_
_atom_site_type_symbol
_atom_site_label
_atom_site_fract_x
_atom_site_fract_y
_atom_site_fract_z
Si Si1 0.075082 0.081737 0.744790
Si Si2 0.575399 0.416227 0.949690
Si Si3 0.923391 0.584398 0.244962
Si Si4 0.574513 0.170958 0.352706
Si Si5 0.418318 0.296648 0.302211
Si Si6 0.574896 0.083209 0.448711
Si Si7 0.417105 0.797345 0.201955
Si Si8 0.426703 0.657110 0.151949
O O1 0.250000 0.081904 0.747962
O O2 0.037543 0.117137 0.692177
O O3 0.011070 0.133190 0.786509
O O4 0.023621 0.000000 0.747643
O O5 0.750000 0.411824 0.955219
O O6 0.537796 0.500000 0.941644
O O7 0.534322 0.371750 0.901550
O O8 0.500000 0.392787 0.000000
O O9 0.750000 0.598031 0.243042
O O10 0.947562 0.500000 0.251522
O O11 0.995529 0.631781 0.287856
O O12 0.996981 0.610443 0.194191
O O13 0.750000 0.180472 0.351967
O O14 0.496563 0.245961 0.341624
O O15 0.532405 0.133887 0.403669
O O16 0.250000 0.310884 0.314489
O O17 0.419989 0.249870 0.251931
O O18 0.500000 0.102165 0.500000
O O19 0.750000 0.087096 0.453886
O O20 0.538418 0.000000 0.437554
O O21 0.250000 0.817853 0.192453
O O22 0.466358 0.740148 0.161275
O O23 0.250000 0.651607 0.158115
#
# Coordination Sequence:
#
# PCOD9399986 Si02
#       8
#     8   8   8   8   8   8   8   8
#     4   9  16  25  38  56  77 102 131 160 192 233
#     4   9  17  28  41  57  78 104 133 165 198 230
#     4  10  19  28  40  60  83 106 134 166 197 232
#     4   9  16  27  42  57  77 106 137 168 201 235
#     4   9  17  28  41  57  78 104 133 164 198 237
#     4   9  17  28  41  58  81 109 140 173 207 240
#     4   8  15  26  38  54  75  99 128 160 192 228
#     4   9  17  29  43  57  77 107 138 165 197 236
#
# _framework density 13.679570999999999
#
# number of rings (size 3 to 8) (size 9 to 14) (size 15 to 20)
#    0.000    3.000    0.000    2.250    0.000    7.250 
#    0.000    1.250    0.000    2.250    0.000    0.000 
#    0.000    1.000    0.000    2.750    0.000    4.000 
#
# Total GULP energy -356337.797279 kJ/mol
# GULP energy per Si atom -5567.778082 kJ/mol
# Density = 1.364844 g / cm^3
# Si number density = 13.679571 Si / 1000 Ang^3
#
#
#
# Elastic Constant Matrix: (Units=GPa)
#
#
# Indices 1 2 3 4 5 6 
#
# 1 37.6118 48.4178 35.8796 0.0000 0.0000 0.0000
# 2 48.4178 103.2944 62.6270 0.0000 0.0000 0.0000
# 3 35.8796 62.6270 96.7610 0.0000 0.0000 0.0000
# 4 0.0000 0.0000 0.0000 26.5437 0.0000 0.0000
# 5 0.0000 0.0000 0.0000 0.0000 20.8034 0.0000
# 6 0.0000 0.0000 0.0000 0.0000 0.0000 21.0477
#
#
#
# Elastic Compliance Matrix: (Units=1/GPa)
#
#
# Indices 1 2 3 4 5 6 
#
# 1 0.070459 -0.028286 -0.007819 0.000000 0.000000 0.000000
# 2 -0.028286 0.027289 -0.007174 0.000000 0.000000 0.000000
# 3 -0.007819 -0.007174 0.017877 0.000000 0.000000 0.000000
# 4 0.000000 0.000000 0.000000 0.037674 0.000000 0.000000
# 5 0.000000 0.000000 0.000000 0.000000 0.048069 0.000000
# 6 0.000000 0.000000 0.000000 0.000000 0.000000 0.047511
#
#
# Mechanical properties :
#
#
# Convention : Reuss Voigt Hill
#
# Bulk Modulus (GPa) = 34.40241 59.05735 46.72988
# Shear Modulus (GPa) = 14.48743 19.72847 17.10795
#
# Velocity S-wave (km/s) = 3.25784 3.80173 3.54025
# Velocity P-wave (km/s) = 6.27334 7.90800 7.13762
#
# Compressibility (1/GPa) = 0.02906773
#
# Stress axis : x y z
#
# Youngs Moduli (GPa) = 14.19262 36.64433 55.93710
#
# Poissons Ratio (x) = 1.03653 0.43737
# Poissons Ratio (y) = 0.40146 0.40129
# Poissons Ratio (z) = 0.11097 0.26288
#
# Static dielectric constant tensor:
#      x y z
#    x 1.461070 0.000000 0.000000 
#    y 0.000000 1.447180 0.000000 
#    z 0.000000 0.000000 1.429990 
# 
# From -- ./inp_files/36410.got.cif
#   From: 2010.05.17/outbox.cif.g08.bks.cpg/sg51_19_cif.got.tgz:36410.got - 2010.06.03 11:52:47.
