data_PCOD9399116
_publ_section_title
;
Structure prediction by ZEFSAII (Michael W. Deem and Ramdas Pophale) SiO2 
 PCOD9399116
Probable space group: P M M A
;
_chemical_formula_sum "Si O2"
_cell_formula_units_Z 56
_cell_length_a 19.480391
_cell_length_b 9.132553
_cell_length_c 17.725853
_cell_angle_alpha 90.000000
_cell_angle_beta 90.000000
_cell_angle_gamma 90.000000
_cell_volume 3153.530344
_symmetry_space_group_name_H-M "P M M A"
_symmetry_group_IT_number 51
_symmetry_cell_setting 'orthorhombic'
loop_
_space_group_symop_operation_xyz
x,y,z
1/2-x,-y,z
1/2+x,-y,-z
-x,y,-z
-x,-y,-z
1/2+x,y,-z
1/2-x,y,z
x,-y,z
loop_
_atom_site_type_symbol
_atom_site_label
_atom_site_fract_x
_atom_site_fract_y
_atom_site_fract_z
Si Si1 0.615585 0.171770 0.621125
Si Si2 0.457619 0.827026 0.675181
Si Si3 0.434312 0.323146 0.835806
Si Si4 0.172521 0.328400 0.239259
Si Si5 0.420742 0.322094 0.100366
Si Si6 0.419997 0.331163 0.526648
Si Si7 0.171260 0.321518 0.959695
O O1 0.538223 0.192182 0.654158
O O2 0.664095 0.240393 0.684063
O O3 0.619743 0.252777 0.541187
O O4 0.627104 0.000000 0.611224
O O5 0.441924 0.751177 0.754695
O O6 0.417187 0.752921 0.605845
O O7 0.443999 0.000000 0.678573
O O8 0.436347 0.500000 0.826476
O O9 0.499990 0.281725 0.888005
O O10 0.365689 0.283093 0.881237
O O11 0.250000 0.317829 0.209604
O O12 0.158131 0.500000 0.254618
O O13 0.119913 0.276810 0.175596
O O14 0.419287 0.500000 0.097368
O O15 0.378268 0.270961 0.027746
O O16 0.500000 0.328033 0.500000
O O17 0.399863 0.500000 0.535030
O O18 0.250000 0.271769 0.966513
O O19 0.172346 0.500000 0.963164
#
# Coordination Sequence:
#
# PCOD9399116 Si02
#       7
#     8   8   8   8   8   8   8
#     4  10  19  31  47  69 101 136 169 206 252 304
#     4  10  19  31  48  73 103 133 166 207 256 304
#     4  10  18  29  50  76 101 131 170 214 259 306
#     4  10  19  30  47  71 100 136 174 213 257 306
#     4   9  16  28  47  72 102 131 166 211 259 306
#     4   9  17  29  49  74 100 129 163 205 251 297
#     4   9  17  29  47  74 104 131 165 213 264 308
#
# _framework density 17.757876
#
# number of rings (size 3 to 8) (size 9 to 14) (size 15 to 20)
#    0.000    2.429    1.429    2.143    0.000    6.571 
#    0.000    0.000    0.000    3.857    0.000    2.000 
#    0.000    0.000    0.000    0.000    0.000    0.000 
#
# Total GULP energy -312239.029531 kJ/mol
# GULP energy per Si atom -5575.696956 kJ/mol
# Density = 1.771746 g / cm^3
# Si number density = 17.757876 Si / 1000 Ang^3
#
#
#
# Elastic Constant Matrix: (Units=GPa)
#
#
# Indices 1 2 3 4 5 6 
#
# 1 55.1444 19.0780 43.3799 0.0000 0.0000 0.0000
# 2 19.0780 40.4675 42.8233 0.0000 0.0000 0.0000
# 3 43.3799 42.8233 125.2446 0.0000 0.0000 0.0000
# 4 0.0000 0.0000 0.0000 -8.6971 0.0000 0.0000
# 5 0.0000 0.0000 0.0000 0.0000 17.0608 0.0000
# 6 0.0000 0.0000 0.0000 0.0000 0.0000 9.6203
#
#
#
# Elastic Compliance Matrix: (Units=1/GPa)
#
#
# Indices 1 2 3 4 5 6 
#
# 1 0.025367 -0.004170 -0.007360 0.000000 0.000000 0.000000
# 2 -0.004170 0.039407 -0.012030 0.000000 0.000000 0.000000
# 3 -0.007360 -0.012030 0.014647 0.000000 0.000000 0.000000
# 4 0.000000 0.000000 0.000000 -0.114981 0.000000 0.000000
# 5 0.000000 0.000000 0.000000 0.000000 0.058614 0.000000
# 6 0.000000 0.000000 0.000000 0.000000 0.000000 0.103947
#
#
# Mechanical properties :
#
#
# Convention : Reuss Voigt Hill
#
# Bulk Modulus (GPa) = 30.95906 47.93542 39.44724
# Shear Modulus (GPa) = 27.04344 11.30182 19.17263
#
# Velocity S-wave (km/s) = 3.90667 2.52551 3.28940
# Velocity P-wave (km/s) = 6.14990 5.96295 6.05715
#
# Compressibility (1/GPa) = 0.03230072
#
# Stress axis : x y z
#
# Youngs Moduli (GPa) = 39.42131 25.37620 68.27434
#
# Poissons Ratio (x) = 0.10582 0.50252
# Poissons Ratio (y) = 0.16440 0.82131
# Poissons Ratio (z) = 0.29015 0.30526
#
# Static dielectric constant tensor:
#      x y z
#    x 1.609360 0.000000 0.000000 
#    y 0.000000 1.587740 0.000000 
#    z 0.000000 0.000000 1.593980 
# 
# From -- ./inp_files/25632.got.cif
#   From: 2010.05.17/outbox.cif.g08.bks.cpg/sg51_13_cif.got.tgz:25632.got - 2010.06.03 11:52:47.
