data_PCOD9399075
_publ_section_title
;
Structure prediction by ZEFSAII (Michael W. Deem and Ramdas Pophale) SiO2 
 PCOD9399075
Probable space group: P M M A
;
_chemical_formula_sum "Si O2"
_cell_formula_units_Z 32
_cell_length_a 14.409042
_cell_length_b 12.884469
_cell_length_c 7.557124
_cell_angle_alpha 90.000000
_cell_angle_beta 90.000000
_cell_angle_gamma 90.000000
_cell_volume 1403.001646
_symmetry_space_group_name_H-M "P M M A"
_symmetry_group_IT_number 51
_symmetry_cell_setting 'orthorhombic'
loop_
_space_group_symop_operation_xyz
x,y,z
1/2-x,-y,z
1/2+x,-y,-z
-x,y,-z
-x,-y,-z
1/2+x,y,-z
1/2-x,y,z
x,-y,z
loop_
_atom_site_type_symbol
_atom_site_label
_atom_site_fract_x
_atom_site_fract_y
_atom_site_fract_z
Si Si1 0.863752 0.118454 0.217204
Si Si2 0.609155 0.500000 0.526682
Si Si3 0.636062 0.277390 0.920916
Si Si4 0.642393 0.730428 0.520934
Si Si5 0.856789 0.500000 0.949866
O O1 0.750000 0.117110 0.219966
O O2 0.896309 0.187430 0.382902
O O3 0.895721 0.000000 0.221957
O O4 0.889970 0.181029 0.041233
O O5 0.500000 0.500000 0.500000
O O6 0.640748 0.611269 0.453357
O O7 0.639298 0.500000 0.733775
O O8 0.750000 0.282630 0.916649
O O9 0.602223 0.268629 0.719024
O O10 0.604430 0.388062 0.001448
O O11 0.750000 0.758779 0.542234
O O12 0.750000 0.500000 0.007494
#
# Coordination Sequence:
#
# PCOD9399075 Si02
#       5
#     8   4   8   8   4
#     4   9  17  27  42  69  97 119 152 192 226 268
#     4  10  18  29  48  72  95 119 152 193 233 276
#     4   8  14  25  42  64  91 119 146 182 223 263
#     4   9  17  30  48  69  95 125 152 184 231 279
#     4   8  14  27  46  67  89 115 149 184 227 281
#
# _framework density 22.808240999999999
#
# number of rings (size 3 to 8) (size 9 to 14) (size 15 to 20)
#    0.000    3.250    0.000    2.625    0.000    2.000 
#    0.000    8.750    0.000   12.750    0.000    7.000 
#    0.000    0.000    0.000    0.000    0.000    0.000 
#
# Total GULP energy -178556.586496 kJ/mol
# GULP energy per Si atom -5579.893328 kJ/mol
# Density = 2.275633 g / cm^3
# Si number density = 22.808241 Si / 1000 Ang^3
#
#
#
# Elastic Constant Matrix: (Units=GPa)
#
#
# Indices 1 2 3 4 5 6 
#
# 1 91.5666 -2.5679 -11.2108 0.0000 0.0000 0.0000
# 2 -2.5679 253.1082 100.3115 0.0000 0.0000 0.0000
# 3 -11.2108 100.3115 109.7938 0.0000 0.0000 0.0000
# 4 0.0000 0.0000 0.0000 40.9688 0.0000 0.0000
# 5 0.0000 0.0000 0.0000 0.0000 -6.5538 0.0000
# 6 0.0000 0.0000 0.0000 0.0000 0.0000 -21.4540
#
#
#
# Elastic Compliance Matrix: (Units=1/GPa)
#
#
# Indices 1 2 3 4 5 6 
#
# 1 0.011104 -0.000528 0.001616 0.000000 0.000000 0.000000
# 2 -0.000528 0.006219 -0.005735 0.000000 0.000000 0.000000
# 3 0.001616 -0.005735 0.014513 0.000000 0.000000 0.000000
# 4 0.000000 0.000000 0.000000 0.024409 0.000000 0.000000
# 5 0.000000 0.000000 0.000000 0.000000 -0.152583 0.000000
# 6 0.000000 0.000000 0.000000 0.000000 0.000000 -0.046611
#
#
# Mechanical properties :
#
#
# Convention : Reuss Voigt Hill
#
# Bulk Modulus (GPa) = 44.36289 69.72602 57.04445
# Shear Modulus (GPa) = -39.63785 27.12126 -6.25829
#
# Velocity S-wave (km/s) = -4.17330 3.45207 -1.65826
# Velocity P-wave (km/s) = 1.93115 6.82100 4.62583
#
# Compressibility (1/GPa) = 0.02254137
#
# Stress axis : x y z
#
# Youngs Moduli (GPa) = 90.05703 160.80871 68.90346
#
# Poissons Ratio (x) = 0.08488 -0.11135
# Poissons Ratio (y) = 0.04753 0.39519
# Poissons Ratio (z) = -0.14554 0.92230
#
# Static dielectric constant tensor:
#      x y z
#    x 1.912910 0.000000 0.000000 
#    y 0.000000 1.824490 0.000000 
#    z 0.000000 0.000000 1.852730 
# 
# From -- ./inp_files/9191.got.cif
#   From: 2010.05.17/outbox.cif.g08.bks.cpg/sg51_5_cif.got.tgz:9191.got - 2010.06.03 11:52:47.
