data_PCOD9399597
_publ_section_title
;
Structure prediction by ZEFSAII (Michael W. Deem and Ramdas Pophale) SiO2 
 PCOD9399597
Probable space group: P M M A
;
_chemical_formula_sum "Si O2"
_cell_formula_units_Z 64
_cell_length_a 27.230554
_cell_length_b 18.743052
_cell_length_c 5.591735
_cell_angle_alpha 90.000000
_cell_angle_beta 90.000000
_cell_angle_gamma 90.000000
_cell_volume 2853.930341
_symmetry_space_group_name_H-M "P M M A"
_symmetry_group_IT_number 51
_symmetry_cell_setting 'orthorhombic'
loop_
_space_group_symop_operation_xyz
x,y,z
1/2-x,-y,z
1/2+x,-y,-z
-x,y,-z
-x,-y,-z
1/2+x,y,-z
1/2-x,y,z
x,-y,z
loop_
_atom_site_type_symbol
_atom_site_label
_atom_site_fract_x
_atom_site_fract_y
_atom_site_fract_z
Si Si1 0.446980 0.626288 0.964340
Si Si2 0.190155 0.083464 0.169782
Si Si3 0.968873 0.923107 0.248055
Si Si4 0.691722 0.849376 0.332957
Si Si5 0.804317 0.288696 0.055369
Si Si6 0.378593 0.312068 0.333423
Si Si7 0.049553 0.231939 0.656983
Si Si8 0.347981 0.418156 0.708241
O O1 0.422616 0.642446 0.217127
O O2 0.500000 0.591269 0.000000
O O3 0.455100 0.704232 0.846250
O O4 0.404048 0.588677 0.810564
O O5 0.250000 0.089778 0.165774
O O6 0.172919 0.114363 0.913472
O O7 0.177822 0.000000 0.186989
O O8 0.172297 0.122862 0.412325
O O9 0.942071 0.847162 0.244557
O O10 0.000000 0.922425 0.500000
O O11 0.942052 0.000000 0.250452
O O12 0.000000 0.922755 0.000000
O O13 0.750000 0.867138 0.340913
O O14 0.689706 0.764646 0.278910
O O15 0.750000 0.275995 0.956813
O O16 0.846657 0.274004 0.866904
O O17 0.813213 0.370910 0.122738
O O18 0.404831 0.255356 0.498712
O O19 0.347236 0.371929 0.467837
O O20 0.000000 0.231670 0.500000
O O21 0.334658 0.500000 0.684397
#
# Coordination Sequence:
#
# PCOD9399597 Si02
#       8
#     8   8   8   8   8   8   8   8
#     4  10  19  36  62  92 126 162 208 251 314 392
#     4   9  16  28  50  84 122 155 193 250 317 382
#     4   9  18  30  49  85 130 180 232 279 330 392
#     4   9  18  31  54  85 117 154 203 257 313 381
#     4  10  23  42  65  89 119 163 219 280 339 399
#     4  10  22  38  61  94 124 164 215 270 329 404
#     4  10  18  31  60  91 129 172 217 270 323 395
#     4  10  24  42  60  89 125 159 207 268 330 405
#
# _framework density 22.425215999999999
#
# number of rings (size 3 to 8) (size 9 to 14) (size 15 to 20)
#    0.000    2.375    1.250    0.750    3.500    4.500 
#    0.000    0.625    0.000    1.500    0.000    0.000 
#    0.000    0.000    0.000    0.000    0.000    0.000 
#
# Total GULP energy -357163.130617 kJ/mol
# GULP energy per Si atom -5580.673916 kJ/mol
# Density = 2.237418 g / cm^3
# Si number density = 22.425216 Si / 1000 Ang^3
#
#
#
# Elastic Constant Matrix: (Units=GPa)
#
#
# Indices 1 2 3 4 5 6 
#
# 1 56.5140 -9.9460 11.3082 0.0000 0.0000 0.0000
# 2 -9.9460 159.5612 35.5292 0.0000 0.0000 0.0000
# 3 11.3082 35.5292 92.9678 0.0000 0.0000 0.0000
# 4 0.0000 0.0000 0.0000 -2.1257 0.0000 0.0000
# 5 0.0000 0.0000 0.0000 0.0000 21.4164 0.0000
# 6 0.0000 0.0000 0.0000 0.0000 0.0000 12.9344
#
#
#
# Elastic Compliance Matrix: (Units=1/GPa)
#
#
# Indices 1 2 3 4 5 6 
#
# 1 0.018607 0.001819 -0.002958 0.000000 0.000000 0.000000
# 2 0.001819 0.007028 -0.002907 0.000000 0.000000 0.000000
# 3 -0.002958 -0.002907 0.012227 0.000000 0.000000 0.000000
# 4 0.000000 0.000000 0.000000 -0.470437 0.000000 0.000000
# 5 0.000000 0.000000 0.000000 0.000000 0.046693 0.000000
# 6 0.000000 0.000000 0.000000 0.000000 0.000000 0.077313
#
#
# Mechanical properties :
#
#
# Convention : Reuss Voigt Hill
#
# Bulk Modulus (GPa) = 33.59272 42.53618 38.06445
# Shear Modulus (GPa) = -17.20860 24.58847 3.68993
#
# Velocity S-wave (km/s) = -2.77316 3.31488 1.28414
# Velocity P-wave (km/s) = 2.18140 5.80176 4.38286
#
# Compressibility (1/GPa) = 0.02976835
#
# Stress axis : x y z
#
# Youngs Moduli (GPa) = 53.74406 142.29121 81.78490
#
# Poissons Ratio (x) = -0.25876 0.24194
# Poissons Ratio (y) = -0.09773 0.23775
# Poissons Ratio (z) = 0.15899 0.41364
#
# Static dielectric constant tensor:
#      x y z
#    x 1.837040 0.000000 0.000000 
#    y 0.000000 1.808940 0.000000 
#    z 0.000000 0.000000 1.859240 
# 
# From -- ./inp_files/4108.got.cif
#   From: 2010.05.17/outbox.cif.g08.bks.cpg/sg51_3_cif.got.tgz:4108.got - 2010.06.03 11:52:47.
