data_PCOD9399206
_publ_section_title
;
Structure prediction by ZEFSAII (Michael W. Deem and Ramdas Pophale) SiO2 
 PCOD9399206
Probable space group: P M M A
;
_chemical_formula_sum "Si O2"
_cell_formula_units_Z 40
_cell_length_a 9.850252
_cell_length_b 18.726868
_cell_length_c 12.830906
_cell_angle_alpha 90.000000
_cell_angle_beta 90.000000
_cell_angle_gamma 90.000000
_cell_volume 2366.844979
_symmetry_space_group_name_H-M "P M M A"
_symmetry_group_IT_number 51
_symmetry_cell_setting 'orthorhombic'
loop_
_space_group_symop_operation_xyz
x,y,z
1/2-x,-y,z
1/2+x,-y,-z
-x,y,-z
-x,-y,-z
1/2+x,y,-z
1/2-x,y,z
x,-y,z
loop_
_atom_site_type_symbol
_atom_site_label
_atom_site_fract_x
_atom_site_fract_y
_atom_site_fract_z
Si Si1 0.516623 0.316810 0.203719
Si Si2 0.250000 0.920430 0.761331
Si Si3 0.903798 0.764765 0.600392
Si Si4 0.978002 0.078952 0.624826
Si Si5 0.750000 0.218130 0.109482
Si Si6 0.250000 0.678926 0.063841
Si Si7 0.750000 0.584485 0.146174
O O1 0.462820 0.288593 0.313560
O O2 0.616203 0.255702 0.157595
O O3 0.386316 0.329145 0.130637
O O4 0.615585 0.385308 0.203409
O O5 0.380251 0.913597 0.686170
O O6 0.250000 0.862374 0.852102
O O7 0.250000 0.000000 0.805713
O O8 0.750000 0.745730 0.572418
O O9 0.903212 0.846310 0.644054
O O10 0.000000 0.763856 0.500000
O O11 0.000000 0.076812 0.500000
O O12 0.920488 0.000000 0.652745
O O13 0.750000 0.242359 0.989482
O O14 0.250000 0.623006 0.967685
O O15 0.750000 0.500000 0.137288
#
# Coordination Sequence:
#
# PCOD9399206 Si02
#       7
#     8   4   8   8   4   4   4
#     4  10  20  36  57  85 115 143 180 224 278 329
#     4  10  18  30  47  71 101 144 193 238 282 333
#     4  11  23  34  56  84 114 150 193 232 275 328
#     4   9  19  30  46  72 108 145 186 238 290 328
#     4  10  18  32  55  73 106 146 188 228 275 334
#     4  10  20  36  57  86 113 146 178 222 275 332
#     4  10  22  38  63  90 116 142 171 222 280 341
#
# _framework density 16.900134999999999
#
# number of rings (size 3 to 8) (size 9 to 14) (size 15 to 20)
#    0.000    2.200    3.000    2.400    8.400    2.000 
#    0.000    0.000    0.000    4.200    0.000    0.000 
#    0.000    0.000    0.000    0.000    0.000    0.000 
#
# Total GULP energy -222813.747631 kJ/mol
# GULP energy per Si atom -5570.343691 kJ/mol
# Density = 1.686167 g / cm^3
# Si number density = 16.900135 Si / 1000 Ang^3
#
#
#
# Elastic Constant Matrix: (Units=GPa)
#
#
# Indices 1 2 3 4 5 6 
#
# 1 142.6527 47.7145 46.6678 0.0000 0.0000 0.0000
# 2 47.7145 128.5568 51.8370 0.0000 0.0000 0.0000
# 3 46.6678 51.8370 62.8633 0.0000 0.0000 0.0000
# 4 0.0000 0.0000 0.0000 22.9523 0.0000 0.0000
# 5 0.0000 0.0000 0.0000 0.0000 24.9394 0.0000
# 6 0.0000 0.0000 0.0000 0.0000 0.0000 6.7567
#
#
#
# Elastic Compliance Matrix: (Units=1/GPa)
#
#
# Indices 1 2 3 4 5 6 
#
# 1 0.009345 -0.001005 -0.006108 0.000000 0.000000 0.000000
# 2 -0.001005 0.011762 -0.008952 0.000000 0.000000 0.000000
# 3 -0.006108 -0.008952 0.027824 0.000000 0.000000 0.000000
# 4 0.000000 0.000000 0.000000 0.043569 0.000000 0.000000
# 5 0.000000 0.000000 0.000000 0.000000 0.040097 0.000000
# 6 0.000000 0.000000 0.000000 0.000000 0.000000 0.148001
#
#
# Mechanical properties :
#
#
# Convention : Reuss Voigt Hill
#
# Bulk Modulus (GPa) = 59.52824 69.61237 64.57030
# Shear Modulus (GPa) = 15.70709 23.45324 19.58016
#
# Velocity S-wave (km/s) = 3.05192 3.72930 3.40748
# Velocity P-wave (km/s) = 6.90789 7.73456 7.33288
#
# Compressibility (1/GPa) = 0.01679875
#
# Stress axis : x y z
#
# Youngs Moduli (GPa) = 107.01464 85.02296 35.94029
#
# Poissons Ratio (x) = 0.08548 0.21953
# Poissons Ratio (y) = 0.10759 0.32174
# Poissons Ratio (z) = 0.65365 0.76114
#
# Static dielectric constant tensor:
#      x y z
#    x 1.608040 0.000000 0.000000 
#    y 0.000000 1.586910 0.000000 
#    z 0.000000 0.000000 1.565540 
# 
# From -- ./inp_files/14309.got.cif
#   From: 2010.05.17/outbox.cif.g08.bks.cpg/sg51_8_cif.got.tgz:14309.got - 2010.06.03 11:52:47.
