data_PCOD9399065
_publ_section_title
;
Structure prediction by ZEFSAII (Michael W. Deem and Ramdas Pophale) SiO2 
 PCOD9399065
Probable space group: P M M A
;
_chemical_formula_sum "Si O2"
_cell_formula_units_Z 64
_cell_length_a 14.520355
_cell_length_b 14.834443
_cell_length_c 13.985183
_cell_angle_alpha 90.000000
_cell_angle_beta 90.000000
_cell_angle_gamma 90.000000
_cell_volume 3012.427698
_symmetry_space_group_name_H-M "P M M A"
_symmetry_group_IT_number 51
_symmetry_cell_setting 'orthorhombic'
loop_
_space_group_symop_operation_xyz
x,y,z
1/2-x,-y,z
1/2+x,-y,-z
-x,y,-z
-x,-y,-z
1/2+x,y,-z
1/2-x,y,z
x,-y,z
loop_
_atom_site_type_symbol
_atom_site_label
_atom_site_fract_x
_atom_site_fract_y
_atom_site_fract_z
Si Si1 0.358659 0.601577 0.485006
Si Si2 0.356880 0.250882 0.322271
Si Si3 0.586719 0.401305 0.811323
Si Si4 0.862636 0.894088 0.322273
Si Si5 0.851768 0.248897 0.177124
Si Si6 0.637145 0.896045 0.537819
Si Si7 0.400044 0.598757 0.691359
Si Si8 0.637868 0.398748 0.028776
O O1 0.250000 0.606173 0.513027
O O2 0.377615 0.500000 0.451215
O O3 0.370750 0.672363 0.402210
O O4 0.416279 0.618631 0.580298
O O5 0.250000 0.228869 0.313777
O O6 0.378275 0.304663 0.225829
O O7 0.398926 0.163010 0.373349
O O8 0.633561 0.500000 0.788928
O O9 0.491243 0.405910 0.754702
O O10 0.590332 0.397482 0.925662
O O11 0.750000 0.886646 0.319193
O O12 0.898641 0.834135 0.233219
O O13 0.889423 0.864344 0.430396
O O14 0.884765 0.000000 0.312713
O O15 0.750000 0.219247 0.145007
O O16 0.843936 0.321730 0.262019
O O17 0.890039 0.311911 0.091826
O O18 0.750000 0.893522 0.537391
O O19 0.609827 0.000000 0.547704
O O20 0.355897 0.500000 0.693836
O O21 0.750000 0.394325 0.017898
O O22 0.619465 0.500000 0.070837
#
# Coordination Sequence:
#
# PCOD9399065 Si02
#       8
#     8   8   8   8   8   8   8   8
#     4   9  17  28  43  66  93 117 146 187 231 275
#     4  10  18  29  48  68  88 121 161 195 228 269
#     4  10  21  34  46  63  91 129 168 199 228 267
#     4   8  14  26  46  73 101 122 143 181 234 287
#     4  10  18  29  49  73  94 118 150 189 236 285
#     4   8  14  25  43  69  96 118 145 185 232 279
#     4  10  20  31  44  66  96 126 153 187 234 284
#     4   9  18  32  49  69  92 118 153 197 235 269
#
# _framework density 21.245322999999999
#
# number of rings (size 3 to 8) (size 9 to 14) (size 15 to 20)
#    0.000    2.750    0.000    3.000    0.000    5.500 
#    0.000    3.750    0.000    1.500    0.000    7.000 
#    0.000    0.000    0.000    0.000    0.000    0.000 
#
# Total GULP energy -356615.699001 kJ/mol
# GULP energy per Si atom -5572.120297 kJ/mol
# Density = 2.119697 g / cm^3
# Si number density = 21.245323 Si / 1000 Ang^3
#
#
#
# Elastic Constant Matrix: (Units=GPa)
#
#
# Indices 1 2 3 4 5 6 
#
# 1 35.9216 3.3594 -5.3934 0.0000 0.0000 0.0000
# 2 3.3594 93.1287 46.9442 0.0000 0.0000 0.0000
# 3 -5.3934 46.9442 108.5483 0.0000 0.0000 0.0000
# 4 0.0000 0.0000 0.0000 43.8168 0.0000 0.0000
# 5 0.0000 0.0000 0.0000 0.0000 21.0244 0.0000
# 6 0.0000 0.0000 0.0000 0.0000 0.0000 3.6507
#
#
#
# Elastic Compliance Matrix: (Units=1/GPa)
#
#
# Indices 1 2 3 4 5 6 
#
# 1 0.028402 -0.002220 0.002371 0.000000 0.000000 0.000000
# 2 -0.002220 0.013905 -0.006124 0.000000 0.000000 0.000000
# 3 0.002371 -0.006124 0.011979 0.000000 0.000000 0.000000
# 4 0.000000 0.000000 0.000000 0.022822 0.000000 0.000000
# 5 0.000000 0.000000 0.000000 0.000000 0.047564 0.000000
# 6 0.000000 0.000000 0.000000 0.000000 0.000000 0.273917
#
#
# Mechanical properties :
#
#
# Convention : Reuss Voigt Hill
#
# Bulk Modulus (GPa) = 23.61789 36.37989 29.99889
# Shear Modulus (GPa) = 11.77451 26.54429 19.15940
#
# Velocity S-wave (km/s) = 2.35673 3.53855 3.00629
# Velocity P-wave (km/s) = 4.30656 5.81859 5.11871
#
# Compressibility (1/GPa) = 0.04234078
#
# Stress axis : x y z
#
# Youngs Moduli (GPa) = 35.20876 71.91790 83.48183
#
# Poissons Ratio (x) = 0.15964 -0.19795
# Poissons Ratio (y) = 0.07816 0.51122
# Poissons Ratio (z) = -0.08349 0.44041
#
# Static dielectric constant tensor:
#      x y z
#    x 1.911750 0.000000 0.000000 
#    y 0.000000 1.808830 0.000000 
#    z 0.000000 0.000000 1.780480 
# 
# From -- ./inp_files/25352.got.cif
#   From: 2010.05.17/outbox.cif.g08.bks.cpg/sg51_13_cif.got.tgz:25352.got - 2010.06.03 11:52:47.
