data_PCOD9399082
_publ_section_title
;
Structure prediction by ZEFSAII (Michael W. Deem and Ramdas Pophale) SiO2 
 PCOD9399082
Probable space group: P M M A
;
_chemical_formula_sum "Si O2"
_cell_formula_units_Z 40
_cell_length_a 25.780904
_cell_length_b 8.427997
_cell_length_c 10.474496
_cell_angle_alpha 90.000000
_cell_angle_beta 90.000000
_cell_angle_gamma 90.000000
_cell_volume 2275.912962
_symmetry_space_group_name_H-M "P M M A"
_symmetry_group_IT_number 51
_symmetry_cell_setting 'orthorhombic'
loop_
_space_group_symop_operation_xyz
x,y,z
1/2-x,-y,z
1/2+x,-y,-z
-x,y,-z
-x,-y,-z
1/2+x,y,-z
1/2-x,y,z
x,-y,z
loop_
_atom_site_type_symbol
_atom_site_label
_atom_site_fract_x
_atom_site_fract_y
_atom_site_fract_z
Si Si1 0.750000 0.684670 0.532175
Si Si2 0.530228 0.190590 0.124061
Si Si3 0.638247 0.189810 0.230590
Si Si4 0.469782 0.691250 0.369955
Si Si5 0.750000 0.682859 0.221742
Si Si6 0.638170 0.307270 0.521572
O O1 0.750000 0.500000 0.571876
O O2 0.750000 0.688874 0.377207
O O3 0.805762 0.753520 0.569206
O O4 0.589399 0.247187 0.146597
O O5 0.497538 0.233139 0.249425
O O6 0.532967 0.000000 0.112765
O O7 0.500000 0.253200 0.000000
O O8 0.695281 0.240733 0.183086
O O9 0.630788 0.253956 0.375009
O O10 0.637009 0.000000 0.236796
O O11 0.500000 0.732159 0.500000
O O12 0.471623 0.500000 0.356542
O O13 0.410341 0.740917 0.392637
O O14 0.750000 0.500000 0.183542
O O15 0.639795 0.500000 0.518984
#
# Coordination Sequence:
#
# PCOD9399082 Si02
#       6
#     4   8   8   8   4   8
#     4   7  12  23  41  64  91 124 154 188 240 298
#     4  10  22  37  51  71 103 140 175 212 257 306
#     4  10  18  29  48  73  99 128 168 210 247 296
#     4  10  19  31  50  75 102 131 168 213 258 308
#     4   9  17  29  47  70  99 130 160 202 256 302
#     4   9  16  28  46  70 100 131 164 205 258 305
#
# _framework density 17.575365000000001
#
# number of rings (size 3 to 8) (size 9 to 14) (size 15 to 20)
#    0.000    2.600    2.000    2.100    0.000    2.400 
#    0.000    0.000    0.000    1.200    0.000    2.800 
#    0.000    0.000    0.000    0.000    0.000    0.000 
#
# Total GULP energy -222812.831106 kJ/mol
# GULP energy per Si atom -5570.320778 kJ/mol
# Density = 1.753536 g / cm^3
# Si number density = 17.575365 Si / 1000 Ang^3
#
#
#
# Elastic Constant Matrix: (Units=GPa)
#
#
# Indices 1 2 3 4 5 6 
#
# 1 192.7974 18.5211 47.0439 0.0000 0.0000 0.0000
# 2 18.5211 8.5071 1.1786 0.0000 0.0000 0.0000
# 3 47.0439 1.1786 55.9947 0.0000 0.0000 0.0000
# 4 0.0000 0.0000 0.0000 42.7985 0.0000 0.0000
# 5 0.0000 0.0000 0.0000 0.0000 17.9488 0.0000
# 6 0.0000 0.0000 0.0000 0.0000 0.0000 24.0847
#
#
#
# Elastic Compliance Matrix: (Units=1/GPa)
#
#
# Indices 1 2 3 4 5 6 
#
# 1 0.008544 -0.017658 -0.006807 0.000000 0.000000 0.000000
# 2 -0.017658 0.154387 0.011586 0.000000 0.000000 0.000000
# 3 -0.006807 0.011586 0.023333 0.000000 0.000000 0.000000
# 4 0.000000 0.000000 0.000000 0.023365 0.000000 0.000000
# 5 0.000000 0.000000 0.000000 0.000000 0.055714 0.000000
# 6 0.000000 0.000000 0.000000 0.000000 0.000000 0.041520
#
#
# Mechanical properties :
#
#
# Convention : Reuss Voigt Hill
#
# Bulk Modulus (GPa) = 6.23026 43.42071 24.82548
# Shear Modulus (GPa) = 12.94921 29.67012 21.30966
#
# Velocity S-wave (km/s) = 2.71732 4.11319 3.48584
# Velocity P-wave (km/s) = 3.66028 6.87872 5.50974
#
# Compressibility (1/GPa) = 0.16050689
#
# Stress axis : x y z
#
# Youngs Moduli (GPa) = 117.04169 6.47722 42.85695
#
# Poissons Ratio (x) = 0.11438 0.29171
# Poissons Ratio (y) = 2.06675 -0.49654
# Poissons Ratio (z) = 0.79665 -0.07504
#
# Static dielectric constant tensor:
#      x y z
#    x 1.666730 0.000000 0.000000 
#    y 0.000000 1.605010 0.000000 
#    z 0.000000 0.000000 1.554010 
# 
# From -- ./inp_files/12196.got.cif
#   From: 2010.05.17/outbox.cif.g08.bks.cpg/sg51_7_cif.got.tgz:12196.got - 2010.06.03 11:52:47.
