data_PCOD9399407
_publ_section_title
;
Structure prediction by ZEFSAII (Michael W. Deem and Ramdas Pophale) SiO2 
 PCOD9399407
Probable space group: P M M A
;
_chemical_formula_sum "Si O2"
_cell_formula_units_Z 48
_cell_length_a 32.309129
_cell_length_b 7.847397
_cell_length_c 9.396051
_cell_angle_alpha 90.000000
_cell_angle_beta 90.000000
_cell_angle_gamma 90.000000
_cell_volume 2382.298843
_symmetry_space_group_name_H-M "P M M A"
_symmetry_group_IT_number 51
_symmetry_cell_setting 'orthorhombic'
loop_
_space_group_symop_operation_xyz
x,y,z
1/2-x,-y,z
1/2+x,-y,-z
-x,y,-z
-x,-y,-z
1/2+x,y,-z
1/2-x,y,z
x,-y,z
loop_
_atom_site_type_symbol
_atom_site_label
_atom_site_fract_x
_atom_site_fract_y
_atom_site_fract_z
Si Si1 0.660658 0.294049 0.337319
Si Si2 0.919207 0.795757 0.839191
Si Si3 0.079384 0.205041 0.837889
Si Si4 0.338364 0.296504 0.335328
Si Si5 0.998985 0.791119 0.663804
Si Si6 0.750000 0.305568 0.314060
Si Si7 0.750000 0.196130 0.632831
O O1 0.663553 0.500000 0.341707
O O2 0.621771 0.246694 0.242460
O O3 0.655187 0.234880 0.501149
O O4 0.705127 0.228651 0.279341
O O5 0.875852 0.759119 0.763463
O O6 0.957563 0.733003 0.744191
O O7 0.923703 0.000000 0.846857
O O8 0.920731 0.729332 0.000460
O O9 0.039774 0.265770 0.748414
O O10 0.076128 0.000000 0.844032
O O11 0.337498 0.500000 0.337836
O O12 0.292922 0.233875 0.288807
O O13 0.000000 0.736109 0.500000
O O14 0.998903 0.000000 0.663380
O O15 0.750000 0.500000 0.260681
O O16 0.750000 0.305881 0.487520
O O17 0.750000 0.000000 0.588099
#
# Coordination Sequence:
#
# PCOD9399407 Si02
#       7
#     8   8   8   8   8   4   4
#     4   9  18  33  53  75 101 135 175 217 258 308
#     4  10  20  34  52  76 106 139 176 217 262 314
#     4  10  20  33  51  77 108 139 171 214 266 316
#     4  10  20  35  54  77 106 140 177 217 262 309
#     4   9  17  31  53  78 103 134 173 217 265 314
#     4   8  16  32  51  74 105 138 174 216 260 304
#     4  10  18  30  53  82 107 134 172 218 264 308
#
# _framework density 20.148605
#
# number of rings (size 3 to 8) (size 9 to 14) (size 15 to 20)
#    0.000    2.500    0.000    3.750    0.000    7.333 
#    0.000    1.667    0.000    9.000    0.000    0.000 
#    0.000    0.000    0.000    0.000    0.000    0.000 
#
# Total GULP energy -267841.463272 kJ/mol
# GULP energy per Si atom -5580.030485 kJ/mol
# Density = 2.010275 g / cm^3
# Si number density = 20.148605 Si / 1000 Ang^3
#
#
#
# Elastic Constant Matrix: (Units=GPa)
#
#
# Indices 1 2 3 4 5 6 
#
# 1 234.0846 1.2557 119.0622 0.0000 0.0000 0.0000
# 2 1.2557 27.4031 9.7836 0.0000 0.0000 0.0000
# 3 119.0622 9.7836 149.6660 0.0000 0.0000 0.0000
# 4 0.0000 0.0000 0.0000 11.4425 0.0000 0.0000
# 5 0.0000 0.0000 0.0000 0.0000 -16.1500 0.0000
# 6 0.0000 0.0000 0.0000 0.0000 0.0000 40.6709
#
#
#
# Elastic Compliance Matrix: (Units=1/GPa)
#
#
# Indices 1 2 3 4 5 6 
#
# 1 0.007258 0.001770 -0.005890 0.000000 0.000000 0.000000
# 2 0.001770 0.037796 -0.003879 0.000000 0.000000 0.000000
# 3 -0.005890 -0.003879 0.011620 0.000000 0.000000 0.000000
# 4 0.000000 0.000000 0.000000 0.087394 0.000000 0.000000
# 5 0.000000 0.000000 0.000000 0.000000 -0.061920 0.000000
# 6 0.000000 0.000000 0.000000 0.000000 0.000000 0.024588
#
#
# Mechanical properties :
#
#
# Convention : Reuss Voigt Hill
#
# Bulk Modulus (GPa) = 24.58350 74.59517 49.58934
# Shear Modulus (GPa) = 36.68588 25.92951 31.30770
#
# Velocity S-wave (km/s) = 4.27167 3.59125 3.94615
# Velocity P-wave (km/s) = 6.04625 7.36878 6.74003
#
# Compressibility (1/GPa) = 0.04067769
#
# Stress axis : x y z
#
# Youngs Moduli (GPa) = 137.77646 26.45787 86.05501
#
# Poissons Ratio (x) = -0.04683 0.50684
# Poissons Ratio (y) = -0.24389 0.33380
# Poissons Ratio (z) = 0.81146 0.10263
#
# Static dielectric constant tensor:
#      x y z
#    x 1.714680 0.000000 0.000000 
#    y 0.000000 1.745680 0.000000 
#    z 0.000000 0.000000 1.685210 
# 
# From -- ./inp_files/12924.got.cif
#   From: 2010.05.17/outbox.cif.g08.bks.cpg/sg51_7_cif.got.tgz:12924.got - 2010.06.03 11:52:47.
