data_PCOD9400350
_publ_section_title
;
Structure prediction by ZEFSAII (Michael W. Deem and Ramdas Pophale) SiO2 
 PCOD9400350
Probable space group: P M M A
;
_chemical_formula_sum "Si O2"
_cell_formula_units_Z 64
_cell_length_a 31.059253
_cell_length_b 7.612534
_cell_length_c 15.225607
_cell_angle_alpha 90.000000
_cell_angle_beta 90.000000
_cell_angle_gamma 90.000000
_cell_volume 3599.936725
_symmetry_space_group_name_H-M "P M M A"
_symmetry_group_IT_number 51
_symmetry_cell_setting 'orthorhombic'
loop_
_space_group_symop_operation_xyz
x,y,z
1/2-x,-y,z
1/2+x,-y,-z
-x,y,-z
-x,-y,-z
1/2+x,y,-z
1/2-x,y,z
x,-y,z
loop_
_atom_site_type_symbol
_atom_site_label
_atom_site_fract_x
_atom_site_fract_y
_atom_site_fract_z
Si Si1 0.936951 0.298850 0.759813
Si Si2 0.538583 0.207628 0.062799
Si Si3 0.298508 0.285628 0.141866
Si Si4 0.887225 0.205323 0.591041
Si Si5 0.612659 0.712659 0.932812
Si Si6 0.955998 0.785090 0.450239
Si Si7 0.201765 0.288186 0.344937
Si Si8 0.468439 0.199482 0.742547
O O1 0.949862 0.500000 0.777037
O O2 0.904614 0.296329 0.678659
O O3 0.913576 0.229276 0.846267
O O4 0.979784 0.196055 0.736131
O O5 0.540136 0.281422 0.161699
O O6 0.529009 0.000000 0.072919
O O7 0.500000 0.279007 0.000000
O O8 0.584138 0.228945 0.014669
O O9 0.250000 0.229840 0.117537
O O10 0.298548 0.500000 0.141790
O O11 0.338077 0.228097 0.080803
O O12 0.306457 0.232118 0.243494
O O13 0.914913 0.267596 0.508190
O O14 0.836108 0.228106 0.591498
O O15 0.897066 0.000000 0.601395
O O16 0.613152 0.500000 0.932736
O O17 0.953798 0.720168 0.349956
O O18 0.000000 0.730434 0.500000
O O19 0.957504 0.000000 0.446222
O O20 0.250000 0.230027 0.368424
O O21 0.201457 0.500000 0.344255
O O22 0.451170 0.000000 0.744924
#
# Coordination Sequence:
#
# PCOD9400350 Si02
#       8
#     8   8   8   8   8   8   8   8
#     4  11  20  29  44  68  96 124 158 192 230 272
#     4  10  20  31  46  68  91 118 155 194 231 272
#     4   8  14  27  46  66  89 119 152 181 216 271
#     4  11  20  30  47  69  94 126 161 196 226 269
#     4  10  19  30  46  67  92 124 156 185 221 274
#     4   9  17  30  48  67  89 123 159 188 228 275
#     4   9  17  31  49  68  95 126 153 186 232 284
#     4  10  19  34  49  63  90 125 160 193 230 276
#
# _framework density 17.778089999999999
#
# number of rings (size 3 to 8) (size 9 to 14) (size 15 to 20)
#    0.000    2.250    3.750    1.500    0.000    1.500 
#    0.000    1.875    0.000    0.375    0.000    0.875 
#    0.000    5.000    0.000    0.000    0.000    0.000 
#
# Total GULP energy -356893.050914 kJ/mol
# GULP energy per Si atom -5576.453921 kJ/mol
# Density = 1.773763 g / cm^3
# Si number density = 17.778090 Si / 1000 Ang^3
#
#
#
# Elastic Constant Matrix: (Units=GPa)
#
#
# Indices 1 2 3 4 5 6 
#
# 1 126.1855 -2.5494 65.8013 0.0000 0.0000 0.0000
# 2 -2.5494 37.4132 2.9419 0.0000 0.0000 0.0000
# 3 65.8013 2.9419 136.0746 0.0000 0.0000 0.0000
# 4 0.0000 0.0000 0.0000 3.0421 0.0000 0.0000
# 5 0.0000 0.0000 0.0000 0.0000 25.1257 0.0000
# 6 0.0000 0.0000 0.0000 0.0000 0.0000 21.0818
#
#
#
# Elastic Compliance Matrix: (Units=1/GPa)
#
#
# Indices 1 2 3 4 5 6 
#
# 1 0.010645 0.001132 -0.005172 0.000000 0.000000 0.000000
# 2 0.001132 0.026894 -0.001129 0.000000 0.000000 0.000000
# 3 -0.005172 -0.001129 0.009874 0.000000 0.000000 0.000000
# 4 0.000000 0.000000 0.000000 0.328724 0.000000 0.000000
# 5 0.000000 0.000000 0.000000 0.000000 0.039800 0.000000
# 6 0.000000 0.000000 0.000000 0.000000 0.000000 0.047434
#
#
# Mechanical properties :
#
#
# Convention : Reuss Voigt Hill
#
# Bulk Modulus (GPa) = 26.97165 48.00676 37.48921
# Shear Modulus (GPa) = 10.28664 25.41522 17.85093
#
# Velocity S-wave (km/s) = 2.40805 3.78508 3.17219
# Velocity P-wave (km/s) = 4.78914 6.79444 5.87793
#
# Compressibility (1/GPa) = 0.03707596
#
# Stress axis : x y z
#
# Youngs Moduli (GPa) = 93.94367 37.18236 101.27321
#
# Poissons Ratio (x) = -0.04209 0.52377
# Poissons Ratio (y) = -0.10635 0.11432
# Poissons Ratio (z) = 0.48587 0.04197
#
# Static dielectric constant tensor:
#      x y z
#    x 1.614350 0.000000 0.000000 
#    y 0.000000 1.680140 0.000000 
#    z 0.000000 0.000000 1.613540 
# 
# From -- ./inp_files/26718.got.cif
#   From: 2010.05.17/outbox.cif.g08.bks.cpg/sg51_14_cif.got.tgz:26718.got - 2010.06.03 11:52:47.
