data_PCOD9400047
_publ_section_title
;
Structure prediction by ZEFSAII (Michael W. Deem and Ramdas Pophale) SiO2 
 PCOD9400047
Probable space group: P M M A
;
_chemical_formula_sum "Si O2"
_cell_formula_units_Z 64
_cell_length_a 36.413456
_cell_length_b 9.223471
_cell_length_c 12.855050
_cell_angle_alpha 90.000000
_cell_angle_beta 90.000000
_cell_angle_gamma 90.000000
_cell_volume 4317.477237
_symmetry_space_group_name_H-M "P M M A"
_symmetry_group_IT_number 51
_symmetry_cell_setting 'orthorhombic'
loop_
_space_group_symop_operation_xyz
x,y,z
1/2-x,-y,z
1/2+x,-y,-z
-x,y,-z
-x,-y,-z
1/2+x,y,-z
1/2-x,y,z
x,-y,z
loop_
_atom_site_type_symbol
_atom_site_label
_atom_site_fract_x
_atom_site_fract_y
_atom_site_fract_z
Si Si1 0.206088 0.328936 0.247618
Si Si2 0.424072 0.667083 0.385323
Si Si3 0.070998 0.333235 0.637946
Si Si4 0.707922 0.823420 0.193160
Si Si5 0.151061 0.172915 0.399083
Si Si6 0.854069 0.826268 0.355496
Si Si7 0.502447 0.832416 0.626705
Si Si8 0.705436 0.833453 0.961533
O O1 0.250000 0.306999 0.258287
O O2 0.198715 0.500000 0.253884
O O3 0.184157 0.243608 0.335796
O O4 0.194690 0.265684 0.135087
O O5 0.421908 0.500000 0.351307
O O6 0.427390 0.666408 0.511461
O O7 0.387067 0.754949 0.362007
O O8 0.460580 0.746509 0.345191
O O9 0.069522 0.500000 0.672106
O O10 0.108142 0.253814 0.672525
O O11 0.034156 0.246765 0.666384
O O12 0.750000 0.774325 0.210737
O O13 0.679444 0.779699 0.281898
O O14 0.695049 0.781114 0.077058
O O15 0.708985 0.000000 0.192231
O O16 0.154382 0.201900 0.522897
O O17 0.150023 0.000000 0.384612
O O18 0.859138 0.000000 0.344917
O O19 0.500000 0.831343 0.500000
O O20 0.503999 0.000000 0.658830
O O21 0.750000 0.836896 0.963671
O O22 0.693023 0.000000 0.946031
#
# Coordination Sequence:
#
# PCOD9400047 Si02
#       8
#     8   8   8   8   8   8   8   8
#     4  10  20  32  45  61  83 111 142 178 219 258
#     4   9  16  26  39  55  79 110 141 173 211 252
#     4   9  16  25  37  54  79 111 143 173 208 249
#     4   8  14  26  45  66  85 107 138 177 218 256
#     4  10  19  29  42  61  86 116 148 178 208 248
#     4   9  17  28  42  61  86 115 145 176 210 250
#     4   9  15  23  37  56  77 103 139 178 211 246
#     4   8  14  27  47  66  81 100 132 175 219 259
#
# _framework density 14.823472000000001
#
# number of rings (size 3 to 8) (size 9 to 14) (size 15 to 20)
#    0.000    3.000    0.000    2.625    0.000    6.250 
#    0.000    1.875    0.000    1.125    0.000    0.000 
#    0.000    1.000    0.000   10.750    0.000    7.875 
#
# Total GULP energy -356335.809974 kJ/mol
# GULP energy per Si atom -5567.747031 kJ/mol
# Density = 1.478973 g / cm^3
# Si number density = 14.823472 Si / 1000 Ang^3
#
#
#
# Elastic Constant Matrix: (Units=GPa)
#
#
# Indices 1 2 3 4 5 6 
#
# 1 85.9860 61.5013 43.4321 0.0000 0.0000 0.0000
# 2 61.5013 93.7823 43.7919 0.0000 0.0000 0.0000
# 3 43.4321 43.7919 50.7831 0.0000 0.0000 0.0000
# 4 0.0000 0.0000 0.0000 9.6131 0.0000 0.0000
# 5 0.0000 0.0000 0.0000 0.0000 -0.9694 0.0000
# 6 0.0000 0.0000 0.0000 0.0000 0.0000 24.9582
#
#
#
# Elastic Compliance Matrix: (Units=1/GPa)
#
#
# Indices 1 2 3 4 5 6 
#
# 1 0.025963 -0.011145 -0.012593 0.000000 0.000000 0.000000
# 2 -0.011145 0.022636 -0.009987 0.000000 0.000000 0.000000
# 3 -0.012593 -0.009987 0.039074 0.000000 0.000000 0.000000
# 4 0.000000 0.000000 0.000000 0.104025 0.000000 0.000000
# 5 0.000000 0.000000 0.000000 0.000000 -1.031543 0.000000
# 6 0.000000 0.000000 0.000000 0.000000 0.000000 0.040067
#
#
# Mechanical properties :
#
#
# Convention : Reuss Voigt Hill
#
# Bulk Modulus (GPa) = 49.45505 58.66692 54.06099
# Shear Modulus (GPa) = -6.89098 12.17544 2.64223
#
# Velocity S-wave (km/s) = -2.15842 2.86905 1.33654
# Velocity P-wave (km/s) = 5.21760 7.11605 6.23946
#
# Compressibility (1/GPa) = 0.02022038
#
# Stress axis : x y z
#
# Youngs Moduli (GPa) = 38.51706 44.17800 25.59216
#
# Poissons Ratio (x) = 0.49238 0.32229
# Poissons Ratio (y) = 0.42929 0.25560
# Poissons Ratio (z) = 0.48506 0.44122
#
# Static dielectric constant tensor:
#      x y z
#    x 1.482810 0.000000 0.000000 
#    y 0.000000 1.494870 0.000000 
#    z 0.000000 0.000000 1.475810 
# 
# From -- ./inp_files/26695.got.cif
#   From: 2010.05.17/outbox.cif.g08.bks.cpg/sg51_14_cif.got.tgz:26695.got - 2010.06.03 11:52:47.
