data_PCOD9400412
_publ_section_title
;
Structure prediction by ZEFSAII (Michael W. Deem and Ramdas Pophale) SiO2 
 PCOD9400412
Probable space group: P M M A
;
_chemical_formula_sum "Si O2"
_cell_formula_units_Z 64
_cell_length_a 15.740776
_cell_length_b 13.426273
_cell_length_c 18.421950
_cell_angle_alpha 90.000000
_cell_angle_beta 90.000000
_cell_angle_gamma 90.000000
_cell_volume 3893.294099
_symmetry_space_group_name_H-M "P M M A"
_symmetry_group_IT_number 51
_symmetry_cell_setting 'orthorhombic'
loop_
_space_group_symop_operation_xyz
x,y,z
1/2-x,-y,z
1/2+x,-y,-z
-x,y,-z
-x,-y,-z
1/2+x,y,-z
1/2-x,y,z
x,-y,z
loop_
_atom_site_type_symbol
_atom_site_label
_atom_site_fract_x
_atom_site_fract_y
_atom_site_fract_z
Si Si1 0.852726 0.113954 0.082745
Si Si2 0.397399 0.885641 0.497803
Si Si3 0.995274 0.617565 0.587331
Si Si4 0.153928 0.238637 0.362305
Si Si5 0.106041 0.883960 0.757482
Si Si6 0.093378 0.114957 0.230913
Si Si7 0.344366 0.742718 0.627515
Si Si8 0.651277 0.120743 0.926426
O O1 0.750000 0.110513 0.079208
O O2 0.876942 0.155504 0.161016
O O3 0.885968 0.000000 0.085346
O O4 0.880316 0.158268 0.005132
O O5 0.500000 0.877626 0.500000
O O6 0.365201 0.848787 0.420156
O O7 0.358727 0.814750 0.558674
O O8 0.374739 0.000000 0.511335
O O9 0.987958 0.500000 0.599593
O O10 0.915399 0.677345 0.619654
O O11 0.000000 0.634352 0.500000
O O12 0.080596 0.662499 0.622445
O O13 0.250000 0.274685 0.371920
O O14 0.141719 0.189796 0.283510
O O15 0.146247 0.812870 0.697810
O O16 0.004882 0.884900 0.745973
O O17 0.135970 0.000000 0.752538
O O18 0.101232 0.145313 0.146516
O O19 0.124828 0.000000 0.236809
O O20 0.250000 0.698941 0.624728
O O21 0.750000 0.149702 0.916395
O O22 0.649959 0.000000 0.932452
#
# Coordination Sequence:
#
# PCOD9400412 Si02
#       8
#     8   8   8   8   8   8   8   8
#     4   8  14  25  40  61  94 137 181 217 248 287
#     4  11  21  35  53  75 109 144 173 206 244 294
#     4  11  24  44  62  78 101 126 165 221 272 315
#     4  12  22  36  56  78 104 135 173 210 256 310
#     4  10  19  30  46  71 106 144 179 214 251 296
#     4  10  19  30  46  71 106 144 179 214 251 296
#     4  12  22  36  56  78 104 135 173 210 256 310
#     4   8  14  25  40  61  94 137 181 217 248 287
#
# _framework density 16.438521000000001
#
# number of rings (size 3 to 8) (size 9 to 14) (size 15 to 20)
#    0.000    1.750    3.750    2.625    0.000    6.500 
#    0.000    3.750    0.000    0.000    0.000    0.000 
#    0.000    2.000    0.000    5.250    0.000    0.250 
#
# Total GULP energy -357002.640079 kJ/mol
# GULP energy per Si atom -5578.166251 kJ/mol
# Density = 1.640111 g / cm^3
# Si number density = 16.438521 Si / 1000 Ang^3
#
#
#
# Elastic Constant Matrix: (Units=GPa)
#
#
# Indices 1 2 3 4 5 6 
#
# 1 91.2337 23.1353 11.2134 0.0000 0.0000 0.0000
# 2 23.1353 54.3991 11.1301 0.0000 0.0000 0.0000
# 3 11.2134 11.1301 87.1477 0.0000 0.0000 0.0000
# 4 0.0000 0.0000 0.0000 2.5632 0.0000 0.0000
# 5 0.0000 0.0000 0.0000 0.0000 25.8530 0.0000
# 6 0.0000 0.0000 0.0000 0.0000 0.0000 1.5783
#
#
#
# Elastic Compliance Matrix: (Units=1/GPa)
#
#
# Indices 1 2 3 4 5 6 
#
# 1 0.012361 -0.005064 -0.000944 0.000000 0.000000 0.000000
# 2 -0.005064 0.020950 -0.002024 0.000000 0.000000 0.000000
# 3 -0.000944 -0.002024 0.011855 0.000000 0.000000 0.000000
# 4 0.000000 0.000000 0.000000 0.390137 0.000000 0.000000
# 5 0.000000 0.000000 0.000000 0.000000 0.038680 0.000000
# 6 0.000000 0.000000 0.000000 0.000000 0.000000 0.633595
#
#
# Mechanical properties :
#
#
# Convention : Reuss Voigt Hill
#
# Bulk Modulus (GPa) = 34.36123 35.97090 35.16606
# Shear Modulus (GPa) = 4.41173 18.48568 11.44871
#
# Velocity S-wave (km/s) = 1.64000 3.35705 2.64191
# Velocity P-wave (km/s) = 4.95322 6.07914 5.54483
#
# Compressibility (1/GPa) = 0.02910257
#
# Stress axis : x y z
#
# Youngs Moduli (GPa) = 80.89986 47.73183 84.35461
#
# Poissons Ratio (x) = 0.24171 0.07961
# Poissons Ratio (y) = 0.40967 0.17074
# Poissons Ratio (z) = 0.07635 0.09661
#
# Static dielectric constant tensor:
#      x y z
#    x 1.590710 0.000000 0.000000 
#    y 0.000000 1.512130 0.000000 
#    z 0.000000 0.000000 1.580350 
# 
# From -- ./inp_files/29939.got.cif
#   From: 2010.05.17/outbox.cif.g08.bks.cpg/sg51_15_cif.got.tgz:29939.got - 2010.06.03 11:52:47.
