data_PCOD9400771
_publ_section_title
;
Structure prediction by ZEFSAII (Michael W. Deem and Ramdas Pophale) SiO2 
 PCOD9400771
Probable space group: P M M A
;
_chemical_formula_sum "Si O2"
_cell_formula_units_Z 64
_cell_length_a 9.230545
_cell_length_b 14.719871
_cell_length_c 31.983189
_cell_angle_alpha 90.000000
_cell_angle_beta 90.000000
_cell_angle_gamma 90.000000
_cell_volume 4345.633662
_symmetry_space_group_name_H-M "P M M A"
_symmetry_group_IT_number 51
_symmetry_cell_setting 'orthorhombic'
loop_
_space_group_symop_operation_xyz
x,y,z
1/2-x,-y,z
1/2+x,-y,-z
-x,y,-z
-x,-y,-z
1/2+x,y,-z
1/2-x,y,z
x,-y,z
loop_
_atom_site_type_symbol
_atom_site_label
_atom_site_fract_x
_atom_site_fract_y
_atom_site_fract_z
Si Si1 0.424363 0.207894 0.704529
Si Si2 0.916864 0.889452 0.874372
Si Si3 0.417209 0.110745 0.958001
Si Si4 0.576564 0.601499 0.330124
Si Si5 0.576185 0.209157 0.542084
Si Si6 0.423364 0.892586 0.789278
Si Si7 0.075943 0.398459 0.419750
Si Si8 0.923381 0.892878 0.627727
O O1 0.250000 0.198540 0.701516
O O2 0.461178 0.314313 0.699505
O O3 0.468370 0.163881 0.748533
O O4 0.496216 0.155491 0.665885
O O5 0.750000 0.860327 0.875246
O O6 0.001836 0.859497 0.915843
O O7 0.995855 0.863305 0.831457
O O8 0.918172 0.000000 0.875050
O O9 0.250000 0.139167 0.958371
O O10 0.418408 0.000000 0.957882
O O11 0.500000 0.139507 0.000000
O O12 0.750000 0.604786 0.337110
O O13 0.540852 0.500000 0.314413
O O14 0.497604 0.613458 0.374554
O O15 0.500000 0.176962 0.500000
O O16 0.750000 0.204230 0.537309
O O17 0.534388 0.314042 0.551350
O O18 0.536292 0.152348 0.583425
O O19 0.250000 0.883241 0.795058
O O20 0.452547 0.000000 0.782131
O O21 0.250000 0.394478 0.414461
O O22 0.038238 0.500000 0.435218
O O23 0.750000 0.880513 0.632719
O O24 0.954415 0.000000 0.627429
#
# Coordination Sequence:
#
# PCOD9400771 Si02
#       8
#     8   8   8   8   8   8   8   8
#     4  10  19  31  49  70  90 112 141 174 209 252
#     4   9  16  25  36  51  73 102 138 179 220 259
#     4   9  15  22  33  49  70  99 137 181 225 264
#     4   9  17  29  47  71  94 113 135 166 204 246
#     4  10  21  35  49  67  89 112 138 167 202 246
#     4   9  17  28  40  56  80 109 140 174 211 249
#     4   9  17  31  50  69  89 112 136 163 199 245
#     4  10  21  36  51  67  88 112 139 174 212 246
#
# _framework density 14.727425999999999
#
# number of rings (size 3 to 8) (size 9 to 14) (size 15 to 20)
#    0.000    2.625    1.250    1.125    0.000    5.750 
#    0.000    1.250    0.000    0.000    0.000    0.000 
#    0.000    0.000    0.000    0.000    0.000    0.625 
#
# Total GULP energy -356629.245900 kJ/mol
# GULP energy per Si atom -5572.331967 kJ/mol
# Density = 1.469391 g / cm^3
# Si number density = 14.727426 Si / 1000 Ang^3
#
#
#
# Elastic Constant Matrix: (Units=GPa)
#
#
# Indices 1 2 3 4 5 6 
#
# 1 42.9498 28.3734 55.9121 0.0000 0.0000 0.0000
# 2 28.3734 62.2185 52.2487 0.0000 0.0000 0.0000
# 3 55.9121 52.2487 144.7484 0.0000 0.0000 0.0000
# 4 0.0000 0.0000 0.0000 5.7633 0.0000 0.0000
# 5 0.0000 0.0000 0.0000 0.0000 27.2870 0.0000
# 6 0.0000 0.0000 0.0000 0.0000 0.0000 12.5214
#
#
#
# Elastic Compliance Matrix: (Units=1/GPa)
#
#
# Indices 1 2 3 4 5 6 
#
# 1 0.050492 -0.009539 -0.016060 0.000000 0.000000 0.000000
# 2 -0.009539 0.024865 -0.005291 0.000000 0.000000 0.000000
# 3 -0.016060 -0.005291 0.015022 0.000000 0.000000 0.000000
# 4 0.000000 0.000000 0.000000 0.173512 0.000000 0.000000
# 5 0.000000 0.000000 0.000000 0.000000 0.036648 0.000000
# 6 0.000000 0.000000 0.000000 0.000000 0.000000 0.079863
#
#
# Mechanical properties :
#
#
# Convention : Reuss Voigt Hill
#
# Bulk Modulus (GPa) = 34.96606 58.10945 46.53776
# Shear Modulus (GPa) = 11.06890 16.67316 13.87103
#
# Velocity S-wave (km/s) = 2.74448 3.36834 3.07229
# Velocity P-wave (km/s) = 5.81692 7.39391 6.65231
#
# Compressibility (1/GPa) = 0.02859916
#
# Stress axis : x y z
#
# Youngs Moduli (GPa) = 19.80511 40.21638 66.56871
#
# Poissons Ratio (x) = 0.38362 1.06912
# Poissons Ratio (y) = 0.18892 0.35221
# Poissons Ratio (z) = 0.31808 0.21278
#
# Static dielectric constant tensor:
#      x y z
#    x 1.492880 0.000000 0.000000 
#    y 0.000000 1.489170 0.000000 
#    z 0.000000 0.000000 1.465400 
# 
# From -- ./inp_files/37553.got.cif
#   From: 2010.05.17/outbox.cif.g08.bks.cpg/sg51_19_cif.got.tgz:37553.got - 2010.06.03 11:52:47.
