data_PCOD9400236
_publ_section_title
;
Structure prediction by ZEFSAII (Michael W. Deem and Ramdas Pophale) SiO2 
 PCOD9400236
Probable space group: P M M A
;
_chemical_formula_sum "Si O2"
_cell_formula_units_Z 64
_cell_length_a 9.791310
_cell_length_b 15.123167
_cell_length_c 25.830814
_cell_angle_alpha 90.000000
_cell_angle_beta 90.000000
_cell_angle_gamma 90.000000
_cell_volume 3824.913702
_symmetry_space_group_name_H-M "P M M A"
_symmetry_group_IT_number 51
_symmetry_cell_setting 'orthorhombic'
loop_
_space_group_symop_operation_xyz
x,y,z
1/2-x,-y,z
1/2+x,-y,-z
-x,y,-z
-x,-y,-z
1/2+x,y,-z
1/2-x,y,z
x,-y,z
loop_
_atom_site_type_symbol
_atom_site_label
_atom_site_fract_x
_atom_site_fract_y
_atom_site_fract_z
Si Si1 0.897271 0.602787 0.127531
Si Si2 0.416120 0.900568 0.164531
Si Si3 0.597659 0.340267 0.954864
Si Si4 0.092402 0.895587 0.354172
Si Si5 0.588710 0.770136 0.744926
Si Si6 0.594978 0.870815 0.953694
Si Si7 0.592301 0.398949 0.251850
Si Si8 0.907710 0.107533 0.451517
O O1 0.750000 0.642514 0.111520
O O2 0.896217 0.500000 0.112454
O O3 0.906789 0.605176 0.189213
O O4 0.025125 0.644554 0.099650
O O5 0.250000 0.897217 0.165090
O O6 0.461146 0.823068 0.203607
O O7 0.457490 0.888702 0.104571
O O8 0.455481 0.000000 0.181803
O O9 0.750000 0.377058 0.957359
O O10 0.604447 0.234821 0.960471
O O11 0.500000 0.376086 0.000000
O O12 0.250000 0.885331 0.372670
O O13 0.076280 0.838238 0.302666
O O14 0.986101 0.869038 0.398647
O O15 0.073789 0.000000 0.342802
O O16 0.750000 0.749648 0.751854
O O17 0.505501 0.681230 0.732691
O O18 0.750000 0.904384 0.957199
O O19 0.500000 0.903373 0.000000
O O20 0.750000 0.385953 0.268726
O O21 0.551618 0.500000 0.266149
O O22 0.750000 0.137336 0.453638
O O23 0.000000 0.137106 0.500000
O O24 0.905130 0.000000 0.453299
#
# Coordination Sequence:
#
# PCOD9400236 Si02
#       8
#     8   8   8   8   8   8   8   8
#     4   9  18  32  47  62  81 105 134 170 216 272
#     4   9  17  30  48  69  93 121 152 187 231 283
#     4  10  19  30  44  62  83 106 134 169 211 262
#     4   9  17  29  45  68 101 138 172 206 245 288
#     4  10  19  31  50  74  97 124 161 201 238 281
#     4   9  18  31  46  63  82 107 142 183 224 267
#     4   9  19  35  52  69  91 120 151 187 238 293
#     4   9  16  26  42  65  95 134 178 218 251 283
#
# _framework density 16.732403999999999
#
# number of rings (size 3 to 8) (size 9 to 14) (size 15 to 20)
#    0.000    2.750    0.000    2.625    0.000    6.500 
#    0.000    1.875    0.000    1.875    0.000    0.000 
#    0.000    0.500    0.000    1.625    0.000    2.375 
#
# Total GULP energy -356549.754245 kJ/mol
# GULP energy per Si atom -5571.089910 kJ/mol
# Density = 1.669432 g / cm^3
# Si number density = 16.732404 Si / 1000 Ang^3
#
#
#
# Elastic Constant Matrix: (Units=GPa)
#
#
# Indices 1 2 3 4 5 6 
#
# 1 95.9919 40.0397 43.3449 0.0000 0.0000 0.0000
# 2 40.0397 67.3990 24.9994 0.0000 0.0000 0.0000
# 3 43.3449 24.9994 61.6710 0.0000 0.0000 0.0000
# 4 0.0000 0.0000 0.0000 7.2240 0.0000 0.0000
# 5 0.0000 0.0000 0.0000 0.0000 24.1913 0.0000
# 6 0.0000 0.0000 0.0000 0.0000 0.0000 -13.9679
#
#
#
# Elastic Compliance Matrix: (Units=1/GPa)
#
#
# Indices 1 2 3 4 5 6 
#
# 1 0.017633 -0.006919 -0.009589 0.000000 0.000000 0.000000
# 2 -0.006919 0.020177 -0.003316 0.000000 0.000000 0.000000
# 3 -0.009589 -0.003316 0.024299 0.000000 0.000000 0.000000
# 4 0.000000 0.000000 0.000000 0.138427 0.000000 0.000000
# 5 0.000000 0.000000 0.000000 0.000000 0.041337 0.000000
# 6 0.000000 0.000000 0.000000 0.000000 0.000000 -0.071593
#
#
# Mechanical properties :
#
#
# Convention : Reuss Voigt Hill
#
# Bulk Modulus (GPa) = 44.52053 49.09220 46.80636
# Shear Modulus (GPa) = 22.99739 11.26801 17.13270
#
# Velocity S-wave (km/s) = 3.71134 2.59786 3.20335
# Velocity P-wave (km/s) = 6.71048 6.19692 6.45881
#
# Compressibility (1/GPa) = 0.02246155
#
# Stress axis : x y z
#
# Youngs Moduli (GPa) = 56.71113 49.56045 41.15426
#
# Poissons Ratio (x) = 0.34290 0.39462
# Poissons Ratio (y) = 0.39237 0.13649
# Poissons Ratio (z) = 0.54379 0.16437
#
# Static dielectric constant tensor:
#      x y z
#    x 1.595440 0.000000 0.000000 
#    y 0.000000 1.579710 0.000000 
#    z 0.000000 0.000000 1.557800 
# 
# From -- ./inp_files/36458.got.cif
#   From: 2010.05.17/outbox.cif.g08.bks.cpg/sg51_19_cif.got.tgz:36458.got - 2010.06.03 11:52:47.
