data_PCOD9400005
_publ_section_title
;
Structure prediction by ZEFSAII (Michael W. Deem and Ramdas Pophale) SiO2 
 PCOD9400005
Probable space group: P M M A
;
_chemical_formula_sum "Si O2"
_cell_formula_units_Z 64
_cell_length_a 29.182002
_cell_length_b 7.589842
_cell_length_c 16.286647
_cell_angle_alpha 90.000000
_cell_angle_beta 90.000000
_cell_angle_gamma 90.000000
_cell_volume 3607.277073
_symmetry_space_group_name_H-M "P M M A"
_symmetry_group_IT_number 51
_symmetry_cell_setting 'orthorhombic'
loop_
_space_group_symop_operation_xyz
x,y,z
1/2-x,-y,z
1/2+x,-y,-z
-x,y,-z
-x,-y,-z
1/2+x,y,-z
1/2-x,y,z
x,-y,z
loop_
_atom_site_type_symbol
_atom_site_label
_atom_site_fract_x
_atom_site_fract_y
_atom_site_fract_z
Si Si1 0.605332 0.706923 0.831785
Si Si2 0.446606 0.787094 0.493254
Si Si3 0.801324 0.712712 0.092433
Si Si4 0.562845 0.205056 0.330146
Si Si5 0.956879 0.706450 0.685352
Si Si6 0.446866 0.213704 0.000728
Si Si7 0.396695 0.207176 0.836949
Si Si8 0.198493 0.284651 0.097422
O O1 0.611077 0.500000 0.812691
O O2 0.574317 0.781225 0.758448
O O3 0.578478 0.722987 0.917598
O O4 0.656322 0.779341 0.847683
O O5 0.500000 0.734572 0.500000
O O6 0.425515 0.721683 0.579173
O O7 0.432329 0.726118 0.403065
O O8 0.444727 0.000000 0.492890
O O9 0.750000 0.769701 0.116000
O O10 0.801942 0.500000 0.092850
O O11 0.842674 0.775569 0.148460
O O12 0.809247 0.768585 0.997652
O O13 0.507630 0.211167 0.319284
O O14 0.585977 0.284197 0.249186
O O15 0.576507 0.000000 0.333548
O O16 0.964995 0.500000 0.700709
O O17 0.444895 0.000000 0.002371
O O18 0.500000 0.265918 0.000000
O O19 0.421813 0.278971 0.918221
O O20 0.408794 0.000000 0.835259
O O21 0.250000 0.230691 0.121171
O O22 0.197800 0.500000 0.097719
#
# Coordination Sequence:
#
# PCOD9400005 Si02
#       8
#     8   8   8   8   8   8   8   8
#     4  10  19  30  44  64  88 115 148 182 214 256
#     4   8  15  29  47  63  82 114 150 181 216 262
#     4   9  17  30  48  66  85 114 149 183 222 266
#     4   9  18  32  47  63  87 120 154 180 212 266
#     4  10  19  28  42  67  93 115 144 185 227 258
#     4  10  20  31  42  59  87 122 152 176 209 252
#     4  10  19  30  45  66  89 115 148 187 222 253
#     4   8  14  27  46  63  81 110 146 181 215 254
#
# _framework density 17.741914000000001
#
# number of rings (size 3 to 8) (size 9 to 14) (size 15 to 20)
#    0.000    2.750    1.250    2.625    0.000    5.250 
#    0.000    0.000    0.000    0.375    0.000    0.875 
#    0.000    3.000    0.000    0.000    0.000    0.000 
#
# Total GULP energy -356662.218602 kJ/mol
# GULP energy per Si atom -5572.847166 kJ/mol
# Density = 1.770153 g / cm^3
# Si number density = 17.741914 Si / 1000 Ang^3
#
#
#
# Elastic Constant Matrix: (Units=GPa)
#
#
# Indices 1 2 3 4 5 6 
#
# 1 80.7465 -14.0923 45.8398 0.0000 0.0000 0.0000
# 2 -14.0923 33.1514 -5.5984 0.0000 0.0000 0.0000
# 3 45.8398 -5.5984 121.6067 0.0000 0.0000 0.0000
# 4 0.0000 0.0000 0.0000 12.9285 0.0000 0.0000
# 5 0.0000 0.0000 0.0000 0.0000 10.0795 0.0000
# 6 0.0000 0.0000 0.0000 0.0000 0.0000 3.9763
#
#
#
# Elastic Compliance Matrix: (Units=1/GPa)
#
#
# Indices 1 2 3 4 5 6 
#
# 1 0.016920 0.006163 -0.006094 0.000000 0.000000 0.000000
# 2 0.006163 0.032646 -0.000820 0.000000 0.000000 0.000000
# 3 -0.006094 -0.000820 0.010483 0.000000 0.000000 0.000000
# 4 0.000000 0.000000 0.000000 0.077348 0.000000 0.000000
# 5 0.000000 0.000000 0.000000 0.000000 0.099211 0.000000
# 6 0.000000 0.000000 0.000000 0.000000 0.000000 0.251492
#
#
# Mechanical properties :
#
#
# Convention : Reuss Voigt Hill
#
# Bulk Modulus (GPa) = 17.08061 31.97810 24.52935
# Shear Modulus (GPa) = 9.82091 19.35388 14.58740
#
# Velocity S-wave (km/s) = 2.35530 3.30639 2.87051
# Velocity P-wave (km/s) = 4.12853 5.71310 4.98419
#
# Compressibility (1/GPa) = 0.05854592
#
# Stress axis : x y z
#
# Youngs Moduli (GPa) = 59.10244 30.63162 95.39542
#
# Poissons Ratio (x) = -0.18879 0.58136
# Poissons Ratio (y) = -0.36426 0.07826
# Poissons Ratio (z) = 0.36018 0.02513
#
# Static dielectric constant tensor:
#      x y z
#    x 1.593980 0.000000 0.000000 
#    y 0.000000 1.667190 0.000000 
#    z 0.000000 0.000000 1.637400 
# 
# From -- ./inp_files/26631.got.cif
#   From: 2010.05.17/outbox.cif.g08.bks.cpg/sg51_14_cif.got.tgz:26631.got - 2010.06.03 11:52:47.
