data_PCOD9400936
_publ_section_title
;
Structure prediction by ZEFSAII (Michael W. Deem and Ramdas Pophale) SiO2 
 PCOD9400936
Probable space group: P M M A
;
_chemical_formula_sum "Si O2"
_cell_formula_units_Z 64
_cell_length_a 8.888034
_cell_length_b 15.835444
_cell_length_c 23.603900
_cell_angle_alpha 90.000000
_cell_angle_beta 90.000000
_cell_angle_gamma 90.000000
_cell_volume 3322.153676
_symmetry_space_group_name_H-M "P M M A"
_symmetry_group_IT_number 51
_symmetry_cell_setting 'orthorhombic'
loop_
_space_group_symop_operation_xyz
x,y,z
1/2-x,-y,z
1/2+x,-y,-z
-x,y,-z
-x,-y,-z
1/2+x,y,-z
1/2-x,y,z
x,-y,z
loop_
_atom_site_type_symbol
_atom_site_label
_atom_site_fract_x
_atom_site_fract_y
_atom_site_fract_z
Si Si1 0.929273 0.729555 0.058130
Si Si2 0.083109 0.400592 0.728198
Si Si3 0.566668 0.402767 0.396288
Si Si4 0.421821 0.677085 0.170556
Si Si5 0.568795 0.777479 0.440716
Si Si6 0.569284 0.910301 0.100532
Si Si7 0.568386 0.098314 0.653162
Si Si8 0.575349 0.866676 0.782987
O O1 0.750000 0.730025 0.053817
O O2 0.986338 0.825876 0.069648
O O3 0.979983 0.679929 0.113984
O O4 0.000000 0.697912 0.000000
O O5 0.250000 0.361681 0.736101
O O6 0.101142 0.500000 0.721587
O O7 0.017933 0.375648 0.667294
O O8 0.983251 0.384997 0.782334
O O9 0.750000 0.406136 0.395170
O O10 0.516706 0.500000 0.409738
O O11 0.523568 0.321821 0.433410
O O12 0.250000 0.660978 0.154929
O O13 0.430105 0.767518 0.202296
O O14 0.500000 0.807993 0.500000
O O15 0.750000 0.781179 0.441503
O O16 0.508095 0.835722 0.389561
O O17 0.750000 0.907888 0.098206
O O18 0.519354 0.906251 0.166052
O O19 0.515980 0.000000 0.076442
O O20 0.750000 0.108530 0.649974
O O21 0.524883 0.115240 0.718988
O O22 0.533277 0.000000 0.639767
O O23 0.750000 0.894245 0.787548
#
# Coordination Sequence:
#
# PCOD9400936 Si02
#       8
#     8   8   8   8   8   8   8   8
#     4  10  20  34  50  68  94 130 173 215 253 296
#     4   9  17  31  53  80 108 136 165 198 241 297
#     4   8  16  33  57  84 112 141 172 207 254 315
#     4  10  19  31  50  76 105 135 167 206 252 303
#     4  11  23  38  57  79 105 139 179 222 264 310
#     4   9  18  31  47  70 100 131 163 203 251 303
#     4  10  21  37  56  77 104 139 178 223 272 317
#     4   9  18  32  51  76 103 131 165 207 258 311
#
# _framework density 19.264612
#
# number of rings (size 3 to 8) (size 9 to 14) (size 15 to 20)
#    0.000    2.500    0.000    3.000    0.000    3.500 
#    0.000    0.625    0.000    3.000    0.000    0.000 
#    0.000    0.000    0.000    0.000    0.000    0.000 
#
# Total GULP energy -356699.533825 kJ/mol
# GULP energy per Si atom -5573.430216 kJ/mol
# Density = 1.922077 g / cm^3
# Si number density = 19.264612 Si / 1000 Ang^3
#
#
#
# Elastic Constant Matrix: (Units=GPa)
#
#
# Indices 1 2 3 4 5 6 
#
# 1 32.8854 13.0726 19.6165 0.0000 0.0000 0.0000
# 2 13.0726 32.9311 31.6879 0.0000 0.0000 0.0000
# 3 19.6165 31.6879 99.2479 0.0000 0.0000 0.0000
# 4 0.0000 0.0000 0.0000 3.5040 0.0000 0.0000
# 5 0.0000 0.0000 0.0000 0.0000 25.2157 0.0000
# 6 0.0000 0.0000 0.0000 0.0000 0.0000 14.6000
#
#
#
# Elastic Compliance Matrix: (Units=1/GPa)
#
#
# Indices 1 2 3 4 5 6 
#
# 1 0.037070 -0.011065 -0.003794 0.000000 0.000000 0.000000
# 2 -0.011065 0.047136 -0.012863 0.000000 0.000000 0.000000
# 3 -0.003794 -0.012863 0.014932 0.000000 0.000000 0.000000
# 4 0.000000 0.000000 0.000000 0.285390 0.000000 0.000000
# 5 0.000000 0.000000 0.000000 0.000000 0.039658 0.000000
# 6 0.000000 0.000000 0.000000 0.000000 0.000000 0.068493
#
#
# Mechanical properties :
#
#
# Convention : Reuss Voigt Hill
#
# Bulk Modulus (GPa) = 22.88565 32.64648 27.76606
# Shear Modulus (GPa) = 8.88592 15.37643 12.13117
#
# Velocity S-wave (km/s) = 2.15002 2.82825 2.51213
# Velocity P-wave (km/s) = 4.25075 5.25818 4.78107
#
# Compressibility (1/GPa) = 0.04369551
#
# Stress axis : x y z
#
# Youngs Moduli (GPa) = 26.97571 21.21533 66.96810
#
# Poissons Ratio (x) = 0.23474 0.25409
# Poissons Ratio (y) = 0.29848 0.86138
# Poissons Ratio (z) = 0.10235 0.27288
#
# Static dielectric constant tensor:
#      x y z
#    x 1.664170 0.000000 0.000000 
#    y 0.000000 1.732580 0.000000 
#    z 0.000000 0.000000 1.658300 
# 
# From -- ./inp_files/32346.got.cif
#   From: 2010.05.17/outbox.cif.g08.bks.cpg/sg51_17_cif.got.tgz:32346.got - 2010.06.03 11:52:47.
