data_PCOD9400386
_publ_section_title
;
Structure prediction by ZEFSAII (Michael W. Deem and Ramdas Pophale) SiO2 
 PCOD9400386
Probable space group: P M M A
;
_chemical_formula_sum "Si O2"
_cell_formula_units_Z 48
_cell_length_a 26.858773
_cell_length_b 9.036157
_cell_length_c 12.192712
_cell_angle_alpha 90.000000
_cell_angle_beta 90.000000
_cell_angle_gamma 90.000000
_cell_volume 2959.172296
_symmetry_space_group_name_H-M "P M M A"
_symmetry_group_IT_number 51
_symmetry_cell_setting 'orthorhombic'
loop_
_space_group_symop_operation_xyz
x,y,z
1/2-x,-y,z
1/2+x,-y,-z
-x,y,-z
-x,-y,-z
1/2+x,y,-z
1/2-x,y,z
x,-y,z
loop_
_atom_site_type_symbol
_atom_site_label
_atom_site_fract_x
_atom_site_fract_y
_atom_site_fract_z
Si Si1 0.308005 0.821390 0.836061
Si Si2 0.556102 0.677955 0.534084
Si Si3 0.063998 0.322170 0.213235
Si Si4 0.613967 0.828298 0.343472
Si Si5 0.119271 0.323789 0.004651
Si Si6 0.037617 0.171950 0.856709
O O1 0.250000 0.783802 0.830671
O O2 0.338616 0.774012 0.727215
O O3 0.335172 0.752887 0.941825
O O4 0.313198 0.000000 0.842096
O O5 0.500000 0.727589 0.500000
O O6 0.556235 0.500000 0.527498
O O7 0.568151 0.720331 0.659372
O O8 0.596302 0.740275 0.449293
O O9 0.055674 0.500000 0.208944
O O10 0.015876 0.240933 0.164661
O O11 0.110329 0.289683 0.132940
O O12 0.568661 0.821379 0.256465
O O13 0.622274 0.000000 0.372446
O O14 0.123072 0.500000 0.991608
O O15 0.070023 0.264521 0.942717
O O16 0.034957 0.000000 0.889838
#
# Coordination Sequence:
#
# PCOD9400386 Si02
#       6
#     8   8   8   8   8   8
#     4   9  19  37  58  77  98 123 156 205 259 303
#     4  10  19  31  48  68  97 138 174 201 235 283
#     4  10  20  32  45  67 100 136 169 201 241 284
#     4   9  18  31  48  73  99 126 162 204 247 286
#     4  10  20  32  48  71 100 129 162 203 246 295
#     4  10  19  30  46  69  99 133 168 203 240 287
#
# _framework density 16.220752999999998
#
# number of rings (size 3 to 8) (size 9 to 14) (size 15 to 20)
#    0.000    2.333    1.667    2.500    0.000    7.333 
#    0.000    0.000    0.000    1.000    0.000    4.667 
#    0.000    0.000    0.000    0.000    0.000    0.000 
#
# Total GULP energy -267594.954326 kJ/mol
# GULP energy per Si atom -5574.894882 kJ/mol
# Density = 1.618383 g / cm^3
# Si number density = 16.220753 Si / 1000 Ang^3
#
#
#
# Elastic Constant Matrix: (Units=GPa)
#
#
# Indices 1 2 3 4 5 6 
#
# 1 113.8682 32.1024 67.1099 0.0000 0.0000 0.0000
# 2 32.1024 20.2025 28.9375 0.0000 0.0000 0.0000
# 3 67.1099 28.9375 108.4920 0.0000 0.0000 0.0000
# 4 0.0000 0.0000 0.0000 13.8985 0.0000 0.0000
# 5 0.0000 0.0000 0.0000 0.0000 7.8531 0.0000
# 6 0.0000 0.0000 0.0000 0.0000 0.0000 16.5250
#
#
#
# Elastic Compliance Matrix: (Units=1/GPa)
#
#
# Indices 1 2 3 4 5 6 
#
# 1 0.017794 -0.020243 -0.005608 0.000000 0.000000 0.000000
# 2 -0.020243 0.103131 -0.014986 0.000000 0.000000 0.000000
# 3 -0.005608 -0.014986 0.016683 0.000000 0.000000 0.000000
# 4 0.000000 0.000000 0.000000 0.071950 0.000000 0.000000
# 5 0.000000 0.000000 0.000000 0.000000 0.127339 0.000000
# 6 0.000000 0.000000 0.000000 0.000000 0.000000 0.060514
#
#
# Mechanical properties :
#
#
# Convention : Reuss Voigt Hill
#
# Bulk Modulus (GPa) = 17.87789 55.42914 36.65351
# Shear Modulus (GPa) = 10.04563 15.28284 12.66424
#
# Velocity S-wave (km/s) = 2.49129 3.07282 2.79721
# Velocity P-wave (km/s) = 4.39555 6.84365 5.75137
#
# Compressibility (1/GPa) = 0.05593502
#
# Stress axis : x y z
#
# Youngs Moduli (GPa) = 56.19868 9.69643 59.94136
#
# Poissons Ratio (x) = 0.19629 0.33612
# Poissons Ratio (y) = 1.13764 0.89826
# Poissons Ratio (z) = 0.31513 0.14531
#
# Static dielectric constant tensor:
#      x y z
#    x 1.523960 0.000000 0.000000 
#    y 0.000000 1.545720 0.000000 
#    z 0.000000 0.000000 1.561770 
# 
# From -- ./inp_files/18615.got.cif
#   From: 2010.05.17/outbox.cif.g08.bks.cpg/sg51_10_cif.got.tgz:18615.got - 2010.06.03 11:52:47.
