data_PCOD9400536
_publ_section_title
;
Structure prediction by ZEFSAII (Michael W. Deem and Ramdas Pophale) SiO2 
 PCOD9400536
Probable space group: P M M A
;
_chemical_formula_sum "Si O2"
_cell_formula_units_Z 40
_cell_length_a 15.105762
_cell_length_b 9.834651
_cell_length_c 15.340217
_cell_angle_alpha 90.000000
_cell_angle_beta 90.000000
_cell_angle_gamma 90.000000
_cell_volume 2278.941063
_symmetry_space_group_name_H-M "P M M A"
_symmetry_group_IT_number 51
_symmetry_cell_setting 'orthorhombic'
loop_
_space_group_symop_operation_xyz
x,y,z
1/2-x,-y,z
1/2+x,-y,-z
-x,y,-z
-x,-y,-z
1/2+x,y,-z
1/2-x,y,z
x,-y,z
loop_
_atom_site_type_symbol
_atom_site_label
_atom_site_fract_x
_atom_site_fract_y
_atom_site_fract_z
Si Si1 0.412860 0.656746 0.725734
Si Si2 0.351807 0.848628 0.191177
Si Si3 0.750000 0.164992 0.332742
Si Si4 0.250000 0.659082 0.494599
Si Si5 0.972483 0.651159 0.899811
Si Si6 0.397926 0.657719 0.349881
O O1 0.381196 0.500000 0.714681
O O2 0.337047 0.767314 0.711052
O O3 0.453487 0.666823 0.823724
O O4 0.495400 0.675788 0.657741
O O5 0.250000 0.856037 0.167488
O O6 0.404410 0.769938 0.117819
O O7 0.361129 0.759895 0.278076
O O8 0.386928 0.000000 0.206083
O O9 0.750000 0.230820 0.429355
O O10 0.750000 0.000000 0.331437
O O11 0.250000 0.500000 0.524347
O O12 0.339256 0.677224 0.436405
O O13 0.933935 0.500000 0.884076
O O14 0.000000 0.655553 0.000000
O O15 0.382708 0.500000 0.324655
#
# Coordination Sequence:
#
# PCOD9400536 Si02
#       6
#     8   8   4   4   8   8
#     4   9  19  38  61  82 110 145 184 232 283 331
#     4  10  19  30  49  80 117 149 173 209 271 336
#     4  12  26  40  54  77 112 157 196 227 270 331
#     4  10  20  36  60  87 114 143 184 235 282 331
#     4   9  19  37  60  84 106 136 184 235 278 324
#     4   9  18  34  60  87 109 140 183 233 281 324
#
# _framework density 17.552012000000001
#
# number of rings (size 3 to 8) (size 9 to 14) (size 15 to 20)
#    0.000    2.400    1.000    2.700    0.000    6.400 
#    1.800    4.000    0.000    0.000    0.000    0.000 
#    0.000    0.000    0.000    0.000    0.000    0.000 
#
# Total GULP energy -222716.265330 kJ/mol
# GULP energy per Si atom -5567.906633 kJ/mol
# Density = 1.751206 g / cm^3
# Si number density = 17.552012 Si / 1000 Ang^3
#
#
#
# Elastic Constant Matrix: (Units=GPa)
#
#
# Indices 1 2 3 4 5 6 
#
# 1 80.7134 66.4413 27.3600 0.0000 0.0000 0.0000
# 2 66.4413 143.7530 40.6894 0.0000 0.0000 0.0000
# 3 27.3600 40.6894 59.1881 0.0000 0.0000 0.0000
# 4 0.0000 0.0000 0.0000 171.0533 0.0000 0.0000
# 5 0.0000 0.0000 0.0000 0.0000 14.2069 0.0000
# 6 0.0000 0.0000 0.0000 0.0000 0.0000 24.1371
#
#
#
# Elastic Compliance Matrix: (Units=1/GPa)
#
#
# Indices 1 2 3 4 5 6 
#
# 1 0.020631 -0.008488 -0.003702 0.000000 0.000000 0.000000
# 2 -0.008488 0.012129 -0.004415 0.000000 0.000000 0.000000
# 3 -0.003702 -0.004415 0.021641 0.000000 0.000000 0.000000
# 4 0.000000 0.000000 0.000000 0.005846 0.000000 0.000000
# 5 0.000000 0.000000 0.000000 0.000000 0.070388 0.000000
# 6 0.000000 0.000000 0.000000 0.000000 0.000000 0.041430
#
#
# Mechanical properties :
#
#
# Convention : Reuss Voigt Hill
#
# Bulk Modulus (GPa) = 47.18545 61.40400 54.29473
# Shear Modulus (GPa) = 23.54723 51.82370 37.68546
#
# Velocity S-wave (km/s) = 3.66672 5.43966 4.63868
# Velocity P-wave (km/s) = 6.69836 8.63210 7.72597
#
# Compressibility (1/GPa) = 0.02119297
#
# Stress axis : x y z
#
# Youngs Moduli (GPa) = 48.47005 82.44770 46.20768
#
# Poissons Ratio (x) = 0.69980 0.17106
# Poissons Ratio (y) = 0.41140 0.20399
# Poissons Ratio (z) = 0.17943 0.36397
#
# Static dielectric constant tensor:
#      x y z
#    x 1.632710 0.000000 0.000000 
#    y 0.000000 1.594020 0.000000 
#    z 0.000000 0.000000 1.600520 
# 
# From -- ./inp_files/23764.got.cif
#   From: 2010.05.17/outbox.cif.g08.bks.cpg/sg51_12_cif.got.tgz:23764.got - 2010.06.03 11:52:47.
