data_PCOD9400828
_publ_section_title
;
Structure prediction by ZEFSAII (Michael W. Deem and Ramdas Pophale) SiO2 
 PCOD9400828
Probable space group: P M M A
;
_chemical_formula_sum "Si O2"
_cell_formula_units_Z 36
_cell_length_a 8.396404
_cell_length_b 24.736589
_cell_length_c 9.344766
_cell_angle_alpha 90.000000
_cell_angle_beta 90.000000
_cell_angle_gamma 90.000000
_cell_volume 1940.892898
_symmetry_space_group_name_H-M "P M M A"
_symmetry_group_IT_number 51
_symmetry_cell_setting 'orthorhombic'
loop_
_space_group_symop_operation_xyz
x,y,z
1/2-x,-y,z
1/2+x,-y,-z
-x,y,-z
-x,-y,-z
1/2+x,y,-z
1/2-x,y,z
x,-y,z
loop_
_atom_site_type_symbol
_atom_site_label
_atom_site_fract_x
_atom_site_fract_y
_atom_site_fract_z
Si Si1 0.442752 0.777430 0.338065
Si Si2 0.559249 0.441450 0.164703
Si Si3 0.942089 0.000000 0.835800
Si Si4 0.559673 0.672477 0.836578
Si Si5 0.442776 0.117761 0.163734
O O1 0.500000 0.776870 0.500000
O O2 0.250000 0.777476 0.335945
O O3 0.497198 0.723778 0.254116
O O4 0.498346 0.831579 0.256773
O O5 0.750000 0.439222 0.164494
O O6 0.509671 0.500000 0.227151
O O7 0.494894 0.385346 0.226261
O O8 0.500000 0.441703 0.000000
O O9 0.994917 0.941456 0.777883
O O10 0.750000 0.000000 0.832930
O O11 0.000000 0.000000 0.000000
O O12 0.750000 0.672722 0.840331
O O13 0.500000 0.676994 0.000000
O O14 0.250000 0.118434 0.162231
O O15 0.500000 0.123066 0.000000
#
# Coordination Sequence:
#
# PCOD9400828 Si02
#       5
#     8   8   4   8   8
#     4  10  22  36  49  68  96 129 164 200 240 284
#     4   9  16  26  43  69  98 125 153 189 234 281
#     4   8  14  26  47  72  98 124 152 192 237 280
#     4  10  19  31  49  73  97 124 159 197 238 284
#     4   9  17  31  51  75  99 125 159 197 238 284
#
# _framework density 18.548165000000001
#
# number of rings (size 3 to 8) (size 9 to 14) (size 15 to 20)
#    0.000    2.667    0.000    3.333    0.000    4.000 
#    0.000    0.556    0.000    0.667    0.000    0.000 
#    0.000    0.000    0.000    0.000    0.000    0.000 
#
# Total GULP energy -200543.564786 kJ/mol
# GULP energy per Si atom -5570.654577 kJ/mol
# Density = 1.850595 g / cm^3
# Si number density = 18.548165 Si / 1000 Ang^3
#
#
#
# Elastic Constant Matrix: (Units=GPa)
#
#
# Indices 1 2 3 4 5 6 
#
# 1 20.5736 30.2724 7.9286 0.0000 0.0000 0.0000
# 2 30.2724 252.4520 78.4701 0.0000 0.0000 0.0000
# 3 7.9286 78.4701 63.1483 0.0000 0.0000 0.0000
# 4 0.0000 0.0000 0.0000 -3.2868 0.0000 0.0000
# 5 0.0000 0.0000 0.0000 0.0000 21.1806 0.0000
# 6 0.0000 0.0000 0.0000 0.0000 0.0000 14.0692
#
#
#
# Elastic Compliance Matrix: (Units=1/GPa)
#
#
# Indices 1 2 3 4 5 6 
#
# 1 0.059217 -0.007804 0.002263 0.000000 0.000000 0.000000
# 2 -0.007804 0.007483 -0.008318 0.000000 0.000000 0.000000
# 3 0.002263 -0.008318 0.025888 0.000000 0.000000 0.000000
# 4 0.000000 0.000000 0.000000 -0.304247 0.000000 0.000000
# 5 0.000000 0.000000 0.000000 0.000000 0.047213 0.000000
# 6 0.000000 0.000000 0.000000 0.000000 0.000000 0.071077
#
#
# Mechanical properties :
#
#
# Convention : Reuss Voigt Hill
#
# Bulk Modulus (GPa) = 15.41574 63.27956 39.34765
# Shear Modulus (GPa) = -113.56747 21.02613 -46.27067
#
# Velocity S-wave (km/s) = -7.83335 3.37054 -5.00004
# Velocity P-wave (km/s) = 8.57239 7.02409 3.47477
#
# Compressibility (1/GPa) = 0.06486875
#
# Stress axis : x y z
#
# Youngs Moduli (GPa) = 16.88694 133.64418 38.62781
#
# Poissons Ratio (x) = 1.04301 -0.08741
# Poissons Ratio (y) = 0.13179 0.32131
# Poissons Ratio (z) = -0.03821 1.11168
#
# Static dielectric constant tensor:
#      x y z
#    x 1.640230 0.000000 0.000000 
#    y 0.000000 1.724410 0.000000 
#    z 0.000000 0.000000 1.616070 
# 
# From -- ./inp_files/5232.got.cif
#   From: 2010.05.17/outbox.cif.g08.bks.cpg/sg51_3_cif.got.tgz:5232.got - 2010.06.03 11:52:47.
