data_PCOD9400548
_publ_section_title
;
Structure prediction by ZEFSAII (Michael W. Deem and Ramdas Pophale) SiO2 
 PCOD9400548
Probable space group: P M M A
;
_chemical_formula_sum "Si O2"
_cell_formula_units_Z 40
_cell_length_a 7.854954
_cell_length_b 8.113445
_cell_length_c 29.919818
_cell_angle_alpha 90.000000
_cell_angle_beta 90.000000
_cell_angle_gamma 90.000000
_cell_volume 1906.812060
_symmetry_space_group_name_H-M "P M M A"
_symmetry_group_IT_number 51
_symmetry_cell_setting 'orthorhombic'
loop_
_space_group_symop_operation_xyz
x,y,z
1/2-x,-y,z
1/2+x,-y,-z
-x,y,-z
-x,-y,-z
1/2+x,y,-z
1/2-x,y,z
x,-y,z
loop_
_atom_site_type_symbol
_atom_site_label
_atom_site_fract_x
_atom_site_fract_y
_atom_site_fract_z
Si Si1 0.045451 0.312209 0.389083
Si Si2 0.549424 0.000000 0.448196
Si Si3 0.547827 0.322753 0.101964
Si Si4 0.947574 0.698257 0.709194
Si Si5 0.544172 0.000000 0.051874
Si Si6 0.955689 0.189254 0.804622
O O1 0.250000 0.324026 0.384790
O O2 0.985834 0.500000 0.400178
O O3 0.977849 0.263089 0.339624
O O4 0.011174 0.167317 0.423893
O O5 0.500000 0.000000 0.500000
O O6 0.750000 0.000000 0.444872
O O7 0.750000 0.325884 0.093488
O O8 0.475542 0.500000 0.088281
O O9 0.477206 0.164259 0.076229
O O10 0.522427 0.297606 0.154840
O O11 0.750000 0.755810 0.708383
O O12 0.947109 0.500000 0.712201
O O13 0.021905 0.766318 0.755200
O O14 0.750000 0.000000 0.056455
O O15 0.500000 0.000000 0.000000
O O16 0.750000 0.207129 0.803951
O O17 0.998184 0.000000 0.814514
#
# Coordination Sequence:
#
# PCOD9400548 Si02
#       6
#     8   4   8   8   4   8
#     4   9  19  38  64  90 117 152 193 238 288 342
#     4  12  26  42  61  86 115 151 192 241 295 350
#     4  10  21  38  58  79 108 148 185 220 271 329
#     4   8  15  29  51  81 114 147 184 226 272 321
#     4  10  22  40  59  80 107 135 174 229 279 336
#     4  10  19  30  51  85 118 150 188 229 269 313
#
# _framework density 20.977419999999999
#
# number of rings (size 3 to 8) (size 9 to 14) (size 15 to 20)
#    0.000    2.400    1.000    2.700    1.400    3.200 
#    0.000    1.000    0.000    1.200    0.000    0.000 
#    0.000    0.000    0.000    0.000    0.000    0.000 
#
# Total GULP energy -223169.365463 kJ/mol
# GULP energy per Si atom -5579.234137 kJ/mol
# Density = 2.092967 g / cm^3
# Si number density = 20.977420 Si / 1000 Ang^3
#
#
#
# Elastic Constant Matrix: (Units=GPa)
#
#
# Indices 1 2 3 4 5 6 
#
# 1 25.5457 12.5713 -4.6121 0.0000 0.0000 0.0000
# 2 12.5713 159.2920 96.8053 0.0000 0.0000 0.0000
# 3 -4.6121 96.8053 142.3274 0.0000 0.0000 0.0000
# 4 0.0000 0.0000 0.0000 -26.7167 0.0000 0.0000
# 5 0.0000 0.0000 0.0000 0.0000 19.6698 0.0000
# 6 0.0000 0.0000 0.0000 0.0000 0.0000 8.4164
#
#
#
# Elastic Compliance Matrix: (Units=1/GPa)
#
#
# Indices 1 2 3 4 5 6 
#
# 1 0.043945 -0.007387 0.006448 0.000000 0.000000 0.000000
# 2 -0.007387 0.011943 -0.008362 0.000000 0.000000 0.000000
# 3 0.006448 -0.008362 0.012923 0.000000 0.000000 0.000000
# 4 0.000000 0.000000 0.000000 -0.037430 0.000000 0.000000
# 5 0.000000 0.000000 0.000000 0.000000 0.050839 0.000000
# 6 0.000000 0.000000 0.000000 0.000000 0.000000 0.118816
#
#
# Mechanical properties :
#
#
# Convention : Reuss Voigt Hill
#
# Bulk Modulus (GPa) = 19.91693 59.63267 39.77480
# Shear Modulus (GPa) = 21.15296 15.10062 18.12679
#
# Velocity S-wave (km/s) = 3.17893 2.68591 2.94276
# Velocity P-wave (km/s) = 4.79470 6.17314 5.52706
#
# Compressibility (1/GPa) = 0.05020853
#
# Stress axis : x y z
#
# Youngs Moduli (GPa) = 22.75575 83.73307 77.38314
#
# Poissons Ratio (x) = 0.61853 -0.49899
# Poissons Ratio (y) = 0.16809 0.64710
# Poissons Ratio (z) = -0.14674 0.70020
#
# Static dielectric constant tensor:
#      x y z
#    x 1.773650 0.000000 0.000000 
#    y 0.000000 1.821000 0.000000 
#    z 0.000000 0.000000 1.723500 
# 
# From -- ./inp_files/36027.got.cif
#   From: 2010.05.17/outbox.cif.g08.bks.cpg/sg51_19_cif.got.tgz:36027.got - 2010.06.03 11:52:47.
