data_PCOD9400974
_publ_section_title
;
Structure prediction by ZEFSAII (Michael W. Deem and Ramdas Pophale) SiO2 
 PCOD9400974
Probable space group: P M M A
;
_chemical_formula_sum "Si O2"
_cell_formula_units_Z 52
_cell_length_a 9.334957
_cell_length_b 16.621638
_cell_length_c 18.079651
_cell_angle_alpha 90.000000
_cell_angle_beta 90.000000
_cell_angle_gamma 90.000000
_cell_volume 2805.279798
_symmetry_space_group_name_H-M "P M M A"
_symmetry_group_IT_number 51
_symmetry_cell_setting 'orthorhombic'
loop_
_space_group_symop_operation_xyz
x,y,z
1/2-x,-y,z
1/2+x,-y,-z
-x,y,-z
-x,-y,-z
1/2+x,y,-z
1/2-x,y,z
x,-y,z
loop_
_atom_site_type_symbol
_atom_site_label
_atom_site_fract_x
_atom_site_fract_y
_atom_site_fract_z
Si Si1 0.085392 0.156910 0.799900
Si Si2 0.085690 0.000000 0.204868
Si Si3 0.583803 0.685600 0.812208
Si Si4 0.083151 0.323856 0.365491
Si Si5 0.416203 0.000000 0.385375
Si Si6 0.912534 0.403896 0.070971
Si Si7 0.415763 0.163126 0.619415
Si Si8 0.076848 0.500000 0.422311
O O1 0.250000 0.156460 0.823270
O O2 0.085012 0.159909 0.709610
O O3 0.999202 0.232624 0.829875
O O4 0.000013 0.077571 0.820472
O O5 0.250000 0.000000 0.181287
O O6 0.086204 0.000000 0.295178
O O7 0.750000 0.687215 0.833730
O O8 0.577274 0.678266 0.723606
O O9 0.499774 0.617077 0.855537
O O10 0.250000 0.312919 0.387371
O O11 0.036196 0.414210 0.386240
O O12 0.992406 0.248647 0.397290
O O13 0.498663 0.917103 0.406175
O O14 0.250000 0.000000 0.410297
O O15 0.750000 0.372628 0.073636
O O16 0.904629 0.500000 0.063983
O O17 0.000000 0.372623 0.000000
O O18 0.250000 0.161350 0.594681
O O19 0.250000 0.500000 0.426721
O O20 0.000000 0.500000 0.500000
#
# Coordination Sequence:
#
# PCOD9400974 Si02
#       8
#     8   4   8   8   4   8   8   4
#     4   9  16  26  40  62  95 130 164 204 251 299
#     4   9  15  23  37  59  90 127 168 205 246 297
#     4  10  19  31  51  75 101 132 168 209 255 303
#     4   9  19  34  52  74 103 136 173 215 262 311
#     4   9  15  23  39  63  96 135 168 199 248 307
#     4  10  21  36  52  72  99 131 167 207 251 303
#     4   9  16  26  42  67  99 131 167 209 254 301
#     4  10  22  40  58  78 103 136 177 218 259 308
#
# _framework density 18.536473999999998
#
# number of rings (size 3 to 8) (size 9 to 14) (size 15 to 20)
#    0.000    2.615    0.000    2.308    1.077    7.692 
#    0.000    0.000    0.000    0.000    0.000    1.077 
#    0.000    0.000    0.000    0.000    0.000    0.000 
#
# Total GULP energy -289860.753040 kJ/mol
# GULP energy per Si atom -5574.245251 kJ/mol
# Density = 1.849428 g / cm^3
# Si number density = 18.536474 Si / 1000 Ang^3
#
#
#
# Elastic Constant Matrix: (Units=GPa)
#
#
# Indices 1 2 3 4 5 6 
#
# 1 165.2160 81.3276 24.8078 0.0000 0.0000 0.0000
# 2 81.3276 132.1158 11.8720 0.0000 0.0000 0.0000
# 3 24.8078 11.8720 11.0649 0.0000 0.0000 0.0000
# 4 0.0000 0.0000 0.0000 -33.4349 0.0000 0.0000
# 5 0.0000 0.0000 0.0000 0.0000 14.2531 0.0000
# 6 0.0000 0.0000 0.0000 0.0000 0.0000 33.0443
#
#
#
# Elastic Compliance Matrix: (Units=1/GPa)
#
#
# Indices 1 2 3 4 5 6 
#
# 1 0.011831 -0.005422 -0.020708 0.000000 0.000000 0.000000
# 2 -0.005422 0.010862 0.000503 0.000000 0.000000 0.000000
# 3 -0.020708 0.000503 0.136265 0.000000 0.000000 0.000000
# 4 0.000000 0.000000 0.000000 -0.029909 0.000000 0.000000
# 5 0.000000 0.000000 0.000000 0.000000 0.070160 0.000000
# 6 0.000000 0.000000 0.000000 0.000000 0.000000 0.030262
#
#
# Mechanical properties :
#
#
# Convention : Reuss Voigt Hill
#
# Bulk Modulus (GPa) = 9.28482 60.49014 34.88748
# Shear Modulus (GPa) = 15.79140 15.46512 15.62826
#
# Velocity S-wave (km/s) = 2.92192 2.89157 2.90678
# Velocity P-wave (km/s) = 4.05010 6.62209 5.48887
#
# Compressibility (1/GPa) = 0.10770269
#
# Stress axis : x y z
#
# Youngs Moduli (GPa) = 84.52275 92.06658 7.33864
#
# Poissons Ratio (x) = 0.49920 0.15197
# Poissons Ratio (y) = 0.45829 -0.00369
# Poissons Ratio (z) = 1.75031 -0.04628
#
# Static dielectric constant tensor:
#      x y z
#    x 1.629710 0.000000 0.000000 
#    y 0.000000 1.658950 0.000000 
#    z 0.000000 0.000000 1.624670 
# 
# From -- ./inp_files/31857.got.cif
#   From: 2010.05.17/outbox.cif.g08.bks.cpg/sg51_16_cif.got.tgz:31857.got - 2010.06.03 11:52:47.
