data_PCOD9400420
_publ_section_title
;
Structure prediction by ZEFSAII (Michael W. Deem and Ramdas Pophale) SiO2 
 PCOD9400420
Probable space group: P M M A
;
_chemical_formula_sum "Si O2"
_cell_formula_units_Z 56
_cell_length_a 14.228070
_cell_length_b 7.478098
_cell_length_c 30.854194
_cell_angle_alpha 90.000000
_cell_angle_beta 90.000000
_cell_angle_gamma 90.000000
_cell_volume 3282.852358
_symmetry_space_group_name_H-M "P M M A"
_symmetry_group_IT_number 51
_symmetry_cell_setting 'orthorhombic'
loop_
_space_group_symop_operation_xyz
x,y,z
1/2-x,-y,z
1/2+x,-y,-z
-x,y,-z
-x,-y,-z
1/2+x,y,-z
1/2-x,y,z
x,-y,z
loop_
_atom_site_type_symbol
_atom_site_label
_atom_site_fract_x
_atom_site_fract_y
_atom_site_fract_z
Si Si1 0.642113 0.211572 0.534625
Si Si2 0.861014 0.285846 0.699017
Si Si3 0.636616 0.000000 0.769498
Si Si4 0.050720 0.284159 0.067060
Si Si5 0.143458 0.715575 0.562664
Si Si6 0.521854 0.704665 0.616867
Si Si7 0.643727 0.283552 0.025331
Si Si8 0.863902 0.000000 0.869276
O O1 0.750000 0.275952 0.535308
O O2 0.607400 0.242654 0.485702
O O3 0.585495 0.296067 0.573751
O O4 0.641130 0.000000 0.542316
O O5 0.750000 0.252836 0.690582
O O6 0.871228 0.500000 0.704960
O O7 0.889764 0.173830 0.741255
O O8 0.920734 0.222257 0.657480
O O9 0.605242 0.000000 0.819070
O O10 0.750000 0.000000 0.771457
O O11 0.055167 0.500000 0.073094
O O12 0.094977 0.172640 0.105938
O O13 0.942206 0.231678 0.056872
O O14 0.109601 0.239533 0.023374
O O15 0.250000 0.782080 0.565931
O O16 0.145051 0.500000 0.565708
O O17 0.074967 0.787307 0.599747
O O18 0.501410 0.500000 0.629058
O O19 0.750000 0.219226 0.033873
O O20 0.646053 0.500000 0.027065
O O21 0.750000 0.000000 0.871743
#
# Coordination Sequence:
#
# PCOD9400420 Si02
#       8
#     8   8   4   8   8   8   8   4
#     4  10  20  30  41  62  92 122 148 175 210 256
#     4   9  18  33  52  73  95 117 146 187 235 290
#     4   9  20  36  51  70  97 123 149 190 246 298
#     4   9  18  31  47  71 103 137 174 213 247 285
#     4   9  18  32  46  61  88 121 148 178 213 252
#     4  10  19  30  47  69  87 111 149 183 217 266
#     4   8  14  27  47  71 103 141 176 210 248 286
#     4  11  22  33  48  72  98 129 170 208 245 299
#
# _framework density 17.058337000000002
#
# number of rings (size 3 to 8) (size 9 to 14) (size 15 to 20)
#    0.000    2.714    0.000    2.571    1.000    6.286 
#    0.000    2.500    0.000    0.000    0.000    2.000 
#    0.000    4.571    0.000    0.000    0.000    0.000 
#
# Total GULP energy -312154.994098 kJ/mol
# GULP energy per Si atom -5574.196323 kJ/mol
# Density = 1.701951 g / cm^3
# Si number density = 17.058337 Si / 1000 Ang^3
#
#
#
# Elastic Constant Matrix: (Units=GPa)
#
#
# Indices 1 2 3 4 5 6 
#
# 1 106.5407 22.9882 61.5627 0.0000 0.0000 0.0000
# 2 22.9882 65.5010 35.5491 0.0000 0.0000 0.0000
# 3 61.5627 35.5491 133.4248 0.0000 0.0000 0.0000
# 4 0.0000 0.0000 0.0000 27.8187 0.0000 0.0000
# 5 0.0000 0.0000 0.0000 0.0000 24.3842 0.0000
# 6 0.0000 0.0000 0.0000 0.0000 0.0000 7.6188
#
#
#
# Elastic Compliance Matrix: (Units=1/GPa)
#
#
# Indices 1 2 3 4 5 6 
#
# 1 0.012926 -0.001519 -0.005559 0.000000 0.000000 0.000000
# 2 -0.001519 0.018026 -0.004102 0.000000 0.000000 0.000000
# 3 -0.005559 -0.004102 0.011153 0.000000 0.000000 0.000000
# 4 0.000000 0.000000 0.000000 0.035947 0.000000 0.000000
# 5 0.000000 0.000000 0.000000 0.000000 0.041010 0.000000
# 6 0.000000 0.000000 0.000000 0.000000 0.000000 0.131255
#
#
# Mechanical properties :
#
#
# Convention : Reuss Voigt Hill
#
# Bulk Modulus (GPa) = 50.64750 60.62960 55.63855
# Shear Modulus (GPa) = 17.90443 24.32210 21.11327
#
# Velocity S-wave (km/s) = 3.24327 3.78010 3.52193
# Velocity P-wave (km/s) = 6.61667 7.39404 7.01613
#
# Compressibility (1/GPa) = 0.01974431
#
# Stress axis : x y z
#
# Youngs Moduli (GPa) = 77.36133 55.47435 89.66294
#
# Poissons Ratio (x) = 0.08429 0.49848
# Poissons Ratio (y) = 0.11754 0.36778
# Poissons Ratio (z) = 0.43009 0.22755
#
# Static dielectric constant tensor:
#      x y z
#    x 1.616910 0.000000 0.000000 
#    y 0.000000 1.625210 0.000000 
#    z 0.000000 0.000000 1.543870 
# 
# From -- ./inp_files/33607.got.cif
#   From: 2010.05.17/outbox.cif.g08.bks.cpg/sg51_17_cif.got.tgz:33607.got - 2010.06.03 11:52:47.
