data_PCOD9400946
_publ_section_title
;
Structure prediction by ZEFSAII (Michael W. Deem and Ramdas Pophale) SiO2 
 PCOD9400946
Probable space group: P M M A
;
_chemical_formula_sum "Si O2"
_cell_formula_units_Z 48
_cell_length_a 32.023148
_cell_length_b 9.063452
_cell_length_c 9.252390
_cell_angle_alpha 90.000000
_cell_angle_beta 90.000000
_cell_angle_gamma 90.000000
_cell_volume 2685.416124
_symmetry_space_group_name_H-M "P M M A"
_symmetry_group_IT_number 51
_symmetry_cell_setting 'orthorhombic'
loop_
_space_group_symop_operation_xyz
x,y,z
1/2-x,-y,z
1/2+x,-y,-z
-x,y,-z
-x,-y,-z
1/2+x,y,-z
1/2-x,y,z
x,-y,z
loop_
_atom_site_type_symbol
_atom_site_label
_atom_site_fract_x
_atom_site_fract_y
_atom_site_fract_z
Si Si1 0.168947 0.822480 0.163343
Si Si2 0.668898 0.322472 0.149435
Si Si3 0.087813 0.176267 0.348329
Si Si4 0.496497 0.330489 0.324456
Si Si5 0.750000 0.822235 0.649953
Si Si6 0.250000 0.322285 0.663733
Si Si7 0.411644 0.321625 0.663015
O O1 0.126359 0.781751 0.246118
O O2 0.208771 0.779581 0.260370
O O3 0.169720 0.000000 0.148291
O O4 0.171146 0.750021 0.006895
O O5 0.669463 0.500000 0.134294
O O6 0.708753 0.280033 0.246475
O O7 0.626347 0.281766 0.232764
O O8 0.043509 0.233438 0.287697
O O9 0.093786 0.248413 0.506251
O O10 0.086913 0.000000 0.363332
O O11 0.500000 0.329491 0.500000
O O12 0.489454 0.500000 0.279649
O O13 0.542514 0.280475 0.275745
O O14 0.750000 0.750191 0.492997
O O15 0.750000 0.000000 0.634765
O O16 0.250000 0.500000 0.648156
O O17 0.412183 0.500000 0.644280
#
# Coordination Sequence:
#
# PCOD9400946 Si02
#       7
#     8   8   8   8   4   4   8
#     4  10  22  37  52  75 106 137 171 208 247 300
#     4  10  21  36  54  77 105 136 169 207 254 304
#     4  10  19  31  50  77 104 131 169 214 256 298
#     4   8  15  29  49  72  99 132 170 211 252 296
#     4  10  21  38  58  78 102 136 173 204 244 304
#     4  10  21  36  56  84 108 126 163 216 258 296
#     4   9  18  33  52  75 102 133 172 212 250 301
#
# _framework density 17.874326
#
# number of rings (size 3 to 8) (size 9 to 14) (size 15 to 20)
#    0.000    2.500    0.000    3.000    0.000    6.333 
#    0.000    0.833    0.000    5.000    0.000    0.000 
#    0.000    0.000    0.000    0.000    0.000    0.000 
#
# Total GULP energy -267804.366410 kJ/mol
# GULP energy per Si atom -5579.257634 kJ/mol
# Density = 1.783364 g / cm^3
# Si number density = 17.874326 Si / 1000 Ang^3
#
#
#
# Elastic Constant Matrix: (Units=GPa)
#
#
# Indices 1 2 3 4 5 6 
#
# 1 208.6604 52.9298 105.4576 0.0000 0.0000 0.0000
# 2 52.9298 24.8149 44.9328 0.0000 0.0000 0.0000
# 3 105.4576 44.9328 134.0407 0.0000 0.0000 0.0000
# 4 0.0000 0.0000 0.0000 32.2160 0.0000 0.0000
# 5 0.0000 0.0000 0.0000 0.0000 -4.6469 0.0000
# 6 0.0000 0.0000 0.0000 0.0000 0.0000 25.5637
#
#
#
# Elastic Compliance Matrix: (Units=1/GPa)
#
#
# Indices 1 2 3 4 5 6 
#
# 1 0.010638 -0.019173 -0.001942 0.000000 0.000000 0.000000
# 2 -0.019173 0.137095 -0.030872 0.000000 0.000000 0.000000
# 3 -0.001942 -0.030872 0.019337 0.000000 0.000000 0.000000
# 4 0.000000 0.000000 0.000000 0.031040 0.000000 0.000000
# 5 0.000000 0.000000 0.000000 0.000000 -0.215195 0.000000
# 6 0.000000 0.000000 0.000000 0.000000 0.000000 0.039118
#
#
# Mechanical properties :
#
#
# Convention : Reuss Voigt Hill
#
# Bulk Modulus (GPa) = 15.84908 86.01737 50.93323
# Shear Modulus (GPa) = 34.00469 21.57294 27.78882
#
# Velocity S-wave (km/s) = 4.36642 3.47785 3.94722
# Velocity P-wave (km/s) = 5.85722 8.02217 7.02361
#
# Compressibility (1/GPa) = 0.06309516
#
# Stress axis : x y z
#
# Youngs Moduli (GPa) = 94.00662 7.29422 51.71448
#
# Poissons Ratio (x) = 0.13986 0.10042
# Poissons Ratio (y) = 1.80243 1.59651
# Poissons Ratio (z) = 0.18255 0.22519
#
# Static dielectric constant tensor:
#      x y z
#    x 1.635160 0.000000 0.000000 
#    y 0.000000 1.602180 0.000000 
#    z 0.000000 0.000000 1.562570 
# 
# From -- ./inp_files/12960.got.cif
#   From: 2010.05.17/outbox.cif.g08.bks.cpg/sg51_7_cif.got.tgz:12960.got - 2010.06.03 11:52:47.
