data_PCOD9400130
_publ_section_title
;
Structure prediction by ZEFSAII (Michael W. Deem and Ramdas Pophale) SiO2 
 PCOD9400130
Probable space group: P M M A
;
_chemical_formula_sum "Si O2"
_cell_formula_units_Z 56
_cell_length_a 20.026467
_cell_length_b 9.305888
_cell_length_c 18.169793
_cell_angle_alpha 90.000000
_cell_angle_beta 90.000000
_cell_angle_gamma 90.000000
_cell_volume 3386.196374
_symmetry_space_group_name_H-M "P M M A"
_symmetry_group_IT_number 51
_symmetry_cell_setting 'orthorhombic'
loop_
_space_group_symop_operation_xyz
x,y,z
1/2-x,-y,z
1/2+x,-y,-z
-x,y,-z
-x,-y,-z
1/2+x,y,-z
1/2-x,y,z
x,-y,z
loop_
_atom_site_type_symbol
_atom_site_label
_atom_site_fract_x
_atom_site_fract_y
_atom_site_fract_z
Si Si1 0.436087 0.834065 0.656627
Si Si2 0.547352 0.331806 0.196574
Si Si3 0.097575 0.165774 0.365602
Si Si4 0.671678 0.831751 0.919008
Si Si5 0.067994 0.828889 0.954792
Si Si6 0.612893 0.667765 0.780877
Si Si7 0.919157 0.333889 0.488924
O O1 0.423911 0.752159 0.732989
O O2 0.516771 0.834106 0.644982
O O3 0.406482 0.749743 0.586929
O O4 0.414767 0.000000 0.658976
O O5 0.564620 0.500000 0.199089
O O6 0.568494 0.258998 0.120418
O O7 0.466590 0.321063 0.202741
O O8 0.126159 0.246517 0.294430
O O9 0.110485 0.251135 0.440908
O O10 0.118934 0.000000 0.369574
O O11 0.750000 0.817990 0.933304
O O12 0.650492 0.738053 0.849318
O O13 0.656592 0.000000 0.902639
O O14 0.628433 0.792868 0.990451
O O15 0.069442 0.000000 0.938630
O O16 0.000000 0.799768 0.000000
O O17 0.629090 0.500000 0.772370
O O18 0.898222 0.500000 0.485840
O O19 0.000000 0.333815 0.500000
#
# Coordination Sequence:
#
# PCOD9400130 Si02
#       7
#     8   8   8   8   8   8   8
#     4   9  16  25  38  57  85 120 156 192 233 280
#     4  10  19  29  44  67  93 121 156 198 241 285
#     4   9  16  25  39  58  83 118 158 193 228 275
#     4  10  21  36  52  70  94 124 158 198 244 292
#     4  10  19  32  51  71  92 121 159 199 241 291
#     4  10  19  30  45  66  92 121 156 196 238 283
#     4   9  15  23  35  54  84 119 154 191 233 278
#
# _framework density 16.537728999999999
#
# number of rings (size 3 to 8) (size 9 to 14) (size 15 to 20)
#    0.000    2.429    1.429    2.143    0.000    7.429 
#    0.000    0.000    0.000    0.000    0.000    0.000 
#    0.000    1.143    0.000    6.857    0.000    6.143 
#
# Total GULP energy -312290.594393 kJ/mol
# GULP energy per Si atom -5576.617757 kJ/mol
# Density = 1.650009 g / cm^3
# Si number density = 16.537729 Si / 1000 Ang^3
#
#
#
# Elastic Constant Matrix: (Units=GPa)
#
#
# Indices 1 2 3 4 5 6 
#
# 1 20.4117 32.4409 30.4813 0.0000 0.0000 0.0000
# 2 32.4409 155.7767 120.2364 0.0000 0.0000 0.0000
# 3 30.4813 120.2364 184.8047 0.0000 0.0000 0.0000
# 4 0.0000 0.0000 0.0000 13.0374 0.0000 0.0000
# 5 0.0000 0.0000 0.0000 0.0000 6.9702 0.0000
# 6 0.0000 0.0000 0.0000 0.0000 0.0000 10.0639
#
#
#
# Elastic Compliance Matrix: (Units=1/GPa)
#
#
# Indices 1 2 3 4 5 6 
#
# 1 0.074997 -0.012194 -0.004436 0.000000 0.000000 0.000000
# 2 -0.012194 0.014878 -0.007668 0.000000 0.000000 0.000000
# 3 -0.004436 -0.007668 0.011132 0.000000 0.000000 0.000000
# 4 0.000000 0.000000 0.000000 0.076702 0.000000 0.000000
# 5 0.000000 0.000000 0.000000 0.000000 0.143468 0.000000
# 6 0.000000 0.000000 0.000000 0.000000 0.000000 0.099365
#
#
# Mechanical properties :
#
#
# Convention : Reuss Voigt Hill
#
# Bulk Modulus (GPa) = 19.08066 80.81227 49.94647
# Shear Modulus (GPa) = 10.27520 17.86995 14.07258
#
# Velocity S-wave (km/s) = 2.49533 3.29075 2.92025
# Velocity P-wave (km/s) = 4.45701 7.96305 6.45272
#
# Compressibility (1/GPa) = 0.05240908
#
# Stress axis : x y z
#
# Youngs Moduli (GPa) = 13.33389 67.21422 89.83167
#
# Poissons Ratio (x) = 0.81964 0.39849
# Poissons Ratio (y) = 0.16260 0.68886
# Poissons Ratio (z) = 0.05915 0.51542
#
# Static dielectric constant tensor:
#      x y z
#    x 1.532840 0.000000 0.000000 
#    y 0.000000 1.556110 0.000000 
#    z 0.000000 0.000000 1.536360 
# 
# From -- ./inp_files/30404.got.cif
#   From: 2010.05.17/outbox.cif.g08.bks.cpg/sg51_16_cif.got.tgz:30404.got - 2010.06.03 11:52:47.
