data_PCOD9400628
_publ_section_title
;
Structure prediction by ZEFSAII (Michael W. Deem and Ramdas Pophale) SiO2 
 PCOD9400628
Probable space group: P M M A
;
_chemical_formula_sum "Si O2"
_cell_formula_units_Z 64
_cell_length_a 21.723315
_cell_length_b 7.722859
_cell_length_c 21.112181
_cell_angle_alpha 90.000000
_cell_angle_beta 90.000000
_cell_angle_gamma 90.000000
_cell_volume 3541.908243
_symmetry_space_group_name_H-M "P M M A"
_symmetry_group_IT_number 51
_symmetry_cell_setting 'orthorhombic'
loop_
_space_group_symop_operation_xyz
x,y,z
1/2-x,-y,z
1/2+x,-y,-z
-x,y,-z
-x,-y,-z
1/2+x,y,-z
1/2-x,y,z
x,-y,z
loop_
_atom_site_type_symbol
_atom_site_label
_atom_site_fract_x
_atom_site_fract_y
_atom_site_fract_z
Si Si1 0.556298 0.292618 0.956628
Si Si2 0.453825 0.295928 0.552554
Si Si3 0.484521 0.197851 0.691165
Si Si4 0.644074 0.210387 0.151558
Si Si5 0.337937 0.199220 0.712662
Si Si6 0.816404 0.299214 0.426712
Si Si7 0.316616 0.705244 0.987824
Si Si8 0.496715 0.209114 0.826820
O O1 0.557571 0.500000 0.966096
O O2 0.541488 0.258033 0.883550
O O3 0.500000 0.224198 0.000000
O O4 0.622125 0.222058 0.979226
O O5 0.500000 0.221584 0.500000
O O6 0.446634 0.500000 0.539380
O O7 0.484667 0.281201 0.622028
O O8 0.383513 0.222910 0.554275
O O9 0.412122 0.195736 0.708975
O O10 0.513280 0.273155 0.755868
O O11 0.505770 0.000000 0.683072
O O12 0.675520 0.267807 0.217294
O O13 0.674506 0.272085 0.087372
O O14 0.572326 0.267008 0.153443
O O15 0.645188 0.000000 0.152409
O O16 0.317030 0.294580 0.649905
O O17 0.317474 0.000000 0.707685
O O18 0.750000 0.222169 0.447005
O O19 0.816183 0.500000 0.446623
O O20 0.250000 0.778615 0.006409
O O21 0.315263 0.500000 0.001287
O O22 0.494343 0.000000 0.822253
#
# Coordination Sequence:
#
# PCOD9400628 Si02
#       8
#     8   8   8   8   8   8   8   8
#     4  10  19  31  47  67  86 110 149 189 223 265
#     4   9  17  29  45  66  91 118 147 179 213 253
#     4   8  15  28  44  65  91 115 143 176 214 259
#     4   9  17  29  44  62  85 114 147 180 214 254
#     4   8  15  27  41  58  83 114 145 176 206 240
#     4   9  17  28  41  59  84 114 146 177 209 246
#     4  10  21  34  44  58  85 116 144 181 228 271
#     4   9  17  29  47  69  90 113 144 186 227 260
#
# _framework density 18.069355999999999
#
# number of rings (size 3 to 8) (size 9 to 14) (size 15 to 20)
#    0.000    3.000    1.250    1.500    0.000    3.000 
#    0.000    5.000    0.000    0.000    0.000    0.875 
#    0.000    5.000    0.000    0.000    0.000    0.000 
#
# Total GULP energy -356328.655239 kJ/mol
# GULP energy per Si atom -5567.635238 kJ/mol
# Density = 1.802823 g / cm^3
# Si number density = 18.069356 Si / 1000 Ang^3
#
#
#
# Elastic Constant Matrix: (Units=GPa)
#
#
# Indices 1 2 3 4 5 6 
#
# 1 126.2940 9.7281 72.1147 0.0000 0.0000 0.0000
# 2 9.7281 26.0337 -3.6356 0.0000 0.0000 0.0000
# 3 72.1147 -3.6356 100.6462 0.0000 0.0000 0.0000
# 4 0.0000 0.0000 0.0000 18.6681 0.0000 0.0000
# 5 0.0000 0.0000 0.0000 0.0000 0.7104 0.0000
# 6 0.0000 0.0000 0.0000 0.0000 0.0000 -1.3786
#
#
#
# Elastic Compliance Matrix: (Units=1/GPa)
#
#
# Indices 1 2 3 4 5 6 
#
# 1 0.014545 -0.006926 -0.010672 0.000000 0.000000 0.000000
# 2 -0.006926 0.041904 0.006476 0.000000 0.000000 0.000000
# 3 -0.010672 0.006476 0.017817 0.000000 0.000000 0.000000
# 4 0.000000 0.000000 0.000000 0.053567 0.000000 0.000000
# 5 0.000000 0.000000 0.000000 0.000000 1.407648 0.000000
# 6 0.000000 0.000000 0.000000 0.000000 0.000000 -0.725391
#
#
# Mechanical properties :
#
#
# Convention : Reuss Voigt Hill
#
# Bulk Modulus (GPa) = 19.22250 45.48760 32.35505
# Shear Modulus (GPa) = 5.88461 15.25109 10.56785
#
# Velocity S-wave (km/s) = 1.80658 2.90837 2.42099
# Velocity P-wave (km/s) = 3.87465 6.04208 5.07541
#
# Compressibility (1/GPa) = 0.05202237
#
# Stress axis : x y z
#
# Youngs Moduli (GPa) = 68.75040 23.86404 56.12771
#
# Poissons Ratio (x) = 0.16527 0.59900
# Poissons Ratio (y) = 0.47614 -0.36348
# Poissons Ratio (z) = 0.73372 -0.15454
#
# Static dielectric constant tensor:
#      x y z
#    x 1.670640 0.000000 0.000000 
#    y 0.000000 1.670860 0.000000 
#    z 0.000000 0.000000 1.628670 
# 
# From -- ./inp_files/34138.got.cif
#   From: 2010.05.17/outbox.cif.g08.bks.cpg/sg51_18_cif.got.tgz:34138.got - 2010.06.03 11:52:47.
