data_PCOD9400326
_publ_section_title
;
Structure prediction by ZEFSAII (Michael W. Deem and Ramdas Pophale) SiO2 
 PCOD9400326
Probable space group: P M M A
;
_chemical_formula_sum "Si O2"
_cell_formula_units_Z 64
_cell_length_a 8.776044
_cell_length_b 25.194075
_cell_length_c 15.094318
_cell_angle_alpha 90.000000
_cell_angle_beta 90.000000
_cell_angle_gamma 90.000000
_cell_volume 3337.418777
_symmetry_space_group_name_H-M "P M M A"
_symmetry_group_IT_number 51
_symmetry_cell_setting 'orthorhombic'
loop_
_space_group_symop_operation_xyz
x,y,z
1/2-x,-y,z
1/2+x,-y,-z
-x,y,-z
-x,-y,-z
1/2+x,y,-z
1/2-x,y,z
x,-y,z
loop_
_atom_site_type_symbol
_atom_site_label
_atom_site_fract_x
_atom_site_fract_y
_atom_site_fract_z
Si Si1 0.924632 0.832512 0.157552
Si Si2 0.566457 0.940947 0.789021
Si Si3 0.568886 0.087886 0.589596
Si Si4 0.429794 0.563243 0.096138
Si Si5 0.567912 0.313817 0.594229
Si Si6 0.426472 0.199158 0.635537
Si Si7 0.429951 0.270222 0.092724
Si Si8 0.931719 0.646841 0.227923
O O1 0.750000 0.830143 0.126027
O O2 0.927364 0.811418 0.259040
O O3 0.986168 0.892421 0.161361
O O4 0.029012 0.791581 0.104743
O O5 0.750000 0.934132 0.793841
O O6 0.524291 0.937041 0.684337
O O7 0.527722 0.000000 0.821190
O O8 0.500000 0.064192 0.500000
O O9 0.750000 0.085586 0.583484
O O10 0.512253 0.148604 0.595854
O O11 0.250000 0.576096 0.096248
O O12 0.447036 0.500000 0.109035
O O13 0.513373 0.596078 0.172307
O O14 0.500000 0.576260 0.000000
O O15 0.500000 0.330969 0.500000
O O16 0.750000 0.314012 0.592487
O O17 0.507678 0.253966 0.612134
O O18 0.505918 0.348770 0.675442
O O19 0.250000 0.200830 0.606065
O O20 0.250000 0.278496 0.095091
O O21 0.508808 0.303017 0.171098
O O22 0.500000 0.288791 0.000000
O O23 0.750000 0.648943 0.234818
#
# Coordination Sequence:
#
# PCOD9400326 Si02
#       8
#     8   8   8   8   8   8   8   8
#     4  10  20  35  56  81 111 143 183 232 286 348
#     4   9  19  35  53  72  97 135 182 229 283 348
#     4  10  19  30  45  67  97 132 176 227 284 343
#     4  10  21  39  64  95 130 169 212 255 302 357
#     4  12  24  38  57  82 116 159 206 252 301 353
#     4  10  19  33  52  74 105 143 187 235 286 344
#     4  12  24  39  61  89 123 159 194 235 292 357
#     4  12  24  40  61  90 128 165 206 252 300 354
#
# _framework density 19.176497000000001
#
# number of rings (size 3 to 8) (size 9 to 14) (size 15 to 20)
#    0.000    1.375    1.250    5.625    0.000    2.750 
#    0.000    0.000    0.000    0.750    0.000    0.000 
#    0.000    0.000    0.000    0.000    0.000    0.000 
#
# Total GULP energy -357852.938155 kJ/mol
# GULP energy per Si atom -5591.452159 kJ/mol
# Density = 1.913285 g / cm^3
# Si number density = 19.176497 Si / 1000 Ang^3
#
#
#
# Elastic Constant Matrix: (Units=GPa)
#
#
# Indices 1 2 3 4 5 6 
#
# 1 105.1469 34.3821 31.1786 0.0000 0.0000 0.0000
# 2 34.3821 80.0150 33.1344 0.0000 0.0000 0.0000
# 3 31.1786 33.1344 83.9795 0.0000 0.0000 0.0000
# 4 0.0000 0.0000 0.0000 -12.7019 0.0000 0.0000
# 5 0.0000 0.0000 0.0000 0.0000 28.6931 0.0000
# 6 0.0000 0.0000 0.0000 0.0000 0.0000 22.9785
#
#
#
# Elastic Compliance Matrix: (Units=1/GPa)
#
#
# Indices 1 2 3 4 5 6 
#
# 1 0.011589 -0.003823 -0.002794 0.000000 0.000000 0.000000
# 2 -0.003823 0.016199 -0.004972 0.000000 0.000000 0.000000
# 3 -0.002794 -0.004972 0.014907 0.000000 0.000000 0.000000
# 4 0.000000 0.000000 0.000000 -0.078729 0.000000 0.000000
# 5 0.000000 0.000000 0.000000 0.000000 0.034852 0.000000
# 6 0.000000 0.000000 0.000000 0.000000 0.000000 0.043519
#
#
# Mechanical properties :
#
#
# Convention : Reuss Voigt Hill
#
# Bulk Modulus (GPa) = 51.23806 51.83682 51.53744
# Shear Modulus (GPa) = 69.42390 19.15704 44.29047
#
# Velocity S-wave (km/s) = 6.02339 3.16410 4.81107
# Velocity P-wave (km/s) = 8.66903 6.35915 7.60233
#
# Compressibility (1/GPa) = 0.01951674
#
# Stress axis : x y z
#
# Youngs Moduli (GPa) = 86.28821 61.73124 67.08281
#
# Poissons Ratio (x) = 0.23597 0.18745
# Poissons Ratio (y) = 0.32985 0.33355
# Poissons Ratio (z) = 0.24112 0.30694
#
# Static dielectric constant tensor:
#      x y z
#    x 1.639070 0.000000 0.000000 
#    y 0.000000 1.663810 0.000000 
#    z 0.000000 0.000000 1.663690 
# 
# From -- ./inp_files/22336.got.cif
#   From: 2010.05.17/outbox.cif.g08.bks.cpg/sg51_12_cif.got.tgz:22336.got - 2010.06.03 11:52:47.
