data_PCOD9400427
_publ_section_title
;
Structure prediction by ZEFSAII (Michael W. Deem and Ramdas Pophale) SiO2 
 PCOD9400427
Probable space group: P M M A
;
_chemical_formula_sum "Si O2"
_cell_formula_units_Z 64
_cell_length_a 8.877046
_cell_length_b 19.334897
_cell_length_c 24.196975
_cell_angle_alpha 90.000000
_cell_angle_beta 90.000000
_cell_angle_gamma 90.000000
_cell_volume 4153.090635
_symmetry_space_group_name_H-M "P M M A"
_symmetry_group_IT_number 51
_symmetry_cell_setting 'orthorhombic'
loop_
_space_group_symop_operation_xyz
x,y,z
1/2-x,-y,z
1/2+x,-y,-z
-x,y,-z
-x,-y,-z
1/2+x,y,-z
1/2-x,y,z
x,-y,z
loop_
_atom_site_type_symbol
_atom_site_label
_atom_site_fract_x
_atom_site_fract_y
_atom_site_fract_z
Si Si1 0.568924 0.919828 0.220896
Si Si2 0.929572 0.579325 0.891695
Si Si3 0.570633 0.286101 0.058201
Si Si4 0.071361 0.288951 0.273361
Si Si5 0.568741 0.162530 0.332524
Si Si6 0.428855 0.794959 0.159773
Si Si7 0.928336 0.579051 0.230116
Si Si8 0.568391 0.919668 0.441036
O O1 0.750000 0.914534 0.214197
O O2 0.532818 0.889387 0.281727
O O3 0.488775 0.870274 0.176913
O O4 0.526248 0.000000 0.216740
O O5 0.750000 0.591066 0.893111
O O6 0.959882 0.500000 0.908947
O O7 0.012020 0.636762 0.927707
O O8 0.987397 0.586419 0.828695
O O9 0.750000 0.285538 0.055630
O O10 0.512411 0.237538 0.107617
O O11 0.500000 0.264377 0.000000
O O12 0.250000 0.296510 0.279553
O O13 0.041759 0.253057 0.213587
O O14 0.006340 0.235501 0.317950
O O15 0.991593 0.362964 0.270837
O O16 0.750000 0.170630 0.333201
O O17 0.520632 0.128331 0.390109
O O18 0.250000 0.795619 0.150178
O O19 0.750000 0.589224 0.221181
O O20 0.952224 0.500000 0.249030
O O21 0.500000 0.899435 0.500000
O O22 0.750000 0.917183 0.444204
O O23 0.526118 0.000000 0.430369
#
# Coordination Sequence:
#
# PCOD9400427 Si02
#       8
#     8   8   8   8   8   8   8   8
#     4   9  17  30  50  74  97 123 156 194 236 283
#     4  10  20  34  51  71  96 124 155 192 232 276
#     4  12  24  37  54  71  92 121 156 195 235 282
#     4  10  19  30  47  69  96 126 157 197 242 284
#     4   9  17  29  46  68  97 130 166 204 240 280
#     4  10  20  34  50  70  96 122 152 189 235 288
#     4  10  19  30  47  70  95 126 161 193 231 283
#     4   9  17  29  45  66  95 134 174 209 244 282
#
# _framework density 15.410209999999999
#
# number of rings (size 3 to 8) (size 9 to 14) (size 15 to 20)
#    0.000    2.125    1.250    3.000    0.000    5.000 
#    0.000    0.000    0.000    2.625    0.000    0.000 
#    0.000    0.500    0.000    1.625    0.000    2.000 
#
# Total GULP energy -357145.202884 kJ/mol
# GULP energy per Si atom -5580.393795 kJ/mol
# Density = 1.537514 g / cm^3
# Si number density = 15.410210 Si / 1000 Ang^3
#
#
#
# Elastic Constant Matrix: (Units=GPa)
#
#
# Indices 1 2 3 4 5 6 
#
# 1 60.4278 48.0803 46.5888 0.0000 0.0000 0.0000
# 2 48.0803 92.0060 49.2806 0.0000 0.0000 0.0000
# 3 46.5888 49.2806 97.5982 0.0000 0.0000 0.0000
# 4 0.0000 0.0000 0.0000 25.0225 0.0000 0.0000
# 5 0.0000 0.0000 0.0000 0.0000 23.2932 0.0000
# 6 0.0000 0.0000 0.0000 0.0000 0.0000 23.6461
#
#
#
# Elastic Compliance Matrix: (Units=1/GPa)
#
#
# Indices 1 2 3 4 5 6 
#
# 1 0.034241 -0.012527 -0.010020 0.000000 0.000000 0.000000
# 2 -0.012527 0.019481 -0.003857 0.000000 0.000000 0.000000
# 3 -0.010020 -0.003857 0.016977 0.000000 0.000000 0.000000
# 4 0.000000 0.000000 0.000000 0.039964 0.000000 0.000000
# 5 0.000000 0.000000 0.000000 0.000000 0.042931 0.000000
# 6 0.000000 0.000000 0.000000 0.000000 0.000000 0.042290
#
#
# Mechanical properties :
#
#
# Convention : Reuss Voigt Hill
#
# Bulk Modulus (GPa) = 55.89254 59.77016 57.83135
# Shear Modulus (GPa) = 19.63448 21.46451 20.54949
#
# Velocity S-wave (km/s) = 3.57336 3.73617 3.65567
# Velocity P-wave (km/s) = 7.30573 7.58171 7.44500
#
# Compressibility (1/GPa) = 0.01789147
#
# Stress axis : x y z
#
# Youngs Moduli (GPa) = 29.20492 51.33242 58.90471
#
# Poissons Ratio (x) = 0.64302 0.59022
# Poissons Ratio (y) = 0.36584 0.22719
# Poissons Ratio (z) = 0.29263 0.19798
#
# Static dielectric constant tensor:
#      x y z
#    x 1.513700 0.000000 0.000000 
#    y 0.000000 1.514790 0.000000 
#    z 0.000000 0.000000 1.488980 
# 
# From -- ./inp_files/32356.got.cif
#   From: 2010.05.17/outbox.cif.g08.bks.cpg/sg51_17_cif.got.tgz:32356.got - 2010.06.03 11:52:47.
