data_PCOD9400523
_publ_section_title
;
Structure prediction by ZEFSAII (Michael W. Deem and Ramdas Pophale) SiO2 
 PCOD9400523
Probable space group: P M M A
;
_chemical_formula_sum "Si O2"
_cell_formula_units_Z 64
_cell_length_a 8.830281
_cell_length_b 15.701180
_cell_length_c 25.495653
_cell_angle_alpha 90.000000
_cell_angle_beta 90.000000
_cell_angle_gamma 90.000000
_cell_volume 3534.866008
_symmetry_space_group_name_H-M "P M M A"
_symmetry_group_IT_number 51
_symmetry_cell_setting 'orthorhombic'
loop_
_space_group_symop_operation_xyz
x,y,z
1/2-x,-y,z
1/2+x,-y,-z
-x,y,-z
-x,-y,-z
1/2+x,y,-z
1/2-x,y,z
x,-y,z
loop_
_atom_site_type_symbol
_atom_site_label
_atom_site_fract_x
_atom_site_fract_y
_atom_site_fract_z
Si Si1 0.068923 0.095824 0.645289
Si Si2 0.574024 0.630453 0.713788
Si Si3 0.432591 0.407199 0.601762
Si Si4 0.433092 0.228316 0.555667
Si Si5 0.425290 0.173339 0.255126
Si Si6 0.568575 0.219342 0.145429
Si Si7 0.568685 0.901878 0.942393
Si Si8 0.932452 0.407426 0.174509
O O1 0.250000 0.105587 0.651910
O O2 0.019251 0.165156 0.602434
O O3 0.992717 0.111364 0.701359
O O4 0.038110 0.000000 0.626756
O O5 0.750000 0.605579 0.712594
O O6 0.492309 0.601943 0.661016
O O7 0.565973 0.732677 0.719053
O O8 0.495884 0.596798 0.766456
O O9 0.250000 0.404820 0.603139
O O10 0.480228 0.500000 0.580937
O O11 0.483756 0.324492 0.569686
O O12 0.500000 0.202337 0.500000
O O13 0.250000 0.226780 0.553225
O O14 0.250000 0.154146 0.243795
O O15 0.516325 0.179631 0.200947
O O16 0.750000 0.216722 0.141628
O O17 0.496391 0.164997 0.098968
O O18 0.519129 0.319349 0.146592
O O19 0.750000 0.895176 0.944657
O O20 0.530319 0.000000 0.927413
O O21 0.500000 0.887012 0.000000
O O22 0.750000 0.404816 0.176823
O O23 0.976921 0.500000 0.151613
#
# Coordination Sequence:
#
# PCOD9400523 Si02
#       8
#     8   8   8   8   8   8   8   8
#     4  10  21  38  59  80 102 133 172 213 263 323
#     4  10  19  30  48  76 107 138 174 216 261 310
#     4  10  20  34  53  75 100 134 171 206 254 316
#     4  10  22  39  57  76 101 131 168 215 262 315
#     4  10  20  34  53  79 112 145 177 216 265 318
#     4  10  20  34  56  84 115 152 190 228 272 323
#     4  10  21  38  60  85 114 148 188 235 283 330
#     4   9  18  32  50  75 110 151 189 223 264 317
#
# _framework density 18.105353999999998
#
# number of rings (size 3 to 8) (size 9 to 14) (size 15 to 20)
#    0.000    2.125    1.250    1.875    0.000    6.500 
#    0.000    0.000    0.000    0.375    0.000    0.000 
#    0.000    0.000    0.000    0.000    0.000    0.000 
#
# Total GULP energy -357131.180452 kJ/mol
# GULP energy per Si atom -5580.174695 kJ/mol
# Density = 1.806415 g / cm^3
# Si number density = 18.105354 Si / 1000 Ang^3
#
#
#
# Elastic Constant Matrix: (Units=GPa)
#
#
# Indices 1 2 3 4 5 6 
#
# 1 25.2869 34.1948 23.9221 0.0000 0.0000 0.0000
# 2 34.1948 107.6913 59.0183 0.0000 0.0000 0.0000
# 3 23.9221 59.0183 84.4613 0.0000 0.0000 0.0000
# 4 0.0000 0.0000 0.0000 6.4143 0.0000 0.0000
# 5 0.0000 0.0000 0.0000 0.0000 30.6637 0.0000
# 6 0.0000 0.0000 0.0000 0.0000 0.0000 15.5680
#
#
#
# Elastic Compliance Matrix: (Units=1/GPa)
#
#
# Indices 1 2 3 4 5 6 
#
# 1 0.071870 -0.018904 -0.007146 0.000000 0.000000 0.000000
# 2 -0.018904 0.020021 -0.008636 0.000000 0.000000 0.000000
# 3 -0.007146 -0.008636 0.019898 0.000000 0.000000 0.000000
# 4 0.000000 0.000000 0.000000 0.155901 0.000000 0.000000
# 5 0.000000 0.000000 0.000000 0.000000 0.032612 0.000000
# 6 0.000000 0.000000 0.000000 0.000000 0.000000 0.064234
#
#
# Mechanical properties :
#
#
# Convention : Reuss Voigt Hill
#
# Bulk Modulus (GPa) = 23.57548 50.19000 36.88274
# Shear Modulus (GPa) = 11.15951 17.21618 14.18784
#
# Velocity S-wave (km/s) = 2.48536 3.08699 2.80237
# Velocity P-wave (km/s) = 4.61363 6.36296 5.55756
#
# Compressibility (1/GPa) = 0.04241695
#
# Stress axis : x y z
#
# Youngs Moduli (GPa) = 13.91392 49.94758 50.25621
#
# Poissons Ratio (x) = 0.94422 0.35915
# Poissons Ratio (y) = 0.26303 0.43399
# Poissons Ratio (z) = 0.09943 0.43133
#
# Static dielectric constant tensor:
#      x y z
#    x 1.606380 0.000000 0.000000 
#    y 0.000000 1.670240 0.000000 
#    z 0.000000 0.000000 1.564260 
# 
# From -- ./inp_files/34829.got.cif
#   From: 2010.05.17/outbox.cif.g08.bks.cpg/sg51_18_cif.got.tgz:34829.got - 2010.06.03 11:52:47.
