data_PCOD9400692
_publ_section_title
;
Structure prediction by ZEFSAII (Michael W. Deem and Ramdas Pophale) SiO2 
 PCOD9400692
Probable space group: P M M A
;
_chemical_formula_sum "Si O2"
_cell_formula_units_Z 52
_cell_length_a 8.580223
_cell_length_b 15.821860
_cell_length_c 23.960013
_cell_angle_alpha 90.000000
_cell_angle_beta 90.000000
_cell_angle_gamma 90.000000
_cell_volume 3252.693651
_symmetry_space_group_name_H-M "P M M A"
_symmetry_group_IT_number 51
_symmetry_cell_setting 'orthorhombic'
loop_
_space_group_symop_operation_xyz
x,y,z
1/2-x,-y,z
1/2+x,-y,-z
-x,y,-z
-x,-y,-z
1/2+x,y,-z
1/2-x,y,z
x,-y,z
loop_
_atom_site_type_symbol
_atom_site_label
_atom_site_fract_x
_atom_site_fract_y
_atom_site_fract_z
Si Si1 0.572338 0.602548 0.057966
Si Si2 0.562107 0.321304 0.390256
Si Si3 0.939632 0.906427 0.682398
Si Si4 0.063801 0.268574 0.270700
Si Si5 0.937040 0.500000 0.438291
Si Si6 0.562918 0.155414 0.558824
Si Si7 0.439106 0.401931 0.818588
O O1 0.750000 0.631804 0.058762
O O2 0.572728 0.500000 0.055835
O O3 0.502249 0.621198 0.118872
O O4 0.500000 0.632852 0.000000
O O5 0.750000 0.316258 0.386107
O O6 0.484432 0.303703 0.330992
O O7 0.513773 0.414255 0.408742
O O8 0.502394 0.250124 0.432812
O O9 0.750000 0.905086 0.682564
O O10 0.989533 0.829711 0.722892
O O11 0.984366 0.889374 0.617374
O O12 0.992031 0.000000 0.698907
O O13 0.250000 0.269100 0.264160
O O14 0.992459 0.330940 0.224744
O O15 0.750000 0.500000 0.439293
O O16 0.000000 0.500000 0.500000
O O17 0.500000 0.120433 0.500000
O O18 0.750000 0.156009 0.556808
O O19 0.250000 0.403162 0.820052
O O20 0.486602 0.500000 0.805644
#
# Coordination Sequence:
#
# PCOD9400692 Si02
#       7
#     8   8   8   8   4   8   8
#     4   8  14  25  41  62  89 124 162 194 224 256
#     4  10  20  34  48  62  84 115 147 181 226 273
#     4   8  16  32  50  66  88 116 144 180 230 282
#     4  10  20  32  48  71  92 115 151 192 229 266
#     4  10  22  34  46  62  78 106 145 180 217 264
#     4  10  19  31  48  69  89 110 139 175 222 276
#     4   9  18  31  46  65  95 134 165 188 221 267
#
# _framework density 15.986750000000001
#
# number of rings (size 3 to 8) (size 9 to 14) (size 15 to 20)
#    0.000    2.769    0.000    3.692    1.077    3.692 
#    0.000    1.538    0.000   16.154    0.000    0.000 
#    0.000    0.615    0.000    1.385    0.000    2.154 
#
# Total GULP energy -289497.304212 kJ/mol
# GULP energy per Si atom -5567.255850 kJ/mol
# Density = 1.595036 g / cm^3
# Si number density = 15.986750 Si / 1000 Ang^3
#
#
#
# Elastic Constant Matrix: (Units=GPa)
#
#
# Indices 1 2 3 4 5 6 
#
# 1 15.8959 14.5319 11.7763 0.0000 0.0000 0.0000
# 2 14.5319 112.8680 50.6768 0.0000 0.0000 0.0000
# 3 11.7763 50.6768 99.3594 0.0000 0.0000 0.0000
# 4 0.0000 0.0000 0.0000 12.1282 0.0000 0.0000
# 5 0.0000 0.0000 0.0000 0.0000 25.7951 0.0000
# 6 0.0000 0.0000 0.0000 0.0000 0.0000 6.1723
#
#
#
# Elastic Compliance Matrix: (Units=1/GPa)
#
#
# Indices 1 2 3 4 5 6 
#
# 1 0.073180 -0.007170 -0.005017 0.000000 0.000000 0.000000
# 2 -0.007170 0.012194 -0.005370 0.000000 0.000000 0.000000
# 3 -0.005017 -0.005370 0.013398 0.000000 0.000000 0.000000
# 4 0.000000 0.000000 0.000000 0.082452 0.000000 0.000000
# 5 0.000000 0.000000 0.000000 0.000000 0.038767 0.000000
# 6 0.000000 0.000000 0.000000 0.000000 0.000000 0.162015
#
#
# Mechanical properties :
#
#
# Convention : Reuss Voigt Hill
#
# Bulk Modulus (GPa) = 15.70842 42.45482 29.08162
# Shear Modulus (GPa) = 11.40671 18.89499 15.15085
#
# Velocity S-wave (km/s) = 2.67406 3.44163 3.08183
# Velocity P-wave (km/s) = 4.40243 6.51207 5.55825
#
# Compressibility (1/GPa) = 0.06366012
#
# Stress axis : x y z
#
# Youngs Moduli (GPa) = 13.66488 82.00830 74.63937
#
# Poissons Ratio (x) = 0.58796 0.37445
# Poissons Ratio (y) = 0.09797 0.40078
# Poissons Ratio (z) = 0.06855 0.44035
#
# Static dielectric constant tensor:
#      x y z
#    x 1.550490 0.000000 0.000000 
#    y 0.000000 1.548600 0.000000 
#    z 0.000000 0.000000 1.538690 
# 
# From -- ./inp_files/34730.got.cif
#   From: 2010.05.17/outbox.cif.g08.bks.cpg/sg51_18_cif.got.tgz:34730.got - 2010.06.03 11:52:47.
