data_PCOD9400159
_publ_section_title
;
Structure prediction by ZEFSAII (Michael W. Deem and Ramdas Pophale) SiO2 
 PCOD9400159
Probable space group: P M M A
;
_chemical_formula_sum "Si O2"
_cell_formula_units_Z 64
_cell_length_a 14.419224
_cell_length_b 15.158537
_cell_length_c 17.708112
_cell_angle_alpha 90.000000
_cell_angle_beta 90.000000
_cell_angle_gamma 90.000000
_cell_volume 3870.538902
_symmetry_space_group_name_H-M "P M M A"
_symmetry_group_IT_number 51
_symmetry_cell_setting 'orthorhombic'
loop_
_space_group_symop_operation_xyz
x,y,z
1/2-x,-y,z
1/2+x,-y,-z
-x,y,-z
-x,-y,-z
1/2+x,y,-z
1/2-x,y,z
x,-y,z
loop_
_atom_site_type_symbol
_atom_site_label
_atom_site_fract_x
_atom_site_fract_y
_atom_site_fract_z
Si Si1 0.518759 0.897310 0.169851
Si Si2 0.859171 0.897318 0.316660
Si Si3 0.141220 0.400213 0.522985
Si Si4 0.861567 0.597436 0.809455
Si Si5 0.471934 0.766062 0.582136
Si Si6 0.857979 0.326495 0.644453
Si Si7 0.358871 0.218714 0.126029
Si Si8 0.857513 0.102200 0.022880
O O1 0.590402 0.881981 0.237107
O O2 0.428319 0.837639 0.176996
O O3 0.572427 0.880649 0.091101
O O4 0.492125 0.000000 0.170733
O O5 0.750000 0.882524 0.309480
O O6 0.904068 0.832056 0.376378
O O7 0.873928 0.000000 0.337256
O O8 0.250000 0.389816 0.542883
O O9 0.112057 0.500000 0.540513
O O10 0.080104 0.326769 0.564595
O O11 0.135720 0.384384 0.432359
O O12 0.750000 0.592000 0.814824
O O13 0.899600 0.500000 0.827042
O O14 0.880696 0.623201 0.722150
O O15 0.887558 0.679161 0.863504
O O16 0.500000 0.801271 0.500000
O O17 0.564922 0.747785 0.629928
O O18 0.750000 0.296801 0.649774
O O19 0.250000 0.211503 0.147232
O O20 0.367977 0.172829 0.044025
O O21 0.750000 0.106074 0.048908
O O22 0.872676 0.000000 0.996463
#
# Coordination Sequence:
#
# PCOD9400159 Si02
#       8
#     8   8   8   8   8   8   8   8
#     4  10  19  32  51  73  97 126 160 199 243 290
#     4  10  21  37  55  73  94 125 167 207 237 274
#     4   9  17  29  46  70  98 125 155 195 244 294
#     4   9  17  29  44  62  88 125 164 196 228 271
#     4  10  20  32  50  73  98 125 156 196 244 294
#     4   9  17  29  46  68  95 125 155 192 239 290
#     4  10  19  29  45  72 103 130 157 193 241 294
#     4   9  17  30  49  73  98 124 157 199 247 294
#
# _framework density 16.535164999999999
#
# number of rings (size 3 to 8) (size 9 to 14) (size 15 to 20)
#    0.000    2.500    0.000    2.625    0.000    8.250 
#    0.000    0.000    0.000    2.625    0.000    0.000 
#    0.000    5.000    0.000    0.000    0.000    0.000 
#
# Total GULP energy -356661.560250 kJ/mol
# GULP energy per Si atom -5572.836879 kJ/mol
# Density = 1.649753 g / cm^3
# Si number density = 16.535165 Si / 1000 Ang^3
#
#
#
# Elastic Constant Matrix: (Units=GPa)
#
#
# Indices 1 2 3 4 5 6 
#
# 1 81.2372 61.3378 33.6785 0.0000 0.0000 0.0000
# 2 61.3378 110.9671 65.1599 0.0000 0.0000 0.0000
# 3 33.6785 65.1599 61.0463 0.0000 0.0000 0.0000
# 4 0.0000 0.0000 0.0000 -14.0504 0.0000 0.0000
# 5 0.0000 0.0000 0.0000 0.0000 21.1788 0.0000
# 6 0.0000 0.0000 0.0000 0.0000 0.0000 20.7605
#
#
#
# Elastic Compliance Matrix: (Units=1/GPa)
#
#
# Indices 1 2 3 4 5 6 
#
# 1 0.021235 -0.013018 0.002180 0.000000 0.000000 0.000000
# 2 -0.013018 0.032125 -0.027108 0.000000 0.000000 0.000000
# 3 0.002180 -0.027108 0.044114 0.000000 0.000000 0.000000
# 4 0.000000 0.000000 0.000000 -0.071172 0.000000 0.000000
# 5 0.000000 0.000000 0.000000 0.000000 0.047217 0.000000
# 6 0.000000 0.000000 0.000000 0.000000 0.000000 0.048168
#
#
# Mechanical properties :
#
#
# Convention : Reuss Voigt Hill
#
# Bulk Modulus (GPa) = 46.33644 63.73365 55.03504
# Shear Modulus (GPa) = 24.41725 11.78274 18.10000
#
# Velocity S-wave (km/s) = 3.84694 2.67233 3.31212
# Velocity P-wave (km/s) = 6.91489 6.93900 6.92696
#
# Compressibility (1/GPa) = 0.02158129
#
# Stress axis : x y z
#
# Youngs Moduli (GPa) = 47.09228 31.12798 22.66879
#
# Poissons Ratio (x) = 0.40522 -0.04942
# Poissons Ratio (y) = 0.61304 0.61452
# Poissons Ratio (z) = -0.10266 0.84383
#
# Static dielectric constant tensor:
#      x y z
#    x 1.568290 0.000000 0.000000 
#    y 0.000000 1.559650 0.000000 
#    z 0.000000 0.000000 1.551850 
# 
# From -- ./inp_files/29931.got.cif
#   From: 2010.05.17/outbox.cif.g08.bks.cpg/sg51_15_cif.got.tgz:29931.got - 2010.06.03 11:52:47.
