data_PCOD9400149
_publ_section_title
;
Structure prediction by ZEFSAII (Michael W. Deem and Ramdas Pophale) SiO2 
 PCOD9400149
Probable space group: P M M A
;
_chemical_formula_sum "Si O2"
_cell_formula_units_Z 64
_cell_length_a 8.869005
_cell_length_b 24.095790
_cell_length_c 19.458212
_cell_angle_alpha 90.000000
_cell_angle_beta 90.000000
_cell_angle_gamma 90.000000
_cell_volume 4158.330466
_symmetry_space_group_name_H-M "P M M A"
_symmetry_group_IT_number 51
_symmetry_cell_setting 'orthorhombic'
loop_
_space_group_symop_operation_xyz
x,y,z
1/2-x,-y,z
1/2+x,-y,-z
-x,y,-z
-x,-y,-z
1/2+x,y,-z
1/2-x,y,z
x,-y,z
loop_
_atom_site_type_symbol
_atom_site_label
_atom_site_fract_x
_atom_site_fract_y
_atom_site_fract_z
Si Si1 0.568850 0.835211 0.846647
Si Si2 0.070783 0.743581 0.571733
Si Si3 0.431358 0.563345 0.290556
Si Si4 0.070247 0.064922 0.925024
Si Si5 0.430456 0.386922 0.572410
Si Si6 0.929131 0.773412 0.710582
Si Si7 0.069798 0.270092 0.925094
Si Si8 0.430775 0.665500 0.197147
O O1 0.750000 0.832758 0.853958
O O2 0.505275 0.893753 0.871127
O O3 0.531618 0.819167 0.767956
O O4 0.496303 0.787273 0.894039
O O5 0.250000 0.746210 0.567241
O O6 0.027530 0.678357 0.580351
O O7 0.000000 0.762888 0.500000
O O8 0.013170 0.775532 0.638590
O O9 0.250000 0.567624 0.298506
O O10 0.469212 0.500000 0.273048
O O11 0.505894 0.580550 0.362444
O O12 0.474630 0.607587 0.232013
O O13 0.250000 0.073676 0.927487
O O14 0.041809 0.000000 0.909763
O O15 0.000000 0.076690 0.000000
O O16 0.500000 0.406137 0.500000
O O17 0.250000 0.391034 0.569826
O O18 0.750000 0.775572 0.698301
O O19 0.961792 0.714469 0.747730
O O20 0.250000 0.267078 0.928402
O O21 0.016418 0.317460 0.871855
O O22 0.000000 0.278997 0.000000
O O23 0.250000 0.666134 0.184346
#
# Coordination Sequence:
#
# PCOD9400149 Si02
#       8
#     8   8   8   8   8   8   8   8
#     4  10  20  33  49  72 101 132 164 200 240 280
#     4  10  19  29  45  67  92 123 157 191 232 282
#     4  10  20  34  52  70  90 119 152 189 234 284
#     4  10  20  33  49  70  99 137 176 210 241 276
#     4  10  20  32  47  67  91 121 156 193 232 276
#     4   9  17  30  48  68  93 124 154 193 238 281
#     4  11  21  33  51  73  97 123 153 191 236 283
#     4   9  18  33  50  69  94 119 148 187 233 286
#
# _framework density 15.390793
#
# number of rings (size 3 to 8) (size 9 to 14) (size 15 to 20)
#    0.000    2.125    1.250    3.750    0.000    5.250 
#    0.000    0.000    0.000    0.375    0.000    0.000 
#    0.000    0.500    0.000    1.625    0.000    2.375 
#
# Total GULP energy -357138.639137 kJ/mol
# GULP energy per Si atom -5580.291237 kJ/mol
# Density = 1.535576 g / cm^3
# Si number density = 15.390793 Si / 1000 Ang^3
#
#
#
# Elastic Constant Matrix: (Units=GPa)
#
#
# Indices 1 2 3 4 5 6 
#
# 1 59.9706 41.3441 59.7875 0.0000 0.0000 0.0000
# 2 41.3441 80.7474 58.0389 0.0000 0.0000 0.0000
# 3 59.7875 58.0389 129.6981 0.0000 0.0000 0.0000
# 4 0.0000 0.0000 0.0000 24.9378 0.0000 0.0000
# 5 0.0000 0.0000 0.0000 0.0000 30.1222 0.0000
# 6 0.0000 0.0000 0.0000 0.0000 0.0000 19.1943
#
#
#
# Elastic Compliance Matrix: (Units=1/GPa)
#
#
# Indices 1 2 3 4 5 6 
#
# 1 0.035058 -0.009338 -0.011982 0.000000 0.000000 0.000000
# 2 -0.009338 0.020744 -0.004978 0.000000 0.000000 0.000000
# 3 -0.011982 -0.004978 0.015461 0.000000 0.000000 0.000000
# 4 0.000000 0.000000 0.000000 0.040100 0.000000 0.000000
# 5 0.000000 0.000000 0.000000 0.000000 0.033198 0.000000
# 6 0.000000 0.000000 0.000000 0.000000 0.000000 0.052099
#
#
# Mechanical properties :
#
#
# Convention : Reuss Voigt Hill
#
# Bulk Modulus (GPa) = 53.57153 65.41746 59.49449
# Shear Modulus (GPa) = 19.57115 22.26723 20.91919
#
# Velocity S-wave (km/s) = 3.56984 3.80779 3.69073
# Velocity P-wave (km/s) = 7.20241 7.86950 7.54333
#
# Compressibility (1/GPa) = 0.01866663
#
# Stress axis : x y z
#
# Youngs Moduli (GPa) = 28.52414 48.20784 64.67731
#
# Poissons Ratio (x) = 0.45016 0.77498
# Poissons Ratio (y) = 0.26635 0.32197
# Poissons Ratio (z) = 0.34178 0.23998
#
# Static dielectric constant tensor:
#      x y z
#    x 1.511690 0.000000 0.000000 
#    y 0.000000 1.506420 0.000000 
#    z 0.000000 0.000000 1.496600 
# 
# From -- ./inp_files/28615.got.cif
#   From: 2010.05.17/outbox.cif.g08.bks.cpg/sg51_15_cif.got.tgz:28615.got - 2010.06.03 11:52:47.
