data_PCOD9400970
_publ_section_title
;
Structure prediction by ZEFSAII (Michael W. Deem and Ramdas Pophale) SiO2 
 PCOD9400970
Probable space group: P M M A
;
_chemical_formula_sum "Si O2"
_cell_formula_units_Z 48
_cell_length_a 20.031391
_cell_length_b 7.953879
_cell_length_c 13.942806
_cell_angle_alpha 90.000000
_cell_angle_beta 90.000000
_cell_angle_gamma 90.000000
_cell_volume 2221.469080
_symmetry_space_group_name_H-M "P M M A"
_symmetry_group_IT_number 51
_symmetry_cell_setting 'orthorhombic'
loop_
_space_group_symop_operation_xyz
x,y,z
1/2-x,-y,z
1/2+x,-y,-z
-x,y,-z
-x,-y,-z
1/2+x,y,-z
1/2-x,y,z
x,-y,z
loop_
_atom_site_type_symbol
_atom_site_label
_atom_site_fract_x
_atom_site_fract_y
_atom_site_fract_z
Si Si1 0.675355 0.500000 0.668995
Si Si2 0.423211 0.704734 0.012114
Si Si3 0.676803 0.704191 0.149968
Si Si4 0.173735 0.192056 0.182731
Si Si5 0.030199 0.500000 0.392650
Si Si6 0.676670 0.702714 0.373621
Si Si7 0.464620 0.821857 0.602516
O O1 0.750000 0.500000 0.624428
O O2 0.669526 0.665757 0.735425
O O3 0.609690 0.500000 0.603811
O O4 0.421461 0.500000 0.018244
O O5 0.381770 0.760597 0.918649
O O6 0.500000 0.755554 0.000000
O O7 0.382352 0.772232 0.103346
O O8 0.750000 0.759795 0.115527
O O9 0.676565 0.500000 0.148531
O O10 0.670837 0.750608 0.261244
O O11 0.250000 0.208646 0.142789
O O12 0.166974 0.000000 0.218449
O O13 0.000000 0.500000 0.500000
O O14 0.999239 0.334144 0.344403
O O15 0.750000 0.754333 0.408712
O O16 0.672752 0.500000 0.379274
O O17 0.612231 0.782794 0.420058
O O18 0.500000 0.833906 0.500000
O O19 0.471251 0.000000 0.653520
#
# Coordination Sequence:
#
# PCOD9400970 Si02
#       7
#     4   8   8   8   4   8   8
#     4  10  22  42  67  91 118 157 204 255 311 364
#     4  10  19  31  50  83 122 161 204 249 300 355
#     4   8  15  28  48  73 108 154 197 240 290 342
#     4  10  21  38  61  88 118 158 210 261 305 354
#     4  10  22  42  64  89 122 151 188 241 295 366
#     4   9  17  32  55  85 116 155 206 252 295 351
#     4  10  21  38  60  87 120 156 191 235 301 371
#
# _framework density 21.607323000000001
#
# number of rings (size 3 to 8) (size 9 to 14) (size 15 to 20)
#    0.000    2.500    1.667    1.500    0.000    3.333 
#    0.000    4.167    0.000    2.000    0.000    0.000 
#    0.000    0.000    0.000    0.000    0.000    0.000 
#
# Total GULP energy -267883.320679 kJ/mol
# GULP energy per Si atom -5580.902514 kJ/mol
# Density = 2.155814 g / cm^3
# Si number density = 21.607323 Si / 1000 Ang^3
#
#
#
# Elastic Constant Matrix: (Units=GPa)
#
#
# Indices 1 2 3 4 5 6 
#
# 1 222.4935 45.4367 56.7127 0.0000 0.0000 0.0000
# 2 45.4367 116.6989 11.6165 0.0000 0.0000 0.0000
# 3 56.7127 11.6165 43.4158 0.0000 0.0000 0.0000
# 4 0.0000 0.0000 0.0000 -9.3121 0.0000 0.0000
# 5 0.0000 0.0000 0.0000 0.0000 105.2188 0.0000
# 6 0.0000 0.0000 0.0000 0.0000 0.0000 -2.1402
#
#
#
# Elastic Compliance Matrix: (Units=1/GPa)
#
#
# Indices 1 2 3 4 5 6 
#
# 1 0.007125 -0.001898 -0.008799 0.000000 0.000000 0.000000
# 2 -0.001898 0.009309 -0.000011 0.000000 0.000000 0.000000
# 3 -0.008799 -0.000011 0.034530 0.000000 0.000000 0.000000
# 4 0.000000 0.000000 0.000000 -0.107387 0.000000 0.000000
# 5 0.000000 0.000000 0.000000 0.000000 0.009504 0.000000
# 6 0.000000 0.000000 0.000000 0.000000 0.000000 -0.467254
#
#
# Mechanical properties :
#
#
# Convention : Reuss Voigt Hill
#
# Bulk Modulus (GPa) = 33.84426 67.79334 50.81880
# Shear Modulus (GPa) = -10.35399 36.67614 13.16107
#
# Velocity S-wave (km/s) = -2.19141 4.12441 2.47068
# Velocity P-wave (km/s) = 3.04865 7.35692 5.63110
#
# Compressibility (1/GPa) = 0.02954711
#
# Stress axis : x y z
#
# Youngs Moduli (GPa) = 140.34911 107.41995 28.95998
#
# Poissons Ratio (x) = 0.20391 0.25483
# Poissons Ratio (y) = 0.26642 0.00032
# Poissons Ratio (z) = 1.23498 0.00120
#
# Static dielectric constant tensor:
#      x y z
#    x 1.814470 0.000000 0.000000 
#    y 0.000000 1.870950 0.000000 
#    z 0.000000 0.000000 1.706330 
# 
# From -- ./inp_files/24967.got.cif
#   From: 2010.05.17/outbox.cif.g08.bks.cpg/sg51_13_cif.got.tgz:24967.got - 2010.06.03 11:52:47.
