data_PCOD9400886
_publ_section_title
;
Structure prediction by ZEFSAII (Michael W. Deem and Ramdas Pophale) SiO2 
 PCOD9400886
Probable space group: P M M A
;
_chemical_formula_sum "Si O2"
_cell_formula_units_Z 64
_cell_length_a 8.959660
_cell_length_b 14.647191
_cell_length_c 28.897368
_cell_angle_alpha 90.000000
_cell_angle_beta 90.000000
_cell_angle_gamma 90.000000
_cell_volume 3792.312896
_symmetry_space_group_name_H-M "P M M A"
_symmetry_group_IT_number 51
_symmetry_cell_setting 'orthorhombic'
loop_
_space_group_symop_operation_xyz
x,y,z
1/2-x,-y,z
1/2+x,-y,-z
-x,y,-z
-x,-y,-z
1/2+x,y,-z
1/2-x,y,z
x,-y,z
loop_
_atom_site_type_symbol
_atom_site_label
_atom_site_fract_x
_atom_site_fract_y
_atom_site_fract_z
Si Si1 0.928450 0.393659 0.050249
Si Si2 0.071947 0.605573 0.679357
Si Si3 0.929833 0.105823 0.549362
Si Si4 0.927677 0.893327 0.174294
Si Si5 0.425636 0.891964 0.272690
Si Si6 0.570002 0.224638 0.637251
Si Si7 0.926448 0.607511 0.777497
Si Si8 0.428873 0.723332 0.131637
O O1 0.750000 0.382718 0.048056
O O2 0.960367 0.500000 0.062402
O O3 0.998461 0.327532 0.088306
O O4 0.000000 0.376857 0.000000
O O5 0.250000 0.611586 0.677940
O O6 0.027876 0.500000 0.671142
O O7 0.999772 0.676146 0.643891
O O8 0.014582 0.630105 0.730870
O O9 0.750000 0.109847 0.546054
O O10 0.977252 0.171389 0.591094
O O11 0.000000 0.130253 0.500000
O O12 0.969878 0.000000 0.559566
O O13 0.750000 0.882001 0.171354
O O14 0.983109 0.871602 0.226370
O O15 0.009276 0.824666 0.139732
O O16 0.964053 0.000000 0.165955
O O17 0.250000 0.873518 0.263332
O O18 0.471464 0.834615 0.317407
O O19 0.440077 0.000000 0.282718
O O20 0.750000 0.230872 0.636852
O O21 0.750000 0.621642 0.768488
O O22 0.949235 0.500000 0.787545
O O23 0.968812 0.666696 0.821841
O O24 0.250000 0.723320 0.127386
#
# Coordination Sequence:
#
# PCOD9400886 Si02
#       8
#     8   8   8   8   8   8   8   8
#     4  10  21  37  57  81 109 138 167 203 249 300
#     4  10  21  34  47  67  97 131 166 206 248 287
#     4   9  18  33  52  75 102 128 155 191 238 292
#     4  10  21  35  49  69 101 138 174 213 254 296
#     4   9  17  30  48  71 100 132 165 201 243 293
#     4  10  19  31  50  73  96 127 165 201 240 290
#     4   9  18  32  49  71 101 135 168 202 243 294
#     4  11  21  33  53  78 103 134 173 213 252 298
#
# _framework density 16.876245999999998
#
# number of rings (size 3 to 8) (size 9 to 14) (size 15 to 20)
#    0.000    2.250    0.000    3.000    0.000    9.250 
#    0.000    1.250    0.000    4.500    0.000    0.000 
#    0.000    0.000    0.000    0.000    0.000    0.000 
#
# Total GULP energy -357312.643923 kJ/mol
# GULP energy per Si atom -5583.010061 kJ/mol
# Density = 1.683783 g / cm^3
# Si number density = 16.876246 Si / 1000 Ang^3
#
#
#
# Elastic Constant Matrix: (Units=GPa)
#
#
# Indices 1 2 3 4 5 6 
#
# 1 41.8835 51.3891 51.6806 0.0000 0.0000 0.0000
# 2 51.3891 108.5852 93.7137 0.0000 0.0000 0.0000
# 3 51.6806 93.7137 118.6785 0.0000 0.0000 0.0000
# 4 0.0000 0.0000 0.0000 33.0235 0.0000 0.0000
# 5 0.0000 0.0000 0.0000 0.0000 28.8124 0.0000
# 6 0.0000 0.0000 0.0000 0.0000 0.0000 24.5984
#
#
#
# Elastic Compliance Matrix: (Units=1/GPa)
#
#
# Indices 1 2 3 4 5 6 
#
# 1 0.061951 -0.018951 -0.012013 0.000000 0.000000 0.000000
# 2 -0.018951 0.034712 -0.019157 0.000000 0.000000 0.000000
# 3 -0.012013 -0.019157 0.028785 0.000000 0.000000 0.000000
# 4 0.000000 0.000000 0.000000 0.030282 0.000000 0.000000
# 5 0.000000 0.000000 0.000000 0.000000 0.034707 0.000000
# 6 0.000000 0.000000 0.000000 0.000000 0.000000 0.040653
#
#
# Mechanical properties :
#
#
# Convention : Reuss Voigt Hill
#
# Bulk Modulus (GPa) = 39.67523 73.63491 56.65507
# Shear Modulus (GPa) = 14.71740 22.11110 18.41425
#
# Velocity S-wave (km/s) = 2.95630 3.62358 3.30682
# Velocity P-wave (km/s) = 5.93410 7.82522 6.94434
#
# Compressibility (1/GPa) = 0.02520464
#
# Stress axis : x y z
#
# Youngs Moduli (GPa) = 16.14179 28.80858 34.74063
#
# Poissons Ratio (x) = 0.54596 0.41733
# Poissons Ratio (y) = 0.30591 0.66554
# Poissons Ratio (z) = 0.19391 0.55189
#
# Static dielectric constant tensor:
#      x y z
#    x 1.561710 0.000000 0.000000 
#    y 0.000000 1.581610 0.000000 
#    z 0.000000 0.000000 1.536400 
# 
# From -- ./inp_files/34945.got.cif
#   From: 2010.05.17/outbox.cif.g08.bks.cpg/sg51_18_cif.got.tgz:34945.got - 2010.06.03 11:52:47.
