data_PCOD9400328
_publ_section_title
;
Structure prediction by ZEFSAII (Michael W. Deem and Ramdas Pophale) SiO2 
 PCOD9400328
Probable space group: P M M A
;
_chemical_formula_sum "Si O2"
_cell_formula_units_Z 48
_cell_length_a 19.365714
_cell_length_b 7.677530
_cell_length_c 16.414298
_cell_angle_alpha 90.000000
_cell_angle_beta 90.000000
_cell_angle_gamma 90.000000
_cell_volume 2440.491782
_symmetry_space_group_name_H-M "P M M A"
_symmetry_group_IT_number 51
_symmetry_cell_setting 'orthorhombic'
loop_
_space_group_symop_operation_xyz
x,y,z
1/2-x,-y,z
1/2+x,-y,-z
-x,y,-z
-x,-y,-z
1/2+x,y,-z
1/2-x,y,z
x,-y,z
loop_
_atom_site_type_symbol
_atom_site_label
_atom_site_fract_x
_atom_site_fract_y
_atom_site_fract_z
Si Si1 0.958285 0.799157 0.766696
Si Si2 0.412662 0.295115 0.672275
Si Si3 0.328465 0.787030 0.329820
Si Si4 0.959140 0.701700 0.076031
Si Si5 0.828186 0.286842 0.170312
Si Si6 0.828288 0.209996 0.484636
O O1 0.886785 0.726134 0.732316
O O2 0.014928 0.792229 0.694481
O O3 0.992491 0.707950 0.844188
O O4 0.947975 0.000000 0.790323
O O5 0.423469 0.500000 0.684829
O O6 0.357057 0.236181 0.740518
O O7 0.382201 0.266248 0.583289
O O8 0.250000 0.735377 0.310151
O O9 0.343584 0.732561 0.422982
O O10 0.330457 0.000000 0.329400
O O11 0.945309 0.500000 0.054705
O O12 0.885441 0.775578 0.105443
O O13 0.000000 0.781704 0.000000
O O14 0.750000 0.228152 0.157123
O O15 0.827929 0.500000 0.168470
O O16 0.750000 0.268833 0.464027
O O17 0.827503 0.000000 0.485233
#
# Coordination Sequence:
#
# PCOD9400328 Si02
#       6
#     8   8   8   8   8   8
#     4  10  19  32  52  73  92 120 161 202 239 285
#     4  10  19  30  45  68 100 131 159 196 244 292
#     4   8  16  32  51  69  92 126 165 202 240 281
#     4   9  18  33  51  71  98 126 150 187 243 299
#     4   8  14  26  45  66  88 120 158 187 217 271
#     4   9  17  30  48  69  94 126 166 206 237 271
#
# _framework density 19.668165999999999
#
# number of rings (size 3 to 8) (size 9 to 14) (size 15 to 20)
#    0.000    3.000    0.000    3.500    0.000    2.000 
#    0.000    5.833    0.000    9.500    0.000    0.000 
#    0.000    0.000    0.000    0.000    0.000    0.000 
#
# Total GULP energy -267622.479794 kJ/mol
# GULP energy per Si atom -5575.468329 kJ/mol
# Density = 1.962340 g / cm^3
# Si number density = 19.668166 Si / 1000 Ang^3
#
#
#
# Elastic Constant Matrix: (Units=GPa)
#
#
# Indices 1 2 3 4 5 6 
#
# 1 150.3084 -3.2688 69.5466 0.0000 0.0000 0.0000
# 2 -3.2688 36.0679 -5.0675 0.0000 0.0000 0.0000
# 3 69.5466 -5.0675 59.7430 0.0000 0.0000 0.0000
# 4 0.0000 0.0000 0.0000 12.3526 0.0000 0.0000
# 5 0.0000 0.0000 0.0000 0.0000 28.0994 0.0000
# 6 0.0000 0.0000 0.0000 0.0000 0.0000 6.8474
#
#
#
# Elastic Compliance Matrix: (Units=1/GPa)
#
#
# Indices 1 2 3 4 5 6 
#
# 1 0.014460 -0.001067 -0.016924 0.000000 0.000000 0.000000
# 2 -0.001067 0.028139 0.003629 0.000000 0.000000 0.000000
# 3 -0.016924 0.003629 0.036747 0.000000 0.000000 0.000000
# 4 0.000000 0.000000 0.000000 0.080955 0.000000 0.000000
# 5 0.000000 0.000000 0.000000 0.000000 0.035588 0.000000
# 6 0.000000 0.000000 0.000000 0.000000 0.000000 0.146040
#
#
# Mechanical properties :
#
#
# Convention : Reuss Voigt Hill
#
# Bulk Modulus (GPa) = 19.75410 40.94888 30.35149
# Shear Modulus (GPa) = 12.90237 21.78716 17.34477
#
# Velocity S-wave (km/s) = 2.56403 3.33188 2.97285
# Velocity P-wave (km/s) = 4.33949 5.97218 5.22007
#
# Compressibility (1/GPa) = 0.05062240
#
# Stress axis : x y z
#
# Youngs Moduli (GPa) = 69.15538 35.53829 27.21322
#
# Poissons Ratio (x) = 0.03793 0.46054
# Poissons Ratio (y) = 0.07381 -0.09876
# Poissons Ratio (z) = 1.17036 -0.12898
#
# Static dielectric constant tensor:
#      x y z
#    x 1.691630 0.000000 0.000000 
#    y 0.000000 1.750780 0.000000 
#    z 0.000000 0.000000 1.669910 
# 
# From -- ./inp_files/30063.got.cif
#   From: 2010.05.17/outbox.cif.g08.bks.cpg/sg51_16_cif.got.tgz:30063.got - 2010.06.03 11:52:47.
