data_PCOD9400564
_publ_section_title
;
Structure prediction by ZEFSAII (Michael W. Deem and Ramdas Pophale) SiO2 
 PCOD9400564
Probable space group: P M M A
;
_chemical_formula_sum "Si O2"
_cell_formula_units_Z 44
_cell_length_a 10.288033
_cell_length_b 17.039038
_cell_length_c 19.032008
_cell_angle_alpha 90.000000
_cell_angle_beta 90.000000
_cell_angle_gamma 90.000000
_cell_volume 3336.276464
_symmetry_space_group_name_H-M "P M M A"
_symmetry_group_IT_number 51
_symmetry_cell_setting 'orthorhombic'
loop_
_space_group_symop_operation_xyz
x,y,z
1/2-x,-y,z
1/2+x,-y,-z
-x,y,-z
-x,-y,-z
1/2+x,y,-z
1/2-x,y,z
x,-y,z
loop_
_atom_site_type_symbol
_atom_site_label
_atom_site_fract_x
_atom_site_fract_y
_atom_site_fract_z
Si Si1 0.598321 0.594805 0.780214
Si Si2 0.750000 0.908808 0.589597
Si Si3 0.996856 0.808558 0.415143
Si Si4 0.898004 0.500000 0.437312
Si Si5 0.103018 0.595403 0.057278
Si Si6 0.250000 0.911920 0.580540
Si Si7 0.405002 0.652401 0.661811
O O1 0.750000 0.614058 0.762964
O O2 0.586988 0.500000 0.774479
O O3 0.575402 0.616628 0.861828
O O4 0.492035 0.633460 0.729893
O O5 0.624705 0.856344 0.607403
O O6 0.750000 0.914938 0.504545
O O7 0.750000 0.000000 0.615043
O O8 0.876765 0.864954 0.398520
O O9 0.968199 0.726625 0.377544
O O10 0.000000 0.796426 0.500000
O O11 0.750000 0.500000 0.465112
O O12 0.914044 0.423288 0.388993
O O13 0.000000 0.500000 0.500000
O O14 0.250000 0.620148 0.040013
O O15 0.101655 0.500000 0.055753
O O16 0.000000 0.623548 0.000000
O O17 0.250000 0.000000 0.607461
O O18 0.250000 0.664918 0.675751
#
# Coordination Sequence:
#
# PCOD9400564 Si02
#       7
#     8   4   8   4   8   4   8
#     4   9  18  31  45  61  82 112 148 182 218 256
#     4   9  18  30  48  69  83 101 132 170 221 279
#     4  10  19  31  45  64  85 106 139 182 222 267
#     4  10  22  36  46  58  77 108 151 196 231 260
#     4   8  14  25  41  62  84 104 134 174 212 253
#     4   9  16  30  48  63  83 105 126 168 225 275
#     4  11  21  33  44  60  84 113 150 187 224 258
#
# _framework density 13.188355
#
# number of rings (size 3 to 8) (size 9 to 14) (size 15 to 20)
#    0.000    2.545    1.818    2.182    1.273    3.636 
#    0.000    1.818    0.000    0.000    0.000    0.000 
#    0.000    0.000    0.000    0.000    0.000    5.455 
#
# Total GULP energy -244986.040847 kJ/mol
# GULP energy per Si atom -5567.864565 kJ/mol
# Density = 1.315834 g / cm^3
# Si number density = 13.188355 Si / 1000 Ang^3
#
#
#
# Elastic Constant Matrix: (Units=GPa)
#
#
# Indices 1 2 3 4 5 6 
#
# 1 142.2727 59.0433 69.6260 0.0000 0.0000 0.0000
# 2 59.0433 90.2700 30.8827 0.0000 0.0000 0.0000
# 3 69.6260 30.8827 69.8347 0.0000 0.0000 0.0000
# 4 0.0000 0.0000 0.0000 1.6532 0.0000 0.0000
# 5 0.0000 0.0000 0.0000 0.0000 10.4362 0.0000
# 6 0.0000 0.0000 0.0000 0.0000 0.0000 13.3696
#
#
#
# Elastic Compliance Matrix: (Units=1/GPa)
#
#
# Indices 1 2 3 4 5 6 
#
# 1 0.016016 -0.005906 -0.013357 0.000000 0.000000 0.000000
# 2 -0.005906 0.015231 -0.000847 0.000000 0.000000 0.000000
# 3 -0.013357 -0.000847 0.028011 0.000000 0.000000 0.000000
# 4 0.000000 0.000000 0.000000 0.604890 0.000000 0.000000
# 5 0.000000 0.000000 0.000000 0.000000 0.095821 0.000000
# 6 0.000000 0.000000 0.000000 0.000000 0.000000 0.074797
#
#
# Mechanical properties :
#
#
# Convention : Reuss Voigt Hill
#
# Bulk Modulus (GPa) = 52.52523 69.05347 60.78935
# Shear Modulus (GPa) = 5.67324 14.61348 10.14336
#
# Velocity S-wave (km/s) = 2.07630 3.33236 2.77630
# Velocity P-wave (km/s) = 6.75733 8.20240 7.51468
#
# Compressibility (1/GPa) = 0.01903847
#
# Stress axis : x y z
#
# Youngs Moduli (GPa) = 62.43580 65.65647 35.70075
#
# Poissons Ratio (x) = 0.38780 0.47684
# Poissons Ratio (y) = 0.36877 0.03023
# Poissons Ratio (z) = 0.83393 0.05559
#
# Static dielectric constant tensor:
#      x y z
#    x 1.439360 0.000000 0.000000 
#    y 0.000000 1.414830 0.000000 
#    z 0.000000 0.000000 1.410150 
# 
# From -- ./inp_files/27467.got.cif
#   From: 2010.05.17/outbox.cif.g08.bks.cpg/sg51_14_cif.got.tgz:27467.got - 2010.06.03 11:52:47.
