data_PCOD9400279
_publ_section_title
;
Structure prediction by ZEFSAII (Michael W. Deem and Ramdas Pophale) SiO2 
 PCOD9400279
Probable space group: P M M A
;
_chemical_formula_sum "Si O2"
_cell_formula_units_Z 52
_cell_length_a 8.578126
_cell_length_b 27.541700
_cell_length_c 14.141337
_cell_angle_alpha 90.000000
_cell_angle_beta 90.000000
_cell_angle_gamma 90.000000
_cell_volume 3340.978159
_symmetry_space_group_name_H-M "P M M A"
_symmetry_group_IT_number 51
_symmetry_cell_setting 'orthorhombic'
loop_
_space_group_symop_operation_xyz
x,y,z
1/2-x,-y,z
1/2+x,-y,-z
-x,y,-z
-x,-y,-z
1/2+x,y,-z
1/2-x,y,z
x,-y,z
loop_
_atom_site_type_symbol
_atom_site_label
_atom_site_fract_x
_atom_site_fract_y
_atom_site_fract_z
Si Si1 0.938804 0.106257 0.607337
Si Si2 0.938375 0.445190 0.105553
Si Si3 0.436391 0.254558 0.894973
Si Si4 0.938230 0.351152 0.217672
Si Si5 0.936212 0.701482 0.604730
Si Si6 0.437881 0.000000 0.392944
Si Si7 0.061674 0.201866 0.283245
O O1 0.750000 0.107549 0.603229
O O2 0.986910 0.052786 0.645520
O O3 0.990660 0.150897 0.672429
O O4 0.000000 0.111775 0.500000
O O5 0.750000 0.444153 0.102660
O O6 0.986695 0.500000 0.132713
O O7 0.990498 0.402527 0.175335
O O8 0.000000 0.435826 0.000000
O O9 0.250000 0.253577 0.897061
O O10 0.485833 0.307121 0.852455
O O11 0.496579 0.215148 0.819586
O O12 0.500000 0.247820 0.000000
O O13 0.750000 0.350981 0.222347
O O14 0.003482 0.337900 0.320234
O O15 0.750000 0.700620 0.602659
O O16 0.985921 0.753950 0.647182
O O17 0.000000 0.694653 0.500000
O O18 0.500000 0.000000 0.500000
O O19 0.250000 0.000000 0.393584
O O20 0.250000 0.201796 0.278236
#
# Coordination Sequence:
#
# PCOD9400279 Si02
#       7
#     8   8   8   8   8   4   8
#     4   9  16  26  41  61  87 116 144 175 209 248
#     4   9  17  29  46  68  92 116 141 172 211 253
#     4  10  19  30  45  64  87 114 142 174 211 252
#     4   9  18  31  46  65  89 116 144 173 208 251
#     4  10  19  30  45  64  87 115 146 179 213 250
#     4   8  14  24  38  58  83 112 143 172 207 248
#     4   9  18  30  43  62  87 115 145 175 210 252
#
# _framework density 15.564304
#
# number of rings (size 3 to 8) (size 9 to 14) (size 15 to 20)
#    0.000    2.769    0.000    1.846    0.000    2.462 
#    0.000    0.000    0.000    0.462    0.000    0.538 
#    0.000    0.000    0.000    0.000    0.000    0.000 
#
# Total GULP energy -289716.894454 kJ/mol
# GULP energy per Si atom -5571.478740 kJ/mol
# Density = 1.552888 g / cm^3
# Si number density = 15.564304 Si / 1000 Ang^3
#
#
#
# Elastic Constant Matrix: (Units=GPa)
#
#
# Indices 1 2 3 4 5 6 
#
# 1 8.3745 25.2757 23.3554 0.0000 0.0000 0.0000
# 2 25.2757 148.0789 87.5903 0.0000 0.0000 0.0000
# 3 23.3554 87.5903 133.7239 0.0000 0.0000 0.0000
# 4 0.0000 0.0000 0.0000 24.6069 0.0000 0.0000
# 5 0.0000 0.0000 0.0000 0.0000 24.0150 0.0000
# 6 0.0000 0.0000 0.0000 0.0000 0.0000 13.5105
#
#
#
# Elastic Compliance Matrix: (Units=1/GPa)
#
#
# Indices 1 2 3 4 5 6 
#
# 1 0.312714 -0.034399 -0.032085 0.000000 0.000000 0.000000
# 2 -0.034399 0.014808 -0.003692 0.000000 0.000000 0.000000
# 3 -0.032085 -0.003692 0.015500 0.000000 0.000000 0.000000
# 4 0.000000 0.000000 0.000000 0.040639 0.000000 0.000000
# 5 0.000000 0.000000 0.000000 0.000000 0.041641 0.000000
# 6 0.000000 0.000000 0.000000 0.000000 0.000000 0.074017
#
#
# Mechanical properties :
#
#
# Convention : Reuss Voigt Hill
#
# Bulk Modulus (GPa) = 4.93409 62.51333 33.72371
# Shear Modulus (GPa) = 7.06985 22.69019 14.88002
#
# Velocity S-wave (km/s) = 2.13359 3.82230 3.09534
# Velocity P-wave (km/s) = 3.04083 7.72863 5.87275
#
# Compressibility (1/GPa) = 0.20267148
#
# Stress axis : x y z
#
# Youngs Moduli (GPa) = 3.19781 67.52916 64.51580
#
# Poissons Ratio (x) = 2.32291 2.07001
# Poissons Ratio (y) = 0.11000 0.23818
# Poissons Ratio (z) = 0.10260 0.24930
#
# Static dielectric constant tensor:
#      x y z
#    x 1.515150 0.000000 0.000000 
#    y 0.000000 1.549510 0.000000 
#    z 0.000000 0.000000 1.476490 
# 
# From -- ./inp_files/22114.got.cif
#   From: 2010.05.17/outbox.cif.g08.bks.cpg/sg51_12_cif.got.tgz:22114.got - 2010.06.03 11:52:47.
