data_PCOD9400272
_publ_section_title
;
Structure prediction by ZEFSAII (Michael W. Deem and Ramdas Pophale) SiO2 
 PCOD9400272
Probable space group: P M M A
;
_chemical_formula_sum "Si O2"
_cell_formula_units_Z 52
_cell_length_a 8.151983
_cell_length_b 19.460343
_cell_length_c 19.286181
_cell_angle_alpha 90.000000
_cell_angle_beta 90.000000
_cell_angle_gamma 90.000000
_cell_volume 3059.567185
_symmetry_space_group_name_H-M "P M M A"
_symmetry_group_IT_number 51
_symmetry_cell_setting 'orthorhombic'
loop_
_space_group_symop_operation_xyz
x,y,z
1/2-x,-y,z
1/2+x,-y,-z
-x,y,-z
-x,-y,-z
1/2+x,y,-z
1/2-x,y,z
x,-y,z
loop_
_atom_site_type_symbol
_atom_site_label
_atom_site_fract_x
_atom_site_fract_y
_atom_site_fract_z
Si Si1 0.945952 0.650313 0.920532
Si Si2 0.054734 0.710982 0.786625
Si Si3 0.553078 0.789703 0.658948
Si Si4 0.553574 0.424682 0.290709
Si Si5 0.948393 0.077316 0.579064
Si Si6 0.553330 0.347682 0.579117
Si Si7 0.552236 0.500000 0.919524
O O1 0.750000 0.648377 0.919621
O O2 0.009111 0.574558 0.894827
O O3 0.005582 0.707141 0.866616
O O4 0.000000 0.660166 0.000000
O O5 0.250000 0.710000 0.781653
O O6 0.986422 0.640238 0.752115
O O7 0.992978 0.771950 0.737728
O O8 0.750000 0.790465 0.654284
O O9 0.491477 0.861806 0.628746
O O10 0.495117 0.725460 0.611524
O O11 0.750000 0.426039 0.281347
O O12 0.487733 0.500000 0.271550
O O13 0.516405 0.406376 0.370525
O O14 0.750000 0.076831 0.581399
O O15 0.000000 0.091804 0.500000
O O16 0.005701 0.000000 0.596654
O O17 0.500000 0.354182 0.500000
O O18 0.750000 0.349500 0.583109
O O19 0.750000 0.500000 0.913640
O O20 0.500000 0.500000 0.000000
#
# Coordination Sequence:
#
# PCOD9400272 Si02
#       7
#     8   8   8   8   8   8   4
#     4  10  19  32  48  68  93 120 152 190 232 279
#     4  10  20  32  48  68  89 118 153 190 233 278
#     4   9  18  32  47  65  92 123 154 187 224 271
#     4   9  19  34  47  60  80 108 144 187 232 275
#     4   9  17  29  47  72 100 129 159 191 229 272
#     4  10  19  30  45  63  82 109 145 185 228 271
#     4   8  16  28  42  62  86 114 145 180 225 274
#
# _framework density 16.995868999999999
#
# number of rings (size 3 to 8) (size 9 to 14) (size 15 to 20)
#    0.000    2.615    0.000    1.846    1.077    3.077 
#    0.000    0.000    0.000    0.000    0.000    0.000 
#    0.000    0.615    0.000    1.692    0.000    2.462 
#
# Total GULP energy -289886.267548 kJ/mol
# GULP energy per Si atom -5574.735914 kJ/mol
# Density = 1.695719 g / cm^3
# Si number density = 16.995869 Si / 1000 Ang^3
#
#
#
# Elastic Constant Matrix: (Units=GPa)
#
#
# Indices 1 2 3 4 5 6 
#
# 1 9.1786 10.0503 -9.2578 0.0000 0.0000 0.0000
# 2 10.0503 97.1406 42.9844 0.0000 0.0000 0.0000
# 3 -9.2578 42.9844 81.7000 0.0000 0.0000 0.0000
# 4 0.0000 0.0000 0.0000 21.7318 0.0000 0.0000
# 5 0.0000 0.0000 0.0000 0.0000 21.1019 0.0000
# 6 0.0000 0.0000 0.0000 0.0000 0.0000 11.8016
#
#
#
# Elastic Compliance Matrix: (Units=1/GPa)
#
#
# Indices 1 2 3 4 5 6 
#
# 1 0.194473 -0.038936 0.042522 0.000000 0.000000 0.000000
# 2 -0.038936 0.021214 -0.015573 0.000000 0.000000 0.000000
# 3 0.042522 -0.015573 0.025252 0.000000 0.000000 0.000000
# 4 0.000000 0.000000 0.000000 0.046016 0.000000 0.000000
# 5 0.000000 0.000000 0.000000 0.000000 0.047389 0.000000
# 6 0.000000 0.000000 0.000000 0.000000 0.000000 0.084734
#
#
# Mechanical properties :
#
#
# Convention : Reuss Voigt Hill
#
# Bulk Modulus (GPa) = 4.60908 30.61921 17.61414
# Shear Modulus (GPa) = 9.70171 20.54320 15.12245
#
# Velocity S-wave (km/s) = 2.39179 3.48043 2.98614
# Velocity P-wave (km/s) = 3.21641 5.84859 4.71971
#
# Compressibility (1/GPa) = 0.21696323
#
# Stress axis : x y z
#
# Youngs Moduli (GPa) = 5.14211 47.13913 39.60138
#
# Poissons Ratio (x) = 1.83542 -1.68392
# Poissons Ratio (y) = 0.20021 0.61672
# Poissons Ratio (z) = -0.21865 0.73410
#
# Static dielectric constant tensor:
#      x y z
#    x 1.577940 0.000000 0.000000 
#    y 0.000000 1.598510 0.000000 
#    z 0.000000 0.000000 1.571900 
# 
# From -- ./inp_files/27911.got.cif
#   From: 2010.05.17/outbox.cif.g08.bks.cpg/sg51_14_cif.got.tgz:27911.got - 2010.06.03 11:52:47.
