data_PCOD9400048
_publ_section_title
;
Structure prediction by ZEFSAII (Michael W. Deem and Ramdas Pophale) SiO2 
 PCOD9400048
Probable space group: P M M A
;
_chemical_formula_sum "Si O2"
_cell_formula_units_Z 64
_cell_length_a 36.434155
_cell_length_b 9.273334
_cell_length_c 12.857014
_cell_angle_alpha 90.000000
_cell_angle_beta 90.000000
_cell_angle_gamma 90.000000
_cell_volume 4343.949028
_symmetry_space_group_name_H-M "P M M A"
_symmetry_group_IT_number 51
_symmetry_cell_setting 'orthorhombic'
loop_
_space_group_symop_operation_xyz
x,y,z
1/2-x,-y,z
1/2+x,-y,-z
-x,y,-z
-x,-y,-z
1/2+x,y,-z
1/2-x,y,z
x,-y,z
loop_
_atom_site_type_symbol
_atom_site_label
_atom_site_fract_x
_atom_site_fract_y
_atom_site_fract_z
Si Si1 0.207618 0.326759 0.200477
Si Si2 0.574626 0.166308 0.380343
Si Si3 0.850391 0.327850 0.388774
Si Si4 0.501408 0.666762 0.373188
Si Si5 0.206587 0.826452 0.758721
Si Si6 0.146205 0.672350 0.365574
Si Si7 0.705469 0.834711 0.007482
Si Si8 0.071717 0.165835 0.366864
O O1 0.250000 0.281257 0.219378
O O2 0.207502 0.500000 0.193381
O O3 0.180277 0.285129 0.293079
O O4 0.194855 0.261136 0.090658
O O5 0.611415 0.253844 0.354749
O O6 0.537991 0.246761 0.342767
O O7 0.572277 0.165029 0.506619
O O8 0.576369 0.000000 0.345934
O O9 0.851921 0.500000 0.374248
O O10 0.817544 0.257122 0.324538
O O11 0.846028 0.299715 0.512521
O O12 0.500000 0.667355 0.500000
O O13 0.502716 0.500000 0.340804
O O14 0.464588 0.746310 0.336077
O O15 0.250000 0.795351 0.747268
O O16 0.202216 0.000000 0.748749
O O17 0.194609 0.786661 0.876639
O O18 0.140224 0.500000 0.355327
O O19 0.109203 0.755689 0.334925
O O20 0.750000 0.835337 0.009832
O O21 0.693500 0.000000 0.992172
O O22 0.070240 0.000000 0.332351
#
# Coordination Sequence:
#
# PCOD9400048 Si02
#       8
#     8   8   8   8   8   8   8   8
#     4   9  17  29  45  63  83 109 141 177 216 256
#     4   9  16  26  39  55  79 110 142 175 210 248
#     4  10  19  29  42  61  86 116 148 178 209 250
#     4   9  15  23  37  56  78 105 138 174 211 250
#     4   9  18  32  47  62  83 111 141 176 219 260
#     4   9  18  30  41  57  86 119 145 173 212 253
#     4   8  15  29  47  64  81 102 132 174 221 261
#     4   9  16  25  38  56  78 107 143 177 208 246
#
# _framework density 14.733139
#
# number of rings (size 3 to 8) (size 9 to 14) (size 15 to 20)
#    0.000    3.000    0.000    2.250    0.000    6.750 
#    0.000    2.500    0.000    1.500    0.000    0.000 
#    0.000    1.000    0.000   10.500    0.000    8.875 
#
# Total GULP energy -356325.458440 kJ/mol
# GULP energy per Si atom -5567.585288 kJ/mol
# Density = 1.469961 g / cm^3
# Si number density = 14.733139 Si / 1000 Ang^3
#
#
#
# Elastic Constant Matrix: (Units=GPa)
#
#
# Indices 1 2 3 4 5 6 
#
# 1 115.8619 67.8070 53.5767 0.0000 0.0000 0.0000
# 2 67.8070 80.8037 43.1118 0.0000 0.0000 0.0000
# 3 53.5767 43.1118 53.6685 0.0000 0.0000 0.0000
# 4 0.0000 0.0000 0.0000 18.4696 0.0000 0.0000
# 5 0.0000 0.0000 0.0000 0.0000 -0.9304 0.0000
# 6 0.0000 0.0000 0.0000 0.0000 0.0000 27.6209
#
#
#
# Elastic Compliance Matrix: (Units=1/GPa)
#
#
# Indices 1 2 3 4 5 6 
#
# 1 0.020371 -0.010928 -0.011558 0.000000 0.000000 0.000000
# 2 -0.010928 0.027520 -0.011198 0.000000 0.000000 0.000000
# 3 -0.011558 -0.011198 0.039166 0.000000 0.000000 0.000000
# 4 0.000000 0.000000 0.000000 0.054143 0.000000 0.000000
# 5 0.000000 0.000000 0.000000 0.000000 -1.074780 0.000000
# 6 0.000000 0.000000 0.000000 0.000000 0.000000 0.036205
#
#
# Mechanical properties :
#
#
# Convention : Reuss Voigt Hill
#
# Bulk Modulus (GPa) = 50.78613 64.36946 57.57780
# Shear Modulus (GPa) = -6.07205 14.75459 4.34127
#
# Velocity S-wave (km/s) = -2.03231 3.16801 1.71843
# Velocity P-wave (km/s) = 5.38873 7.56088 6.56526
#
# Compressibility (1/GPa) = 0.01969041
#
# Stress axis : x y z
#
# Youngs Moduli (GPa) = 49.08962 36.33675 25.53241
#
# Poissons Ratio (x) = 0.39709 0.29510
# Poissons Ratio (y) = 0.53645 0.28591
# Poissons Ratio (z) = 0.56736 0.40689
#
# Static dielectric constant tensor:
#      x y z
#    x 1.480180 0.000000 0.000000 
#    y 0.000000 1.494250 0.000000 
#    z 0.000000 0.000000 1.464050 
# 
# From -- ./inp_files/19516.got.cif
#   From: 2010.05.17/outbox.cif.g08.bks.cpg/sg51_10_cif.got.tgz:19516.got - 2010.06.03 11:52:47.
