data_PCOD9400969
_publ_section_title
;
Structure prediction by ZEFSAII (Michael W. Deem and Ramdas Pophale) SiO2 
 PCOD9400969
Probable space group: P M M A
;
_chemical_formula_sum "Si O2"
_cell_formula_units_Z 64
_cell_length_a 34.192017
_cell_length_b 8.567637
_cell_length_c 11.002318
_cell_angle_alpha 90.000000
_cell_angle_beta 90.000000
_cell_angle_gamma 90.000000
_cell_volume 3223.071736
_symmetry_space_group_name_H-M "P M M A"
_symmetry_group_IT_number 51
_symmetry_cell_setting 'orthorhombic'
loop_
_space_group_symop_operation_xyz
x,y,z
1/2-x,-y,z
1/2+x,-y,-z
-x,y,-z
-x,-y,-z
1/2+x,y,-z
1/2-x,y,z
x,-y,z
loop_
_atom_site_type_symbol
_atom_site_label
_atom_site_fract_x
_atom_site_fract_y
_atom_site_fract_z
Si Si1 0.942830 0.818624 0.582371
Si Si2 0.059505 0.314491 0.677597
Si Si3 0.205111 0.686716 0.927629
Si Si4 0.370969 0.318213 0.303022
Si Si5 0.413653 0.816662 0.070953
Si Si6 0.628973 0.184699 0.184856
Si Si7 0.014316 0.683435 0.185779
Si Si8 0.295075 0.186104 0.200826
O O1 0.952693 0.770190 0.446106
O O2 0.896980 0.782559 0.604817
O O3 0.964715 0.716293 0.684065
O O4 0.951295 0.000000 0.604301
O O5 0.055643 0.500000 0.661254
O O6 0.103375 0.269691 0.713595
O O7 0.029977 0.266980 0.786313
O O8 0.250000 0.724625 0.893459
O O9 0.201385 0.500000 0.935557
O O10 0.172504 0.753200 0.837648
O O11 0.198385 0.757287 0.062166
O O12 0.374554 0.500000 0.332493
O O13 0.390528 0.283016 0.171585
O O14 0.326345 0.266666 0.287974
O O15 0.459079 0.772165 0.088188
O O16 0.408734 0.000000 0.099919
O O17 0.394444 0.787172 0.941329
O O18 0.629399 0.000000 0.207679
O O19 0.015274 0.500000 0.157451
O O20 0.250000 0.222331 0.231153
O O21 0.300654 0.000000 0.203952
#
# Coordination Sequence:
#
# PCOD9400969 Si02
#       8
#     8   8   8   8   8   8   8   8
#     4  11  22  37  59  82 107 140 183 232 280 329
#     4  11  24  40  57  79 109 145 189 234 276 326
#     4  10  20  34  55  83 113 147 185 225 271 323
#     4  11  20  32  54  80 110 144 180 224 274 328
#     4  10  20  34  53  79 111 146 183 225 276 329
#     4  11  23  37  56  81 114 151 187 229 276 329
#     4  10  21  37  58  82 109 143 183 231 282 330
#     4  10  19  31  50  79 114 146 178 220 271 327
#
# _framework density 19.856833000000002
#
# number of rings (size 3 to 8) (size 9 to 14) (size 15 to 20)
#    0.000    1.500    1.250    6.375    0.000    7.000 
#    0.000    2.500    0.000    0.750    0.000    0.000 
#    0.000    0.000    0.000    0.000    0.000    0.000 
#
# Total GULP energy -357723.120873 kJ/mol
# GULP energy per Si atom -5589.423764 kJ/mol
# Density = 1.981164 g / cm^3
# Si number density = 19.856833 Si / 1000 Ang^3
#
#
#
# Elastic Constant Matrix: (Units=GPa)
#
#
# Indices 1 2 3 4 5 6 
#
# 1 101.9231 5.8110 4.9094 0.0000 0.0000 0.0000
# 2 5.8110 32.9896 4.3752 0.0000 0.0000 0.0000
# 3 4.9094 4.3752 26.3396 0.0000 0.0000 0.0000
# 4 0.0000 0.0000 0.0000 21.8828 0.0000 0.0000
# 5 0.0000 0.0000 0.0000 0.0000 24.4820 0.0000
# 6 0.0000 0.0000 0.0000 0.0000 0.0000 28.4933
#
#
#
# Elastic Compliance Matrix: (Units=1/GPa)
#
#
# Indices 1 2 3 4 5 6 
#
# 1 0.009977 -0.001545 -0.001603 0.000000 0.000000 0.000000
# 2 -0.001545 0.031235 -0.004900 0.000000 0.000000 0.000000
# 3 -0.001603 -0.004900 0.039078 0.000000 0.000000 0.000000
# 4 0.000000 0.000000 0.000000 0.045698 0.000000 0.000000
# 5 0.000000 0.000000 0.000000 0.000000 0.040846 0.000000
# 6 0.000000 0.000000 0.000000 0.000000 0.000000 0.035096
#
#
# Mechanical properties :
#
#
# Convention : Reuss Voigt Hill
#
# Bulk Modulus (GPa) = 15.57792 21.27151 18.42472
# Shear Modulus (GPa) = 20.88348 24.71541 22.79945
#
# Velocity S-wave (km/s) = 3.24651 3.53183 3.39217
# Velocity P-wave (km/s) = 4.68138 5.23139 4.96401
#
# Compressibility (1/GPa) = 0.06419342
#
# Stress axis : x y z
#
# Youngs Moduli (GPa) = 100.23453 32.01583 25.58960
#
# Poissons Ratio (x) = 0.04946 0.04102
# Poissons Ratio (y) = 0.15484 0.12540
# Poissons Ratio (z) = 0.16067 0.15689
#
# Static dielectric constant tensor:
#      x y z
#    x 1.748110 0.000000 0.000000 
#    y 0.000000 1.664490 0.000000 
#    z 0.000000 0.000000 1.683850 
# 
# From -- ./inp_files/19564.got.cif
#   From: 2010.05.17/outbox.cif.g08.bks.cpg/sg51_10_cif.got.tgz:19564.got - 2010.06.03 11:52:47.
