data_PCOD9400001
_publ_section_title
;
Structure prediction by ZEFSAII (Michael W. Deem and Ramdas Pophale) SiO2 
 PCOD9400001
Probable space group: P M M A
;
_chemical_formula_sum "Si O2"
_cell_formula_units_Z 64
_cell_length_a 23.817666
_cell_length_b 9.245303
_cell_length_c 17.524455
_cell_angle_alpha 90.000000
_cell_angle_beta 90.000000
_cell_angle_gamma 90.000000
_cell_volume 3858.911960
_symmetry_space_group_name_H-M "P M M A"
_symmetry_group_IT_number 51
_symmetry_cell_setting 'orthorhombic'
loop_
_space_group_symop_operation_xyz
x,y,z
1/2-x,-y,z
1/2+x,-y,-z
-x,y,-z
-x,-y,-z
1/2+x,y,-z
1/2-x,y,z
x,-y,z
loop_
_atom_site_type_symbol
_atom_site_label
_atom_site_fract_x
_atom_site_fract_y
_atom_site_fract_z
Si Si1 0.484728 0.673679 0.913310
Si Si2 0.431384 0.326587 0.222263
Si Si3 0.985890 0.834474 0.326778
Si Si4 0.615589 0.174812 0.422051
Si Si5 0.185938 0.828467 0.432113
Si Si6 0.187949 0.674295 0.270214
Si Si7 0.602629 0.166416 0.184916
Si Si8 0.816712 0.330105 0.288433
O O1 0.476538 0.500000 0.908069
O O2 0.534501 0.713639 0.854051
O O3 0.429779 0.755264 0.883290
O O4 0.500000 0.709500 0.000000
O O5 0.434096 0.500000 0.228302
O O6 0.463046 0.259727 0.295540
O O7 0.366399 0.281476 0.221865
O O8 0.948434 0.786134 0.399129
O O9 0.940883 0.832726 0.256846
O O10 0.004362 0.000000 0.338969
O O11 0.639221 0.210248 0.505392
O O12 0.656058 0.252099 0.361461
O O13 0.619620 0.000000 0.412300
O O14 0.250000 0.804964 0.462165
O O15 0.180750 0.739866 0.354488
O O16 0.180980 0.000000 0.416099
O O17 0.250000 0.718807 0.242052
O O18 0.187631 0.500000 0.275061
O O19 0.655842 0.254630 0.214893
O O20 0.615788 0.000000 0.168138
O O21 0.750000 0.314732 0.289479
O O22 0.831249 0.500000 0.289458
#
# Coordination Sequence:
#
# PCOD9400001 Si02
#       8
#     8   8   8   8   8   8   8   8
#     4   9  17  30  50  74  97 118 142 179 226 275
#     4   9  17  30  48  68  89 116 148 180 221 272
#     4   8  15  27  43  64  88 115 147 182 221 264
#     4   9  17  29  44  63  89 120 154 192 233 274
#     4   9  17  29  45  64  86 115 153 195 235 272
#     4   9  18  32  48  65  86 113 148 189 227 266
#     4   9  17  29  45  65  91 122 154 186 220 264
#     4  10  19  28  41  64  92 123 159 194 227 266
#
# _framework density 16.584987000000002
#
# number of rings (size 3 to 8) (size 9 to 14) (size 15 to 20)
#    0.000    3.000    0.000    1.875    0.000    5.750 
#    0.000    1.875    0.000    4.500    0.000    3.500 
#    0.000    0.000    0.000    0.000    0.000    0.000 
#
# Total GULP energy -356410.866035 kJ/mol
# GULP energy per Si atom -5568.919782 kJ/mol
# Density = 1.654724 g / cm^3
# Si number density = 16.584987 Si / 1000 Ang^3
#
#
#
# Elastic Constant Matrix: (Units=GPa)
#
#
# Indices 1 2 3 4 5 6 
#
# 1 80.2785 26.7091 22.3136 0.0000 0.0000 0.0000
# 2 26.7091 24.5604 11.7143 0.0000 0.0000 0.0000
# 3 22.3136 11.7143 35.5346 0.0000 0.0000 0.0000
# 4 0.0000 0.0000 0.0000 17.6094 0.0000 0.0000
# 5 0.0000 0.0000 0.0000 0.0000 22.5655 0.0000
# 6 0.0000 0.0000 0.0000 0.0000 0.0000 19.6903
#
#
#
# Elastic Compliance Matrix: (Units=1/GPa)
#
#
# Indices 1 2 3 4 5 6 
#
# 1 0.020759 -0.019410 -0.006637 0.000000 0.000000 0.000000
# 2 -0.019410 0.066460 -0.009721 0.000000 0.000000 0.000000
# 3 -0.006637 -0.009721 0.035514 0.000000 0.000000 0.000000
# 4 0.000000 0.000000 0.000000 0.056788 0.000000 0.000000
# 5 0.000000 0.000000 0.000000 0.000000 0.044315 0.000000
# 6 0.000000 0.000000 0.000000 0.000000 0.000000 0.050787
#
#
# Mechanical properties :
#
#
# Convention : Reuss Voigt Hill
#
# Bulk Modulus (GPa) = 19.53208 29.09416 24.31312
# Shear Modulus (GPa) = 13.76563 17.28215 15.52389
#
# Velocity S-wave (km/s) = 2.88411 3.23156 3.06276
# Velocity P-wave (km/s) = 4.78469 5.61289 5.21526
#
# Compressibility (1/GPa) = 0.05119782
#
# Stress axis : x y z
#
# Youngs Moduli (GPa) = 48.17168 15.04665 28.15804
#
# Poissons Ratio (x) = 0.29205 0.18688
# Poissons Ratio (y) = 0.93499 0.27372
# Poissons Ratio (z) = 0.31971 0.14627
#
# Static dielectric constant tensor:
#      x y z
#    x 1.585140 0.000000 0.000000 
#    y 0.000000 1.555080 0.000000 
#    z 0.000000 0.000000 1.543200 
# 
# From -- ./inp_files/30828.got.cif
#   From: 2010.05.17/outbox.cif.g08.bks.cpg/sg51_16_cif.got.tgz:30828.got - 2010.06.03 11:52:47.
