data_PCOD9400767
_publ_section_title
;
Structure prediction by ZEFSAII (Michael W. Deem and Ramdas Pophale) SiO2 
 PCOD9400767
Probable space group: P M M A
;
_chemical_formula_sum "Si O2"
_cell_formula_units_Z 64
_cell_length_a 18.821384
_cell_length_b 14.433969
_cell_length_c 15.486572
_cell_angle_alpha 90.000000
_cell_angle_beta 90.000000
_cell_angle_gamma 90.000000
_cell_volume 4207.194786
_symmetry_space_group_name_H-M "P M M A"
_symmetry_group_IT_number 51
_symmetry_cell_setting 'orthorhombic'
loop_
_space_group_symop_operation_xyz
x,y,z
1/2-x,-y,z
1/2+x,-y,-z
-x,y,-z
-x,-y,-z
1/2+x,y,-z
1/2-x,y,z
x,-y,z
loop_
_atom_site_type_symbol
_atom_site_label
_atom_site_fract_x
_atom_site_fract_y
_atom_site_fract_z
Si Si1 0.334026 0.111009 0.453922
Si Si2 0.835532 0.601439 0.304726
Si Si3 0.165815 0.393199 0.900714
Si Si4 0.333532 0.111058 0.106625
Si Si5 0.835719 0.800383 0.362647
Si Si6 0.921047 0.219969 0.037415
Si Si7 0.588338 0.887938 0.718681
Si Si8 0.068879 0.110872 0.781758
O O1 0.250000 0.127565 0.437362
O O2 0.354017 0.158312 0.544054
O O3 0.379989 0.144254 0.372407
O O4 0.342863 0.000000 0.463372
O O5 0.750000 0.598649 0.314666
O O6 0.863203 0.500000 0.331797
O O7 0.848336 0.612784 0.202298
O O8 0.860008 0.693706 0.352714
O O9 0.250000 0.374022 0.913208
O O10 0.152776 0.500000 0.926706
O O11 0.117809 0.317688 0.947185
O O12 0.250000 0.130189 0.100855
O O13 0.364028 0.140863 0.199685
O O14 0.343808 0.000000 0.099585
O O15 0.376163 0.160971 0.031240
O O16 0.750000 0.804055 0.354001
O O17 0.870929 0.858383 0.285605
O O18 0.923547 0.164494 0.127979
O O19 0.000000 0.231509 0.000000
O O20 0.507062 0.863998 0.738983
O O21 0.592046 0.000000 0.715562
O O22 0.070439 0.000000 0.796027
#
# Coordination Sequence:
#
# PCOD9400767 Si02
#       8
#     8   8   8   8   8   8   8   8
#     4   9  17  30  49  72  98 126 159 204 248 287
#     4   8  14  27  48  70  92 119 151 190 236 289
#     4   9  18  34  54  74  97 126 163 206 248 295
#     4  10  20  33  50  71  96 133 179 216 243 284
#     4  10  19  31  48  74 102 126 157 198 250 307
#     4  12  22  33  50  73 103 133 165 206 254 302
#     4   9  18  33  49  66  92 131 175 210 241 279
#     4  11  22  33  47  68 101 139 167 198 247 298
#
# _framework density 15.212035999999999
#
# number of rings (size 3 to 8) (size 9 to 14) (size 15 to 20)
#    0.000    2.250    2.500    2.250    0.000    4.000 
#    0.000    1.875    0.000    0.000    0.000    3.500 
#    0.000    4.000    0.000    0.000    0.000    0.000 
#
# Total GULP energy -356712.938934 kJ/mol
# GULP energy per Si atom -5573.639671 kJ/mol
# Density = 1.517741 g / cm^3
# Si number density = 15.212036 Si / 1000 Ang^3
#
#
#
# Elastic Constant Matrix: (Units=GPa)
#
#
# Indices 1 2 3 4 5 6 
#
# 1 74.3992 50.0168 63.2363 0.0000 0.0000 0.0000
# 2 50.0168 73.3406 53.4488 0.0000 0.0000 0.0000
# 3 63.2363 53.4488 126.7491 0.0000 0.0000 0.0000
# 4 0.0000 0.0000 0.0000 10.0525 0.0000 0.0000
# 5 0.0000 0.0000 0.0000 0.0000 25.1604 0.0000
# 6 0.0000 0.0000 0.0000 0.0000 0.0000 14.5535
#
#
#
# Elastic Compliance Matrix: (Units=1/GPa)
#
#
# Indices 1 2 3 4 5 6 
#
# 1 0.031136 -0.014311 -0.009499 0.000000 0.000000 0.000000
# 2 -0.014311 0.026263 -0.003935 0.000000 0.000000 0.000000
# 3 -0.009499 -0.003935 0.014288 0.000000 0.000000 0.000000
# 4 0.000000 0.000000 0.000000 0.099478 0.000000 0.000000
# 5 0.000000 0.000000 0.000000 0.000000 0.039745 0.000000
# 6 0.000000 0.000000 0.000000 0.000000 0.000000 0.068712
#
#
# Mechanical properties :
#
#
# Convention : Reuss Voigt Hill
#
# Bulk Modulus (GPa) = 61.74212 67.54363 64.64288
# Shear Modulus (GPa) = 14.68385 17.13910 15.91148
#
# Velocity S-wave (km/s) = 3.11026 3.36025 3.23767
# Velocity P-wave (km/s) = 7.31943 7.71705 7.52087
#
# Compressibility (1/GPa) = 0.01619640
#
# Stress axis : x y z
#
# Youngs Moduli (GPa) = 32.11710 38.07710 69.98925
#
# Poissons Ratio (x) = 0.54494 0.66483
# Poissons Ratio (y) = 0.45964 0.27537
# Poissons Ratio (z) = 0.30508 0.14981
#
# Static dielectric constant tensor:
#      x y z
#    x 1.501490 0.000000 0.000000 
#    y 0.000000 1.504970 0.000000 
#    z 0.000000 0.000000 1.488680 
# 
# From -- ./inp_files/25226.got.cif
#   From: 2010.05.17/outbox.cif.g08.bks.cpg/sg51_13_cif.got.tgz:25226.got - 2010.06.03 11:52:47.
