data_PCOD9400948
_publ_section_title
;
Structure prediction by ZEFSAII (Michael W. Deem and Ramdas Pophale) SiO2 
 PCOD9400948
Probable space group: P M M A
;
_chemical_formula_sum "Si O2"
_cell_formula_units_Z 56
_cell_length_a 22.299672
_cell_length_b 7.557346
_cell_length_c 14.540054
_cell_angle_alpha 90.000000
_cell_angle_beta 90.000000
_cell_angle_gamma 90.000000
_cell_volume 2450.382040
_symmetry_space_group_name_H-M "P M M A"
_symmetry_group_IT_number 51
_symmetry_cell_setting 'orthorhombic'
loop_
_space_group_symop_operation_xyz
x,y,z
1/2-x,-y,z
1/2+x,-y,-z
-x,y,-z
-x,-y,-z
1/2+x,y,-z
1/2-x,y,z
x,-y,z
loop_
_atom_site_type_symbol
_atom_site_label
_atom_site_fract_x
_atom_site_fract_y
_atom_site_fract_z
Si Si1 0.914273 0.302484 0.034198
Si Si2 0.496901 0.792399 0.803417
Si Si3 0.682259 0.717864 0.891214
Si Si4 0.606701 0.787785 0.341934
Si Si5 0.316967 0.213551 0.820754
Si Si6 0.563251 0.296094 0.533620
Si Si7 0.618319 0.299797 0.718151
O O1 0.930213 0.500000 0.004789
O O2 0.863650 0.305270 0.113378
O O3 0.970203 0.228843 0.093688
O O4 0.873909 0.216541 0.953468
O O5 0.448268 0.735456 0.726006
O O6 0.558253 0.696387 0.780510
O O7 0.507208 0.000000 0.789868
O O8 0.750000 0.770230 0.919731
O O9 0.680616 0.500000 0.895042
O O10 0.668243 0.775233 0.786646
O O11 0.665661 0.745128 0.283793
O O12 0.602549 0.707130 0.442011
O O13 0.603095 0.000000 0.352083
O O14 0.250000 0.262701 0.843673
O O15 0.324662 0.000000 0.831775
O O16 0.500000 0.214433 0.500000
O O17 0.549358 0.500000 0.560284
O O18 0.596440 0.216123 0.622055
O O19 0.638094 0.500000 0.696436
#
# Coordination Sequence:
#
# PCOD9400948 Si02
#       7
#     8   8   8   8   8   8   8
#     4  10  19  32  54  80 105 134 174 219 259 307
#     4  10  20  34  52  79 111 138 168 209 264 320
#     4   9  19  36  56  77 102 137 181 219 254 306
#     4   9  18  31  49  73 101 136 172 206 251 311
#     4   9  18  33  51  74 106 141 175 212 259 314
#     4  10  19  31  50  77 105 132 168 215 264 311
#     4  10  20  35  55  77 104 139 175 217 267 312
#
# _framework density 22.853580000000001
#
# number of rings (size 3 to 8) (size 9 to 14) (size 15 to 20)
#    0.000    2.429    1.429    2.143    0.000    4.571 
#    0.000    5.000    0.000    3.000    0.000    0.000 
#    0.000    0.000    0.000    0.000    0.000    0.000 
#
# Total GULP energy -312382.483323 kJ/mol
# GULP energy per Si atom -5578.258631 kJ/mol
# Density = 2.280156 g / cm^3
# Si number density = 22.853580 Si / 1000 Ang^3
#
#
#
# Elastic Constant Matrix: (Units=GPa)
#
#
# Indices 1 2 3 4 5 6 
#
# 1 35.2453 -2.2832 19.8324 0.0000 0.0000 0.0000
# 2 -2.2832 50.7073 -1.3220 0.0000 0.0000 0.0000
# 3 19.8324 -1.3220 156.3656 0.0000 0.0000 0.0000
# 4 0.0000 0.0000 0.0000 14.2792 0.0000 0.0000
# 5 0.0000 0.0000 0.0000 0.0000 27.0097 0.0000
# 6 0.0000 0.0000 0.0000 0.0000 0.0000 6.5191
#
#
#
# Elastic Compliance Matrix: (Units=1/GPa)
#
#
# Indices 1 2 3 4 5 6 
#
# 1 0.030636 0.001278 -0.003875 0.000000 0.000000 0.000000
# 2 0.001278 0.019779 0.000005 0.000000 0.000000 0.000000
# 3 -0.003875 0.000005 0.006887 0.000000 0.000000 0.000000
# 4 0.000000 0.000000 0.000000 0.070032 0.000000 0.000000
# 5 0.000000 0.000000 0.000000 0.000000 0.037024 0.000000
# 6 0.000000 0.000000 0.000000 0.000000 0.000000 0.153396
#
#
# Mechanical properties :
#
#
# Convention : Reuss Voigt Hill
#
# Bulk Modulus (GPa) = 19.18703 30.53029 24.85866
# Shear Modulus (GPa) = 14.69256 24.63432 19.66344
#
# Velocity S-wave (km/s) = 2.53830 3.28673 2.93646
# Velocity P-wave (km/s) = 4.12365 5.27177 4.73265
#
# Compressibility (1/GPa) = 0.05211855
#
# Stress axis : x y z
#
# Youngs Moduli (GPa) = 32.64158 50.55940 145.20593
#
# Poissons Ratio (x) = -0.06464 0.56265
# Poissons Ratio (y) = -0.04173 -0.00074
# Poissons Ratio (z) = 0.12648 -0.00026
#
# Static dielectric constant tensor:
#      x y z
#    x 1.853510 0.000000 0.000000 
#    y 0.000000 1.898240 0.000000 
#    z 0.000000 0.000000 1.887920 
# 
# From -- ./inp_files/25790.got.cif
#   From: 2010.05.17/outbox.cif.g08.bks.cpg/sg51_13_cif.got.tgz:25790.got - 2010.06.03 11:52:47.
