data_PCOD9400950
_publ_section_title
;
Structure prediction by ZEFSAII (Michael W. Deem and Ramdas Pophale) SiO2 
 PCOD9400950
Probable space group: P M M A
;
_chemical_formula_sum "Si O2"
_cell_formula_units_Z 64
_cell_length_a 19.777005
_cell_length_b 8.679969
_cell_length_c 19.688304
_cell_angle_alpha 90.000000
_cell_angle_beta 90.000000
_cell_angle_gamma 90.000000
_cell_volume 3379.768889
_symmetry_space_group_name_H-M "P M M A"
_symmetry_group_IT_number 51
_symmetry_cell_setting 'orthorhombic'
loop_
_space_group_symop_operation_xyz
x,y,z
1/2-x,-y,z
1/2+x,-y,-z
-x,y,-z
-x,-y,-z
1/2+x,y,-z
1/2-x,y,z
x,-y,z
loop_
_atom_site_type_symbol
_atom_site_label
_atom_site_fract_x
_atom_site_fract_y
_atom_site_fract_z
Si Si1 0.171179 0.686716 0.532368
Si Si2 0.573704 0.814514 0.358787
Si Si3 0.328466 0.186505 0.006144
Si Si4 0.046357 0.683584 0.936305
Si Si5 0.531126 0.178663 0.212862
Si Si6 0.900275 0.674737 0.734256
Si Si7 0.829246 0.174044 0.846422
Si Si8 0.068002 0.318878 0.414868
O O1 0.250000 0.733904 0.522556
O O2 0.170464 0.500000 0.531794
O O3 0.138016 0.748397 0.601565
O O4 0.116870 0.738890 0.474662
O O5 0.573077 0.764092 0.279188
O O6 0.504476 0.758014 0.397124
O O7 0.573384 0.000000 0.360027
O O8 0.250000 0.231158 0.997391
O O9 0.377901 0.261566 0.952650
O O10 0.331726 0.000000 0.003514
O O11 0.355825 0.232611 0.081220
O O12 0.041148 0.500000 0.936127
O O13 0.031360 0.741961 0.860379
O O14 0.000000 0.741621 0.000000
O O15 0.456293 0.205115 0.241860
O O16 0.547158 0.000000 0.202565
O O17 0.925060 0.500000 0.744841
O O18 0.839995 0.712857 0.784241
O O19 0.889110 0.692986 0.654709
O O20 0.750000 0.159540 0.858644
O O21 0.854626 0.000000 0.833496
O O22 0.053528 0.500000 0.427570
#
# Coordination Sequence:
#
# PCOD9400950 Si02
#       8
#     8   8   8   8   8   8   8   8
#     4  10  21  37  57  81 110 145 183 221 265 320
#     4  10  21  37  58  83 108 137 179 226 268 314
#     4   9  19  36  55  74 100 139 183 220 261 320
#     4  11  23  36  54  84 115 139 172 223 275 319
#     4  10  21  37  56  77 104 140 178 216 263 322
#     4  10  19  31  50  77 107 137 172 219 267 309
#     4   9  18  32  49  70 100 140 181 216 256 316
#     4   9  19  35  55  79 109 145 181 217 262 320
#
# _framework density 18.936205000000001
#
# number of rings (size 3 to 8) (size 9 to 14) (size 15 to 20)
#    0.000    2.250    0.000    3.375    0.000    8.750 
#    0.000    3.125    0.000    0.750    0.000    0.000 
#    0.000    0.000    0.000    0.000    0.000    0.000 
#
# Total GULP energy -356467.388700 kJ/mol
# GULP energy per Si atom -5569.802948 kJ/mol
# Density = 1.889311 g / cm^3
# Si number density = 18.936205 Si / 1000 Ang^3
#
#
#
# Elastic Constant Matrix: (Units=GPa)
#
#
# Indices 1 2 3 4 5 6 
#
# 1 59.7785 8.6805 46.8064 0.0000 0.0000 0.0000
# 2 8.6805 16.2758 25.0022 0.0000 0.0000 0.0000
# 3 46.8064 25.0022 127.1013 0.0000 0.0000 0.0000
# 4 0.0000 0.0000 0.0000 27.1566 0.0000 0.0000
# 5 0.0000 0.0000 0.0000 0.0000 25.0502 0.0000
# 6 0.0000 0.0000 0.0000 0.0000 0.0000 22.6654
#
#
#
# Elastic Compliance Matrix: (Units=1/GPa)
#
#
# Indices 1 2 3 4 5 6 
#
# 1 0.023520 0.001091 -0.008876 0.000000 0.000000 0.000000
# 2 0.001091 0.088098 -0.017732 0.000000 0.000000 0.000000
# 3 -0.008876 -0.017732 0.014624 0.000000 0.000000 0.000000
# 4 0.000000 0.000000 0.000000 0.036823 0.000000 0.000000
# 5 0.000000 0.000000 0.000000 0.000000 0.039920 0.000000
# 6 0.000000 0.000000 0.000000 0.000000 0.000000 0.044120
#
#
# Mechanical properties :
#
#
# Convention : Reuss Voigt Hill
#
# Bulk Modulus (GPa) = 13.29631 40.45930 26.87781
# Shear Modulus (GPa) = 15.46990 23.15222 19.31106
#
# Velocity S-wave (km/s) = 2.86133 3.50042 3.19689
# Velocity P-wave (km/s) = 4.23712 6.14409 5.27745
#
# Compressibility (1/GPa) = 0.07520885
#
# Stress axis : x y z
#
# Youngs Moduli (GPa) = 42.51712 11.35103 68.37869
#
# Poissons Ratio (x) = -0.01238 0.60693
# Poissons Ratio (y) = -0.04639 1.21246
# Poissons Ratio (z) = 0.37739 0.20127
#
# Static dielectric constant tensor:
#      x y z
#    x 1.690810 0.000000 0.000000 
#    y 0.000000 1.665890 0.000000 
#    z 0.000000 0.000000 1.706490 
# 
# From -- ./inp_files/30696.got.cif
#   From: 2010.05.17/outbox.cif.g08.bks.cpg/sg51_16_cif.got.tgz:30696.got - 2010.06.03 11:52:47.
