data_PCOD9400823
_publ_section_title
;
Structure prediction by ZEFSAII (Michael W. Deem and Ramdas Pophale) SiO2 
 PCOD9400823
Probable space group: P M M A
;
_chemical_formula_sum "Si O2"
_cell_formula_units_Z 48
_cell_length_a 18.906730
_cell_length_b 8.528112
_cell_length_c 16.830852
_cell_angle_alpha 90.000000
_cell_angle_beta 90.000000
_cell_angle_gamma 90.000000
_cell_volume 2713.784881
_symmetry_space_group_name_H-M "P M M A"
_symmetry_group_IT_number 51
_symmetry_cell_setting 'orthorhombic'
loop_
_space_group_symop_operation_xyz
x,y,z
1/2-x,-y,z
1/2+x,-y,-z
-x,y,-z
-x,-y,-z
1/2+x,y,-z
1/2-x,y,z
x,-y,z
loop_
_atom_site_type_symbol
_atom_site_label
_atom_site_fract_x
_atom_site_fract_y
_atom_site_fract_z
Si Si1 0.458531 0.812607 0.237860
Si Si2 0.832028 0.311002 0.484547
Si Si3 0.094199 0.311670 0.677434
Si Si4 0.966995 0.312543 0.083504
Si Si5 0.830596 0.812257 0.167862
Si Si6 0.169135 0.810891 0.343875
O O1 0.520318 0.766992 0.299445
O O2 0.480972 0.734889 0.155222
O O3 0.384405 0.759747 0.275258
O O4 0.457838 0.000000 0.227409
O O5 0.750000 0.263054 0.473354
O O6 0.833984 0.500000 0.487812
O O7 0.876941 0.261409 0.408279
O O8 0.855694 0.245789 0.569474
O O9 0.086466 0.500000 0.678279
O O10 0.148002 0.263710 0.747729
O O11 0.959631 0.500000 0.082025
O O12 0.890549 0.241369 0.105743
O O13 0.000000 0.259564 0.000000
O O14 0.750000 0.769892 0.146476
O O15 0.834900 0.000000 0.176066
O O16 0.250000 0.755878 0.332658
O O17 0.169541 0.000000 0.344267
#
# Coordination Sequence:
#
# PCOD9400823 Si02
#       6
#     8   8   8   8   8   8
#     4  10  20  34  53  75  99 128 164 206 252 302
#     4   9  18  31  47  69  97 132 172 209 246 288
#     4  10  19  31  49  73 103 136 169 206 248 296
#     4  10  21  37  57  79 103 132 165 202 248 302
#     4  10  20  33  52  79 107 135 168 204 246 297
#     4   9  19  35  52  70  95 130 170 210 251 293
#
# _framework density 17.687473000000001
#
# number of rings (size 3 to 8) (size 9 to 14) (size 15 to 20)
#    0.000    2.333    0.000    4.500    0.000    6.667 
#    0.000    5.833    0.000    3.000    0.000    0.000 
#    0.000    0.000    0.000    0.000    0.000    0.000 
#
# Total GULP energy -267796.045707 kJ/mol
# GULP energy per Si atom -5579.084286 kJ/mol
# Density = 1.764722 g / cm^3
# Si number density = 17.687473 Si / 1000 Ang^3
#
#
#
# Elastic Constant Matrix: (Units=GPa)
#
#
# Indices 1 2 3 4 5 6 
#
# 1 91.8387 3.7575 66.4741 0.0000 0.0000 0.0000
# 2 3.7575 12.5708 -1.2337 0.0000 0.0000 0.0000
# 3 66.4741 -1.2337 92.0028 0.0000 0.0000 0.0000
# 4 0.0000 0.0000 0.0000 37.4650 0.0000 0.0000
# 5 0.0000 0.0000 0.0000 0.0000 21.0706 0.0000
# 6 0.0000 0.0000 0.0000 0.0000 0.0000 15.1077
#
#
#
# Elastic Compliance Matrix: (Units=1/GPa)
#
#
# Indices 1 2 3 4 5 6 
#
# 1 0.023760 -0.008798 -0.017285 0.000000 0.000000 0.000000
# 2 -0.008798 0.082912 0.007469 0.000000 0.000000 0.000000
# 3 -0.017285 0.007469 0.023458 0.000000 0.000000 0.000000
# 4 0.000000 0.000000 0.000000 0.026692 0.000000 0.000000
# 5 0.000000 0.000000 0.000000 0.000000 0.047460 0.000000
# 6 0.000000 0.000000 0.000000 0.000000 0.000000 0.066192
#
#
# Mechanical properties :
#
#
# Convention : Reuss Voigt Hill
#
# Bulk Modulus (GPa) = 10.76410 37.15643 23.96027
# Shear Modulus (GPa) = 14.76370 23.22295 18.99333
#
# Velocity S-wave (km/s) = 2.89225 3.62741 3.28049
# Velocity P-wave (km/s) = 4.15360 6.21264 5.28438
#
# Compressibility (1/GPa) = 0.09290137
#
# Stress axis : x y z
#
# Youngs Moduli (GPa) = 42.08819 12.06094 42.62924
#
# Poissons Ratio (x) = 0.10612 0.73684
# Poissons Ratio (y) = 0.37030 -0.31839
# Poissons Ratio (z) = 0.72749 -0.09008
#
# Static dielectric constant tensor:
#      x y z
#    x 1.613200 0.000000 0.000000 
#    y 0.000000 1.602820 0.000000 
#    z 0.000000 0.000000 1.580900 
# 
# From -- ./inp_files/30064.got.cif
#   From: 2010.05.17/outbox.cif.g08.bks.cpg/sg51_16_cif.got.tgz:30064.got - 2010.06.03 11:52:47.
