data_PCOD9400197
_publ_section_title
;
Structure prediction by ZEFSAII (Michael W. Deem and Ramdas Pophale) SiO2 
 PCOD9400197
Probable space group: P M M A
;
_chemical_formula_sum "Si O2"
_cell_formula_units_Z 52
_cell_length_a 9.037927
_cell_length_b 12.936148
_cell_length_c 31.169785
_cell_angle_alpha 90.000000
_cell_angle_beta 90.000000
_cell_angle_gamma 90.000000
_cell_volume 3644.245376
_symmetry_space_group_name_H-M "P M M A"
_symmetry_group_IT_number 51
_symmetry_cell_setting 'orthorhombic'
loop_
_space_group_symop_operation_xyz
x,y,z
1/2-x,-y,z
1/2+x,-y,-z
-x,y,-z
-x,-y,-z
1/2+x,y,-z
1/2-x,y,z
x,-y,z
loop_
_atom_site_type_symbol
_atom_site_label
_atom_site_fract_x
_atom_site_fract_y
_atom_site_fract_z
Si Si1 0.572585 0.685495 0.101123
Si Si2 0.419772 0.374198 0.724141
Si Si3 0.923227 0.625844 0.637418
Si Si4 0.426470 0.623822 0.456822
Si Si5 0.928554 0.500000 0.952769
Si Si6 0.923461 0.375145 0.812030
Si Si7 0.572771 0.882263 0.045469
O O1 0.750000 0.668685 0.098700
O O2 0.488458 0.599371 0.073018
O O3 0.516740 0.674028 0.149612
O O4 0.537039 0.797151 0.080996
O O5 0.250000 0.342064 0.729223
O O6 0.422328 0.500000 0.723171
O O7 0.486319 0.338647 0.678761
O O8 0.515880 0.343834 0.765375
O O9 0.750000 0.652341 0.642217
O O10 0.929964 0.500000 0.636855
O O11 0.976095 0.661814 0.590279
O O12 0.500000 0.666505 0.500000
O O13 0.250000 0.637388 0.459106
O O14 0.454703 0.500000 0.456619
O O15 0.750000 0.500000 0.954766
O O16 0.000000 0.500000 0.000000
O O17 0.750000 0.351356 0.816338
O O18 0.939466 0.500000 0.815560
O O19 0.750000 0.881379 0.040007
O O20 0.527588 0.000000 0.056295
O O21 0.500000 0.854464 0.000000
#
# Coordination Sequence:
#
# PCOD9400197 Si02
#       7
#     8   8   8   8   4   8   8
#     4  11  21  33  50  69  90 114 139 170 202 240
#     4   9  16  24  35  50  67  89 119 154 188 229
#     4   8  13  21  30  40  56  79 108 142 183 230
#     4   8  13  19  26  36  51  72  99 135 180 228
#     4  12  24  36  48  66  92 118 142 168 199 240
#     4  10  19  30  43  59  81 108 133 161 196 240
#     4   9  19  35  53  72  91 112 138 168 202 237
#
# _framework density 14.269072
#
# number of rings (size 3 to 8) (size 9 to 14) (size 15 to 20)
#    0.000    2.615    0.769    3.462    0.000    5.538 
#    0.000    3.077    0.000    0.000    0.000    0.000 
#    0.000    0.000    0.000    0.000    0.000    0.000 
#
# Total GULP energy -289586.915867 kJ/mol
# GULP energy per Si atom -5568.979151 kJ/mol
# Density = 1.423659 g / cm^3
# Si number density = 14.269072 Si / 1000 Ang^3
#
#
#
# Elastic Constant Matrix: (Units=GPa)
#
#
# Indices 1 2 3 4 5 6 
#
# 1 62.1648 22.0132 51.2265 0.0000 0.0000 0.0000
# 2 22.0132 28.3702 30.7484 0.0000 0.0000 0.0000
# 3 51.2265 30.7484 135.9146 0.0000 0.0000 0.0000
# 4 0.0000 0.0000 0.0000 4.7999 0.0000 0.0000
# 5 0.0000 0.0000 0.0000 0.0000 30.3734 0.0000
# 6 0.0000 0.0000 0.0000 0.0000 0.0000 4.9777
#
#
#
# Elastic Compliance Matrix: (Units=1/GPa)
#
#
# Indices 1 2 3 4 5 6 
#
# 1 0.026467 -0.012884 -0.007061 0.000000 0.000000 0.000000
# 2 -0.012884 0.052971 -0.007128 0.000000 0.000000 0.000000
# 3 -0.007061 -0.007128 0.011631 0.000000 0.000000 0.000000
# 4 0.000000 0.000000 0.000000 0.208336 0.000000 0.000000
# 5 0.000000 0.000000 0.000000 0.000000 0.032924 0.000000
# 6 0.000000 0.000000 0.000000 0.000000 0.000000 0.200896
#
#
# Mechanical properties :
#
#
# Convention : Reuss Voigt Hill
#
# Bulk Modulus (GPa) = 27.08254 48.26954 37.67604
# Shear Modulus (GPa) = 8.33782 16.19429 12.26605
#
# Velocity S-wave (km/s) = 2.41991 3.37252 2.93512
# Velocity P-wave (km/s) = 5.17968 7.00476 6.16018
#
# Compressibility (1/GPa) = 0.03692416
#
# Stress axis : x y z
#
# Youngs Moduli (GPa) = 37.78303 18.87841 85.97500
#
# Poissons Ratio (x) = 0.24323 0.60704
# Poissons Ratio (y) = 0.48679 0.61281
# Poissons Ratio (z) = 0.26677 0.13456
#
# Static dielectric constant tensor:
#      x y z
#    x 1.477180 0.000000 0.000000 
#    y 0.000000 1.444730 0.000000 
#    z 0.000000 0.000000 1.490330 
# 
# From -- ./inp_files/37359.got.cif
#   From: 2010.05.17/outbox.cif.g08.bks.cpg/sg51_19_cif.got.tgz:37359.got - 2010.06.03 11:52:47.
