data_PCOD9400037
_publ_section_title
;
Structure prediction by ZEFSAII (Michael W. Deem and Ramdas Pophale) SiO2 
 PCOD9400037
Probable space group: P M M A
;
_chemical_formula_sum "Si O2"
_cell_formula_units_Z 64
_cell_length_a 26.915253
_cell_length_b 8.947690
_cell_length_c 17.589610
_cell_angle_alpha 90.000000
_cell_angle_beta 90.000000
_cell_angle_gamma 90.000000
_cell_volume 4236.094169
_symmetry_space_group_name_H-M "P M M A"
_symmetry_group_IT_number 51
_symmetry_cell_setting 'orthorhombic'
loop_
_space_group_symop_operation_xyz
x,y,z
1/2-x,-y,z
1/2+x,-y,-z
-x,y,-z
-x,-y,-z
1/2+x,y,-z
1/2-x,y,z
x,-y,z
loop_
_atom_site_type_symbol
_atom_site_label
_atom_site_fract_x
_atom_site_fract_y
_atom_site_fract_z
Si Si1 0.627039 0.673019 0.278161
Si Si2 0.806932 0.820239 0.403477
Si Si3 0.429863 0.822786 0.854265
Si Si4 0.394757 0.820902 0.483539
Si Si5 0.561547 0.822839 0.670688
Si Si6 0.535476 0.672892 0.396649
Si Si7 0.461834 0.679385 0.174255
Si Si8 0.060042 0.328497 0.008956
O O1 0.637623 0.500000 0.261703
O O2 0.670503 0.746604 0.327803
O O3 0.611669 0.759965 0.202466
O O4 0.578565 0.678731 0.332848
O O5 0.750000 0.775946 0.416485
O O6 0.843780 0.781301 0.473269
O O7 0.808863 0.000000 0.395247
O O8 0.483054 0.750764 0.830519
O O9 0.433709 0.000000 0.848198
O O10 0.420144 0.772703 0.941056
O O11 0.397792 0.787649 0.394119
O O12 0.438808 0.736050 0.527668
O O13 0.402537 0.000000 0.492264
O O14 0.509647 0.772826 0.632413
O O15 0.564598 0.736628 0.750005
O O16 0.561247 0.000000 0.684681
O O17 0.520086 0.500000 0.405339
O O18 0.467720 0.500000 0.175628
O O19 0.432938 0.718936 0.096323
O O20 0.076728 0.500000 0.998638
O O21 0.000000 0.328885 0.000000
#
# Coordination Sequence:
#
# PCOD9400037 Si02
#       8
#     8   8   8   8   8   8   8   8
#     4  10  19  30  45  65  90 118 148 184 222 264
#     4   9  18  34  53  68  86 113 145 184 228 273
#     4  11  19  27  43  64  87 115 150 186 218 258
#     4   9  19  32  44  62  86 111 144 182 225 270
#     4  11  20  28  41  60  86 118 148 185 224 260
#     4  10  19  29  42  59  83 116 150 182 217 259
#     4  10  19  30  42  58  84 120 155 186 220 257
#     4   8  16  29  42  56  81 116 150 183 218 253
#
# _framework density 15.108257
#
# number of rings (size 3 to 8) (size 9 to 14) (size 15 to 20)
#    0.000    2.250    1.250    3.750    0.000    6.500 
#    0.000    0.000    0.000    0.000    0.000    0.000 
#    0.000    1.000    0.000    9.250    0.000    2.500 
#
# Total GULP energy -356847.444428 kJ/mol
# GULP energy per Si atom -5575.741319 kJ/mol
# Density = 1.507387 g / cm^3
# Si number density = 15.108257 Si / 1000 Ang^3
#
#
#
# Elastic Constant Matrix: (Units=GPa)
#
#
# Indices 1 2 3 4 5 6 
#
# 1 46.9379 23.6935 33.5526 0.0000 0.0000 0.0000
# 2 23.6935 62.0604 53.7699 0.0000 0.0000 0.0000
# 3 33.5526 53.7699 139.6356 0.0000 0.0000 0.0000
# 4 0.0000 0.0000 0.0000 26.9080 0.0000 0.0000
# 5 0.0000 0.0000 0.0000 0.0000 11.4400 0.0000
# 6 0.0000 0.0000 0.0000 0.0000 0.0000 3.3928
#
#
#
# Elastic Compliance Matrix: (Units=1/GPa)
#
#
# Indices 1 2 3 4 5 6 
#
# 1 0.027725 -0.007222 -0.003881 0.000000 0.000000 0.000000
# 2 -0.007222 0.026062 -0.008300 0.000000 0.000000 0.000000
# 3 -0.003881 -0.008300 0.011290 0.000000 0.000000 0.000000
# 4 0.000000 0.000000 0.000000 0.037164 0.000000 0.000000
# 5 0.000000 0.000000 0.000000 0.000000 0.087413 0.000000
# 6 0.000000 0.000000 0.000000 0.000000 0.000000 0.294740
#
#
# Mechanical properties :
#
#
# Convention : Reuss Voigt Hill
#
# Bulk Modulus (GPa) = 38.06622 52.29620 45.18121
# Shear Modulus (GPa) = 9.39925 17.52268 13.46097
#
# Velocity S-wave (km/s) = 2.49695 3.40929 2.98815
# Velocity P-wave (km/s) = 5.79339 7.08429 6.47111
#
# Compressibility (1/GPa) = 0.02627001
#
# Stress axis : x y z
#
# Youngs Moduli (GPa) = 36.06915 38.36960 88.57209
#
# Poissons Ratio (x) = 0.27712 0.34372
# Poissons Ratio (y) = 0.26051 0.73519
# Poissons Ratio (z) = 0.13997 0.31848
#
# Static dielectric constant tensor:
#      x y z
#    x 1.472640 0.000000 0.000000 
#    y 0.000000 1.505550 0.000000 
#    z 0.000000 0.000000 1.536860 
# 
# From -- ./inp_files/30805.got.cif
#   From: 2010.05.17/outbox.cif.g08.bks.cpg/sg51_16_cif.got.tgz:30805.got - 2010.06.03 11:52:47.
