data_PCOD9400434
_publ_section_title
;
Structure prediction by ZEFSAII (Michael W. Deem and Ramdas Pophale) SiO2 
 PCOD9400434
Probable space group: P M M A
;
_chemical_formula_sum "Si O2"
_cell_formula_units_Z 40
_cell_length_a 17.533600
_cell_length_b 14.028535
_cell_length_c 7.281053
_cell_angle_alpha 90.000000
_cell_angle_beta 90.000000
_cell_angle_gamma 90.000000
_cell_volume 1790.925858
_symmetry_space_group_name_H-M "P M M A"
_symmetry_group_IT_number 51
_symmetry_cell_setting 'orthorhombic'
loop_
_space_group_symop_operation_xyz
x,y,z
1/2-x,-y,z
1/2+x,-y,-z
-x,y,-z
-x,-y,-z
1/2+x,y,-z
1/2-x,y,z
x,-y,z
loop_
_atom_site_type_symbol
_atom_site_label
_atom_site_fract_x
_atom_site_fract_y
_atom_site_fract_z
Si Si1 0.090331 0.305658 0.974314
Si Si2 0.410113 0.300274 0.536692
Si Si3 0.158746 0.105105 0.569575
Si Si4 0.092210 0.898115 0.982070
Si Si5 0.660992 0.500000 0.469655
Si Si6 0.837771 0.500000 0.022618
O O1 0.104718 0.302535 0.755919
O O2 0.119144 0.204805 0.053551
O O3 0.125336 0.402763 0.046345
O O4 0.000000 0.310552 0.000000
O O5 0.500000 0.296494 0.500000
O O6 0.372840 0.200407 0.473979
O O7 0.377398 0.401101 0.467127
O O8 0.250000 0.114143 0.593926
O O9 0.117743 0.101606 0.768922
O O10 0.143481 0.000000 0.485524
O O11 0.119399 0.000000 0.059319
O O12 0.000000 0.897073 0.000000
O O13 0.750000 0.500000 0.516273
O O14 0.655120 0.500000 0.245724
O O15 0.750000 0.500000 0.976031
#
# Coordination Sequence:
#
# PCOD9400434 Si02
#       6
#     8   8   8   8   4   4
#     4   9  17  29  46  65  89 119 147 181 225 275
#     4  10  19  30  47  70  95 121 154 197 240 280
#     4   9  17  29  46  69  95 124 160 199 236 279
#     4   8  14  25  42  66  93 118 147 187 231 272
#     4   9  17  30  47  67  90 119 156 196 237 280
#     4   9  17  28  45  67  88 113 150 192 226 262
#
# _framework density 22.334814999999999
#
# number of rings (size 3 to 8) (size 9 to 14) (size 15 to 20)
#    0.000    3.000    0.000    1.200    0.000    5.200 
#    0.000    0.000    0.000    3.600    0.000    8.400 
#    0.000   54.400    0.000    0.000    0.000    0.000 
#
# Total GULP energy -222972.795886 kJ/mol
# GULP energy per Si atom -5574.319897 kJ/mol
# Density = 2.228398 g / cm^3
# Si number density = 22.334815 Si / 1000 Ang^3
#
#
#
# Elastic Constant Matrix: (Units=GPa)
#
#
# Indices 1 2 3 4 5 6 
#
# 1 75.9423 99.2024 3.3368 0.0000 0.0000 0.0000
# 2 99.2024 336.4527 20.2312 0.0000 0.0000 0.0000
# 3 3.3368 20.2312 96.0414 0.0000 0.0000 0.0000
# 4 0.0000 0.0000 0.0000 -24.8770 0.0000 0.0000
# 5 0.0000 0.0000 0.0000 0.0000 18.3557 0.0000
# 6 0.0000 0.0000 0.0000 0.0000 0.0000 22.7931
#
#
#
# Elastic Compliance Matrix: (Units=1/GPa)
#
#
# Indices 1 2 3 4 5 6 
#
# 1 0.021450 -0.006360 0.000595 0.000000 0.000000 0.000000
# 2 -0.006360 0.004896 -0.000810 0.000000 0.000000 0.000000
# 3 0.000595 -0.000810 0.010562 0.000000 0.000000 0.000000
# 4 0.000000 0.000000 0.000000 -0.040198 0.000000 0.000000
# 5 0.000000 0.000000 0.000000 0.000000 0.054479 0.000000
# 6 0.000000 0.000000 0.000000 0.000000 0.000000 0.043873
#
#
# Mechanical properties :
#
#
# Convention : Reuss Voigt Hill
#
# Bulk Modulus (GPa) = 42.09410 83.77523 62.93467
# Shear Modulus (GPa) = 43.05374 28.96541 36.00958
#
# Velocity S-wave (km/s) = 4.39527 3.60512 4.01965
# Velocity P-wave (km/s) = 6.68174 7.41076 7.05567
#
# Compressibility (1/GPa) = 0.02375630
#
# Stress axis : x y z
#
# Youngs Moduli (GPa) = 46.61979 204.23879 94.67689
#
# Poissons Ratio (x) = 1.29901 -0.05629
# Poissons Ratio (y) = 0.29651 0.07673
# Poissons Ratio (z) = -0.02772 0.16552
#
# Static dielectric constant tensor:
#      x y z
#    x 1.725000 0.000000 0.000000 
#    y 0.000000 1.899100 0.000000 
#    z 0.000000 0.000000 1.802270 
# 
# From -- ./inp_files/8022.got.cif
#   From: 2010.05.17/outbox.cif.g08.bks.cpg/sg51_5_cif.got.tgz:8022.got - 2010.06.03 11:52:47.
