data_PCOD9400260
_publ_section_title
;
Structure prediction by ZEFSAII (Michael W. Deem and Ramdas Pophale) SiO2 
 PCOD9400260
Probable space group: P M M A
;
_chemical_formula_sum "Si O2"
_cell_formula_units_Z 36
_cell_length_a 8.598719
_cell_length_b 19.013303
_cell_length_c 14.620130
_cell_angle_alpha 90.000000
_cell_angle_beta 90.000000
_cell_angle_gamma 90.000000
_cell_volume 2390.245781
_symmetry_space_group_name_H-M "P M M A"
_symmetry_group_IT_number 51
_symmetry_cell_setting 'orthorhombic'
loop_
_space_group_symop_operation_xyz
x,y,z
1/2-x,-y,z
1/2+x,-y,-z
-x,y,-z
-x,-y,-z
1/2+x,y,-z
1/2-x,y,z
x,-y,z
loop_
_atom_site_type_symbol
_atom_site_label
_atom_site_fract_x
_atom_site_fract_y
_atom_site_fract_z
Si Si1 0.436518 0.861773 0.215287
Si Si2 0.063778 0.081985 0.599244
Si Si3 0.937653 0.000000 0.897401
Si Si4 0.437649 0.575510 0.896240
Si Si5 0.937090 0.730261 0.103840
O O1 0.250000 0.860666 0.216000
O O2 0.497938 0.872749 0.317650
O O3 0.498814 0.792179 0.166518
O O4 0.488148 0.930102 0.156633
O O5 0.250000 0.084858 0.598832
O O6 0.000000 0.103179 0.500000
O O7 0.016064 0.000000 0.613822
O O8 0.750000 0.000000 0.900054
O O9 0.000000 0.000000 0.000000
O O10 0.250000 0.575460 0.898221
O O11 0.487429 0.500000 0.854317
O O12 0.484623 0.652289 0.859872
O O13 0.500000 0.575012 0.000000
O O14 0.750000 0.733881 0.100722
O O15 0.000000 0.737848 0.000000
#
# Coordination Sequence:
#
# PCOD9400260 Si02
#       5
#     8   8   4   8   8
#     4  11  21  34  48  65  90 121 156 192 230 271
#     4  10  20  34  53  73  91 114 145 187 234 279
#     4  10  22  34  45  60  83 118 157 192 222 260
#     4   8  14  25  41  60  84 115 150 187 225 267
#     4  10  19  30  44  65  92 123 158 192 230 272
#
# _framework density 15.061211
#
# number of rings (size 3 to 8) (size 9 to 14) (size 15 to 20)
#    0.000    2.222    1.111    2.667    0.000    5.333 
#    0.000    0.000    0.000    0.000    0.000    0.000 
#    0.000    0.889    0.000    2.444    0.000    4.000 
#
# Total GULP energy -200626.785500 kJ/mol
# GULP energy per Si atom -5572.966264 kJ/mol
# Density = 1.502693 g / cm^3
# Si number density = 15.061211 Si / 1000 Ang^3
#
#
#
# Elastic Constant Matrix: (Units=GPa)
#
#
# Indices 1 2 3 4 5 6 
#
# 1 34.1885 34.0172 26.6574 0.0000 0.0000 0.0000
# 2 34.0172 160.4906 70.2759 0.0000 0.0000 0.0000
# 3 26.6574 70.2759 99.3234 0.0000 0.0000 0.0000
# 4 0.0000 0.0000 0.0000 3.9494 0.0000 0.0000
# 5 0.0000 0.0000 0.0000 0.0000 24.8215 0.0000
# 6 0.0000 0.0000 0.0000 0.0000 0.0000 14.7713
#
#
#
# Elastic Compliance Matrix: (Units=1/GPa)
#
#
# Indices 1 2 3 4 5 6 
#
# 1 0.040064 -0.005482 -0.006874 0.000000 0.000000 0.000000
# 2 -0.005482 0.009778 -0.005447 0.000000 0.000000 0.000000
# 3 -0.006874 -0.005447 0.015767 0.000000 0.000000 0.000000
# 4 0.000000 0.000000 0.000000 0.253203 0.000000 0.000000
# 5 0.000000 0.000000 0.000000 0.000000 0.040288 0.000000
# 6 0.000000 0.000000 0.000000 0.000000 0.000000 0.067699
#
#
# Mechanical properties :
#
#
# Convention : Reuss Voigt Hill
#
# Bulk Modulus (GPa) = 33.33011 61.76706 47.54859
# Shear Modulus (GPa) = 10.58414 19.57858 15.08136
#
# Velocity S-wave (km/s) = 2.65380 3.60937 3.16783
# Velocity P-wave (km/s) = 5.61854 7.64655 6.70961
#
# Compressibility (1/GPa) = 0.03000290
#
# Stress axis : x y z
#
# Youngs Moduli (GPa) = 24.96023 102.27038 63.42294
#
# Poissons Ratio (x) = 0.56062 0.43597
# Poissons Ratio (y) = 0.13683 0.34547
# Poissons Ratio (z) = 0.17158 0.55708
#
# Static dielectric constant tensor:
#      x y z
#    x 1.507240 0.000000 0.000000 
#    y 0.000000 1.541760 0.000000 
#    z 0.000000 0.000000 1.459580 
# 
# From -- ./inp_files/14008.got.cif
#   From: 2010.05.17/outbox.cif.g08.bks.cpg/sg51_8_cif.got.tgz:14008.got - 2010.06.03 11:52:47.
