data_PCOD9400253
_publ_section_title
;
Structure prediction by ZEFSAII (Michael W. Deem and Ramdas Pophale) SiO2 
 PCOD9400253
Probable space group: P M M A
;
_chemical_formula_sum "Si O2"
_cell_formula_units_Z 56
_cell_length_a 8.816828
_cell_length_b 21.705250
_cell_length_c 18.861278
_cell_angle_alpha 90.000000
_cell_angle_beta 90.000000
_cell_angle_gamma 90.000000
_cell_volume 3609.510232
_symmetry_space_group_name_H-M "P M M A"
_symmetry_group_IT_number 51
_symmetry_cell_setting 'orthorhombic'
loop_
_space_group_symop_operation_xyz
x,y,z
1/2-x,-y,z
1/2+x,-y,-z
-x,y,-z
-x,-y,-z
1/2+x,y,-z
1/2-x,y,z
x,-y,z
loop_
_atom_site_type_symbol
_atom_site_label
_atom_site_fract_x
_atom_site_fract_y
_atom_site_fract_z
Si Si1 0.067597 0.309194 0.077677
Si Si2 0.069418 0.927660 0.577529
Si Si3 0.566542 0.297756 0.421972
Si Si4 0.068152 0.432101 0.159734
Si Si5 0.931023 0.181722 0.662916
Si Si6 0.923497 0.372345 0.290128
Si Si7 0.424690 0.241975 0.794246
O O1 0.250000 0.307996 0.075984
O O2 0.016906 0.375836 0.109651
O O3 0.006839 0.258042 0.132473
O O4 0.000000 0.301112 0.000000
O O5 0.250000 0.916736 0.576007
O O6 0.000000 0.914538 0.500000
O O7 0.991111 0.882833 0.633401
O O8 0.043272 0.000000 0.592524
O O9 0.500000 0.305518 0.500000
O O10 0.750000 0.293885 0.422928
O O11 0.501216 0.235210 0.387302
O O12 0.524006 0.353833 0.368787
O O13 0.250000 0.432375 0.156573
O O14 0.011673 0.500000 0.139028
O O15 0.019463 0.416666 0.240137
O O16 0.750000 0.185242 0.659973
O O17 0.989541 0.195389 0.742255
O O18 0.750000 0.394457 0.293134
O O19 0.923954 0.306640 0.249123
O O20 0.250000 0.223785 0.805074
#
# Coordination Sequence:
#
# PCOD9400253 Si02
#       7
#     8   8   8   8   8   8   8
#     4  10  19  31  47  68  95 123 149 179 221 268
#     4  10  20  33  47  64  91 128 166 201 236 271
#     4  10  19  30  44  64  88 112 144 185 230 275
#     4   9  18  31  46  64  86 114 148 182 216 261
#     4  11  20  30  46  67  92 121 154 190 228 270
#     4   8  16  29  44  62  83 108 139 179 224 268
#     4   9  17  31  48  66  89 116 149 186 225 268
#
# _framework density 15.514570000000001
#
# number of rings (size 3 to 8) (size 9 to 14) (size 15 to 20)
#    0.000    2.429    0.000    4.286    0.000    6.000 
#    0.000    0.000    0.000    0.429    0.000    0.000 
#    0.000    0.571    0.000    2.143    0.000    3.286 
#
# Total GULP energy -312156.977676 kJ/mol
# GULP energy per Si atom -5574.231744 kJ/mol
# Density = 1.547926 g / cm^3
# Si number density = 15.514570 Si / 1000 Ang^3
#
#
#
# Elastic Constant Matrix: (Units=GPa)
#
#
# Indices 1 2 3 4 5 6 
#
# 1 73.0030 30.2223 48.6871 0.0000 0.0000 0.0000
# 2 30.2223 50.9550 45.2903 0.0000 0.0000 0.0000
# 3 48.6871 45.2903 139.0990 0.0000 0.0000 0.0000
# 4 0.0000 0.0000 0.0000 17.4836 0.0000 0.0000
# 5 0.0000 0.0000 0.0000 0.0000 28.7188 0.0000
# 6 0.0000 0.0000 0.0000 0.0000 0.0000 19.0966
#
#
#
# Elastic Compliance Matrix: (Units=1/GPa)
#
#
# Indices 1 2 3 4 5 6 
#
# 1 0.019897 -0.007896 -0.004393 0.000000 0.000000 0.000000
# 2 -0.007896 0.030752 -0.007249 0.000000 0.000000 0.000000
# 3 -0.004393 -0.007249 0.011087 0.000000 0.000000 0.000000
# 4 0.000000 0.000000 0.000000 0.057197 0.000000 0.000000
# 5 0.000000 0.000000 0.000000 0.000000 0.034820 0.000000
# 6 0.000000 0.000000 0.000000 0.000000 0.000000 0.052365
#
#
# Mechanical properties :
#
#
# Convention : Reuss Voigt Hill
#
# Bulk Modulus (GPa) = 44.13306 56.82850 50.48078
# Shear Modulus (GPa) = 19.78259 22.31695 21.04977
#
# Velocity S-wave (km/s) = 3.57472 3.79681 3.68744
# Velocity P-wave (km/s) = 6.74879 7.47861 7.12305
#
# Compressibility (1/GPa) = 0.02265875
#
# Stress axis : x y z
#
# Youngs Moduli (GPa) = 50.25876 32.51872 90.19564
#
# Poissons Ratio (x) = 0.25678 0.39625
# Poissons Ratio (y) = 0.39686 0.65380
# Poissons Ratio (z) = 0.22080 0.23572
#
# Static dielectric constant tensor:
#      x y z
#    x 1.523260 0.000000 0.000000 
#    y 0.000000 1.513750 0.000000 
#    z 0.000000 0.000000 1.511510 
# 
# From -- ./inp_files/28178.got.cif
#   From: 2010.05.17/outbox.cif.g08.bks.cpg/sg51_15_cif.got.tgz:28178.got - 2010.06.03 11:52:47.
