data_PCOD9400082
_publ_section_title
;
Structure prediction by ZEFSAII (Michael W. Deem and Ramdas Pophale) SiO2 
 PCOD9400082
Probable space group: P M M A
;
_chemical_formula_sum "Si O2"
_cell_formula_units_Z 64
_cell_length_a 14.078637
_cell_length_b 14.566129
_cell_length_c 18.816878
_cell_angle_alpha 90.000000
_cell_angle_beta 90.000000
_cell_angle_gamma 90.000000
_cell_volume 3858.800555
_symmetry_space_group_name_H-M "P M M A"
_symmetry_group_IT_number 51
_symmetry_cell_setting 'orthorhombic'
loop_
_space_group_symop_operation_xyz
x,y,z
1/2-x,-y,z
1/2+x,-y,-z
-x,y,-z
-x,-y,-z
1/2+x,y,-z
1/2-x,y,z
x,-y,z
loop_
_atom_site_type_symbol
_atom_site_label
_atom_site_fract_x
_atom_site_fract_y
_atom_site_fract_z
Si Si1 0.364103 0.106073 0.960278
Si Si2 0.548904 0.110771 0.186907
Si Si3 0.938962 0.203019 0.331517
Si Si4 0.634946 0.393914 0.373222
Si Si5 0.357789 0.111560 0.117308
Si Si6 0.364819 0.600378 0.462956
Si Si7 0.644062 0.784550 0.614586
Si Si8 0.890812 0.895457 0.475018
O O1 0.250000 0.105983 0.958795
O O2 0.401563 0.143939 0.886013
O O3 0.397280 0.000000 0.960343
O O4 0.389141 0.144362 0.038234
O O5 0.588605 0.156426 0.257639
O O6 0.437730 0.133786 0.174420
O O7 0.558715 0.000000 0.192579
O O8 0.913718 0.310847 0.331507
O O9 0.887562 0.158401 0.400507
O O10 0.051939 0.182769 0.342473
O O11 0.750000 0.383530 0.370046
O O12 0.614240 0.500000 0.352912
O O13 0.604151 0.382439 0.456050
O O14 0.250000 0.142210 0.132214
O O15 0.354833 0.000000 0.112877
O O16 0.250000 0.597092 0.466804
O O17 0.398933 0.500000 0.440149
O O18 0.385010 0.682360 0.410196
O O19 0.750000 0.785558 0.647856
O O20 0.652510 0.840922 0.541018
O O21 0.000000 0.899712 0.500000
O O22 0.857079 0.000000 0.467528
#
# Coordination Sequence:
#
# PCOD9400082 Si02
#       8
#     8   8   8   8   8   8   8   8
#     4   8  14  26  44  65  88 116 151 187 223 263
#     4  10  19  29  42  64  96 128 154 183 220 262
#     4  11  21  31  46  67  91 121 151 186 231 277
#     4   9  18  33  52  71  89 110 142 188 240 289
#     4   8  14  26  45  66  89 121 157 188 219 258
#     4   8  14  27  48  69  84  99 130 184 240 282
#     4  10  20  33  46  63  87 116 154 195 231 272
#     4   9  18  32  45  57  79 115 159 198 225 254
#
# _framework density 16.585463000000001
#
# number of rings (size 3 to 8) (size 9 to 14) (size 15 to 20)
#    0.000    2.875    1.250    2.250    0.000    3.750 
#    0.000    1.250    0.000    2.250    0.000    0.000 
#    0.000    2.000    0.000    2.750    0.000    0.875 
#
# Total GULP energy -356399.691586 kJ/mol
# GULP energy per Si atom -5568.745181 kJ/mol
# Density = 1.654771 g / cm^3
# Si number density = 16.585463 Si / 1000 Ang^3
#
#
#
# Elastic Constant Matrix: (Units=GPa)
#
#
# Indices 1 2 3 4 5 6 
#
# 1 46.7675 4.7423 6.1618 0.0000 0.0000 0.0000
# 2 4.7423 50.3545 17.0792 0.0000 0.0000 0.0000
# 3 6.1618 17.0792 62.2744 0.0000 0.0000 0.0000
# 4 0.0000 0.0000 0.0000 5.6215 0.0000 0.0000
# 5 0.0000 0.0000 0.0000 0.0000 12.6737 0.0000
# 6 0.0000 0.0000 0.0000 0.0000 0.0000 20.8861
#
#
#
# Elastic Compliance Matrix: (Units=1/GPa)
#
#
# Indices 1 2 3 4 5 6 
#
# 1 0.021761 -0.001454 -0.001754 0.000000 0.000000 0.000000
# 2 -0.001454 0.021993 -0.005888 0.000000 0.000000 0.000000
# 3 -0.001754 -0.005888 0.017846 0.000000 0.000000 0.000000
# 4 0.000000 0.000000 0.000000 0.177890 0.000000 0.000000
# 5 0.000000 0.000000 0.000000 0.000000 0.078904 0.000000
# 6 0.000000 0.000000 0.000000 0.000000 0.000000 0.047879
#
#
# Mechanical properties :
#
#
# Convention : Reuss Voigt Hill
#
# Bulk Modulus (GPa) = 23.03754 23.92921 23.48338
# Shear Modulus (GPa) = 12.53337 16.59712 14.56525
#
# Velocity S-wave (km/s) = 2.75195 3.16682 2.96665
# Velocity P-wave (km/s) = 4.90082 5.27549 5.09160
#
# Compressibility (1/GPa) = 0.04340741
#
# Stress axis : x y z
#
# Youngs Moduli (GPa) = 45.95382 45.46858 56.03393
#
# Poissons Ratio (x) = 0.06613 0.09830
# Poissons Ratio (y) = 0.06683 0.32992
# Poissons Ratio (z) = 0.08062 0.26771
#
# Static dielectric constant tensor:
#      x y z
#    x 1.643640 0.000000 0.000000 
#    y 0.000000 1.561910 0.000000 
#    z 0.000000 0.000000 1.549250 
# 
# From -- ./inp_files/29962.got.cif
#   From: 2010.05.17/outbox.cif.g08.bks.cpg/sg51_15_cif.got.tgz:29962.got - 2010.06.03 11:52:47.
