data_PCOD9400341
_publ_section_title
;
Structure prediction by ZEFSAII (Michael W. Deem and Ramdas Pophale) SiO2 
 PCOD9400341
Probable space group: P M M A
;
_chemical_formula_sum "Si O2"
_cell_formula_units_Z 48
_cell_length_a 33.942143
_cell_length_b 16.942876
_cell_length_c 4.924432
_cell_angle_alpha 90.000000
_cell_angle_beta 90.000000
_cell_angle_gamma 90.000000
_cell_volume 2831.930142
_symmetry_space_group_name_H-M "P M M A"
_symmetry_group_IT_number 51
_symmetry_cell_setting 'orthorhombic'
loop_
_space_group_symop_operation_xyz
x,y,z
1/2-x,-y,z
1/2+x,-y,-z
-x,y,-z
-x,-y,-z
1/2+x,y,-z
1/2-x,y,z
x,-y,z
loop_
_atom_site_type_symbol
_atom_site_label
_atom_site_fract_x
_atom_site_fract_y
_atom_site_fract_z
Si Si1 0.037650 0.590517 0.819266
Si Si2 0.423224 0.342762 0.296769
Si Si3 0.845272 0.406647 0.449124
Si Si4 0.047603 0.814220 0.004131
Si Si5 0.452286 0.912216 0.501051
Si Si6 0.706077 0.406465 0.965257
O O1 0.032146 0.500000 0.735228
O O2 0.071738 0.596028 0.046572
O O3 0.067310 0.738522 0.142108
O O4 0.000000 0.615771 0.000000
O O5 0.381255 0.356458 0.434771
O O6 0.453003 0.360001 0.549353
O O7 0.440275 0.157769 0.705151
O O8 0.857351 0.500000 0.434257
O O9 0.809148 0.400822 0.659652
O O10 0.828017 0.376766 0.164895
O O11 0.057856 0.887624 0.197540
O O12 0.000000 0.802743 0.000000
O O13 0.500000 0.913917 0.500000
O O14 0.438602 0.000000 0.575229
O O15 0.750000 0.373475 0.001895
O O16 0.708304 0.500000 0.030070
#
# Coordination Sequence:
#
# PCOD9400341 Si02
#       6
#     8   8   8   8   8   8
#     4  11  23  36  48  60  80 119 167 209 241 265
#     4  12  22  34  48  66  93 119 154 198 240 280
#     4  10  19  30  46  66  88 118 152 188 231 272
#     4  10  20  32  47  68  91 119 152 190 236 278
#     4   9  17  31  50  69  88 111 146 189 230 280
#     4   9  17  30  47  66  86 109 145 190 230 274
#
# _framework density 16.949570999999999
#
# number of rings (size 3 to 8) (size 9 to 14) (size 15 to 20)
#    0.000    1.833    0.000    5.500    0.000    9.333 
#    0.000    0.000    0.000    0.000    0.000    0.000 
#    0.000    0.000    0.000    0.000    0.000   58.333 
#
# Total GULP energy -267707.466433 kJ/mol
# GULP energy per Si atom -5577.238884 kJ/mol
# Density = 1.691099 g / cm^3
# Si number density = 16.949571 Si / 1000 Ang^3
#
#
#
# Elastic Constant Matrix: (Units=GPa)
#
#
# Indices 1 2 3 4 5 6 
#
# 1 50.8638 11.7590 1.8449 0.0000 0.0000 0.0000
# 2 11.7590 71.5059 13.6967 0.0000 0.0000 0.0000
# 3 1.8449 13.6967 71.7651 0.0000 0.0000 0.0000
# 4 0.0000 0.0000 0.0000 15.6468 0.0000 0.0000
# 5 0.0000 0.0000 0.0000 0.0000 10.6477 0.0000
# 6 0.0000 0.0000 0.0000 0.0000 0.0000 6.1075
#
#
#
# Elastic Compliance Matrix: (Units=1/GPa)
#
#
# Indices 1 2 3 4 5 6 
#
# 1 0.020438 -0.003384 0.000120 0.000000 0.000000 0.000000
# 2 -0.003384 0.015076 -0.002790 0.000000 0.000000 0.000000
# 3 0.000120 -0.002790 0.014464 0.000000 0.000000 0.000000
# 4 0.000000 0.000000 0.000000 0.063911 0.000000 0.000000
# 5 0.000000 0.000000 0.000000 0.000000 0.093917 0.000000
# 6 0.000000 0.000000 0.000000 0.000000 0.000000 0.163734
#
#
# Mechanical properties :
#
#
# Convention : Reuss Voigt Hill
#
# Bulk Modulus (GPa) = 26.40608 27.63733 27.02170
# Shear Modulus (GPa) = 12.61764 17.60267 15.11015
#
# Velocity S-wave (km/s) = 2.73137 3.22612 2.98900
# Velocity P-wave (km/s) = 5.05571 5.49711 5.28102
#
# Compressibility (1/GPa) = 0.03787007
#
# Stress axis : x y z
#
# Youngs Moduli (GPa) = 48.92761 66.33123 69.13817
#
# Poissons Ratio (x) = 0.22447 -0.00833
# Poissons Ratio (y) = 0.16558 0.19292
# Poissons Ratio (z) = -0.00589 0.18508
#
# Static dielectric constant tensor:
#      x y z
#    x 1.612030 0.000000 0.000000 
#    y 0.000000 1.591820 0.000000 
#    z 0.000000 0.000000 1.613080 
# 
# From -- ./inp_files/3967.got.cif
#   From: 2010.05.17/outbox.cif.g08.bks.cpg/sg51_2_cif.got.tgz:3967.got - 2010.06.03 11:52:47.
