data_PCOD9400606
_publ_section_title
;
Structure prediction by ZEFSAII (Michael W. Deem and Ramdas Pophale) SiO2 
 PCOD9400606
Probable space group: P M M A
;
_chemical_formula_sum "Si O2"
_cell_formula_units_Z 56
_cell_length_a 9.279987
_cell_length_b 18.706757
_cell_length_c 21.543153
_cell_angle_alpha 90.000000
_cell_angle_beta 90.000000
_cell_angle_gamma 90.000000
_cell_volume 3739.858223
_symmetry_space_group_name_H-M "P M M A"
_symmetry_group_IT_number 51
_symmetry_cell_setting 'orthorhombic'
loop_
_space_group_symop_operation_xyz
x,y,z
1/2-x,-y,z
1/2+x,-y,-z
-x,y,-z
-x,-y,-z
1/2+x,y,-z
1/2-x,y,z
x,-y,z
loop_
_atom_site_type_symbol
_atom_site_label
_atom_site_fract_x
_atom_site_fract_y
_atom_site_fract_z
Si Si1 0.084310 0.208387 0.621204
Si Si2 0.922467 0.834213 0.811869
Si Si3 0.577978 0.083768 0.683792
Si Si4 0.921685 0.582886 0.690534
Si Si5 0.085220 0.292633 0.753058
Si Si6 0.077235 0.083909 0.063372
Si Si7 0.921531 0.663417 0.561328
O O1 0.250000 0.201613 0.600292
O O2 0.085343 0.249875 0.687388
O O3 0.009598 0.132942 0.635923
O O4 0.990752 0.259432 0.577169
O O5 0.750000 0.823291 0.812405
O O6 0.952913 0.886358 0.753201
O O7 0.965538 0.871273 0.876145
O O8 0.001327 0.759621 0.799370
O O9 0.750000 0.092918 0.673792
O O10 0.543756 0.000000 0.679675
O O11 0.750000 0.589422 0.700998
O O12 0.962431 0.500000 0.694707
O O13 0.948584 0.613302 0.621143
O O14 0.005104 0.633606 0.738240
O O15 0.250000 0.303722 0.771922
O O16 0.250000 0.089599 0.056284
O O17 0.043498 0.000000 0.073783
O O18 0.000000 0.106572 0.000000
O O19 0.750000 0.668989 0.552454
O O20 0.000000 0.635379 0.500000
#
# Coordination Sequence:
#
# PCOD9400606 Si02
#       7
#     8   8   8   8   8   8   8
#     4   9  17  29  43  60  83 109 138 173 213 255
#     4   9  16  27  43  61  84 116 151 183 215 256
#     4   9  16  26  42  63  84 107 138 177 219 260
#     4   9  18  32  48  66  90 118 143 168 204 252
#     4   9  17  28  43  64  87 111 141 178 217 253
#     4   9  17  28  41  59  86 121 158 192 225 259
#     4  10  19  31  47  65  85 111 143 174 204 244
#
# _framework density 14.973829
#
# number of rings (size 3 to 8) (size 9 to 14) (size 15 to 20)
#    0.000    2.857    0.000    1.714    0.000    7.143 
#    0.000    0.000    0.000    3.000    0.000    0.000 
#    0.000    0.571    0.000    1.857    0.000    2.286 
#
# Total GULP energy -312018.847358 kJ/mol
# GULP energy per Si atom -5571.765131 kJ/mol
# Density = 1.493975 g / cm^3
# Si number density = 14.973829 Si / 1000 Ang^3
#
#
#
# Elastic Constant Matrix: (Units=GPa)
#
#
# Indices 1 2 3 4 5 6 
#
# 1 50.7800 51.5860 24.8851 0.0000 0.0000 0.0000
# 2 51.5860 118.5080 29.1935 0.0000 0.0000 0.0000
# 3 24.8851 29.1935 39.8993 0.0000 0.0000 0.0000
# 4 0.0000 0.0000 0.0000 14.6740 0.0000 0.0000
# 5 0.0000 0.0000 0.0000 0.0000 22.3386 0.0000
# 6 0.0000 0.0000 0.0000 0.0000 0.0000 18.4421
#
#
#
# Elastic Compliance Matrix: (Units=1/GPa)
#
#
# Indices 1 2 3 4 5 6 
#
# 1 0.042033 -0.014442 -0.015649 0.000000 0.000000 0.000000
# 2 -0.014442 0.015255 -0.002155 0.000000 0.000000 0.000000
# 3 -0.015649 -0.002155 0.036400 0.000000 0.000000 0.000000
# 4 0.000000 0.000000 0.000000 0.068148 0.000000 0.000000
# 5 0.000000 0.000000 0.000000 0.000000 0.044766 0.000000
# 6 0.000000 0.000000 0.000000 0.000000 0.000000 0.054224
#
#
# Mechanical properties :
#
#
# Convention : Reuss Voigt Hill
#
# Bulk Modulus (GPa) = 34.25003 46.72407 40.48705
# Shear Modulus (GPa) = 14.92323 17.99245 16.45784
#
# Velocity S-wave (km/s) = 3.16035 3.47016 3.31887
# Velocity P-wave (km/s) = 6.01997 6.87950 6.46404
#
# Compressibility (1/GPa) = 0.02919705
#
# Stress axis : x y z
#
# Youngs Moduli (GPa) = 23.79111 65.55027 27.47251
#
# Poissons Ratio (x) = 0.94665 0.42992
# Poissons Ratio (y) = 0.34358 0.05920
# Poissons Ratio (z) = 0.37231 0.14126
#
# Static dielectric constant tensor:
#      x y z
#    x 1.501830 0.000000 0.000000 
#    y 0.000000 1.481460 0.000000 
#    z 0.000000 0.000000 1.481050 
# 
# From -- ./inp_files/32213.got.cif
#   From: 2010.05.17/outbox.cif.g08.bks.cpg/sg51_17_cif.got.tgz:32213.got - 2010.06.03 11:52:47.
