data_PCOD9400748
_publ_section_title
;
Structure prediction by ZEFSAII (Michael W. Deem and Ramdas Pophale) SiO2 
 PCOD9400748
Probable space group: P M M A
;
_chemical_formula_sum "Si O2"
_cell_formula_units_Z 56
_cell_length_a 8.897440
_cell_length_b 22.734418
_cell_length_c 15.362530
_cell_angle_alpha 90.000000
_cell_angle_beta 90.000000
_cell_angle_gamma 90.000000
_cell_volume 3107.503688
_symmetry_space_group_name_H-M "P M M A"
_symmetry_group_IT_number 51
_symmetry_cell_setting 'orthorhombic'
loop_
_space_group_symop_operation_xyz
x,y,z
1/2-x,-y,z
1/2+x,-y,-z
-x,y,-z
-x,-y,-z
1/2+x,y,-z
1/2-x,y,z
x,-y,z
loop_
_atom_site_type_symbol
_atom_site_label
_atom_site_fract_x
_atom_site_fract_y
_atom_site_fract_z
Si Si1 0.072182 0.069936 0.593378
Si Si2 0.430319 0.796799 0.092281
Si Si3 0.431435 0.434513 0.778720
Si Si4 0.570074 0.659641 0.907087
Si Si5 0.069228 0.836971 0.279687
Si Si6 0.428823 0.604038 0.590298
Si Si7 0.429774 0.256727 0.592570
O O1 0.250000 0.082412 0.590903
O O2 0.000000 0.085482 0.500000
O O3 0.995246 0.107048 0.669391
O O4 0.051081 0.000000 0.605971
O O5 0.250000 0.799474 0.084631
O O6 0.471217 0.728127 0.108213
O O7 0.475263 0.832746 0.178205
O O8 0.500000 0.815040 0.000000
O O9 0.250000 0.428057 0.782105
O O10 0.469823 0.500000 0.810642
O O11 0.505642 0.383378 0.834496
O O12 0.477858 0.428093 0.677927
O O13 0.750000 0.655752 0.910200
O O14 0.500000 0.642920 0.000000
O O15 0.250000 0.836116 0.284632
O O16 0.003828 0.780742 0.330985
O O17 0.500000 0.583910 0.500000
O O18 0.250000 0.597663 0.582760
O O19 0.461548 0.673718 0.602074
O O20 0.500000 0.238028 0.500000
O O21 0.250000 0.248355 0.591704
#
# Coordination Sequence:
#
# PCOD9400748 Si02
#       7
#     8   8   8   8   8   8   8
#     4  10  21  37  56  79 109 146 185 220 254 295
#     4   9  20  36  55  80 107 135 167 209 258 308
#     4  10  21  36  52  72  99 130 167 211 256 304
#     4  10  20  36  57  79 103 131 165 205 255 312
#     4  11  21  33  52  79 109 138 171 212 258 304
#     4   9  19  34  51  71  97 131 168 208 255 305
#     4  10  19  31  48  72 102 134 168 207 254 307
#
# _framework density 18.020894999999999
#
# number of rings (size 3 to 8) (size 9 to 14) (size 15 to 20)
#    0.000    2.143    0.000    3.000    0.000    4.571 
#    0.000    0.000    0.000    0.429    0.000    0.000 
#    0.000    0.000    0.000    0.000    0.000    0.000 
#
# Total GULP energy -312706.697646 kJ/mol
# GULP energy per Si atom -5584.048172 kJ/mol
# Density = 1.797988 g / cm^3
# Si number density = 18.020895 Si / 1000 Ang^3
#
#
#
# Elastic Constant Matrix: (Units=GPa)
#
#
# Indices 1 2 3 4 5 6 
#
# 1 50.7753 34.6133 47.4666 0.0000 0.0000 0.0000
# 2 34.6133 52.6565 56.7068 0.0000 0.0000 0.0000
# 3 47.4666 56.7068 154.6266 0.0000 0.0000 0.0000
# 4 0.0000 0.0000 0.0000 -548.4231 0.0000 0.0000
# 5 0.0000 0.0000 0.0000 0.0000 33.8360 0.0000
# 6 0.0000 0.0000 0.0000 0.0000 0.0000 27.0348
#
#
#
# Elastic Compliance Matrix: (Units=1/GPa)
#
#
# Indices 1 2 3 4 5 6 
#
# 1 0.037157 -0.020066 -0.004047 0.000000 0.000000 0.000000
# 2 -0.020066 0.042224 -0.009325 0.000000 0.000000 0.000000
# 3 -0.004047 -0.009325 0.011129 0.000000 0.000000 0.000000
# 4 0.000000 0.000000 0.000000 -0.001823 0.000000 0.000000
# 5 0.000000 0.000000 0.000000 0.000000 0.029554 0.000000
# 6 0.000000 0.000000 0.000000 0.000000 0.000000 0.036989
#
#
# Mechanical properties :
#
#
# Convention : Reuss Voigt Hill
#
# Bulk Modulus (GPa) = 42.31360 59.51465 50.91412
# Shear Modulus (GPa) = 21.74046 -89.55900 -33.90927
#
# Velocity S-wave (km/s) = 3.47710 -7.05728 -4.34252
# Velocity P-wave (km/s) = 6.29695 5.77147 1.78069
#
# Compressibility (1/GPa) = 0.02363307
#
# Stress axis : x y z
#
# Youngs Moduli (GPa) = 26.91251 23.68341 89.85176
#
# Poissons Ratio (x) = 0.47524 0.36367
# Poissons Ratio (y) = 0.54004 0.83787
# Poissons Ratio (z) = 0.10893 0.22085
#
# Static dielectric constant tensor:
#      x y z
#    x 1.602030 0.000000 0.000000 
#    y 0.000000 1.617950 0.000000 
#    z 0.000000 0.000000 1.603950 
# 
# From -- ./inp_files/21742.got.cif
#   From: 2010.05.17/outbox.cif.g08.bks.cpg/sg51_11_cif.got.tgz:21742.got - 2010.06.03 11:52:47.
