data_PCOD9400206
_publ_section_title
;
Structure prediction by ZEFSAII (Michael W. Deem and Ramdas Pophale) SiO2 
 PCOD9400206
Probable space group: P M M A
;
_chemical_formula_sum "Si O2"
_cell_formula_units_Z 64
_cell_length_a 7.606548
_cell_length_b 19.873664
_cell_length_c 24.554489
_cell_angle_alpha 90.000000
_cell_angle_beta 90.000000
_cell_angle_gamma 90.000000
_cell_volume 3711.901590
_symmetry_space_group_name_H-M "P M M A"
_symmetry_group_IT_number 51
_symmetry_cell_setting 'orthorhombic'
loop_
_space_group_symop_operation_xyz
x,y,z
1/2-x,-y,z
1/2+x,-y,-z
-x,y,-z
-x,-y,-z
1/2+x,y,-z
1/2-x,y,z
x,-y,z
loop_
_atom_site_type_symbol
_atom_site_label
_atom_site_fract_x
_atom_site_fract_y
_atom_site_fract_z
Si Si1 0.539103 0.713947 0.938447
Si Si2 0.961018 0.203407 0.835743
Si Si3 0.035830 0.425610 0.236827
Si Si4 0.539335 0.844060 0.333988
Si Si5 0.538939 0.923099 0.438457
Si Si6 0.964023 0.425512 0.890826
Si Si7 0.538860 0.716344 0.728916
Si Si8 0.460814 0.075868 0.772545
O O1 0.750000 0.711438 0.933167
O O2 0.473502 0.765130 0.892083
O O3 0.473171 0.638492 0.924836
O O4 0.500000 0.733436 0.000000
O O5 0.750000 0.209744 0.835697
O O6 0.027057 0.247010 0.784123
O O7 0.001663 0.126266 0.822125
O O8 0.250000 0.426622 0.238565
O O9 0.975292 0.500000 0.253951
O O10 0.989694 0.416337 0.172963
O O11 0.975316 0.360529 0.270265
O O12 0.750000 0.851131 0.334187
O O13 0.472779 0.874561 0.390658
O O14 0.502860 0.766319 0.320445
O O15 0.471691 0.887960 0.282602
O O16 0.500000 0.901016 0.500000
O O17 0.750000 0.926083 0.433646
O O18 0.472638 0.000000 0.431757
O O19 0.750000 0.426052 0.892820
O O20 0.023856 0.500000 0.908384
O O21 0.750000 0.713826 0.732697
O O22 0.250000 0.072207 0.767408
O O23 0.527830 0.000000 0.778422
#
# Coordination Sequence:
#
# PCOD9400206 Si02
#       8
#     8   8   8   8   8   8   8   8
#     4  10  19  30  43  60  81 106 136 170 205 245
#     4   9  17  29  43  60  83 106 131 166 208 249
#     4   8  12  20  38  61  82 107 139 171 203 242
#     4   9  17  28  42  62  89 118 142 167 204 247
#     4   9  17  29  44  61  85 119 154 181 203 233
#     4   8  13  23  40  59  79 106 138 168 199 239
#     4   9  15  25  42  63  84 107 139 177 209 240
#     4   9  17  29  46  66  85 106 133 165 202 247
#
# _framework density 17.241835999999999
#
# number of rings (size 3 to 8) (size 9 to 14) (size 15 to 20)
#    0.000    3.125    1.250    1.125    0.000    3.000 
#    0.000    0.000    0.000    3.000    0.000    1.750 
#    0.000    0.500    0.000    1.125    0.000    1.750 
#
# Total GULP energy -356584.958657 kJ/mol
# GULP energy per Si atom -5571.639979 kJ/mol
# Density = 1.720259 g / cm^3
# Si number density = 17.241836 Si / 1000 Ang^3
#
#
#
# Elastic Constant Matrix: (Units=GPa)
#
#
# Indices 1 2 3 4 5 6 
#
# 1 34.5329 3.5000 2.0329 0.0000 0.0000 0.0000
# 2 3.5000 138.7587 77.3959 0.0000 0.0000 0.0000
# 3 2.0329 77.3959 110.2969 0.0000 0.0000 0.0000
# 4 0.0000 0.0000 0.0000 27.4687 0.0000 0.0000
# 5 0.0000 0.0000 0.0000 0.0000 12.6175 0.0000
# 6 0.0000 0.0000 0.0000 0.0000 0.0000 -48.1050
#
#
#
# Elastic Compliance Matrix: (Units=1/GPa)
#
#
# Indices 1 2 3 4 5 6 
#
# 1 0.029032 -0.000713 -0.000035 0.000000 0.000000 0.000000
# 2 -0.000713 0.011859 -0.008308 0.000000 0.000000 0.000000
# 3 -0.000035 -0.008308 0.014897 0.000000 0.000000 0.000000
# 4 0.000000 0.000000 0.000000 0.036405 0.000000 0.000000
# 5 0.000000 0.000000 0.000000 0.000000 0.079255 0.000000
# 6 0.000000 0.000000 0.000000 0.000000 0.000000 -0.020788
#
#
# Mechanical properties :
#
#
# Convention : Reuss Voigt Hill
#
# Bulk Modulus (GPa) = 26.54207 49.93844 38.24025
# Shear Modulus (GPa) = 27.57387 11.77356 19.67371
#
# Velocity S-wave (km/s) = 4.00339 2.61597 3.38160
# Velocity P-wave (km/s) = 6.06605 6.17663 6.12159
#
# Compressibility (1/GPa) = 0.03767604
#
# Stress axis : x y z
#
# Youngs Moduli (GPa) = 34.44456 84.32499 67.12737
#
# Poissons Ratio (x) = 0.06011 0.00234
# Poissons Ratio (y) = 0.02455 0.55771
# Poissons Ratio (z) = 0.00120 0.70060
#
# Static dielectric constant tensor:
#      x y z
#    x 1.655880 0.000000 0.000000 
#    y 0.000000 1.612260 0.000000 
#    z 0.000000 0.000000 1.565160 
# 
# From -- ./inp_files/29203.got.cif
#   From: 2010.05.17/outbox.cif.g08.bks.cpg/sg51_15_cif.got.tgz:29203.got - 2010.06.03 11:52:47.
