data_PCOD9400873
_publ_section_title
;
Structure prediction by ZEFSAII (Michael W. Deem and Ramdas Pophale) SiO2 
 PCOD9400873
Probable space group: P M M A
;
_chemical_formula_sum "Si O2"
_cell_formula_units_Z 64
_cell_length_a 24.709642
_cell_length_b 7.727081
_cell_length_c 17.495257
_cell_angle_alpha 90.000000
_cell_angle_beta 90.000000
_cell_angle_gamma 90.000000
_cell_volume 3340.428994
_symmetry_space_group_name_H-M "P M M A"
_symmetry_group_IT_number 51
_symmetry_cell_setting 'orthorhombic'
loop_
_space_group_symop_operation_xyz
x,y,z
1/2-x,-y,z
1/2+x,-y,-z
-x,y,-z
-x,-y,-z
1/2+x,y,-z
1/2-x,y,z
x,-y,z
loop_
_atom_site_type_symbol
_atom_site_label
_atom_site_fract_x
_atom_site_fract_y
_atom_site_fract_z
Si Si1 0.594766 0.202412 0.634374
Si Si2 0.688405 0.703772 0.081554
Si Si3 0.311140 0.209142 0.636904
Si Si4 0.684452 0.800487 0.912840
Si Si5 0.519439 0.296616 0.316413
Si Si6 0.411693 0.790783 0.536587
Si Si7 0.381373 0.296550 0.781437
Si Si8 0.812617 0.787123 0.745299
O O1 0.539756 0.216089 0.682406
O O2 0.583581 0.275161 0.549743
O O3 0.645850 0.273715 0.680811
O O4 0.607081 0.000000 0.622167
O O5 0.750000 0.776427 0.088257
O O6 0.692796 0.500000 0.098999
O O7 0.645691 0.778471 0.142114
O O8 0.669695 0.718844 0.993786
O O9 0.250000 0.268152 0.625023
O O10 0.352530 0.254560 0.569496
O O11 0.336573 0.279501 0.714979
O O12 0.311117 0.000000 0.642497
O O13 0.750000 0.795890 0.910301
O O14 0.668480 0.728489 0.830004
O O15 0.667279 0.000000 0.916531
O O16 0.513082 0.500000 0.302541
O O17 0.545960 0.274063 0.400476
O O18 0.563405 0.223829 0.255899
O O19 0.417845 0.000000 0.536801
O O20 0.392106 0.500000 0.794552
O O21 0.750000 0.736825 0.732475
O O22 0.813111 0.000000 0.747401
#
# Coordination Sequence:
#
# PCOD9400873 Si02
#       8
#     8   8   8   8   8   8   8   8
#     4  10  19  31  50  71  89 114 149 187 224 264
#     4   9  16  26  43  67  91 114 144 181 218 259
#     4   9  17  28  42  63  92 121 147 180 223 266
#     4   8  14  26  44  66  92 118 143 174 214 261
#     4  10  20  33  48  65  88 119 154 190 226 263
#     4   9  18  31  46  66  91 118 150 188 226 263
#     4   9  18  31  45  62  87 121 156 186 218 261
#     4   8  15  29  49  72  95 118 145 178 219 269
#
# _framework density 19.159215
#
# number of rings (size 3 to 8) (size 9 to 14) (size 15 to 20)
#    0.000    3.000    0.000    1.875    0.000    4.250 
#    0.000    4.375    0.000    1.875    0.000    7.000 
#    0.000    0.000    0.000    0.000    0.000    0.000 
#
# Total GULP energy -356547.268948 kJ/mol
# GULP energy per Si atom -5571.051077 kJ/mol
# Density = 1.911561 g / cm^3
# Si number density = 19.159215 Si / 1000 Ang^3
#
#
#
# Elastic Constant Matrix: (Units=GPa)
#
#
# Indices 1 2 3 4 5 6 
#
# 1 79.0358 -6.0846 29.0944 0.0000 0.0000 0.0000
# 2 -6.0846 24.0714 2.4586 0.0000 0.0000 0.0000
# 3 29.0944 2.4586 74.5416 0.0000 0.0000 0.0000
# 4 0.0000 0.0000 0.0000 21.2287 0.0000 0.0000
# 5 0.0000 0.0000 0.0000 0.0000 16.4804 0.0000
# 6 0.0000 0.0000 0.0000 0.0000 0.0000 3.2626
#
#
#
# Elastic Compliance Matrix: (Units=1/GPa)
#
#
# Indices 1 2 3 4 5 6 
#
# 1 0.015241 0.004475 -0.006096 0.000000 0.000000 0.000000
# 2 0.004475 0.042997 -0.003165 0.000000 0.000000 0.000000
# 3 -0.006096 -0.003165 0.015899 0.000000 0.000000 0.000000
# 4 0.000000 0.000000 0.000000 0.047106 0.000000 0.000000
# 5 0.000000 0.000000 0.000000 0.000000 0.060678 0.000000
# 6 0.000000 0.000000 0.000000 0.000000 0.000000 0.306505
#
#
# Mechanical properties :
#
#
# Convention : Reuss Voigt Hill
#
# Bulk Modulus (GPa) = 15.48810 25.39841 20.44326
# Shear Modulus (GPa) = 9.62425 18.33970 13.98197
#
# Velocity S-wave (km/s) = 2.24370 3.09726 2.70437
# Velocity P-wave (km/s) = 3.84886 5.10647 4.52160
#
# Compressibility (1/GPa) = 0.06456568
#
# Stress axis : x y z
#
# Youngs Moduli (GPa) = 65.61160 23.25718 62.89618
#
# Poissons Ratio (x) = -0.10408 0.38344
# Poissons Ratio (y) = -0.29363 0.19906
# Poissons Ratio (z) = 0.40000 0.07361
#
# Static dielectric constant tensor:
#      x y z
#    x 1.659040 0.000000 0.000000 
#    y 0.000000 1.720480 0.000000 
#    z 0.000000 0.000000 1.686320 
# 
# From -- ./inp_files/30549.got.cif
#   From: 2010.05.17/outbox.cif.g08.bks.cpg/sg51_16_cif.got.tgz:30549.got - 2010.06.03 11:52:47.
