data_PCOD9400286
_publ_section_title
;
Structure prediction by ZEFSAII (Michael W. Deem and Ramdas Pophale) SiO2 
 PCOD9400286
Probable space group: P M M A
;
_chemical_formula_sum "Si O2"
_cell_formula_units_Z 56
_cell_length_a 8.805971
_cell_length_b 30.604556
_cell_length_c 13.868409
_cell_angle_alpha 90.000000
_cell_angle_beta 90.000000
_cell_angle_gamma 90.000000
_cell_volume 3737.575509
_symmetry_space_group_name_H-M "P M M A"
_symmetry_group_IT_number 51
_symmetry_cell_setting 'orthorhombic'
loop_
_space_group_symop_operation_xyz
x,y,z
1/2-x,-y,z
1/2+x,-y,-z
-x,y,-z
-x,-y,-z
1/2+x,y,-z
1/2-x,y,z
x,-y,z
loop_
_atom_site_type_symbol
_atom_site_label
_atom_site_fract_x
_atom_site_fract_y
_atom_site_fract_z
Si Si1 0.433362 0.677940 0.699475
Si Si2 0.431999 0.135609 0.608359
Si Si3 0.568296 0.047871 0.608409
Si Si4 0.431210 0.633727 0.898487
Si Si5 0.932816 0.549689 0.802867
Si Si6 0.931199 0.406117 0.601441
Si Si7 0.932877 0.768305 0.392673
O O1 0.250000 0.674885 0.691896
O O2 0.476039 0.664333 0.808186
O O3 0.504838 0.641648 0.629365
O O4 0.480638 0.726578 0.669618
O O5 0.500000 0.136911 0.500000
O O6 0.250000 0.131537 0.603728
O O7 0.500124 0.091725 0.654894
O O8 0.472107 0.183608 0.648786
O O9 0.500000 0.046707 0.500000
O O10 0.750000 0.051918 0.602083
O O11 0.532550 0.000000 0.651909
O O12 0.250000 0.633069 0.904643
O O13 0.490759 0.585512 0.870793
O O14 0.500000 0.647643 0.000000
O O15 0.750000 0.552939 0.812712
O O16 0.978709 0.500000 0.822773
O O17 0.970282 0.563043 0.692395
O O18 0.750000 0.404117 0.593754
O O19 0.000000 0.420626 0.500000
O O20 0.750000 0.767279 0.400798
O O21 0.000000 0.764284 0.500000
#
# Coordination Sequence:
#
# PCOD9400286 Si02
#       7
#     8   8   8   8   8   8   8
#     4   9  18  32  47  63  83 107 136 167 200 239
#     4   9  15  22  32  46  66  92 123 160 197 231
#     4   9  15  21  29  41  59  86 122 163 201 233
#     4  10  20  34  52  70  87 107 131 163 201 241
#     4   9  19  35  51  67  88 112 138 167 197 232
#     4  10  19  30  45  65  88 113 140 168 197 231
#     4   9  17  27  39  57  80 105 133 164 198 235
#
# _framework density 14.982975
#
# number of rings (size 3 to 8) (size 9 to 14) (size 15 to 20)
#    0.000    2.714    0.000    3.000    0.000    5.143 
#    0.000    0.000    0.000    0.000    0.000    0.000 
#    0.000    0.000    0.000    0.000    0.000    0.714 
#
# Total GULP energy -311872.391779 kJ/mol
# GULP energy per Si atom -5569.149853 kJ/mol
# Density = 1.494887 g / cm^3
# Si number density = 14.982975 Si / 1000 Ang^3
#
#
#
# Elastic Constant Matrix: (Units=GPa)
#
#
# Indices 1 2 3 4 5 6 
#
# 1 27.3061 24.2812 12.3323 0.0000 0.0000 0.0000
# 2 24.2812 123.9915 15.3734 0.0000 0.0000 0.0000
# 3 12.3323 15.3734 45.2423 0.0000 0.0000 0.0000
# 4 0.0000 0.0000 0.0000 7.3998 0.0000 0.0000
# 5 0.0000 0.0000 0.0000 0.0000 18.9098 0.0000
# 6 0.0000 0.0000 0.0000 0.0000 0.0000 20.2038
#
#
#
# Elastic Compliance Matrix: (Units=1/GPa)
#
#
# Indices 1 2 3 4 5 6 
#
# 1 0.048671 -0.008233 -0.010469 0.000000 0.000000 0.000000
# 2 -0.008233 0.009813 -0.001090 0.000000 0.000000 0.000000
# 3 -0.010469 -0.001090 0.025327 0.000000 0.000000 0.000000
# 4 0.000000 0.000000 0.000000 0.135138 0.000000 0.000000
# 5 0.000000 0.000000 0.000000 0.000000 0.052883 0.000000
# 6 0.000000 0.000000 0.000000 0.000000 0.000000 0.049496
#
#
# Mechanical properties :
#
#
# Convention : Reuss Voigt Hill
#
# Bulk Modulus (GPa) = 22.61114 33.39041 28.00078
# Shear Modulus (GPa) = 13.31008 18.93955 16.12482
#
# Velocity S-wave (km/s) = 2.98375 3.55924 3.28412
# Velocity P-wave (km/s) = 5.19561 6.26297 5.75409
#
# Compressibility (1/GPa) = 0.04422598
#
# Stress axis : x y z
#
# Youngs Moduli (GPa) = 20.54594 101.91050 39.48290
#
# Poissons Ratio (x) = 0.83905 0.41336
# Poissons Ratio (y) = 0.16916 0.04304
# Poissons Ratio (z) = 0.21510 0.11109
#
# Static dielectric constant tensor:
#      x y z
#    x 1.499820 0.000000 0.000000 
#    y 0.000000 1.547850 0.000000 
#    z 0.000000 0.000000 1.467110 
# 
# From -- ./inp_files/22546.got.cif
#   From: 2010.05.17/outbox.cif.g08.bks.cpg/sg51_12_cif.got.tgz:22546.got - 2010.06.03 11:52:47.
