data_PCOD9400209
_publ_section_title
;
Structure prediction by ZEFSAII (Michael W. Deem and Ramdas Pophale) SiO2 
 PCOD9400209
Probable space group: P M M A
;
_chemical_formula_sum "Si O2"
_cell_formula_units_Z 48
_cell_length_a 7.323666
_cell_length_b 15.061660
_cell_length_c 21.205353
_cell_angle_alpha 90.000000
_cell_angle_beta 90.000000
_cell_angle_gamma 90.000000
_cell_volume 2339.089697
_symmetry_space_group_name_H-M "P M M A"
_symmetry_group_IT_number 51
_symmetry_cell_setting 'orthorhombic'
loop_
_space_group_symop_operation_xyz
x,y,z
1/2-x,-y,z
1/2+x,-y,-z
-x,y,-z
-x,-y,-z
1/2+x,y,-z
1/2-x,y,z
x,-y,z
loop_
_atom_site_type_symbol
_atom_site_label
_atom_site_fract_x
_atom_site_fract_y
_atom_site_fract_z
Si Si1 0.027057 0.283272 0.811386
Si Si2 0.467768 0.600851 0.927582
Si Si3 0.972844 0.398058 0.310228
Si Si4 0.971770 0.901937 0.241301
Si Si5 0.467291 0.713333 0.569757
Si Si6 0.528194 0.902355 0.389199
O O1 0.250000 0.281516 0.812154
O O2 0.964586 0.330241 0.875490
O O3 0.973332 0.343320 0.751629
O O4 0.966500 0.182624 0.798443
O O5 0.250000 0.595983 0.919069
O O6 0.538475 0.500000 0.918741
O O7 0.500000 0.626933 0.000000
O O8 0.750000 0.398580 0.310703
O O9 0.031843 0.500000 0.308041
O O10 0.035027 0.347562 0.373262
O O11 0.750000 0.901683 0.240036
O O12 0.020354 0.891727 0.315198
O O13 0.031581 0.000000 0.220402
O O14 0.500000 0.677494 0.500000
O O15 0.250000 0.718639 0.578510
O O16 0.537414 0.814562 0.575406
O O17 0.750000 0.903786 0.392143
O O18 0.465615 0.000000 0.410873
#
# Coordination Sequence:
#
# PCOD9400209 Si02
#       6
#     8   8   8   8   8   8
#     4   9  14  23  41  64  86 108 139 178 212 242
#     4   9  17  28  43  65  92 118 142 170 206 248
#     4   9  16  26  41  61  82 105 139 180 215 245
#     4   8  12  19  35  60  86 107 131 171 217 250
#     4  10  19  30  43  60  83 111 140 172 212 255
#     4   8  13  23  39  59  83 107 132 168 214 255
#
# _framework density 20.520802
#
# number of rings (size 3 to 8) (size 9 to 14) (size 15 to 20)
#    0.000    3.167    1.667    1.500    0.000    2.667 
#    0.000    0.000    0.000    1.500    0.000    0.000 
#    0.000    0.000    0.000    0.000    0.000    0.000 
#
# Total GULP energy -267881.929730 kJ/mol
# GULP energy per Si atom -5580.873536 kJ/mol
# Density = 2.047410 g / cm^3
# Si number density = 20.520802 Si / 1000 Ang^3
#
#
#
# Elastic Constant Matrix: (Units=GPa)
#
#
# Indices 1 2 3 4 5 6 
#
# 1 80.3358 3.6850 -3.2635 0.0000 0.0000 0.0000
# 2 3.6850 168.0303 96.5624 0.0000 0.0000 0.0000
# 3 -3.2635 96.5624 139.5672 0.0000 0.0000 0.0000
# 4 0.0000 0.0000 0.0000 -7.4105 0.0000 0.0000
# 5 0.0000 0.0000 0.0000 0.0000 5.6806 0.0000
# 6 0.0000 0.0000 0.0000 0.0000 0.0000 3.3469
#
#
#
# Elastic Compliance Matrix: (Units=1/GPa)
#
#
# Indices 1 2 3 4 5 6 
#
# 1 0.012514 -0.000735 0.000801 0.000000 0.000000 0.000000
# 2 -0.000735 0.009922 -0.006882 0.000000 0.000000 0.000000
# 3 0.000801 -0.006882 0.011945 0.000000 0.000000 0.000000
# 4 0.000000 0.000000 0.000000 -0.134943 0.000000 0.000000
# 5 0.000000 0.000000 0.000000 0.000000 0.176038 0.000000
# 6 0.000000 0.000000 0.000000 0.000000 0.000000 0.298786
#
#
# Mechanical properties :
#
#
# Convention : Reuss Voigt Hill
#
# Bulk Modulus (GPa) = 48.19328 64.65568 56.42448
# Shear Modulus (GPa) = 12.66428 19.72001 16.19215
#
# Velocity S-wave (km/s) = 2.48693 3.10333 2.81207
# Velocity P-wave (km/s) = 5.63760 6.66458 6.17248
#
# Compressibility (1/GPa) = 0.02074978
#
# Stress axis : x y z
#
# Youngs Moduli (GPa) = 79.91053 100.78165 83.71468
#
# Poissons Ratio (x) = 0.07405 -0.06705
# Poissons Ratio (y) = 0.05871 0.57614
# Poissons Ratio (z) = -0.06400 0.69360
#
# Static dielectric constant tensor:
#      x y z
#    x 1.813280 0.000000 0.000000 
#    y 0.000000 1.730780 0.000000 
#    z 0.000000 0.000000 1.689380 
# 
# From -- ./inp_files/23258.got.cif
#   From: 2010.05.17/outbox.cif.g08.bks.cpg/sg51_12_cif.got.tgz:23258.got - 2010.06.03 11:52:47.
