data_PCOD9400204
_publ_section_title
;
Structure prediction by ZEFSAII (Michael W. Deem and Ramdas Pophale) SiO2 
 PCOD9400204
Probable space group: P M M A
;
_chemical_formula_sum "Si O2"
_cell_formula_units_Z 52
_cell_length_a 8.933887
_cell_length_b 18.855188
_cell_length_c 25.587862
_cell_angle_alpha 90.000000
_cell_angle_beta 90.000000
_cell_angle_gamma 90.000000
_cell_volume 4310.278398
_symmetry_space_group_name_H-M "P M M A"
_symmetry_group_IT_number 51
_symmetry_cell_setting 'orthorhombic'
loop_
_space_group_symop_operation_xyz
x,y,z
1/2-x,-y,z
1/2+x,-y,-z
-x,y,-z
-x,-y,-z
1/2+x,y,-z
1/2-x,y,z
x,-y,z
loop_
_atom_site_type_symbol
_atom_site_label
_atom_site_fract_x
_atom_site_fract_y
_atom_site_fract_z
Si Si1 0.929030 0.417258 0.768531
Si Si2 0.423308 0.586211 0.660788
Si Si3 0.931010 0.232874 0.058472
Si Si4 0.430768 0.500000 0.942103
Si Si5 0.070167 0.076132 0.942194
Si Si6 0.922912 0.586370 0.553653
Si Si7 0.069302 0.634687 0.117633
O O1 0.750000 0.416635 0.762146
O O2 0.973837 0.500000 0.776652
O O3 0.965963 0.374746 0.820956
O O4 0.001660 0.390614 0.714928
O O5 0.250000 0.605267 0.660112
O O6 0.434376 0.500000 0.660802
O O7 0.500620 0.610717 0.607312
O O8 0.750000 0.240603 0.055827
O O9 0.968578 0.153647 0.079874
O O10 0.003657 0.293635 0.093544
O O11 0.000000 0.238544 0.000000
O O12 0.250000 0.500000 0.943705
O O13 0.493293 0.430925 0.912441
O O14 0.500000 0.500000 0.000000
O O15 0.250000 0.076026 0.946878
O O16 0.026456 0.000000 0.917180
O O17 0.000000 0.075735 0.000000
O O18 0.750000 0.606183 0.553461
O O19 0.931130 0.500000 0.553711
O O20 0.000000 0.610279 0.500000
O O21 0.250000 0.631221 0.111353
#
# Coordination Sequence:
#
# PCOD9400204 Si02
#       7
#     8   8   8   4   8   8   8
#     4   9  17  30  43  52  64  85 113 144 178 214
#     4   9  16  24  35  51  67  83 106 137 171 208
#     4  10  19  30  43  60  78  96 117 142 175 215
#     4  12  24  36  48  58  70  88 115 148 185 224
#     4   8  14  25  41  59  78  97 115 135 162 201
#     4   9  15  22  32  46  65  87 108 132 165 206
#     4  11  21  34  46  57  73  93 118 148 184 221
#
# _framework density 12.064185999999999
#
# number of rings (size 3 to 8) (size 9 to 14) (size 15 to 20)
#    0.000    2.462    0.769    3.000    0.000    5.538 
#    0.000    0.000    0.000    0.000    0.000    0.000 
#    0.000    0.000    0.000    0.000    0.000    0.000 
#
# Total GULP energy -289506.039549 kJ/mol
# GULP energy per Si atom -5567.423837 kJ/mol
# Density = 1.203673 g / cm^3
# Si number density = 12.064186 Si / 1000 Ang^3
#
#
#
# Elastic Constant Matrix: (Units=GPa)
#
#
# Indices 1 2 3 4 5 6 
#
# 1 60.9717 30.2733 53.6072 0.0000 0.0000 0.0000
# 2 30.2733 79.2729 39.4266 0.0000 0.0000 0.0000
# 3 53.6072 39.4266 109.9061 0.0000 0.0000 0.0000
# 4 0.0000 0.0000 0.0000 -0.0401 0.0000 0.0000
# 5 0.0000 0.0000 0.0000 0.0000 21.9621 0.0000
# 6 0.0000 0.0000 0.0000 0.0000 0.0000 8.0463
#
#
#
# Elastic Compliance Matrix: (Units=1/GPa)
#
#
# Indices 1 2 3 4 5 6 
#
# 1 0.030347 -0.005145 -0.012956 0.000000 0.000000 0.000000
# 2 -0.005145 0.016226 -0.003311 0.000000 0.000000 0.000000
# 3 -0.012956 -0.003311 0.016606 0.000000 0.000000 0.000000
# 4 0.000000 0.000000 0.000000-24.961151 0.000000 0.000000
# 5 0.000000 0.000000 0.000000 0.000000 0.045533 0.000000
# 6 0.000000 0.000000 0.000000 0.000000 0.000000 0.124280
#
#
# Mechanical properties :
#
#
# Convention : Reuss Voigt Hill
#
# Bulk Modulus (GPa) = 49.13049 55.19608 52.16328
# Shear Modulus (GPa) = -0.20261 14.44992 7.12366
#
# Velocity S-wave (km/s) = -0.41025 3.46461 2.43262
# Velocity P-wave (km/s) = 6.37089 7.86486 7.15697
#
# Compressibility (1/GPa) = 0.02035396
#
# Stress axis : x y z
#
# Youngs Moduli (GPa) = 32.95222 61.62772 60.21969
#
# Poissons Ratio (x) = 0.31710 0.78021
# Poissons Ratio (y) = 0.16955 0.19940
# Poissons Ratio (z) = 0.42693 0.20406
#
# Static dielectric constant tensor:
#      x y z
#    x 1.403150 0.000000 0.000000 
#    y 0.000000 1.393750 0.000000 
#    z 0.000000 0.000000 1.382960 
# 
# From -- ./inp_files/35061.got.cif
#   From: 2010.05.17/outbox.cif.g08.bks.cpg/sg51_18_cif.got.tgz:35061.got - 2010.06.03 11:52:47.
