data_PCOD9400213
_publ_section_title
;
Structure prediction by ZEFSAII (Michael W. Deem and Ramdas Pophale) SiO2 
 PCOD9400213
Probable space group: P M M A
;
_chemical_formula_sum "Si O2"
_cell_formula_units_Z 56
_cell_length_a 9.237640
_cell_length_b 22.033186
_cell_length_c 16.043850
_cell_angle_alpha 90.000000
_cell_angle_beta 90.000000
_cell_angle_gamma 90.000000
_cell_volume 3265.479239
_symmetry_space_group_name_H-M "P M M A"
_symmetry_group_IT_number 51
_symmetry_cell_setting 'orthorhombic'
loop_
_space_group_symop_operation_xyz
x,y,z
1/2-x,-y,z
1/2+x,-y,-z
-x,y,-z
-x,-y,-z
1/2+x,y,-z
1/2-x,y,z
x,-y,z
loop_
_atom_site_type_symbol
_atom_site_label
_atom_site_fract_x
_atom_site_fract_y
_atom_site_fract_z
Si Si1 0.425190 0.798701 0.908392
Si Si2 0.915810 0.595657 0.744096
Si Si3 0.918084 0.742712 0.415196
Si Si4 0.584632 0.594510 0.417861
Si Si5 0.588371 0.571950 0.923996
Si Si6 0.077216 0.064888 0.910723
Si Si7 0.416913 0.741363 0.247109
O O1 0.250000 0.790470 0.914866
O O2 0.455800 0.868143 0.876976
O O3 0.496647 0.757246 0.837191
O O4 0.500000 0.791159 0.000000
O O5 0.750000 0.573173 0.740078
O O6 0.980401 0.578578 0.833457
O O7 0.911333 0.668560 0.743575
O O8 0.005597 0.573964 0.665653
O O9 0.750000 0.761732 0.414903
O O10 0.917899 0.668664 0.416126
O O11 0.000000 0.761661 0.500000
O O12 0.000423 0.762888 0.330974
O O13 0.500000 0.575296 0.500000
O O14 0.750000 0.575322 0.420743
O O15 0.750000 0.598625 0.920496
O O16 0.602166 0.500000 0.938873
O O17 0.500000 0.599294 0.000000
O O18 0.250000 0.064598 0.922799
O O19 0.039078 0.000000 0.868238
O O20 0.000000 0.063798 0.000000
O O21 0.250000 0.763069 0.243127
#
# Coordination Sequence:
#
# PCOD9400213 Si02
#       7
#     8   8   8   8   8   8   8
#     4  10  19  30  43  60  86 119 151 182 217 257
#     4   9  18  31  46  65  88 114 143 176 215 258
#     4   9  16  27  43  63  86 113 145 179 216 255
#     4   9  16  26  43  66  90 115 141 171 207 251
#     4   9  18  33  51  68  85 107 139 181 224 260
#     4   8  14  25  41  59  78 104 141 182 219 253
#     4  10  19  30  43  62  90 120 148 177 212 258
#
# _framework density 17.149090000000001
#
# number of rings (size 3 to 8) (size 9 to 14) (size 15 to 20)
#    0.000    2.857    0.000    1.714    0.000    5.714 
#    0.000    1.429    0.000    0.429    0.000    0.000 
#    0.000    0.571    0.000    1.571    0.000    2.571 
#
# Total GULP energy -311768.873809 kJ/mol
# GULP energy per Si atom -5567.301318 kJ/mol
# Density = 1.711006 g / cm^3
# Si number density = 17.149090 Si / 1000 Ang^3
#
#
#
# Elastic Constant Matrix: (Units=GPa)
#
#
# Indices 1 2 3 4 5 6 
#
# 1 109.3381 15.1413 83.7509 0.0000 0.0000 0.0000
# 2 15.1413 31.5231 8.6802 0.0000 0.0000 0.0000
# 3 83.7509 8.6802 157.7752 0.0000 0.0000 0.0000
# 4 0.0000 0.0000 0.0000 5.9141 0.0000 0.0000
# 5 0.0000 0.0000 0.0000 0.0000 26.9463 0.0000
# 6 0.0000 0.0000 0.0000 0.0000 0.0000 14.9324
#
#
#
# Elastic Compliance Matrix: (Units=1/GPa)
#
#
# Indices 1 2 3 4 5 6 
#
# 1 0.016311 -0.005534 -0.008354 0.000000 0.000000 0.000000
# 2 -0.005534 0.034088 0.001062 0.000000 0.000000 0.000000
# 3 -0.008354 0.001062 0.010714 0.000000 0.000000 0.000000
# 4 0.000000 0.000000 0.000000 0.169086 0.000000 0.000000
# 5 0.000000 0.000000 0.000000 0.000000 0.037111 0.000000
# 6 0.000000 0.000000 0.000000 0.000000 0.000000 0.066969
#
#
# Mechanical properties :
#
#
# Convention : Reuss Voigt Hill
#
# Bulk Modulus (GPa) = 28.19916 57.08679 42.64297
# Shear Modulus (GPa) = 13.44981 22.29616 17.87298
#
# Velocity S-wave (km/s) = 2.80355 3.60965 3.23183
# Velocity P-wave (km/s) = 5.19221 7.12275 6.23268
#
# Compressibility (1/GPa) = 0.03546205
#
# Stress axis : x y z
#
# Youngs Moduli (GPa) = 61.30705 29.33542 93.33428
#
# Poissons Ratio (x) = 0.16235 0.77971
# Poissons Ratio (y) = 0.33929 -0.09915
# Poissons Ratio (z) = 0.51216 -0.03116
#
# Static dielectric constant tensor:
#      x y z
#    x 1.593420 0.000000 0.000000 
#    y 0.000000 1.625530 0.000000 
#    z 0.000000 0.000000 1.569960 
# 
# From -- ./inp_files/21854.got.cif
#   From: 2010.05.17/outbox.cif.g08.bks.cpg/sg51_11_cif.got.tgz:21854.got - 2010.06.03 11:52:47.
