data_PCOD9400072
_publ_section_title
;
Structure prediction by ZEFSAII (Michael W. Deem and Ramdas Pophale) SiO2 
 PCOD9400072
Probable space group: P M M A
;
_chemical_formula_sum "Si O2"
_cell_formula_units_Z 64
_cell_length_a 9.301026
_cell_length_b 23.466280
_cell_length_c 18.430208
_cell_angle_alpha 90.000000
_cell_angle_beta 90.000000
_cell_angle_gamma 90.000000
_cell_volume 4022.586052
_symmetry_space_group_name_H-M "P M M A"
_symmetry_group_IT_number 51
_symmetry_cell_setting 'orthorhombic'
loop_
_space_group_symop_operation_xyz
x,y,z
1/2-x,-y,z
1/2+x,-y,-z
-x,y,-z
-x,-y,-z
1/2+x,y,-z
1/2-x,y,z
x,-y,z
loop_
_atom_site_type_symbol
_atom_site_label
_atom_site_fract_x
_atom_site_fract_y
_atom_site_fract_z
Si Si1 0.922169 0.934485 0.880300
Si Si2 0.583159 0.826132 0.352812
Si Si3 0.591041 0.741174 0.562609
Si Si4 0.586800 0.654468 0.696317
Si Si5 0.418680 0.743286 0.786273
Si Si6 0.416309 0.064326 0.729584
Si Si7 0.920653 0.567883 0.576160
Si Si8 0.924135 0.818992 0.072760
O O1 0.750000 0.925894 0.886586
O O2 0.976307 0.931916 0.797096
O O3 0.009534 0.882456 0.915854
O O4 0.953953 0.000000 0.905404
O O5 0.750000 0.822177 0.373401
O O6 0.485109 0.798932 0.413567
O O7 0.565437 0.788897 0.279209
O O8 0.547066 0.890030 0.330890
O O9 0.500000 0.712384 0.500000
O O10 0.750000 0.750840 0.535806
O O11 0.594126 0.702079 0.633204
O O12 0.750000 0.641103 0.720071
O O13 0.501433 0.686067 0.760903
O O14 0.527749 0.601244 0.648738
O O15 0.250000 0.729592 0.792385
O O16 0.460735 0.777498 0.859272
O O17 0.250000 0.076851 0.754217
O O18 0.418387 0.000000 0.702413
O O19 0.750000 0.581854 0.568299
O O20 0.934241 0.500000 0.587005
O O21 0.000000 0.581228 0.500000
O O22 0.750000 0.822333 0.067181
O O23 0.000000 0.796608 0.000000
#
# Coordination Sequence:
#
# PCOD9400072 Si02
#       8
#     8   8   8   8   8   8   8   8
#     4  10  20  32  47  68  92 119 151 187 228 277
#     4   9  16  29  46  64  85 110 139 177 223 271
#     4  10  19  29  42  63  87 114 146 184 225 267
#     4   9  18  30  46  68  93 124 160 194 229 265
#     4   9  18  32  48  67  90 117 152 189 229 275
#     4   9  16  28  47  67  86 110 141 179 223 273
#     4   9  17  29  45  68 101 138 172 202 231 268
#     4  11  22  36  51  69  92 122 155 190 236 287
#
# _framework density 15.910162
#
# number of rings (size 3 to 8) (size 9 to 14) (size 15 to 20)
#    0.000    2.500    1.250    1.500    0.000    3.500 
#    0.000    0.000    0.000    0.375    0.000    0.000 
#    0.000    0.500    0.000    1.125    0.000    1.750 
#
# Total GULP energy -356286.040018 kJ/mol
# GULP energy per Si atom -5566.969375 kJ/mol
# Density = 1.587395 g / cm^3
# Si number density = 15.910162 Si / 1000 Ang^3
#
#
#
# Elastic Constant Matrix: (Units=GPa)
#
#
# Indices 1 2 3 4 5 6 
#
# 1 61.9737 34.7627 35.7902 0.0000 0.0000 0.0000
# 2 34.7627 78.1542 36.8280 0.0000 0.0000 0.0000
# 3 35.7902 36.8280 61.4481 0.0000 0.0000 0.0000
# 4 0.0000 0.0000 0.0000 19.0522 0.0000 0.0000
# 5 0.0000 0.0000 0.0000 0.0000 23.6101 0.0000
# 6 0.0000 0.0000 0.0000 0.0000 0.0000 18.2127
#
#
#
# Elastic Compliance Matrix: (Units=1/GPa)
#
#
# Indices 1 2 3 4 5 6 
#
# 1 0.026338 -0.006252 -0.011593 0.000000 0.000000 0.000000
# 2 -0.006252 0.019315 -0.007935 0.000000 0.000000 0.000000
# 3 -0.011593 -0.007935 0.027782 0.000000 0.000000 0.000000
# 4 0.000000 0.000000 0.000000 0.052487 0.000000 0.000000
# 5 0.000000 0.000000 0.000000 0.000000 0.042355 0.000000
# 6 0.000000 0.000000 0.000000 0.000000 0.000000 0.054907
#
#
# Mechanical properties :
#
#
# Convention : Reuss Voigt Hill
#
# Bulk Modulus (GPa) = 45.71476 46.25977 45.98726
# Shear Modulus (GPa) = 17.72820 18.45466 18.09143
#
# Velocity S-wave (km/s) = 3.34169 3.40947 3.37575
# Velocity P-wave (km/s) = 6.60943 6.68117 6.64540
#
# Compressibility (1/GPa) = 0.02187477
#
# Stress axis : x y z
#
# Youngs Moduli (GPa) = 37.96779 51.77293 35.99446
#
# Poissons Ratio (x) = 0.32368 0.41730
# Poissons Ratio (y) = 0.23737 0.28561
# Poissons Ratio (z) = 0.44018 0.41081
#
# Static dielectric constant tensor:
#      x y z
#    x 1.555610 0.000000 0.000000 
#    y 0.000000 1.546910 0.000000 
#    z 0.000000 0.000000 1.537020 
# 
# From -- ./inp_files/28656.got.cif
#   From: 2010.05.17/outbox.cif.g08.bks.cpg/sg51_15_cif.got.tgz:28656.got - 2010.06.03 11:52:47.
