data_PCOD9400498
_publ_section_title
;
Structure prediction by ZEFSAII (Michael W. Deem and Ramdas Pophale) SiO2 
 PCOD9400498
Probable space group: P M M A
;
_chemical_formula_sum "Si O2"
_cell_formula_units_Z 48
_cell_length_a 14.718489
_cell_length_b 12.870279
_cell_length_c 10.130368
_cell_angle_alpha 90.000000
_cell_angle_beta 90.000000
_cell_angle_gamma 90.000000
_cell_volume 1919.006347
_symmetry_space_group_name_H-M "P M M A"
_symmetry_group_IT_number 51
_symmetry_cell_setting 'orthorhombic'
loop_
_space_group_symop_operation_xyz
x,y,z
1/2-x,-y,z
1/2+x,-y,-z
-x,y,-z
-x,-y,-z
1/2+x,y,-z
1/2-x,y,z
x,-y,z
loop_
_atom_site_type_symbol
_atom_site_label
_atom_site_fract_x
_atom_site_fract_y
_atom_site_fract_z
Si Si1 0.401038 0.842499 0.465202
Si Si2 0.147219 0.613691 0.411998
Si Si3 0.848037 0.840144 0.251482
Si Si4 0.057565 0.887467 0.175716
Si Si5 0.388575 0.387916 0.833846
Si Si6 0.899386 0.340046 0.878552
O O1 0.500000 0.881424 0.500000
O O2 0.402388 0.716941 0.458769
O O3 0.344925 0.870289 0.593953
O O4 0.388309 0.880139 0.316008
O O5 0.250000 0.617765 0.463359
O O6 0.107832 0.500000 0.441334
O O7 0.151213 0.628308 0.253636
O O8 0.750000 0.871563 0.191129
O O9 0.854736 0.714570 0.238830
O O10 0.947704 0.877084 0.199549
O O11 0.090640 0.784417 0.102055
O O12 0.075637 0.000000 0.115605
O O13 0.364967 0.500000 0.775317
O O14 0.497935 0.378291 0.848214
O O15 0.359562 0.383197 0.986892
#
# Coordination Sequence:
#
# PCOD9400498 Si02
#       6
#     8   8   8   8   8   8
#     4   9  19  34  53  74 101 136 177 223 260 307
#     4  10  19  30  48  74 102 132 166 210 266 317
#     4  10  21  34  49  78 115 143 172 214 263 318
#     4   9  19  37  60  80  98 133 183 229 274 315
#     4  10  19  33  54  78 108 146 181 208 246 310
#     4   9  18  34  54  77 103 134 178 228 260 298
#
# _framework density 25.012944000000001
#
# number of rings (size 3 to 8) (size 9 to 14) (size 15 to 20)
#    0.000    2.500    0.000    3.500    0.000    5.333 
#    0.000    6.667    0.000   12.000    0.000    0.000 
#    0.000    0.000    0.000    0.000    0.000    0.000 
#
# Total GULP energy -267986.756513 kJ/mol
# GULP energy per Si atom -5583.057427 kJ/mol
# Density = 2.495601 g / cm^3
# Si number density = 25.012944 Si / 1000 Ang^3
#
#
#
# Elastic Constant Matrix: (Units=GPa)
#
#
# Indices 1 2 3 4 5 6 
#
# 1 85.1522 9.0119 -2.4111 0.0000 0.0000 0.0000
# 2 9.0119 205.9568 -2.7605 0.0000 0.0000 0.0000
# 3 -2.4111 -2.7605 67.9542 0.0000 0.0000 0.0000
# 4 0.0000 0.0000 0.0000 -103.3263 0.0000 0.0000
# 5 0.0000 0.0000 0.0000 0.0000 3.5147 0.0000
# 6 0.0000 0.0000 0.0000 0.0000 0.0000 -3.3378
#
#
#
# Elastic Compliance Matrix: (Units=1/GPa)
#
#
# Indices 1 2 3 4 5 6 
#
# 1 0.011809 -0.000511 0.000398 0.000000 0.000000 0.000000
# 2 -0.000511 0.004880 0.000180 0.000000 0.000000 0.000000
# 3 0.000398 0.000180 0.014737 0.000000 0.000000 0.000000
# 4 0.000000 0.000000 0.000000 -0.009678 0.000000 0.000000
# 5 0.000000 0.000000 0.000000 0.000000 0.284520 0.000000
# 6 0.000000 0.000000 0.000000 0.000000 0.000000 -0.299598
#
#
# Mechanical properties :
#
#
# Convention : Reuss Voigt Hill
#
# Bulk Modulus (GPa) = 31.68527 40.74929 36.21728
# Shear Modulus (GPa) = 293.14334 3.05164 148.09749
#
# Velocity S-wave (km/s) = 10.83748 1.10575 7.70304
# Velocity P-wave (km/s) = 13.01140 4.23756 9.67609
#
# Compressibility (1/GPa) = 0.03156040
#
# Stress axis : x y z
#
# Youngs Moduli (GPa) = 84.68062 204.91059 67.85533
#
# Poissons Ratio (x) = 0.10479 -0.02702
# Poissons Ratio (y) = 0.04330 -0.01222
# Poissons Ratio (z) = -0.03372 -0.03691
#
# Static dielectric constant tensor:
#      x y z
#    x 2.007290 0.000000 0.000000 
#    y 0.000000 1.976060 0.000000 
#    z 0.000000 0.000000 1.982560 
# 
# From -- ./inp_files/17307.got.cif
#   From: 2010.05.17/outbox.cif.g08.bks.cpg/sg51_9_cif.got.tgz:17307.got - 2010.06.03 11:52:47.
