data_PCOD9400426
_publ_section_title
;
Structure prediction by ZEFSAII (Michael W. Deem and Ramdas Pophale) SiO2 
 PCOD9400426
Probable space group: P M M A
;
_chemical_formula_sum "Si O2"
_cell_formula_units_Z 52
_cell_length_a 8.958566
_cell_length_b 18.540106
_cell_length_c 18.660978
_cell_angle_alpha 90.000000
_cell_angle_beta 90.000000
_cell_angle_gamma 90.000000
_cell_volume 3099.453401
_symmetry_space_group_name_H-M "P M M A"
_symmetry_group_IT_number 51
_symmetry_cell_setting 'orthorhombic'
loop_
_space_group_symop_operation_xyz
x,y,z
1/2-x,-y,z
1/2+x,-y,-z
-x,y,-z
-x,-y,-z
1/2+x,y,-z
1/2-x,y,z
x,-y,z
loop_
_atom_site_type_symbol
_atom_site_label
_atom_site_fract_x
_atom_site_fract_y
_atom_site_fract_z
Si Si1 0.921952 0.296904 0.711141
Si Si2 0.929599 0.227734 0.422752
Si Si3 0.420671 0.140814 0.210103
Si Si4 0.428616 0.500000 0.078685
Si Si5 0.929249 0.920871 0.346484
Si Si6 0.072202 0.637089 0.845048
Si Si7 0.427372 0.209137 0.922255
O O1 0.750000 0.319336 0.701031
O O2 0.919943 0.219314 0.751340
O O3 0.005165 0.282118 0.636643
O O4 0.010196 0.348354 0.765402
O O5 0.750000 0.231913 0.424783
O O6 0.973268 0.146819 0.395910
O O7 0.000000 0.240913 0.500000
O O8 0.250000 0.118182 0.199064
O O9 0.502945 0.090836 0.267602
O O10 0.503837 0.153762 0.135338
O O11 0.250000 0.500000 0.074179
O O12 0.487269 0.429277 0.119413
O O13 0.500000 0.500000 0.000000
O O14 0.750000 0.918233 0.340686
O O15 0.973100 0.000000 0.374230
O O16 0.250000 0.624654 0.843955
O O17 0.044678 0.710117 0.891109
O O18 0.250000 0.199545 0.926385
O O19 0.500000 0.202098 0.000000
#
# Coordination Sequence:
#
# PCOD9400426 Si02
#       7
#     8   8   8   4   8   8   8
#     4   9  17  31  50  71  95 125 162 202 242 286
#     4  10  19  31  48  72 101 130 161 200 245 289
#     4   9  17  29  46  67  90 117 154 198 239 283
#     4  12  24  36  50  72 105 142 175 208 246 288
#     4   9  18  32  48  66  92 127 162 194 234 288
#     4  10  20  34  51  72  99 132 167 202 241 288
#     4  10  19  30  47  69  93 121 155 197 243 287
#
# _framework density 16.777152999999998
#
# number of rings (size 3 to 8) (size 9 to 14) (size 15 to 20)
#    0.000    2.308    0.000    3.462    0.000    8.000 
#    0.000    0.000    0.000    0.462    0.000    0.538 
#    0.000    0.000    0.000    0.000    0.000    0.000 
#
# Total GULP energy -290047.123114 kJ/mol
# GULP energy per Si atom -5577.829291 kJ/mol
# Density = 1.673897 g / cm^3
# Si number density = 16.777153 Si / 1000 Ang^3
#
#
#
# Elastic Constant Matrix: (Units=GPa)
#
#
# Indices 1 2 3 4 5 6 
#
# 1 69.1712 16.9837 54.2043 0.0000 0.0000 0.0000
# 2 16.9837 35.8905 27.3373 0.0000 0.0000 0.0000
# 3 54.2043 27.3373 149.6934 0.0000 0.0000 0.0000
# 4 0.0000 0.0000 0.0000 16.6543 0.0000 0.0000
# 5 0.0000 0.0000 0.0000 0.0000 33.4811 0.0000
# 6 0.0000 0.0000 0.0000 0.0000 0.0000 18.7154
#
#
#
# Elastic Compliance Matrix: (Units=1/GPa)
#
#
# Indices 1 2 3 4 5 6 
#
# 1 0.020868 -0.004785 -0.006683 0.000000 0.000000 0.000000
# 2 -0.004785 0.033462 -0.004378 0.000000 0.000000 0.000000
# 3 -0.006683 -0.004378 0.009900 0.000000 0.000000 0.000000
# 4 0.000000 0.000000 0.000000 0.060045 0.000000 0.000000
# 5 0.000000 0.000000 0.000000 0.000000 0.029868 0.000000
# 6 0.000000 0.000000 0.000000 0.000000 0.000000 0.053432
#
#
# Mechanical properties :
#
#
# Convention : Reuss Voigt Hill
#
# Bulk Modulus (GPa) = 30.73328 50.20064 40.46696
# Shear Modulus (GPa) = 19.99106 24.18547 22.08826
#
# Velocity S-wave (km/s) = 3.45565 3.80092 3.63239
# Velocity P-wave (km/s) = 5.85494 7.01781 6.46258
#
# Compressibility (1/GPa) = 0.03253802
#
# Stress axis : x y z
#
# Youngs Moduli (GPa) = 47.91913 29.88497 101.01342
#
# Poissons Ratio (x) = 0.14300 0.67504
# Poissons Ratio (y) = 0.22930 0.44225
# Poissons Ratio (z) = 0.32023 0.13084
#
# Static dielectric constant tensor:
#      x y z
#    x 1.560430 0.000000 0.000000 
#    y 0.000000 1.566440 0.000000 
#    z 0.000000 0.000000 1.543120 
# 
# From -- ./inp_files/27922.got.cif
#   From: 2010.05.17/outbox.cif.g08.bks.cpg/sg51_14_cif.got.tgz:27922.got - 2010.06.03 11:52:47.
