data_PCOD9400095
_publ_section_title
;
Structure prediction by ZEFSAII (Michael W. Deem and Ramdas Pophale) SiO2 
 PCOD9400095
Probable space group: P M M A
;
_chemical_formula_sum "Si O2"
_cell_formula_units_Z 56
_cell_length_a 15.991579
_cell_length_b 14.534780
_cell_length_c 15.495511
_cell_angle_alpha 90.000000
_cell_angle_beta 90.000000
_cell_angle_gamma 90.000000
_cell_volume 3601.684884
_symmetry_space_group_name_H-M "P M M A"
_symmetry_group_IT_number 51
_symmetry_cell_setting 'orthorhombic'
loop_
_space_group_symop_operation_xyz
x,y,z
1/2-x,-y,z
1/2+x,-y,-z
-x,y,-z
-x,-y,-z
1/2+x,y,-z
1/2-x,y,z
x,-y,z
loop_
_atom_site_type_symbol
_atom_site_label
_atom_site_fract_x
_atom_site_fract_y
_atom_site_fract_z
Si Si1 0.104413 0.606812 0.284127
Si Si2 0.092658 0.393833 0.722166
Si Si3 0.851285 0.393945 0.904735
Si Si4 0.501218 0.894897 0.604852
Si Si5 0.343324 0.231895 0.402957
Si Si6 0.347156 0.388377 0.908793
Si Si7 0.655432 0.769970 0.391529
O O1 0.133152 0.500000 0.288097
O O2 0.120946 0.644274 0.187231
O O3 0.147402 0.672373 0.352924
O O4 0.005227 0.608055 0.299981
O O5 0.122243 0.500000 0.714668
O O6 0.103848 0.364807 0.822220
O O7 0.140465 0.323726 0.660730
O O8 0.750000 0.395057 0.906556
O O9 0.881753 0.500000 0.902801
O O10 0.877983 0.353901 0.997535
O O11 0.500000 0.897650 0.500000
O O12 0.583328 0.836102 0.627739
O O13 0.417307 0.841803 0.632886
O O14 0.504242 0.000000 0.635559
O O15 0.250000 0.193963 0.388854
O O16 0.353401 0.246900 0.505701
O O17 0.250000 0.361644 0.897266
O O18 0.348636 0.500000 0.915190
O O19 0.750000 0.803750 0.376163
#
# Coordination Sequence:
#
# PCOD9400095 Si02
#       7
#     8   8   8   8   8   8   8
#     4  10  19  29  43  64  93 129 163 194 227 266
#     4  10  19  29  43  64  93 129 163 194 227 266
#     4   8  14  25  40  58  83 117 156 195 231 266
#     4   9  18  34  53  71  92 115 145 191 241 284
#     4  10  20  33  49  69  94 124 157 191 228 273
#     4   8  14  25  40  58  83 117 156 195 231 266
#     4  10  20  33  49  69  94 124 157 191 228 273
#
# _framework density 15.548279000000001
#
# number of rings (size 3 to 8) (size 9 to 14) (size 15 to 20)
#    0.000    2.714    1.429    1.714    0.000    3.429 
#    0.000    8.571    0.000    0.000    0.000    0.000 
#    0.000    2.286    0.000    6.000    0.000    0.571 
#
# Total GULP energy -311761.926260 kJ/mol
# GULP energy per Si atom -5567.177255 kJ/mol
# Density = 1.551289 g / cm^3
# Si number density = 15.548279 Si / 1000 Ang^3
#
#
#
# Elastic Constant Matrix: (Units=GPa)
#
#
# Indices 1 2 3 4 5 6 
#
# 1 81.2031 39.3554 32.8010 0.0000 0.0000 0.0000
# 2 39.3554 69.9038 31.4189 0.0000 0.0000 0.0000
# 3 32.8010 31.4189 48.1531 0.0000 0.0000 0.0000
# 4 0.0000 0.0000 0.0000 -1.1078 0.0000 0.0000
# 5 0.0000 0.0000 0.0000 0.0000 21.2341 0.0000
# 6 0.0000 0.0000 0.0000 0.0000 0.0000 7.8005
#
#
#
# Elastic Compliance Matrix: (Units=1/GPa)
#
#
# Indices 1 2 3 4 5 6 
#
# 1 0.019108 -0.006944 -0.008485 0.000000 0.000000 0.000000
# 2 -0.006944 0.022765 -0.010124 0.000000 0.000000 0.000000
# 3 -0.008485 -0.010124 0.033152 0.000000 0.000000 0.000000
# 4 0.000000 0.000000 0.000000 -0.902703 0.000000 0.000000
# 5 0.000000 0.000000 0.000000 0.000000 0.047094 0.000000
# 6 0.000000 0.000000 0.000000 0.000000 0.000000 0.128197
#
#
# Mechanical properties :
#
#
# Convention : Reuss Voigt Hill
#
# Bulk Modulus (GPa) = 41.80612 45.15671 43.48141
# Shear Modulus (GPa) = -8.42731 11.96433 1.76851
#
# Velocity S-wave (km/s) = -2.33064 2.77699 1.06766
# Velocity P-wave (km/s) = 4.43890 6.27600 5.43562
#
# Compressibility (1/GPa) = 0.02391994
#
# Stress axis : x y z
#
# Youngs Moduli (GPa) = 52.33529 43.92748 30.16373
#
# Poissons Ratio (x) = 0.30502 0.25594
# Poissons Ratio (y) = 0.36340 0.30537
# Poissons Ratio (z) = 0.44407 0.44470
#
# Static dielectric constant tensor:
#      x y z
#    x 1.553680 0.000000 0.000000 
#    y 0.000000 1.490790 0.000000 
#    z 0.000000 0.000000 1.533010 
# 
# From -- ./inp_files/13215.got.cif
#   From: 2010.05.17/outbox.cif.g08.bks.cpg/sg51_7_cif.got.tgz:13215.got - 2010.06.03 11:52:47.
