data_PCOD9400625
_publ_section_title
;
Structure prediction by ZEFSAII (Michael W. Deem and Ramdas Pophale) SiO2 
 PCOD9400625
Probable space group: P M M A
;
_chemical_formula_sum "Si O2"
_cell_formula_units_Z 64
_cell_length_a 8.887534
_cell_length_b 14.700840
_cell_length_c 31.882537
_cell_angle_alpha 90.000000
_cell_angle_beta 90.000000
_cell_angle_gamma 90.000000
_cell_volume 4165.587854
_symmetry_space_group_name_H-M "P M M A"
_symmetry_group_IT_number 51
_symmetry_cell_setting 'orthorhombic'
loop_
_space_group_symop_operation_xyz
x,y,z
1/2-x,-y,z
1/2+x,-y,-z
-x,y,-z
-x,-y,-z
1/2+x,y,-z
1/2-x,y,z
x,-y,z
loop_
_atom_site_type_symbol
_atom_site_label
_atom_site_fract_x
_atom_site_fract_y
_atom_site_fract_z
Si Si1 0.423815 0.610637 0.956877
Si Si2 0.070399 0.393184 0.454563
Si Si3 0.431406 0.606278 0.130582
Si Si4 0.066598 0.709323 0.213822
Si Si5 0.569456 0.104341 0.653181
Si Si6 0.069088 0.607428 0.299518
Si Si7 0.929111 0.284978 0.377655
Si Si8 0.932788 0.100903 0.751752
O O1 0.250000 0.636852 0.956168
O O2 0.431531 0.500000 0.957374
O O3 0.504542 0.638694 0.913935
O O4 0.500000 0.642359 0.000000
O O5 0.250000 0.381033 0.455783
O O6 0.040138 0.500000 0.445262
O O7 0.000000 0.373307 0.500000
O O8 0.998942 0.331913 0.418566
O O9 0.250000 0.609744 0.128775
O O10 0.473384 0.500000 0.136569
O O11 0.483974 0.664272 0.170477
O O12 0.250000 0.709746 0.212746
O O13 0.025570 0.649696 0.254558
O O14 0.015014 0.812646 0.221762
O O15 0.750000 0.116744 0.649694
O O16 0.485827 0.181667 0.627504
O O17 0.530724 0.115030 0.702617
O O18 0.534680 0.000000 0.641412
O O19 0.250000 0.619562 0.304186
O O20 0.037410 0.500000 0.300868
O O21 0.989335 0.660265 0.337086
O O22 0.750000 0.288776 0.379204
O O23 0.750000 0.099888 0.753716
O O24 0.985390 0.000000 0.764401
#
# Coordination Sequence:
#
# PCOD9400625 Si02
#       8
#     8   8   8   8   8   8   8   8
#     4   9  16  26  40  57  78 107 144 186 226 265
#     4  10  21  38  59  80 102 129 162 200 240 283
#     4   9  16  25  38  58  84 116 151 185 224 270
#     4   9  15  25  42  63  89 119 155 195 232 274
#     4   9  17  32  54  75  95 123 162 205 244 282
#     4  10  19  31  47  66  91 127 169 206 235 269
#     4  12  23  33  49  74 104 133 161 196 238 286
#     4   8  13  23  43  68  89 112 149 198 241 273
#
# _framework density 15.363979
#
# number of rings (size 3 to 8) (size 9 to 14) (size 15 to 20)
#    0.000    2.500    1.250    3.375    0.000    5.750 
#    0.000    0.625    0.000    1.875    0.000    0.000 
#    0.000    0.500    0.000    0.875    0.000    1.250 
#
# Total GULP energy -356797.536166 kJ/mol
# GULP energy per Si atom -5574.961503 kJ/mol
# Density = 1.532901 g / cm^3
# Si number density = 15.363979 Si / 1000 Ang^3
#
#
#
# Elastic Constant Matrix: (Units=GPa)
#
#
# Indices 1 2 3 4 5 6 
#
# 1 40.9955 45.1417 49.2338 0.0000 0.0000 0.0000
# 2 45.1417 107.7139 81.6193 0.0000 0.0000 0.0000
# 3 49.2338 81.6193 137.5467 0.0000 0.0000 0.0000
# 4 0.0000 0.0000 0.0000 8.4624 0.0000 0.0000
# 5 0.0000 0.0000 0.0000 0.0000 19.9514 0.0000
# 6 0.0000 0.0000 0.0000 0.0000 0.0000 9.3932
#
#
#
# Elastic Compliance Matrix: (Units=1/GPa)
#
#
# Indices 1 2 3 4 5 6 
#
# 1 0.052373 -0.014071 -0.010397 0.000000 0.000000 0.000000
# 2 -0.014071 0.020649 -0.007216 0.000000 0.000000 0.000000
# 3 -0.010397 -0.007216 0.015274 0.000000 0.000000 0.000000
# 4 0.000000 0.000000 0.000000 0.118170 0.000000 0.000000
# 5 0.000000 0.000000 0.000000 0.000000 0.050122 0.000000
# 6 0.000000 0.000000 0.000000 0.000000 0.000000 0.106460
#
#
# Mechanical properties :
#
#
# Convention : Reuss Voigt Hill
#
# Bulk Modulus (GPa) = 40.11609 70.91618 55.51614
# Shear Modulus (GPa) = 11.50151 14.91216 13.20683
#
# Velocity S-wave (km/s) = 2.73903 3.11881 2.93507
# Velocity P-wave (km/s) = 6.01417 7.69591 6.90642
#
# Compressibility (1/GPa) = 0.02492765
#
# Stress axis : x y z
#
# Youngs Moduli (GPa) = 19.09370 48.42883 65.47059
#
# Poissons Ratio (x) = 0.68142 0.68071
# Poissons Ratio (y) = 0.26866 0.47246
# Poissons Ratio (z) = 0.19852 0.34948
#
# Static dielectric constant tensor:
#      x y z
#    x 1.512970 0.000000 0.000000 
#    y 0.000000 1.512240 0.000000 
#    z 0.000000 0.000000 1.492950 
# 
# From -- ./inp_files/37680.got.cif
#   From: 2010.05.17/outbox.cif.g08.bks.cpg/sg51_19_cif.got.tgz:37680.got - 2010.06.03 11:52:47.
