data_PCOD9400734
_publ_section_title
;
Structure prediction by ZEFSAII (Michael W. Deem and Ramdas Pophale) SiO2 
 PCOD9400734
Probable space group: P M M A
;
_chemical_formula_sum "Si O2"
_cell_formula_units_Z 48
_cell_length_a 7.834148
_cell_length_b 13.198728
_cell_length_c 19.287161
_cell_angle_alpha 90.000000
_cell_angle_beta 90.000000
_cell_angle_gamma 90.000000
_cell_volume 1994.307657
_symmetry_space_group_name_H-M "P M M A"
_symmetry_group_IT_number 51
_symmetry_cell_setting 'orthorhombic'
loop_
_space_group_symop_operation_xyz
x,y,z
1/2-x,-y,z
1/2+x,-y,-z
-x,y,-z
-x,-y,-z
1/2+x,y,-z
1/2-x,y,z
x,-y,z
loop_
_atom_site_type_symbol
_atom_site_label
_atom_site_fract_x
_atom_site_fract_y
_atom_site_fract_z
Si Si1 0.056044 0.827278 0.576131
Si Si2 0.049107 0.610532 0.379000
Si Si3 0.452906 0.667378 0.078440
Si Si4 0.455665 0.106863 0.080437
Si Si5 0.459640 0.888654 0.724717
Si Si6 0.046061 0.329353 0.774019
O O1 0.250000 0.858863 0.581105
O O2 0.975494 0.871640 0.645981
O O3 0.000000 0.857285 0.500000
O O4 0.040160 0.706058 0.585682
O O5 0.250000 0.618162 0.394408
O O6 0.985397 0.500000 0.401027
O O7 0.025385 0.620159 0.295796
O O8 0.250000 0.671946 0.076633
O O9 0.527924 0.780596 0.091438
O O10 0.500833 0.619404 0.152502
O O11 0.500000 0.632244 0.000000
O O12 0.250000 0.109495 0.090709
O O13 0.521957 0.000000 0.111359
O O14 0.500000 0.097609 0.000000
O O15 0.250000 0.887753 0.726584
O O16 0.514892 0.789046 0.767100
O O17 0.517775 0.000000 0.746197
O O18 0.250000 0.329948 0.767372
#
# Coordination Sequence:
#
# PCOD9400734 Si02
#       6
#     8   8   8   8   8   8
#     4  10  20  34  55  83 116 150 183 223 267 312
#     4  10  21  38  60  83 107 138 176 219 269 324
#     4  10  19  31  48  70  99 134 174 221 272 326
#     4   8  14  24  37  55  82 117 157 201 248 297
#     4   8  16  32  52  75 106 146 189 227 264 309
#     4  10  20  34  54  79 107 140 178 222 271 324
#
# _framework density 24.068501999999999
#
# number of rings (size 3 to 8) (size 9 to 14) (size 15 to 20)
#    0.000    2.667    0.000    3.000    0.000    3.333 
#    0.000    0.000    0.000   21.500    0.000    0.000 
#    0.000    0.000    0.000    0.000    0.000    0.000 
#
# Total GULP energy -267508.710089 kJ/mol
# GULP energy per Si atom -5573.098127 kJ/mol
# Density = 2.401372 g / cm^3
# Si number density = 24.068502 Si / 1000 Ang^3
#
#
#
# Elastic Constant Matrix: (Units=GPa)
#
#
# Indices 1 2 3 4 5 6 
#
# 1 40.8734 -10.0021 -5.1098 0.0000 0.0000 0.0000
# 2 -10.0021 86.9048 0.2958 0.0000 0.0000 0.0000
# 3 -5.1098 0.2958 159.7576 0.0000 0.0000 0.0000
# 4 0.0000 0.0000 0.0000 -21.6344 0.0000 0.0000
# 5 0.0000 0.0000 0.0000 0.0000 28.1586 0.0000
# 6 0.0000 0.0000 0.0000 0.0000 0.0000 6.5701
#
#
#
# Elastic Compliance Matrix: (Units=1/GPa)
#
#
# Indices 1 2 3 4 5 6 
#
# 1 0.025277 0.002907 0.000803 0.000000 0.000000 0.000000
# 2 0.002907 0.011841 0.000071 0.000000 0.000000 0.000000
# 3 0.000803 0.000071 0.006285 0.000000 0.000000 0.000000
# 4 0.000000 0.000000 0.000000 -0.046223 0.000000 0.000000
# 5 0.000000 0.000000 0.000000 0.000000 0.035513 0.000000
# 6 0.000000 0.000000 0.000000 0.000000 0.000000 0.152205
#
#
# Mechanical properties :
#
#
# Convention : Reuss Voigt Hill
#
# Bulk Modulus (GPa) = 19.62133 28.65595 24.13864
# Shear Modulus (GPa) = 25.72997 22.77566 24.25282
#
# Velocity S-wave (km/s) = 3.27315 3.07951 3.17781
# Velocity P-wave (km/s) = 4.73864 4.95746 4.84928
#
# Compressibility (1/GPa) = 0.05096495
#
# Stress axis : x y z
#
# Youngs Moduli (GPa) = 39.56096 84.45141 159.10801
#
# Poissons Ratio (x) = -0.24546 -0.12778
# Poissons Ratio (y) = -0.11498 -0.01130
# Poissons Ratio (z) = -0.03177 -0.00600
#
# Static dielectric constant tensor:
#      x y z
#    x 1.857500 0.000000 0.000000 
#    y 0.000000 1.988750 0.000000 
#    z 0.000000 0.000000 1.918350 
# 
# From -- ./inp_files/31612.got.cif
#   From: 2010.05.17/outbox.cif.g08.bks.cpg/sg51_16_cif.got.tgz:31612.got - 2010.06.03 11:52:47.
