data_PCOD9400330
_publ_section_title
;
Structure prediction by ZEFSAII (Michael W. Deem and Ramdas Pophale) SiO2 
 PCOD9400330
Probable space group: P M M A
;
_chemical_formula_sum "Si O2"
_cell_formula_units_Z 64
_cell_length_a 29.429886
_cell_length_b 8.874519
_cell_length_c 15.947724
_cell_angle_alpha 90.000000
_cell_angle_beta 90.000000
_cell_angle_gamma 90.000000
_cell_volume 4165.164079
_symmetry_space_group_name_H-M "P M M A"
_symmetry_group_IT_number 51
_symmetry_cell_setting 'orthorhombic'
loop_
_space_group_symop_operation_xyz
x,y,z
1/2-x,-y,z
1/2+x,-y,-z
-x,y,-z
-x,-y,-z
1/2+x,y,-z
1/2-x,y,z
x,-y,z
loop_
_atom_site_type_symbol
_atom_site_label
_atom_site_fract_x
_atom_site_fract_y
_atom_site_fract_z
Si Si1 0.646864 0.681158 0.336653
Si Si2 0.448733 0.317303 0.594672
Si Si3 0.696611 0.181347 0.497169
Si Si4 0.303120 0.181623 0.172872
Si Si5 0.694845 0.673579 0.002340
Si Si6 0.803580 0.179976 0.177559
Si Si7 0.640818 0.818293 0.663765
Si Si8 0.550435 0.318011 0.600856
O O1 0.648239 0.500000 0.334089
O O2 0.594703 0.731299 0.352223
O O3 0.675406 0.738910 0.416422
O O4 0.668143 0.747280 0.252430
O O5 0.449213 0.500000 0.595059
O O6 0.499020 0.269760 0.623311
O O7 0.442595 0.273863 0.497023
O O8 0.750000 0.215526 0.505308
O O9 0.669680 0.225910 0.581274
O O10 0.692240 0.000000 0.487178
O O11 0.250000 0.222860 0.186164
O O12 0.333025 0.229722 0.252185
O O13 0.304768 0.000000 0.166879
O O14 0.319278 0.250913 0.084986
O O15 0.750000 0.677969 0.001471
O O16 0.680577 0.500000 0.006279
O O17 0.681162 0.760184 0.086612
O O18 0.750000 0.219393 0.188161
O O19 0.807129 0.000000 0.180381
O O20 0.590601 0.752140 0.654594
O O21 0.638680 0.000000 0.664346
O O22 0.552786 0.500000 0.605114
#
# Coordination Sequence:
#
# PCOD9400330 Si02
#       8
#     8   8   8   8   8   8   8   8
#     4  11  20  31  47  68  91 119 157 197 232 269
#     4   8  16  30  48  66  87 118 154 193 238 282
#     4  10  20  32  43  59  91 131 162 187 221 268
#     4   9  17  30  47  66  93 129 160 186 225 277
#     4   9  17  30  48  70  93 117 152 198 235 263
#     4  10  20  33  48  67  94 127 157 185 226 280
#     4  10  19  30  45  68  94 122 158 195 228 267
#     4   9  16  31  50  65  86 119 156 193 236 282
#
# _framework density 15.365539999999999
#
# number of rings (size 3 to 8) (size 9 to 14) (size 15 to 20)
#    0.000    2.500    1.250    2.625    0.000    6.000 
#    0.000    2.500    0.000    2.250    0.000    0.875 
#    0.000    7.000    0.000    0.000    0.000    0.000 
#
# Total GULP energy -356782.662351 kJ/mol
# GULP energy per Si atom -5574.729099 kJ/mol
# Density = 1.533057 g / cm^3
# Si number density = 15.365540 Si / 1000 Ang^3
#
#
#
# Elastic Constant Matrix: (Units=GPa)
#
#
# Indices 1 2 3 4 5 6 
#
# 1 109.1239 33.1260 71.4212 0.0000 0.0000 0.0000
# 2 33.1260 26.7827 40.1322 0.0000 0.0000 0.0000
# 3 71.4212 40.1322 137.1085 0.0000 0.0000 0.0000
# 4 0.0000 0.0000 0.0000 19.0430 0.0000 0.0000
# 5 0.0000 0.0000 0.0000 0.0000 8.1493 0.0000
# 6 0.0000 0.0000 0.0000 0.0000 0.0000 21.4427
#
#
#
# Elastic Compliance Matrix: (Units=1/GPa)
#
#
# Indices 1 2 3 4 5 6 
#
# 1 0.016132 -0.013112 -0.004566 0.000000 0.000000 0.000000
# 2 -0.013112 0.077165 -0.015756 0.000000 0.000000 0.000000
# 3 -0.004566 -0.015756 0.014284 0.000000 0.000000 0.000000
# 4 0.000000 0.000000 0.000000 0.052513 0.000000 0.000000
# 5 0.000000 0.000000 0.000000 0.000000 0.122709 0.000000
# 6 0.000000 0.000000 0.000000 0.000000 0.000000 0.046636
#
#
# Mechanical properties :
#
#
# Convention : Reuss Voigt Hill
#
# Bulk Modulus (GPa) = 24.56206 62.48601 43.52403
# Shear Modulus (GPa) = 12.19875 18.28271 15.24073
#
# Velocity S-wave (km/s) = 2.82069 3.45316 3.15283
# Velocity P-wave (km/s) = 5.16025 7.52687 6.45298
#
# Compressibility (1/GPa) = 0.04071320
#
# Stress axis : x y z
#
# Youngs Moduli (GPa) = 61.98711 12.95925 70.00989
#
# Poissons Ratio (x) = 0.16992 0.31964
# Poissons Ratio (y) = 0.81278 1.10310
# Poissons Ratio (z) = 0.28301 0.20419
#
# Static dielectric constant tensor:
#      x y z
#    x 1.507380 0.000000 0.000000 
#    y 0.000000 1.518050 0.000000 
#    z 0.000000 0.000000 1.491120 
# 
# From -- ./inp_files/26588.got.cif
#   From: 2010.05.17/outbox.cif.g08.bks.cpg/sg51_14_cif.got.tgz:26588.got - 2010.06.03 11:52:47.
