data_PCOD9400288
_publ_section_title
;
Structure prediction by ZEFSAII (Michael W. Deem and Ramdas Pophale) SiO2 
 PCOD9400288
Probable space group: P M M A
;
_chemical_formula_sum "Si O2"
_cell_formula_units_Z 56
_cell_length_a 9.203619
_cell_length_b 21.767067
_cell_length_c 18.741014
_cell_angle_alpha 90.000000
_cell_angle_beta 90.000000
_cell_angle_gamma 90.000000
_cell_volume 3754.495872
_symmetry_space_group_name_H-M "P M M A"
_symmetry_group_IT_number 51
_symmetry_cell_setting 'orthorhombic'
loop_
_space_group_symop_operation_xyz
x,y,z
1/2-x,-y,z
1/2+x,-y,-z
-x,y,-z
-x,-y,-z
1/2+x,y,-z
1/2-x,y,z
x,-y,z
loop_
_atom_site_type_symbol
_atom_site_label
_atom_site_fract_x
_atom_site_fract_y
_atom_site_fract_z
Si Si1 0.924847 0.825661 0.835791
Si Si2 0.416740 0.245265 0.301803
Si Si3 0.425292 0.702024 0.076176
Si Si4 0.575974 0.310694 0.424138
Si Si5 0.424300 0.568234 0.663839
Si Si6 0.583477 0.628236 0.789775
Si Si7 0.077935 0.927548 0.924732
O O1 0.750000 0.833515 0.839064
O O2 0.961894 0.806910 0.754530
O O3 0.961426 0.767332 0.886527
O O4 0.006823 0.884614 0.865292
O O5 0.250000 0.234418 0.324974
O O6 0.519035 0.259858 0.368194
O O7 0.414778 0.307382 0.253942
O O8 0.250000 0.699943 0.069857
O O9 0.468201 0.648098 0.131704
O O10 0.500000 0.696875 0.000000
O O11 0.500000 0.303419 0.500000
O O12 0.750000 0.308681 0.430397
O O13 0.532906 0.376975 0.389824
O O14 0.250000 0.569725 0.668108
O O15 0.470134 0.500000 0.640675
O O16 0.488695 0.583376 0.741643
O O17 0.750000 0.606313 0.793892
O O18 0.250000 0.916049 0.930971
O O19 0.056405 0.000000 0.910054
O O20 0.000000 0.913704 0.000000
#
# Coordination Sequence:
#
# PCOD9400288 Si02
#       7
#     8   8   8   8   8   8   8
#     4   9  17  29  45  64  86 113 145 181 218 257
#     4   8  15  29  46  63  85 111 139 173 213 255
#     4   9  17  27  40  61  85 106 133 172 216 258
#     4  10  19  30  45  65  90 117 141 168 206 250
#     4   9  18  31  45  62  83 107 138 173 206 245
#     4   8  15  28  43  59  80 105 134 169 209 253
#     4  10  20  31  42  59  87 123 159 192 223 254
#
# _framework density 14.915450999999999
#
# number of rings (size 3 to 8) (size 9 to 14) (size 15 to 20)
#    0.000    3.000    0.000    3.000    0.000    4.857 
#    0.000    2.857    0.000    0.429    0.000    0.000 
#    0.000    0.571    0.000    1.857    0.000    2.714 
#
# Total GULP energy -311845.020644 kJ/mol
# GULP energy per Si atom -5568.661083 kJ/mol
# Density = 1.488150 g / cm^3
# Si number density = 14.915451 Si / 1000 Ang^3
#
#
#
# Elastic Constant Matrix: (Units=GPa)
#
#
# Indices 1 2 3 4 5 6 
#
# 1 41.0593 32.6281 53.1698 0.0000 0.0000 0.0000
# 2 32.6281 55.3768 44.0645 0.0000 0.0000 0.0000
# 3 53.1698 44.0645 121.9192 0.0000 0.0000 0.0000
# 4 0.0000 0.0000 0.0000 17.1111 0.0000 0.0000
# 5 0.0000 0.0000 0.0000 0.0000 27.8796 0.0000
# 6 0.0000 0.0000 0.0000 0.0000 0.0000 20.3677
#
#
#
# Elastic Compliance Matrix: (Units=1/GPa)
#
#
# Indices 1 2 3 4 5 6 
#
# 1 0.075118 -0.025536 -0.023530 0.000000 0.000000 0.000000
# 2 -0.025536 0.034029 -0.001162 0.000000 0.000000 0.000000
# 3 -0.023530 -0.001162 0.018884 0.000000 0.000000 0.000000
# 4 0.000000 0.000000 0.000000 0.058442 0.000000 0.000000
# 5 0.000000 0.000000 0.000000 0.000000 0.035868 0.000000
# 6 0.000000 0.000000 0.000000 0.000000 0.000000 0.049097
#
#
# Mechanical properties :
#
#
# Convention : Reuss Voigt Hill
#
# Bulk Modulus (GPa) = 36.26670 53.11999 44.69335
# Shear Modulus (GPa) = 13.12041 18.97122 16.04581
#
# Velocity S-wave (km/s) = 2.96911 3.57026 3.28347
# Velocity P-wave (km/s) = 6.01014 7.25859 6.66367
#
# Compressibility (1/GPa) = 0.02757350
#
# Stress axis : x y z
#
# Youngs Moduli (GPa) = 13.31246 29.38675 52.95538
#
# Poissons Ratio (x) = 0.75042 1.24604
# Poissons Ratio (y) = 0.33995 0.06155
# Poissons Ratio (z) = 0.31324 0.03416
#
# Static dielectric constant tensor:
#      x y z
#    x 1.496370 0.000000 0.000000 
#    y 0.000000 1.494890 0.000000 
#    z 0.000000 0.000000 1.486940 
# 
# From -- ./inp_files/28180.got.cif
#   From: 2010.05.17/outbox.cif.g08.bks.cpg/sg51_15_cif.got.tgz:28180.got - 2010.06.03 11:52:47.
