data_PCOD9400482
_publ_section_title
;
Structure prediction by ZEFSAII (Michael W. Deem and Ramdas Pophale) SiO2 
 PCOD9400482
Probable space group: P M M A
;
_chemical_formula_sum "Si O2"
_cell_formula_units_Z 40
_cell_length_a 19.505793
_cell_length_b 9.054734
_cell_length_c 13.388657
_cell_angle_alpha 90.000000
_cell_angle_beta 90.000000
_cell_angle_gamma 90.000000
_cell_volume 2364.701481
_symmetry_space_group_name_H-M "P M M A"
_symmetry_group_IT_number 51
_symmetry_cell_setting 'orthorhombic'
loop_
_space_group_symop_operation_xyz
x,y,z
1/2-x,-y,z
1/2+x,-y,-z
-x,y,-z
-x,-y,-z
1/2+x,y,-z
1/2-x,y,z
x,-y,z
loop_
_atom_site_type_symbol
_atom_site_label
_atom_site_fract_x
_atom_site_fract_y
_atom_site_fract_z
Si Si1 0.829733 0.322511 0.606678
Si Si2 0.829746 0.822497 0.398594
Si Si3 0.425642 0.676742 0.208600
Si Si4 0.574932 0.178858 0.213180
Si Si5 0.916673 0.830115 0.993508
O O1 0.750000 0.281492 0.623102
O O2 0.833013 0.500000 0.597030
O O3 0.852379 0.249967 0.502618
O O4 0.876267 0.279269 0.700404
O O5 0.750000 0.781735 0.382053
O O6 0.876360 0.779647 0.304763
O O7 0.833057 0.000000 0.408033
O O8 0.431560 0.500000 0.206710
O O9 0.500484 0.748133 0.223543
O O10 0.397857 0.733197 0.101776
O O11 0.566905 0.000000 0.211718
O O12 0.605424 0.219415 0.104137
O O13 0.895675 0.000000 0.977160
O O14 0.000000 0.828333 0.000000
#
# Coordination Sequence:
#
# PCOD9400482 Si02
#       5
#     8   8   8   8   8
#     4   9  19  35  50  65  92 127 156 188 234 277
#     4   9  18  33  52  71  91 120 158 193 226 272
#     4  10  19  30  48  72  94 120 157 195 226 267
#     4   9  18  32  49  70  97 124 149 187 236 276
#     4   8  15  29  47  67  94 125 151 181 230 280
#
# _framework density 16.915454
#
# number of rings (size 3 to 8) (size 9 to 14) (size 15 to 20)
#    0.000    3.000    0.000    1.800    0.000    6.800 
#    0.000    5.000    0.000    1.200    0.000    0.000 
#    0.000    0.000    0.000    0.000    0.000    0.000 
#
# Total GULP energy -222838.399714 kJ/mol
# GULP energy per Si atom -5570.959993 kJ/mol
# Density = 1.687695 g / cm^3
# Si number density = 16.915454 Si / 1000 Ang^3
#
#
#
# Elastic Constant Matrix: (Units=GPa)
#
#
# Indices 1 2 3 4 5 6 
#
# 1 50.5760 26.7231 80.4568 0.0000 0.0000 0.0000
# 2 26.7231 24.4232 53.7177 0.0000 0.0000 0.0000
# 3 80.4568 53.7177 208.7500 0.0000 0.0000 0.0000
# 4 0.0000 0.0000 0.0000 -20.8007 0.0000 0.0000
# 5 0.0000 0.0000 0.0000 0.0000 -17.9091 0.0000
# 6 0.0000 0.0000 0.0000 0.0000 0.0000 15.2317
#
#
#
# Elastic Compliance Matrix: (Units=1/GPa)
#
#
# Indices 1 2 3 4 5 6 
#
# 1 0.061926 -0.035164 -0.014819 0.000000 0.000000 0.000000
# 2 -0.035164 0.114307 -0.015862 0.000000 0.000000 0.000000
# 3 -0.014819 -0.015862 0.014584 0.000000 0.000000 0.000000
# 4 0.000000 0.000000 0.000000 -0.048075 0.000000 0.000000
# 5 0.000000 0.000000 0.000000 0.000000 -0.055837 0.000000
# 6 0.000000 0.000000 0.000000 0.000000 0.000000 0.065653
#
#
# Mechanical properties :
#
#
# Convention : Reuss Voigt Hill
#
# Bulk Modulus (GPa) = 16.91262 67.28270 42.09766
# Shear Modulus (GPa) = 16.44985 3.49447 9.97216
#
# Velocity S-wave (km/s) = 3.12184 1.43886 2.43066
# Velocity P-wave (km/s) = 4.79734 6.52860 5.72875
#
# Compressibility (1/GPa) = 0.05912743
#
# Stress axis : x y z
#
# Youngs Moduli (GPa) = 16.14828 8.74840 68.56999
#
# Poissons Ratio (x) = 0.30763 1.01613
# Poissons Ratio (y) = 0.56784 1.08763
# Poissons Ratio (z) = 0.23930 0.13876
#
# Static dielectric constant tensor:
#      x y z
#    x 1.553770 0.000000 0.000000 
#    y 0.000000 1.566510 0.000000 
#    z 0.000000 0.000000 1.584750 
# 
# From -- ./inp_files/17885.got.cif
#   From: 2010.05.17/outbox.cif.g08.bks.cpg/sg51_9_cif.got.tgz:17885.got - 2010.06.03 11:52:47.
