data_PCOD9400078
_publ_section_title
;
Structure prediction by ZEFSAII (Michael W. Deem and Ramdas Pophale) SiO2 
 PCOD9400078
Probable space group: P M M A
;
_chemical_formula_sum "Si O2"
_cell_formula_units_Z 64
_cell_length_a 14.266380
_cell_length_b 8.992080
_cell_length_c 32.156636
_cell_angle_alpha 90.000000
_cell_angle_beta 90.000000
_cell_angle_gamma 90.000000
_cell_volume 4125.195729
_symmetry_space_group_name_H-M "P M M A"
_symmetry_group_IT_number 51
_symmetry_cell_setting 'orthorhombic'
loop_
_space_group_symop_operation_xyz
x,y,z
1/2-x,-y,z
1/2+x,-y,-z
-x,y,-z
-x,-y,-z
1/2+x,y,-z
1/2-x,y,z
x,-y,z
loop_
_atom_site_type_symbol
_atom_site_label
_atom_site_fract_x
_atom_site_fract_y
_atom_site_fract_z
Si Si1 0.029583 0.177981 0.394146
Si Si2 0.860968 0.677630 0.855162
Si Si3 0.138992 0.322338 0.317818
Si Si4 0.638487 0.825976 0.521649
Si Si5 0.542532 0.179844 0.934470
Si Si6 0.136267 0.171147 0.231287
Si Si7 0.639675 0.323671 0.434404
Si Si8 0.855627 0.819440 0.020228
O O1 0.080298 0.250760 0.354948
O O2 0.086007 0.217994 0.436372
O O3 0.925648 0.239232 0.401858
O O4 0.030397 0.000000 0.390248
O O5 0.750000 0.712915 0.860993
O O6 0.869980 0.500000 0.853785
O O7 0.918844 0.745613 0.893133
O O8 0.891850 0.747412 0.811168
O O9 0.250000 0.287986 0.323589
O O10 0.129013 0.500000 0.317594
O O11 0.108714 0.255610 0.273355
O O12 0.750000 0.812340 0.528527
O O13 0.614349 0.732724 0.480786
O O14 0.617715 0.000000 0.513057
O O15 0.436882 0.225142 0.947500
O O16 0.545045 0.000000 0.930315
O O17 0.607949 0.219915 0.974046
O O18 0.250000 0.171643 0.231174
O O19 0.105048 0.000000 0.231797
O O20 0.750000 0.291463 0.428551
O O21 0.625410 0.500000 0.431533
O O22 0.750000 0.765743 0.027919
O O23 0.853953 0.000000 0.021249
#
# Coordination Sequence:
#
# PCOD9400078 Si02
#       8
#     8   8   8   8   8   8   8   8
#     4  11  21  32  49  71  94 123 158 191 224 268
#     4  10  19  29  42  63  92 122 150 184 227 270
#     4  10  20  33  49  71 100 128 151 180 222 272
#     4   9  18  32  48  67  93 123 153 186 225 269
#     4   9  16  26  43  65  86 115 156 194 227 268
#     4   9  17  30  48  68  91 120 152 184 219 265
#     4  10  21  35  49  66  90 120 155 196 238 275
#     4   8  14  25  41  62  89 119 152 192 233 269
#
# _framework density 15.514415
#
# number of rings (size 3 to 8) (size 9 to 14) (size 15 to 20)
#    0.000    2.500    0.000    3.750    0.000    7.250 
#    0.000    2.500    0.000    1.125    0.000    0.875 
#    0.000    5.000    0.000    0.000    0.000    0.000 
#
# Total GULP energy -356937.518482 kJ/mol
# GULP energy per Si atom -5577.148726 kJ/mol
# Density = 1.547910 g / cm^3
# Si number density = 15.514415 Si / 1000 Ang^3
#
#
#
# Elastic Constant Matrix: (Units=GPa)
#
#
# Indices 1 2 3 4 5 6 
#
# 1 85.8172 43.2307 71.5916 0.0000 0.0000 0.0000
# 2 43.2307 57.5092 64.8100 0.0000 0.0000 0.0000
# 3 71.5916 64.8100 142.7427 0.0000 0.0000 0.0000
# 4 0.0000 0.0000 0.0000 57.3842 0.0000 0.0000
# 5 0.0000 0.0000 0.0000 0.0000 25.2781 0.0000
# 6 0.0000 0.0000 0.0000 0.0000 0.0000 17.4836
#
#
#
# Elastic Compliance Matrix: (Units=1/GPa)
#
#
# Indices 1 2 3 4 5 6 
#
# 1 0.021827 -0.008336 -0.007162 0.000000 0.000000 0.000000
# 2 -0.008336 0.038792 -0.013432 0.000000 0.000000 0.000000
# 3 -0.007162 -0.013432 0.016696 0.000000 0.000000 0.000000
# 4 0.000000 0.000000 0.000000 0.017426 0.000000 0.000000
# 5 0.000000 0.000000 0.000000 0.000000 0.039560 0.000000
# 6 0.000000 0.000000 0.000000 0.000000 0.000000 0.057196
#
#
# Mechanical properties :
#
#
# Convention : Reuss Voigt Hill
#
# Bulk Modulus (GPa) = 51.40163 71.70373 61.55268
# Shear Modulus (GPa) = 19.54311 27.12496 23.33404
#
# Velocity S-wave (km/s) = 3.55304 4.18589 3.88238
# Velocity P-wave (km/s) = 7.07358 8.34746 7.73678
#
# Compressibility (1/GPa) = 0.01945463
#
# Stress axis : x y z
#
# Youngs Moduli (GPa) = 45.81453 25.77835 59.89327
#
# Poissons Ratio (x) = 0.21490 0.42897
# Poissons Ratio (y) = 0.38192 0.80448
# Poissons Ratio (z) = 0.32814 0.34625
#
# Static dielectric constant tensor:
#      x y z
#    x 1.522690 0.000000 0.000000 
#    y 0.000000 1.515930 0.000000 
#    z 0.000000 0.000000 1.490400 
# 
# From -- ./inp_files/37832.got.cif
#   From: 2010.05.17/outbox.cif.g08.bks.cpg/sg51_19_cif.got.tgz:37832.got - 2010.06.03 11:52:47.
