data_PCOD9400273
_publ_section_title
;
Structure prediction by ZEFSAII (Michael W. Deem and Ramdas Pophale) SiO2 
 PCOD9400273
Probable space group: P M M A
;
_chemical_formula_sum "Si O2"
_cell_formula_units_Z 40
_cell_length_a 9.729378
_cell_length_b 13.563202
_cell_length_c 19.858230
_cell_angle_alpha 90.000000
_cell_angle_beta 90.000000
_cell_angle_gamma 90.000000
_cell_volume 2620.522198
_symmetry_space_group_name_H-M "P M M A"
_symmetry_group_IT_number 51
_symmetry_cell_setting 'orthorhombic'
loop_
_space_group_symop_operation_xyz
x,y,z
1/2-x,-y,z
1/2+x,-y,-z
-x,y,-z
-x,-y,-z
1/2+x,y,-z
1/2-x,y,z
x,-y,z
loop_
_atom_site_type_symbol
_atom_site_label
_atom_site_fract_x
_atom_site_fract_y
_atom_site_fract_z
Si Si1 0.590167 0.704489 0.663901
Si Si2 0.090554 0.383519 0.192057
Si Si3 0.908151 0.380332 0.063046
Si Si4 0.588413 0.886641 0.567517
Si Si5 0.902591 0.383606 0.441242
O O1 0.750000 0.678675 0.648137
O O2 0.574080 0.686686 0.743243
O O3 0.562712 0.810113 0.628541
O O4 0.483050 0.633640 0.627276
O O5 0.250000 0.376467 0.169090
O O6 0.069514 0.500000 0.210577
O O7 0.986794 0.357298 0.132358
O O8 0.750000 0.346059 0.061027
O O9 0.904351 0.500000 0.059358
O O10 0.000000 0.346017 0.000000
O O11 0.500000 0.869882 0.500000
O O12 0.750000 0.877385 0.550386
O O13 0.563134 0.000000 0.588782
O O14 0.750000 0.339948 0.442088
O O15 0.889553 0.500000 0.452446
O O16 0.000000 0.343745 0.500000
#
# Coordination Sequence:
#
# PCOD9400273 Si02
#       5
#     8   8   8   8   8
#     4  10  19  30  45  63  84 111 141 175 216 259
#     4   9  17  28  41  59  85 115 144 173 206 246
#     4   9  16  26  41  60  83 113 147 178 205 236
#     4   9  18  32  48  65  84 107 139 180 224 267
#     4  10  20  31  42  57  79 108 141 175 209 248
#
# _framework density 15.264132999999999
#
# number of rings (size 3 to 8) (size 9 to 14) (size 15 to 20)
#    0.000    2.600    0.000    2.400    0.000    7.600 
#    0.000    2.000    0.000    0.000    0.000    0.000 
#    0.000    0.800    0.000    1.400    0.000    2.000 
#
# Total GULP energy -222729.124831 kJ/mol
# GULP energy per Si atom -5568.228121 kJ/mol
# Density = 1.522939 g / cm^3
# Si number density = 15.264133 Si / 1000 Ang^3
#
#
#
# Elastic Constant Matrix: (Units=GPa)
#
#
# Indices 1 2 3 4 5 6 
#
# 1 117.0300 26.2086 78.2626 0.0000 0.0000 0.0000
# 2 26.2086 50.5511 26.2324 0.0000 0.0000 0.0000
# 3 78.2626 26.2324 97.7468 0.0000 0.0000 0.0000
# 4 0.0000 0.0000 0.0000 13.6205 0.0000 0.0000
# 5 0.0000 0.0000 0.0000 0.0000 24.8311 0.0000
# 6 0.0000 0.0000 0.0000 0.0000 0.0000 -7.1232
#
#
#
# Elastic Compliance Matrix: (Units=1/GPa)
#
#
# Indices 1 2 3 4 5 6 
#
# 1 0.018606 -0.002226 -0.014300 0.000000 0.000000 0.000000
# 2 -0.002226 0.023249 -0.004457 0.000000 0.000000 0.000000
# 3 -0.014300 -0.004457 0.022876 0.000000 0.000000 0.000000
# 4 0.000000 0.000000 0.000000 0.073419 0.000000 0.000000
# 5 0.000000 0.000000 0.000000 0.000000 0.040272 0.000000
# 6 0.000000 0.000000 0.000000 0.000000 0.000000 -0.140386
#
#
# Mechanical properties :
#
#
# Convention : Reuss Voigt Hill
#
# Bulk Modulus (GPa) = 43.92651 58.52613 51.22632
# Shear Modulus (GPa) = 57.08319 15.24062 36.16191
#
# Velocity S-wave (km/s) = 6.12194 3.16327 4.87260
# Velocity P-wave (km/s) = 8.87755 7.19494 8.08016
#
# Compressibility (1/GPa) = 0.02276530
#
# Stress axis : x y z
#
# Youngs Moduli (GPa) = 53.74510 43.01269 43.71337
#
# Poissons Ratio (x) = 0.09574 0.62511
# Poissons Ratio (y) = 0.11963 0.19484
# Poissons Ratio (z) = 0.76856 0.19171
#
# Static dielectric constant tensor:
#      x y z
#    x 1.530120 0.000000 0.000000 
#    y 0.000000 1.517040 0.000000 
#    z 0.000000 0.000000 1.508750 
# 
# From -- ./inp_files/27203.got.cif
#   From: 2010.05.17/outbox.cif.g08.bks.cpg/sg51_14_cif.got.tgz:27203.got - 2010.06.03 11:52:47.
