data_PCOD9400959
_publ_section_title
;
Structure prediction by ZEFSAII (Michael W. Deem and Ramdas Pophale) SiO2 
 PCOD9400959
Probable space group: P M M A
;
_chemical_formula_sum "Si O2"
_cell_formula_units_Z 56
_cell_length_a 8.352894
_cell_length_b 22.652449
_cell_length_c 15.047587
_cell_angle_alpha 90.000000
_cell_angle_beta 90.000000
_cell_angle_gamma 90.000000
_cell_volume 2847.206683
_symmetry_space_group_name_H-M "P M M A"
_symmetry_group_IT_number 51
_symmetry_cell_setting 'orthorhombic'
loop_
_space_group_symop_operation_xyz
x,y,z
1/2-x,-y,z
1/2+x,-y,-z
-x,y,-z
-x,-y,-z
1/2+x,y,-z
1/2-x,y,z
x,-y,z
loop_
_atom_site_type_symbol
_atom_site_label
_atom_site_fract_x
_atom_site_fract_y
_atom_site_fract_z
Si Si1 0.943061 0.611799 0.782956
Si Si2 0.559066 0.146547 0.096370
Si Si3 0.054309 0.112696 0.714841
Si Si4 0.443110 0.221258 0.597248
Si Si5 0.441153 0.643348 0.596774
Si Si6 0.057759 0.719257 0.097221
Si Si7 0.056288 0.000000 0.601209
Si Si8 0.943523 0.500000 0.898816
O O1 0.750000 0.612025 0.782910
O O2 0.997488 0.673285 0.827973
O O3 0.997217 0.557938 0.844941
O O4 0.000282 0.607609 0.681927
O O5 0.750000 0.145273 0.094693
O O6 0.502109 0.110885 0.182722
O O7 0.507092 0.214706 0.109253
O O8 0.500000 0.126510 0.000000
O O9 0.250000 0.112393 0.714518
O O10 0.002454 0.174433 0.670445
O O11 0.001853 0.058111 0.654540
O O12 0.500000 0.201330 0.500000
O O13 0.250000 0.222242 0.598322
O O14 0.500315 0.288602 0.609345
O O15 0.500000 0.623140 0.500000
O O16 0.250000 0.644101 0.595870
O O17 0.250000 0.721515 0.097064
O O18 0.000000 0.698462 0.000000
O O19 0.000000 0.000000 0.500000
O O20 0.250000 0.000000 0.601114
O O21 0.750000 0.500000 0.899298
O O22 0.000000 0.500000 0.000000
#
# Coordination Sequence:
#
# PCOD9400959 Si02
#       8
#     8   8   8   8   8   8   4   4
#     4  10  21  36  54  77 106 138 174 213 255 301
#     4  10  19  33  51  73 101 133 169 210 254 304
#     4   9  18  32  51  72  99 134 169 203 248 302
#     4   9  17  30  48  74 103 132 164 202 249 301
#     4  10  20  34  54  78 106 137 172 214 260 309
#     4  10  19  31  50  78 108 137 169 210 257 307
#     4  10  20  36  55  76 100 130 167 206 247 296
#     4  10  22  40  59  80 107 138 171 212 254 300
#
# _framework density 19.668399000000001
#
# number of rings (size 3 to 8) (size 9 to 14) (size 15 to 20)
#    0.000    2.286    0.000    3.857    0.000    3.429 
#    0.000    3.571    0.000    0.000    0.000    0.000 
#    0.000    0.000    0.000    0.000    0.000    0.000 
#
# Total GULP energy -312623.693552 kJ/mol
# GULP energy per Si atom -5582.565956 kJ/mol
# Density = 1.962363 g / cm^3
# Si number density = 19.668399 Si / 1000 Ang^3
#
#
#
# Elastic Constant Matrix: (Units=GPa)
#
#
# Indices 1 2 3 4 5 6 
#
# 1 19.2680 9.5561 18.9542 0.0000 0.0000 0.0000
# 2 9.5561 46.7182 67.1505 0.0000 0.0000 0.0000
# 3 18.9542 67.1505 202.7703 0.0000 0.0000 0.0000
# 4 0.0000 0.0000 0.0000 34.9299 0.0000 0.0000
# 5 0.0000 0.0000 0.0000 0.0000 31.3932 0.0000
# 6 0.0000 0.0000 0.0000 0.0000 0.0000 10.2375
#
#
#
# Elastic Compliance Matrix: (Units=1/GPa)
#
#
# Indices 1 2 3 4 5 6 
#
# 1 0.058627 -0.007853 -0.002880 0.000000 0.000000 0.000000
# 2 -0.007853 0.041901 -0.013142 0.000000 0.000000 0.000000
# 3 -0.002880 -0.013142 0.009553 0.000000 0.000000 0.000000
# 4 0.000000 0.000000 0.000000 0.028629 0.000000 0.000000
# 5 0.000000 0.000000 0.000000 0.000000 0.031854 0.000000
# 6 0.000000 0.000000 0.000000 0.000000 0.000000 0.097680
#
#
# Mechanical properties :
#
#
# Convention : Reuss Voigt Hill
#
# Bulk Modulus (GPa) = 16.04321 51.11978 33.58149
# Shear Modulus (GPa) = 14.84689 26.85182 20.84935
#
# Velocity S-wave (km/s) = 2.75045 3.69891 3.25936
# Velocity P-wave (km/s) = 4.27331 6.65506 5.59245
#
# Compressibility (1/GPa) = 0.06233168
#
# Stress axis : x y z
#
# Youngs Moduli (GPa) = 17.05698 23.86573 104.67837
#
# Poissons Ratio (x) = 0.18742 0.30143
# Poissons Ratio (y) = 0.13395 1.37569
# Poissons Ratio (z) = 0.04912 0.31365
#
# Static dielectric constant tensor:
#      x y z
#    x 1.674300 0.000000 0.000000 
#    y 0.000000 1.689070 0.000000 
#    z 0.000000 0.000000 1.686310 
# 
# From -- ./inp_files/21951.got.cif
#   From: 2010.05.17/outbox.cif.g08.bks.cpg/sg51_11_cif.got.tgz:21951.got - 2010.06.03 11:52:47.
