data_PCOD9400838
_publ_section_title
;
Structure prediction by ZEFSAII (Michael W. Deem and Ramdas Pophale) SiO2 
 PCOD9400838
Probable space group: P M M A
;
_chemical_formula_sum "Si O2"
_cell_formula_units_Z 40
_cell_length_a 8.379011
_cell_length_b 26.612828
_cell_length_c 10.214948
_cell_angle_alpha 90.000000
_cell_angle_beta 90.000000
_cell_angle_gamma 90.000000
_cell_volume 2277.822863
_symmetry_space_group_name_H-M "P M M A"
_symmetry_group_IT_number 51
_symmetry_cell_setting 'orthorhombic'
loop_
_space_group_symop_operation_xyz
x,y,z
1/2-x,-y,z
1/2+x,-y,-z
-x,y,-z
-x,-y,-z
1/2+x,y,-z
1/2-x,y,z
x,-y,z
loop_
_atom_site_type_symbol
_atom_site_label
_atom_site_fract_x
_atom_site_fract_y
_atom_site_fract_z
Si Si1 0.558633 0.164179 0.350280
Si Si2 0.559041 0.246174 0.854213
Si Si3 0.057128 0.360866 0.145396
Si Si4 0.557218 0.053898 0.349441
Si Si5 0.557154 0.442989 0.646632
O O1 0.500000 0.170499 0.500000
O O2 0.750000 0.164680 0.352662
O O3 0.499656 0.207585 0.254767
O O4 0.504458 0.108645 0.299591
O O5 0.750000 0.246041 0.854984
O O6 0.504109 0.303559 0.826701
O O7 0.500000 0.232777 0.000000
O O8 0.250000 0.361075 0.146592
O O9 0.000094 0.401305 0.251091
O O10 0.000000 0.373967 0.000000
O O11 0.500000 0.053458 0.500000
O O12 0.750000 0.053821 0.346876
O O13 0.503320 0.000000 0.290911
O O14 0.500000 0.431953 0.500000
O O15 0.750000 0.442524 0.647377
O O16 0.505233 0.500000 0.679966
#
# Coordination Sequence:
#
# PCOD9400838 Si02
#       5
#     8   8   8   8   8
#     4  10  19  31  49  74 101 128 161 200 241 286
#     4  10  20  35  52  70  96 129 164 201 244 292
#     4   9  19  34  51  72  96 124 159 198 238 282
#     4   8  14  25  42  65  93 123 154 191 235 281
#     4   9  18  33  51  72  99 128 158 193 234 280
#
# _framework density 17.560628999999999
#
# number of rings (size 3 to 8) (size 9 to 14) (size 15 to 20)
#    0.000    2.800    0.000    1.200    0.000    3.600 
#    0.000    2.000    0.000    0.600    0.000    0.000 
#    0.000    0.000    0.000    0.000    0.000    0.000 
#
# Total GULP energy -222781.460449 kJ/mol
# GULP energy per Si atom -5569.536511 kJ/mol
# Density = 1.752066 g / cm^3
# Si number density = 17.560629 Si / 1000 Ang^3
#
#
#
# Elastic Constant Matrix: (Units=GPa)
#
#
# Indices 1 2 3 4 5 6 
#
# 1 17.8930 25.0346 18.6756 0.0000 0.0000 0.0000
# 2 25.0346 171.4805 117.8427 0.0000 0.0000 0.0000
# 3 18.6756 117.8427 103.3613 0.0000 0.0000 0.0000
# 4 0.0000 0.0000 0.0000 -18.6917 0.0000 0.0000
# 5 0.0000 0.0000 0.0000 0.0000 28.0335 0.0000
# 6 0.0000 0.0000 0.0000 0.0000 0.0000 18.7783
#
#
#
# Elastic Compliance Matrix: (Units=1/GPa)
#
#
# Indices 1 2 3 4 5 6 
#
# 1 0.070714 -0.007128 -0.004650 0.000000 0.000000 0.000000
# 2 -0.007128 0.027653 -0.030239 0.000000 0.000000 0.000000
# 3 -0.004650 -0.030239 0.044991 0.000000 0.000000 0.000000
# 4 0.000000 0.000000 0.000000 -0.053500 0.000000 0.000000
# 5 0.000000 0.000000 0.000000 0.000000 0.035672 0.000000
# 6 0.000000 0.000000 0.000000 0.000000 0.000000 0.053253
#
#
# Mechanical properties :
#
#
# Convention : Reuss Voigt Hill
#
# Bulk Modulus (GPa) = 16.85683 68.42674 42.64178
# Shear Modulus (GPa) = 17.69341 14.36948 16.03144
#
# Velocity S-wave (km/s) = 3.17765 2.86366 3.02473
# Velocity P-wave (km/s) = 4.80452 7.06998 6.04434
#
# Compressibility (1/GPa) = 0.05932315
#
# Stress axis : x y z
#
# Youngs Moduli (GPa) = 14.14143 36.16288 22.22687
#
# Poissons Ratio (x) = 0.25777 0.10336
# Poissons Ratio (y) = 0.10080 0.67212
# Poissons Ratio (z) = 0.06576 1.09353
#
# Static dielectric constant tensor:
#      x y z
#    x 1.612570 0.000000 0.000000 
#    y 0.000000 1.655170 0.000000 
#    z 0.000000 0.000000 1.534710 
# 
# From -- ./inp_files/5211.got.cif
#   From: 2010.05.17/outbox.cif.g08.bks.cpg/sg51_3_cif.got.tgz:5211.got - 2010.06.03 11:52:47.
