data_PCOD9400110
_publ_section_title
;
Structure prediction by ZEFSAII (Michael W. Deem and Ramdas Pophale) SiO2 
 PCOD9400110
Probable space group: P M M A
;
_chemical_formula_sum "Si O2"
_cell_formula_units_Z 48
_cell_length_a 8.859682
_cell_length_b 13.935535
_cell_length_c 24.509830
_cell_angle_alpha 90.000000
_cell_angle_beta 90.000000
_cell_angle_gamma 90.000000
_cell_volume 3026.091666
_symmetry_space_group_name_H-M "P M M A"
_symmetry_group_IT_number 51
_symmetry_cell_setting 'orthorhombic'
loop_
_space_group_symop_operation_xyz
x,y,z
1/2-x,-y,z
1/2+x,-y,-z
-x,y,-z
-x,-y,-z
1/2+x,y,-z
1/2-x,y,z
x,-y,z
loop_
_atom_site_type_symbol
_atom_site_label
_atom_site_fract_x
_atom_site_fract_y
_atom_site_fract_z
Si Si1 0.568288 0.303488 0.557910
Si Si2 0.075874 0.883279 0.056295
Si Si3 0.931131 0.210834 0.723966
Si Si4 0.569770 0.610168 0.333921
Si Si5 0.432871 0.893162 0.387682
Si Si6 0.070118 0.886461 0.829383
O O1 0.500000 0.331506 0.500000
O O2 0.750000 0.308852 0.557341
O O3 0.504033 0.366298 0.607462
O O4 0.521706 0.193392 0.572493
O O5 0.250000 0.853853 0.058788
O O6 0.989524 0.854878 0.111286
O O7 0.072177 0.000000 0.055112
O O8 0.000000 0.850189 0.000000
O O9 0.750000 0.216670 0.725019
O O10 0.973834 0.139946 0.673660
O O11 0.999877 0.313466 0.707884
O O12 0.993078 0.170438 0.780382
O O13 0.750000 0.623972 0.337454
O O14 0.539567 0.500000 0.319006
O O15 0.250000 0.896060 0.389393
O O16 0.489807 0.000000 0.400178
O O17 0.250000 0.875971 0.826955
O O18 0.033990 0.000000 0.823362
#
# Coordination Sequence:
#
# PCOD9400110 Si02
#       6
#     8   8   8   8   8   8
#     4  10  20  33  50  71  94 120 150 186 226 272
#     4   9  16  26  40  59  87 125 167 206 241 276
#     4  10  19  31  49  71  95 122 153 192 234 280
#     4  10  21  37  55  72  91 116 146 186 237 288
#     4   8  15  28  45  65  90 120 151 182 219 263
#     4  10  19  29  43  66  97 132 167 200 233 272
#
# _framework density 15.862045
#
# number of rings (size 3 to 8) (size 9 to 14) (size 15 to 20)
#    0.000    2.500    0.000    4.000    0.000    5.667 
#    0.000    0.000    0.000    9.500    0.000    0.000 
#    0.000    0.667    0.000    2.500    0.000    3.833 
#
# Total GULP energy -267671.429782 kJ/mol
# GULP energy per Si atom -5576.488120 kJ/mol
# Density = 1.582594 g / cm^3
# Si number density = 15.862045 Si / 1000 Ang^3
#
#
#
# Elastic Constant Matrix: (Units=GPa)
#
#
# Indices 1 2 3 4 5 6 
#
# 1 71.4936 36.0096 48.4929 0.0000 0.0000 0.0000
# 2 36.0096 57.8961 24.5230 0.0000 0.0000 0.0000
# 3 48.4929 24.5230 110.2736 0.0000 0.0000 0.0000
# 4 0.0000 0.0000 0.0000 10.2393 0.0000 0.0000
# 5 0.0000 0.0000 0.0000 0.0000 29.4585 0.0000
# 6 0.0000 0.0000 0.0000 0.0000 0.0000 19.4331
#
#
#
# Elastic Compliance Matrix: (Units=1/GPa)
#
#
# Indices 1 2 3 4 5 6 
#
# 1 0.026292 -0.012647 -0.008749 0.000000 0.000000 0.000000
# 2 -0.012647 0.025152 -0.000032 0.000000 0.000000 0.000000
# 3 -0.008749 -0.000032 0.012923 0.000000 0.000000 0.000000
# 4 0.000000 0.000000 0.000000 0.097663 0.000000 0.000000
# 5 0.000000 0.000000 0.000000 0.000000 0.033946 0.000000
# 6 0.000000 0.000000 0.000000 0.000000 0.000000 0.051459
#
#
# Mechanical properties :
#
#
# Convention : Reuss Voigt Hill
#
# Bulk Modulus (GPa) = 46.48912 50.85715 48.67313
# Shear Modulus (GPa) = 16.80899 20.53537 18.67218
#
# Velocity S-wave (km/s) = 3.25883 3.60199 3.43470
# Velocity P-wave (km/s) = 6.59788 7.03071 6.81773
#
# Compressibility (1/GPa) = 0.02151041
#
# Stress axis : x y z
#
# Youngs Moduli (GPa) = 38.03488 39.75879 77.38146
#
# Poissons Ratio (x) = 0.50282 0.67704
# Poissons Ratio (y) = 0.48101 0.00247
# Poissons Ratio (z) = 0.33278 0.00127
#
# Static dielectric constant tensor:
#      x y z
#    x 1.525820 0.000000 0.000000 
#    y 0.000000 1.525310 0.000000 
#    z 0.000000 0.000000 1.512310 
# 
# From -- ./inp_files/31622.got.cif
#   From: 2010.05.17/outbox.cif.g08.bks.cpg/sg51_16_cif.got.tgz:31622.got - 2010.06.03 11:52:47.
