data_PCOD9400584
_publ_section_title
;
Structure prediction by ZEFSAII (Michael W. Deem and Ramdas Pophale) SiO2 
 PCOD9400584
Probable space group: P M M A
;
_chemical_formula_sum "Si O2"
_cell_formula_units_Z 52
_cell_length_a 8.044859
_cell_length_b 14.101815
_cell_length_c 24.702229
_cell_angle_alpha 90.000000
_cell_angle_beta 90.000000
_cell_angle_gamma 90.000000
_cell_volume 2802.396573
_symmetry_space_group_name_H-M "P M M A"
_symmetry_group_IT_number 51
_symmetry_cell_setting 'orthorhombic'
loop_
_space_group_symop_operation_xyz
x,y,z
1/2-x,-y,z
1/2+x,-y,-z
-x,y,-z
-x,-y,-z
1/2+x,y,-z
1/2-x,y,z
x,-y,z
loop_
_atom_site_type_symbol
_atom_site_label
_atom_site_fract_x
_atom_site_fract_y
_atom_site_fract_z
Si Si1 0.949950 0.708552 0.666504
Si Si2 0.551228 0.203736 0.169209
Si Si3 0.450184 0.890951 0.940030
Si Si4 0.551601 0.103428 0.724399
Si Si5 0.950357 0.000000 0.436861
Si Si6 0.548818 0.605036 0.772092
Si Si7 0.552304 0.792194 0.437864
O O1 0.750000 0.709221 0.668486
O O2 0.016795 0.807953 0.690948
O O3 0.004346 0.630642 0.710358
O O4 0.998895 0.711248 0.604014
O O5 0.750000 0.195177 0.170849
O O6 0.491983 0.174501 0.109469
O O7 0.479233 0.130559 0.213255
O O8 0.505557 0.309078 0.189308
O O9 0.250000 0.893140 0.938123
O O10 0.509671 0.000000 0.933005
O O11 0.500000 0.858838 0.000000
O O12 0.750000 0.100958 0.715778
O O13 0.481859 0.000000 0.710805
O O14 0.014519 0.103375 0.418309
O O15 0.000000 0.000000 0.500000
O O16 0.750000 0.000000 0.430953
O O17 0.750000 0.605065 0.772626
O O18 0.490436 0.500000 0.787335
O O19 0.500000 0.777267 0.500000
O O20 0.750000 0.797879 0.437214
#
# Coordination Sequence:
#
# PCOD9400584 Si02
#       7
#     8   8   8   8   4   8   8
#     4   9  18  31  48  71  95 120 155 198 244 291
#     4  10  19  31  49  75 104 131 163 208 255 297
#     4   9  18  31  47  71 105 143 178 207 239 280
#     4   9  18  31  46  67  97 134 170 201 238 290
#     4   8  16  28  40  58  84 118 158 190 217 260
#     4   9  19  37  58  76  96 125 162 204 252 306
#     4  10  19  31  46  65  92 126 162 197 236 284
#
# _framework density 18.555546
#
# number of rings (size 3 to 8) (size 9 to 14) (size 15 to 20)
#    0.000    2.769    0.000    2.308    1.077    5.538 
#    0.000    1.538    0.000    0.923    0.000    0.000 
#    0.000    0.000    0.000    0.000    0.000    0.000 
#
# Total GULP energy -289729.301510 kJ/mol
# GULP energy per Si atom -5571.717337 kJ/mol
# Density = 1.851331 g / cm^3
# Si number density = 18.555546 Si / 1000 Ang^3
#
#
#
# Elastic Constant Matrix: (Units=GPa)
#
#
# Indices 1 2 3 4 5 6 
#
# 1 14.2411 3.1432 -4.5404 0.0000 0.0000 0.0000
# 2 3.1432 58.2312 18.8560 0.0000 0.0000 0.0000
# 3 -4.5404 18.8560 101.4821 0.0000 0.0000 0.0000
# 4 0.0000 0.0000 0.0000 18.0343 0.0000 0.0000
# 5 0.0000 0.0000 0.0000 0.0000 24.8461 0.0000
# 6 0.0000 0.0000 0.0000 0.0000 0.0000 13.3940
#
#
#
# Elastic Compliance Matrix: (Units=1/GPa)
#
#
# Indices 1 2 3 4 5 6 
#
# 1 0.072740 -0.005299 0.004239 0.000000 0.000000 0.000000
# 2 -0.005299 0.018658 -0.003704 0.000000 0.000000 0.000000
# 3 0.004239 -0.003704 0.010732 0.000000 0.000000 0.000000
# 4 0.000000 0.000000 0.000000 0.055450 0.000000 0.000000
# 5 0.000000 0.000000 0.000000 0.000000 0.040248 0.000000
# 6 0.000000 0.000000 0.000000 0.000000 0.000000 0.074660
#
#
# Mechanical properties :
#
#
# Convention : Reuss Voigt Hill
#
# Bulk Modulus (GPa) = 10.79881 23.20799 17.00340
# Shear Modulus (GPa) = 15.98038 21.68792 18.83415
#
# Velocity S-wave (km/s) = 2.93784 3.42250 3.18939
# Velocity P-wave (km/s) = 4.16416 5.30589 4.76931
#
# Compressibility (1/GPa) = 0.09260278
#
# Stress axis : x y z
#
# Youngs Moduli (GPa) = 13.74753 53.59538 93.18078
#
# Poissons Ratio (x) = 0.28400 -0.39500
# Poissons Ratio (y) = 0.07285 0.34513
# Poissons Ratio (z) = -0.05828 0.19851
#
# Static dielectric constant tensor:
#      x y z
#    x 1.652660 0.000000 0.000000 
#    y 0.000000 1.662090 0.000000 
#    z 0.000000 0.000000 1.653490 
# 
# From -- ./inp_files/31709.got.cif
#   From: 2010.05.17/outbox.cif.g08.bks.cpg/sg51_16_cif.got.tgz:31709.got - 2010.06.03 11:52:47.
