data_PCOD9400994
_publ_section_title
;
Structure prediction by ZEFSAII (Michael W. Deem and Ramdas Pophale) SiO2 
 PCOD9400994
Probable space group: P M M A
;
_chemical_formula_sum "Si O2"
_cell_formula_units_Z 48
_cell_length_a 17.833038
_cell_length_b 7.312740
_cell_length_c 15.279153
_cell_angle_alpha 90.000000
_cell_angle_beta 90.000000
_cell_angle_gamma 90.000000
_cell_volume 1992.529442
_symmetry_space_group_name_H-M "P M M A"
_symmetry_group_IT_number 51
_symmetry_cell_setting 'orthorhombic'
loop_
_space_group_symop_operation_xyz
x,y,z
1/2-x,-y,z
1/2+x,-y,-z
-x,y,-z
-x,-y,-z
1/2+x,y,-z
1/2-x,y,z
x,-y,z
loop_
_atom_site_type_symbol
_atom_site_label
_atom_site_fract_x
_atom_site_fract_y
_atom_site_fract_z
Si Si1 0.572669 0.211122 0.625187
Si Si2 0.427389 0.709836 0.046799
Si Si3 0.580974 0.222468 0.291826
Si Si4 0.834761 0.278532 0.791808
Si Si5 0.164604 0.221248 0.879590
Si Si6 0.334356 0.222833 0.535771
O O1 0.499244 0.288718 0.672756
O O2 0.638712 0.219988 0.696239
O O3 0.604761 0.288366 0.534915
O O4 0.553410 0.000000 0.606079
O O5 0.447778 0.500000 0.067572
O O6 0.393857 0.789422 0.135742
O O7 0.500000 0.794575 0.000000
O O8 0.362828 0.713287 0.973779
O O9 0.608332 0.283966 0.196809
O O10 0.640935 0.271052 0.366463
O O11 0.577950 0.000000 0.286894
O O12 0.750000 0.219241 0.810954
O O13 0.835245 0.500000 0.794458
O O14 0.250000 0.276322 0.860975
O O15 0.162941 0.000000 0.881343
O O16 0.250000 0.283121 0.515605
O O17 0.334325 0.000000 0.531355
#
# Coordination Sequence:
#
# PCOD9400994 Si02
#       6
#     8   8   8   8   8   8
#     4  10  19  31  51  78 102 127 166 211 247 284
#     4  10  21  37  56  76  99 131 170 209 252 304
#     4   9  17  30  48  72 104 136 163 200 252 300
#     4  10  21  36  52  71  99 134 165 196 245 304
#     4  10  20  33  51  76 103 133 170 209 251 299
#     4   9  16  27  46  73 103 133 166 204 245 292
#
# _framework density 24.089984999999999
#
# number of rings (size 3 to 8) (size 9 to 14) (size 15 to 20)
#    0.000    2.333    0.000    3.000    0.000    7.000 
#    0.000    0.000    0.000    3.000    0.000    0.000 
#    0.000    0.000    0.000    0.000    0.000    0.000 
#
# Total GULP energy -268430.928755 kJ/mol
# GULP energy per Si atom -5592.311016 kJ/mol
# Density = 2.403515 g / cm^3
# Si number density = 24.089985 Si / 1000 Ang^3
#
#
#
# Elastic Constant Matrix: (Units=GPa)
#
#
# Indices 1 2 3 4 5 6 
#
# 1 62.7555 -5.0589 -30.9032 0.0000 0.0000 0.0000
# 2 -5.0589 98.7047 -13.2367 0.0000 0.0000 0.0000
# 3 -30.9032 -13.2367 77.2949 0.0000 0.0000 0.0000
# 4 0.0000 0.0000 0.0000 -27.2785 0.0000 0.0000
# 5 0.0000 0.0000 0.0000 0.0000 47.4232 0.0000
# 6 0.0000 0.0000 0.0000 0.0000 0.0000 3.4908
#
#
#
# Elastic Compliance Matrix: (Units=1/GPa)
#
#
# Indices 1 2 3 4 5 6 
#
# 1 0.020288 0.002178 0.008484 0.000000 0.000000 0.000000
# 2 0.002178 0.010603 0.002686 0.000000 0.000000 0.000000
# 3 0.008484 0.002686 0.016790 0.000000 0.000000 0.000000
# 4 0.000000 0.000000 0.000000 -0.036659 0.000000 0.000000
# 5 0.000000 0.000000 0.000000 0.000000 0.021087 0.000000
# 6 0.000000 0.000000 0.000000 0.000000 0.000000 0.286467
#
#
# Mechanical properties :
#
#
# Convention : Reuss Voigt Hill
#
# Bulk Modulus (GPa) = 13.44479 15.59527 14.52003
# Shear Modulus (GPa) = 15.78921 23.92403 19.85662
#
# Velocity S-wave (km/s) = 2.56291 3.15479 2.87412
# Velocity P-wave (km/s) = 3.78829 4.44500 4.12972
#
# Compressibility (1/GPa) = 0.07437823
#
# Stress axis : x y z
#
# Youngs Moduli (GPa) = 49.28908 94.31207 59.56045
#
# Poissons Ratio (x) = -0.20538 -0.50534
# Poissons Ratio (y) = -0.10733 -0.16000
# Poissons Ratio (z) = -0.41819 -0.25336
#
# Static dielectric constant tensor:
#      x y z
#    x 1.903700 0.000000 0.000000 
#    y 0.000000 1.939010 0.000000 
#    z 0.000000 0.000000 1.838280 
# 
# From -- ./inp_files/24725.got.cif
#   From: 2010.05.17/outbox.cif.g08.bks.cpg/sg51_13_cif.got.tgz:24725.got - 2010.06.03 11:52:47.
