data_PCOD9400278
_publ_section_title
;
Structure prediction by ZEFSAII (Michael W. Deem and Ramdas Pophale) SiO2 
 PCOD9400278
Probable space group: P M M A
;
_chemical_formula_sum "Si O2"
_cell_formula_units_Z 64
_cell_length_a 8.715391
_cell_length_b 15.095665
_cell_length_c 29.379917
_cell_angle_alpha 90.000000
_cell_angle_beta 90.000000
_cell_angle_gamma 90.000000
_cell_volume 3865.357700
_symmetry_space_group_name_H-M "P M M A"
_symmetry_group_IT_number 51
_symmetry_cell_setting 'orthorhombic'
loop_
_space_group_symop_operation_xyz
x,y,z
1/2-x,-y,z
1/2+x,-y,-z
-x,y,-z
-x,-y,-z
1/2+x,y,-z
1/2-x,y,z
x,-y,z
loop_
_atom_site_type_symbol
_atom_site_label
_atom_site_fract_x
_atom_site_fract_y
_atom_site_fract_z
Si Si1 0.073751 0.392367 0.452752
Si Si2 0.564365 0.220238 0.952270
Si Si3 0.065205 0.397883 0.643716
Si Si4 0.566679 0.276327 0.272723
Si Si5 0.933895 0.603217 0.806269
Si Si6 0.435219 0.897649 0.235937
Si Si7 0.436728 0.401468 0.088239
Si Si8 0.063540 0.101641 0.132377
O O1 0.250000 0.364931 0.450381
O O2 0.069143 0.500000 0.454174
O O3 0.000000 0.360869 0.500000
O O4 0.988274 0.368208 0.406260
O O5 0.750000 0.217754 0.953588
O O6 0.512922 0.321315 0.943355
O O7 0.512437 0.164191 0.908421
O O8 0.500000 0.187060 0.000000
O O9 0.250000 0.399617 0.644432
O O10 0.012273 0.500000 0.651448
O O11 0.011867 0.332058 0.683344
O O12 0.750000 0.272202 0.274155
O O13 0.514585 0.331637 0.228521
O O14 0.501041 0.177522 0.268454
O O15 0.750000 0.616520 0.803370
O O16 0.965848 0.500000 0.795211
O O17 0.978420 0.616927 0.859048
O O18 0.250000 0.894134 0.237048
O O19 0.484777 0.875580 0.183820
O O20 0.479590 0.000000 0.245248
O O21 0.250000 0.402869 0.087591
O O22 0.490613 0.500000 0.075720
O O23 0.250000 0.105246 0.132905
O O24 0.019456 0.000000 0.123630
#
# Coordination Sequence:
#
# PCOD9400278 Si02
#       8
#     8   8   8   8   8   8   8   8
#     4   9  16  26  42  63  87 120 163 207 245 276
#     4  10  19  30  45  64  86 109 134 168 210 259
#     4   9  18  31  43  59  91 133 169 195 223 267
#     4  11  21  30  44  68 100 131 152 182 235 288
#     4   9  17  30  49  69  87 114 156 196 223 259
#     4   9  18  34  55  73  87 111 153 197 229 267
#     4   8  15  29  47  63  79 106 145 182 213 249
#     4   8  15  30  51  69  83 105 138 173 212 261
#
# _framework density 16.557328999999999
#
# number of rings (size 3 to 8) (size 9 to 14) (size 15 to 20)
#    0.000    2.875    0.000    3.375    0.000    6.000 
#    0.000    3.750    0.000    1.500    0.000    0.000 
#    0.000    0.500    0.000    1.625    0.000    2.375 
#
# Total GULP energy -356687.771280 kJ/mol
# GULP energy per Si atom -5573.246426 kJ/mol
# Density = 1.651964 g / cm^3
# Si number density = 16.557329 Si / 1000 Ang^3
#
#
#
# Elastic Constant Matrix: (Units=GPa)
#
#
# Indices 1 2 3 4 5 6 
#
# 1 11.2750 22.1474 15.0819 0.0000 0.0000 0.0000
# 2 22.1474 79.5222 64.7753 0.0000 0.0000 0.0000
# 3 15.0819 64.7753 80.5507 0.0000 0.0000 0.0000
# 4 0.0000 0.0000 0.0000 16.2972 0.0000 0.0000
# 5 0.0000 0.0000 0.0000 0.0000 23.4898 0.0000
# 6 0.0000 0.0000 0.0000 0.0000 0.0000 15.2027
#
#
#
# Elastic Compliance Matrix: (Units=1/GPa)
#
#
# Indices 1 2 3 4 5 6 
#
# 1 0.208686 -0.076218 0.022218 0.000000 0.000000 0.000000
# 2 -0.076218 0.064290 -0.037428 0.000000 0.000000 0.000000
# 3 0.022218 -0.037428 0.038353 0.000000 0.000000 0.000000
# 4 0.000000 0.000000 0.000000 0.061360 0.000000 0.000000
# 5 0.000000 0.000000 0.000000 0.000000 0.042572 0.000000
# 6 0.000000 0.000000 0.000000 0.000000 0.000000 0.065778
#
#
# Mechanical properties :
#
#
# Convention : Reuss Voigt Hill
#
# Bulk Modulus (GPa) = 7.78382 41.70632 24.74507
# Shear Modulus (GPa) = 7.07495 15.62083 11.34789
#
# Velocity S-wave (km/s) = 2.06937 3.07488 2.62080
# Velocity P-wave (km/s) = 3.22816 6.15225 4.91280
#
# Compressibility (1/GPa) = 0.12847170
#
# Stress axis : x y z
#
# Youngs Moduli (GPa) = 4.79189 15.55463 26.07380
#
# Poissons Ratio (x) = 1.18554 -0.57930
# Poissons Ratio (y) = 0.36523 0.97589
# Poissons Ratio (z) = -0.10646 0.58218
#
# Static dielectric constant tensor:
#      x y z
#    x 1.564870 0.000000 0.000000 
#    y 0.000000 1.565760 0.000000 
#    z 0.000000 0.000000 1.549240 
# 
# From -- ./inp_files/37677.got.cif
#   From: 2010.05.17/outbox.cif.g08.bks.cpg/sg51_19_cif.got.tgz:37677.got - 2010.06.03 11:52:47.
