data_PCOD9400245
_publ_section_title
;
Structure prediction by ZEFSAII (Michael W. Deem and Ramdas Pophale) SiO2 
 PCOD9400245
Probable space group: P M M A
;
_chemical_formula_sum "Si O2"
_cell_formula_units_Z 64
_cell_length_a 8.834836
_cell_length_b 20.596923
_cell_length_c 20.550281
_cell_angle_alpha 90.000000
_cell_angle_beta 90.000000
_cell_angle_gamma 90.000000
_cell_volume 3739.543610
_symmetry_space_group_name_H-M "P M M A"
_symmetry_group_IT_number 51
_symmetry_cell_setting 'orthorhombic'
loop_
_space_group_symop_operation_xyz
x,y,z
1/2-x,-y,z
1/2+x,-y,-z
-x,y,-z
-x,-y,-z
1/2+x,y,-z
1/2-x,y,z
x,-y,z
loop_
_atom_site_type_symbol
_atom_site_label
_atom_site_fract_x
_atom_site_fract_y
_atom_site_fract_z
Si Si1 0.428183 0.602900 0.067567
Si Si2 0.568171 0.290547 0.249602
Si Si3 0.570172 0.887998 0.933321
Si Si4 0.428734 0.747070 0.113163
Si Si5 0.070614 0.072370 0.799062
Si Si6 0.566598 0.165457 0.318723
Si Si7 0.432805 0.570902 0.793247
Si Si8 0.431463 0.074235 0.428179
O O1 0.250000 0.588374 0.068841
O O2 0.448531 0.680979 0.073045
O O3 0.505226 0.576754 0.133182
O O4 0.500000 0.580147 0.000000
O O5 0.750000 0.291624 0.252319
O O6 0.519237 0.261212 0.180071
O O7 0.518211 0.239937 0.305134
O O8 0.514628 0.365499 0.246771
O O9 0.750000 0.892781 0.937268
O O10 0.525837 0.812082 0.924024
O O11 0.512208 0.920824 0.867586
O O12 0.500000 0.913452 0.000000
O O13 0.250000 0.752481 0.128903
O O14 0.250000 0.080946 0.810550
O O15 0.022706 0.125002 0.746000
O O16 0.046118 0.000000 0.772462
O O17 0.750000 0.163212 0.324109
O O18 0.495885 0.127867 0.379232
O O19 0.250000 0.573471 0.796197
O O20 0.477015 0.500000 0.767002
O O21 0.500000 0.083252 0.500000
O O22 0.250000 0.078430 0.430928
O O23 0.471595 0.000000 0.407307
#
# Coordination Sequence:
#
# PCOD9400245 Si02
#       8
#     8   8   8   8   8   8   8   8
#     4  10  19  30  44  63  86 114 151 194 245 305
#     4   9  17  30  51  74  96 125 161 201 244 291
#     4  11  22  34  49  66  87 116 154 203 259 311
#     4   9  18  31  46  66  89 114 148 197 251 302
#     4  10  21  36  52  70  93 123 159 201 250 300
#     4  10  19  33  55  80 105 135 170 208 248 292
#     4   9  18  32  48  67  93 124 157 197 246 299
#     4  10  21  36  55  81 114 150 182 210 243 286
#
# _framework density 17.114388000000002
#
# number of rings (size 3 to 8) (size 9 to 14) (size 15 to 20)
#    0.000    2.250    1.250    1.875    0.000    4.250 
#    0.000    0.000    0.000    0.000    0.000    0.000 
#    0.000    0.500    0.000    0.875    0.000    1.250 
#
# Total GULP energy -356990.810318 kJ/mol
# GULP energy per Si atom -5577.981411 kJ/mol
# Density = 1.707544 g / cm^3
# Si number density = 17.114388 Si / 1000 Ang^3
#
#
#
# Elastic Constant Matrix: (Units=GPa)
#
#
# Indices 1 2 3 4 5 6 
#
# 1 12.3201 31.8516 22.1416 0.0000 0.0000 0.0000
# 2 31.8516 123.0087 53.9789 0.0000 0.0000 0.0000
# 3 22.1416 53.9789 78.2012 0.0000 0.0000 0.0000
# 4 0.0000 0.0000 0.0000 -395.1026 0.0000 0.0000
# 5 0.0000 0.0000 0.0000 0.0000 25.2525 0.0000
# 6 0.0000 0.0000 0.0000 0.0000 0.0000 14.6841
#
#
#
# Elastic Compliance Matrix: (Units=1/GPa)
#
#
# Indices 1 2 3 4 5 6 
#
# 1 0.350904 -0.067800 -0.052554 0.000000 0.000000 0.000000
# 2 -0.067800 0.024762 0.002105 0.000000 0.000000 0.000000
# 3 -0.052554 0.002105 0.026215 0.000000 0.000000 0.000000
# 4 0.000000 0.000000 0.000000 -0.002531 0.000000 0.000000
# 5 0.000000 0.000000 0.000000 0.000000 0.039600 0.000000
# 6 0.000000 0.000000 0.000000 0.000000 0.000000 0.068101
#
#
# Mechanical properties :
#
#
# Convention : Reuss Voigt Hill
#
# Bulk Modulus (GPa) = 6.04664 47.71934 26.88299
# Shear Modulus (GPa) = 6.26035 -63.99601 -28.86783
#
# Velocity S-wave (km/s) = 1.91465 -6.12162 -4.11147
# Velocity P-wave (km/s) = 2.90320 4.69282 2.60711
#
# Compressibility (1/GPa) = 0.16538116
#
# Stress axis : x y z
#
# Youngs Moduli (GPa) = 2.84978 40.38444 38.14636
#
# Poissons Ratio (x) = 2.73808 2.00475
# Poissons Ratio (y) = 0.19322 -0.08028
# Poissons Ratio (z) = 0.14977 -0.08499
#
# Static dielectric constant tensor:
#      x y z
#    x 1.569570 0.000000 0.000000 
#    y 0.000000 1.639180 0.000000 
#    z 0.000000 0.000000 1.536160 
# 
# From -- ./inp_files/28376.got.cif
#   From: 2010.05.17/outbox.cif.g08.bks.cpg/sg51_15_cif.got.tgz:28376.got - 2010.06.03 11:52:47.
