data_PCOD9400806
_publ_section_title
;
Structure prediction by ZEFSAII (Michael W. Deem and Ramdas Pophale) SiO2 
 PCOD9400806
Probable space group: P M M A
;
_chemical_formula_sum "Si O2"
_cell_formula_units_Z 48
_cell_length_a 8.865830
_cell_length_b 16.786995
_cell_length_c 18.856572
_cell_angle_alpha 90.000000
_cell_angle_beta 90.000000
_cell_angle_gamma 90.000000
_cell_volume 2806.435752
_symmetry_space_group_name_H-M "P M M A"
_symmetry_group_IT_number 51
_symmetry_cell_setting 'orthorhombic'
loop_
_space_group_symop_operation_xyz
x,y,z
1/2-x,-y,z
1/2+x,-y,-z
-x,y,-z
-x,-y,-z
1/2+x,y,-z
1/2-x,y,z
x,-y,z
loop_
_atom_site_type_symbol
_atom_site_label
_atom_site_fract_x
_atom_site_fract_y
_atom_site_fract_z
Si Si1 0.930718 0.000000 0.578204
Si Si2 0.070032 0.742347 0.709402
Si Si3 0.431934 0.168454 0.852325
Si Si4 0.428990 0.679340 0.073665
Si Si5 0.569379 0.591279 0.781914
Si Si6 0.932607 0.000000 0.079393
Si Si7 0.069044 0.174171 0.421243
O O1 0.000000 0.000000 0.500000
O O2 0.974600 0.085701 0.608441
O O3 0.250000 0.000000 0.426855
O O4 0.250000 0.745167 0.702931
O O5 0.024790 0.804379 0.772457
O O6 0.016276 0.655711 0.734682
O O7 0.994361 0.764640 0.635420
O O8 0.250000 0.173145 0.856435
O O9 0.501555 0.235837 0.903047
O O10 0.477104 0.080344 0.878086
O O11 0.250000 0.687986 0.066629
O O12 0.460272 0.617624 0.137030
O O13 0.500000 0.653402 0.000000
O O14 0.750000 0.598966 0.770567
O O15 0.526090 0.500000 0.769428
O O16 0.750000 0.000000 0.073913
O O17 0.000000 0.000000 0.000000
O O18 0.250000 0.178917 0.426272
O O19 0.000000 0.182907 0.500000
#
# Coordination Sequence:
#
# PCOD9400806 Si02
#       7
#     4   8   8   8   8   4   8
#     4   8  16  29  46  70 100 133 167 202 239 279
#     4  10  20  34  53  77 103 133 168 207 254 306
#     4   9  19  34  49  67  95 131 171 211 251 296
#     4  10  19  31  49  72  98 127 161 203 251 302
#     4   9  19  36  55  74  98 130 166 204 250 304
#     4  10  20  33  48  68  95 131 175 218 255 291
#     4  10  19  33  53  78 108 140 174 211 250 295
#
# _framework density 17.103545
#
# number of rings (size 3 to 8) (size 9 to 14) (size 15 to 20)
#    0.000    2.500    0.000    2.000    0.000    5.333 
#    0.000    0.833    0.000    0.500    0.000    0.000 
#    0.000    0.000    0.000    0.000    0.000    0.000 
#
# Total GULP energy -267596.209996 kJ/mol
# GULP energy per Si atom -5574.921042 kJ/mol
# Density = 1.706462 g / cm^3
# Si number density = 17.103545 Si / 1000 Ang^3
#
#
#
# Elastic Constant Matrix: (Units=GPa)
#
#
# Indices 1 2 3 4 5 6 
#
# 1 34.0659 40.7641 44.6184 0.0000 0.0000 0.0000
# 2 40.7641 119.2446 60.7114 0.0000 0.0000 0.0000
# 3 44.6184 60.7114 105.6400 0.0000 0.0000 0.0000
# 4 0.0000 0.0000 0.0000 10.4404 0.0000 0.0000
# 5 0.0000 0.0000 0.0000 0.0000 27.7757 0.0000
# 6 0.0000 0.0000 0.0000 0.0000 0.0000 23.3106
#
#
#
# Elastic Compliance Matrix: (Units=1/GPa)
#
#
# Indices 1 2 3 4 5 6 
#
# 1 0.079937 -0.014330 -0.025527 0.000000 0.000000 0.000000
# 2 -0.014330 0.014424 -0.002237 0.000000 0.000000 0.000000
# 3 -0.025527 -0.002237 0.021533 0.000000 0.000000 0.000000
# 4 0.000000 0.000000 0.000000 0.095782 0.000000 0.000000
# 5 0.000000 0.000000 0.000000 0.000000 0.036003 0.000000
# 6 0.000000 0.000000 0.000000 0.000000 0.000000 0.042899
#
#
# Mechanical properties :
#
#
# Convention : Reuss Voigt Hill
#
# Bulk Modulus (GPa) = 31.53948 61.23759 46.38854
# Shear Modulus (GPa) = 12.97575 19.82909 16.40242
#
# Velocity S-wave (km/s) = 2.75736 3.40863 3.10014
# Velocity P-wave (km/s) = 5.34956 7.16752 6.32421
#
# Compressibility (1/GPa) = 0.03170629
#
# Stress axis : x y z
#
# Youngs Moduli (GPa) = 12.50987 69.33001 46.43989
#
# Poissons Ratio (x) = 0.99351 1.18546
# Poissons Ratio (y) = 0.17927 0.10388
# Poissons Ratio (z) = 0.31934 0.15508
#
# Static dielectric constant tensor:
#      x y z
#    x 1.567880 0.000000 0.000000 
#    y 0.000000 1.583390 0.000000 
#    z 0.000000 0.000000 1.558460 
# 
# From -- ./inp_files/27675.got.cif
#   From: 2010.05.17/outbox.cif.g08.bks.cpg/sg51_14_cif.got.tgz:27675.got - 2010.06.03 11:52:47.
