data_PCOD9400257
_publ_section_title
;
Structure prediction by ZEFSAII (Michael W. Deem and Ramdas Pophale) SiO2 
 PCOD9400257
Probable space group: P M M A
;
_chemical_formula_sum "Si O2"
_cell_formula_units_Z 52
_cell_length_a 9.109690
_cell_length_b 20.758081
_cell_length_c 14.194446
_cell_angle_alpha 90.000000
_cell_angle_beta 90.000000
_cell_angle_gamma 90.000000
_cell_volume 2684.165238
_symmetry_space_group_name_H-M "P M M A"
_symmetry_group_IT_number 51
_symmetry_cell_setting 'orthorhombic'
loop_
_space_group_symop_operation_xyz
x,y,z
1/2-x,-y,z
1/2+x,-y,-z
-x,y,-z
-x,-y,-z
1/2+x,y,-z
1/2-x,y,z
x,-y,z
loop_
_atom_site_type_symbol
_atom_site_label
_atom_site_fract_x
_atom_site_fract_y
_atom_site_fract_z
Si Si1 0.915470 0.698098 0.360565
Si Si2 0.583925 0.261706 0.140882
Si Si3 0.924015 0.173138 0.591671
Si Si4 0.926197 0.865008 0.803819
Si Si5 0.924109 0.390422 0.907790
Si Si6 0.073840 0.000000 0.101420
Si Si7 0.925406 0.572691 0.693548
O O1 0.750000 0.699254 0.399818
O O2 0.905694 0.717725 0.250501
O O3 0.018286 0.753539 0.401564
O O4 0.987394 0.627736 0.361754
O O5 0.750000 0.261921 0.101847
O O6 0.510430 0.191590 0.140890
O O7 0.481346 0.316928 0.098671
O O8 0.750000 0.171889 0.580513
O O9 0.961355 0.141436 0.692505
O O10 0.000000 0.143068 0.500000
O O11 0.750000 0.855082 0.813116
O O12 0.965496 0.934967 0.842928
O O13 0.750000 0.392994 0.919143
O O14 0.960271 0.420859 0.805752
O O15 0.000000 0.419883 0.000000
O O16 0.250000 0.000000 0.090787
O O17 0.000000 0.000000 0.000000
O O18 0.750000 0.583808 0.685036
O O19 0.958935 0.500000 0.663183
#
# Coordination Sequence:
#
# PCOD9400257 Si02
#       7
#     8   8   8   8   8   4   8
#     4   9  17  30  49  74 101 129 166 210 253 304
#     4   9  17  30  49  71  95 125 164 211 260 308
#     4  10  19  33  56  84 112 142 175 215 265 319
#     4   9  19  36  56  78 109 146 180 217 264 317
#     4  10  19  30  44  64  92 125 165 215 269 322
#     4  10  22  40  59  80 108 146 189 226 263 310
#     4   9  18  32  48  66  92 130 172 212 261 320
#
# _framework density 19.372876000000002
#
# number of rings (size 3 to 8) (size 9 to 14) (size 15 to 20)
#    0.000    2.615    0.000    1.846    0.000    6.769 
#    0.000    1.923    0.000    0.462    0.000    0.000 
#    0.000    0.000    0.000    0.000    0.000    0.000 
#
# Total GULP energy -290116.200495 kJ/mol
# GULP energy per Si atom -5579.157702 kJ/mol
# Density = 1.932878 g / cm^3
# Si number density = 19.372876 Si / 1000 Ang^3
#
#
#
# Elastic Constant Matrix: (Units=GPa)
#
#
# Indices 1 2 3 4 5 6 
#
# 1 51.3524 31.4885 22.0237 0.0000 0.0000 0.0000
# 2 31.4885 128.9278 22.3085 0.0000 0.0000 0.0000
# 3 22.0237 22.3085 62.6217 0.0000 0.0000 0.0000
# 4 0.0000 0.0000 0.0000 10.0489 0.0000 0.0000
# 5 0.0000 0.0000 0.0000 0.0000 26.9553 0.0000
# 6 0.0000 0.0000 0.0000 0.0000 0.0000 19.9506
#
#
#
# Elastic Compliance Matrix: (Units=1/GPa)
#
#
# Indices 1 2 3 4 5 6 
#
# 1 0.025650 -0.005013 -0.007235 0.000000 0.000000 0.000000
# 2 -0.005013 0.009245 -0.001531 0.000000 0.000000 0.000000
# 3 -0.007235 -0.001531 0.019059 0.000000 0.000000 0.000000
# 4 0.000000 0.000000 0.000000 0.099513 0.000000 0.000000
# 5 0.000000 0.000000 0.000000 0.000000 0.037098 0.000000
# 6 0.000000 0.000000 0.000000 0.000000 0.000000 0.050124
#
#
# Mechanical properties :
#
#
# Convention : Reuss Voigt Hill
#
# Bulk Modulus (GPa) = 37.88306 43.83813 40.86060
# Shear Modulus (GPa) = 18.04756 22.52972 20.28864
#
# Velocity S-wave (km/s) = 3.05551 3.41391 3.23967
# Velocity P-wave (km/s) = 5.66086 6.18202 5.92717
#
# Compressibility (1/GPa) = 0.02639702
#
# Stress axis : x y z
#
# Youngs Moduli (GPa) = 38.98639 108.16199 52.46926
#
# Poissons Ratio (x) = 0.54218 0.37963
# Poissons Ratio (y) = 0.19543 0.08031
# Poissons Ratio (z) = 0.28208 0.16556
#
# Static dielectric constant tensor:
#      x y z
#    x 1.661320 0.000000 0.000000 
#    y 0.000000 1.649700 0.000000 
#    z 0.000000 0.000000 1.726090 
# 
# From -- ./inp_files/21551.got.cif
#   From: 2010.05.17/outbox.cif.g08.bks.cpg/sg51_11_cif.got.tgz:21551.got - 2010.06.03 11:52:47.
