data_PCOD9400607
_publ_section_title
;
Structure prediction by ZEFSAII (Michael W. Deem and Ramdas Pophale) SiO2 
 PCOD9400607
Probable space group: P M M A
;
_chemical_formula_sum "Si O2"
_cell_formula_units_Z 52
_cell_length_a 7.914274
_cell_length_b 27.963353
_cell_length_c 13.963222
_cell_angle_alpha 90.000000
_cell_angle_beta 90.000000
_cell_angle_gamma 90.000000
_cell_volume 3090.195601
_symmetry_space_group_name_H-M "P M M A"
_symmetry_group_IT_number 51
_symmetry_cell_setting 'orthorhombic'
loop_
_space_group_symop_operation_xyz
x,y,z
1/2-x,-y,z
1/2+x,-y,-z
-x,y,-z
-x,-y,-z
1/2+x,y,-z
1/2-x,y,z
x,-y,z
loop_
_atom_site_type_symbol
_atom_site_label
_atom_site_fract_x
_atom_site_fract_y
_atom_site_fract_z
Si Si1 0.952171 0.247933 0.206935
Si Si2 0.048206 0.151463 0.107371
Si Si3 0.046292 0.551406 0.887421
Si Si4 0.545274 0.000000 0.611719
Si Si5 0.954437 0.655590 0.111970
Si Si6 0.548612 0.902334 0.705807
Si Si7 0.548139 0.806006 0.393122
O O1 0.750000 0.252908 0.215011
O O2 0.019666 0.298443 0.169376
O O3 0.016950 0.229284 0.309648
O O4 0.986063 0.204780 0.133123
O O5 0.250000 0.152374 0.114108
O O6 0.982218 0.116286 0.191292
O O7 0.000000 0.137815 0.000000
O O8 0.250000 0.551265 0.879373
O O9 0.984438 0.500000 0.847960
O O10 0.985520 0.603288 0.851811
O O11 0.000000 0.551379 0.000000
O O12 0.500000 0.000000 0.500000
O O13 0.481551 0.047959 0.664269
O O14 0.750000 0.000000 0.616701
O O15 0.750000 0.655560 0.117404
O O16 0.000000 0.660386 0.000000
O O17 0.750000 0.908159 0.716264
O O18 0.517624 0.858870 0.632562
O O19 0.500000 0.791941 0.500000
O O20 0.750000 0.807780 0.386054
#
# Coordination Sequence:
#
# PCOD9400607 Si02
#       7
#     8   8   8   4   8   8   8
#     4   9  18  30  43  61  84 110 140 173 207 245
#     4  10  19  31  47  65  87 115 144 173 204 240
#     4   8  13  21  33  49  71 101 134 165 197 234
#     4  10  20  34  51  70  90 110 135 170 211 250
#     4   9  16  25  37  55  80 108 137 168 201 236
#     4   9  19  34  50  68  89 113 140 169 203 245
#     4  10  19  31  47  65  86 110 136 168 207 250
#
# _framework density 16.827414000000001
#
# number of rings (size 3 to 8) (size 9 to 14) (size 15 to 20)
#    0.000    2.769    0.000    1.846    0.000    4.923 
#    0.000    0.385    0.000    0.000    0.000    0.000 
#    0.000    0.615    0.000    0.462    0.000    1.231 
#
# Total GULP energy -289638.113429 kJ/mol
# GULP energy per Si atom -5569.963720 kJ/mol
# Density = 1.678911 g / cm^3
# Si number density = 16.827414 Si / 1000 Ang^3
#
#
#
# Elastic Constant Matrix: (Units=GPa)
#
#
# Indices 1 2 3 4 5 6 
#
# 1 10.1136 10.0515 0.1124 0.0000 0.0000 0.0000
# 2 10.0515 178.6110 64.5617 0.0000 0.0000 0.0000
# 3 0.1124 64.5617 89.5044 0.0000 0.0000 0.0000
# 4 0.0000 0.0000 0.0000 18.1652 0.0000 0.0000
# 5 0.0000 0.0000 0.0000 0.0000 19.5494 0.0000
# 6 0.0000 0.0000 0.0000 0.0000 0.0000 -3.3775
#
#
#
# Elastic Compliance Matrix: (Units=1/GPa)
#
#
# Indices 1 2 3 4 5 6 
#
# 1 0.106831 -0.008067 0.005685 0.000000 0.000000 0.000000
# 2 -0.008067 0.008183 -0.005892 0.000000 0.000000 0.000000
# 3 0.005685 -0.005892 0.015416 0.000000 0.000000 0.000000
# 4 0.000000 0.000000 0.000000 0.055050 0.000000 0.000000
# 5 0.000000 0.000000 0.000000 0.000000 0.051153 0.000000
# 6 0.000000 0.000000 0.000000 0.000000 0.000000 -0.296078
#
#
# Mechanical properties :
#
#
# Convention : Reuss Voigt Hill
#
# Bulk Modulus (GPa) = 8.78111 47.52001 28.15056
# Shear Modulus (GPa) = -1012.88531 20.43430 -496.22551
#
# Velocity S-wave (km/s) = -24.56079 3.48853 -17.19102
# Velocity P-wave (km/s) = 28.26801 6.67288 19.42361
#
# Compressibility (1/GPa) = 0.11388082
#
# Stress axis : x y z
#
# Youngs Moduli (GPa) = 9.36055 122.21154 64.86918
#
# Poissons Ratio (x) = 0.98586 -0.36876
# Poissons Ratio (y) = 0.07551 0.38222
# Poissons Ratio (z) = -0.05321 0.72009
#
# Static dielectric constant tensor:
#      x y z
#    x 1.603390 0.000000 0.000000 
#    y 0.000000 1.612250 0.000000 
#    z 0.000000 0.000000 1.561620 
# 
# From -- ./inp_files/14728.got.cif
#   From: 2010.05.17/outbox.cif.g08.bks.cpg/sg51_8_cif.got.tgz:14728.got - 2010.06.03 11:52:47.
