data_PCOD9400073
_publ_section_title
;
Structure prediction by ZEFSAII (Michael W. Deem and Ramdas Pophale) SiO2 
 PCOD9400073
Probable space group: P M M A
;
_chemical_formula_sum "Si O2"
_cell_formula_units_Z 64
_cell_length_a 8.929828
_cell_length_b 26.499936
_cell_length_c 18.752287
_cell_angle_alpha 90.000000
_cell_angle_beta 90.000000
_cell_angle_gamma 90.000000
_cell_volume 4437.538767
_symmetry_space_group_name_H-M "P M M A"
_symmetry_group_IT_number 51
_symmetry_cell_setting 'orthorhombic'
loop_
_space_group_symop_operation_xyz
x,y,z
1/2-x,-y,z
1/2+x,-y,-z
-x,y,-z
-x,-y,-z
1/2+x,y,-z
1/2-x,y,z
x,-y,z
loop_
_atom_site_type_symbol
_atom_site_label
_atom_site_fract_x
_atom_site_fract_y
_atom_site_fract_z
Si Si1 0.578450 0.698238 0.708714
Si Si2 0.070836 0.253078 0.921978
Si Si3 0.423063 0.196151 0.203441
Si Si4 0.570776 0.854933 0.333022
Si Si5 0.427110 0.060022 0.423325
Si Si6 0.927139 0.355104 0.166378
Si Si7 0.568937 0.762398 0.577938
Si Si8 0.571412 0.558617 0.923551
O O1 0.750000 0.680174 0.708051
O O2 0.576360 0.751337 0.751813
O O3 0.478167 0.660570 0.754398
O O4 0.532723 0.714853 0.629383
O O5 0.250000 0.248237 0.925311
O O6 0.036509 0.307092 0.884629
O O7 0.002242 0.210289 0.870479
O O8 0.000000 0.251436 0.000000
O O9 0.250000 0.181390 0.193593
O O10 0.510480 0.157291 0.253873
O O11 0.750000 0.852606 0.335091
O O12 0.509274 0.907388 0.363527
O O13 0.501395 0.811731 0.384536
O O14 0.500000 0.072486 0.500000
O O15 0.250000 0.071701 0.424686
O O16 0.444731 0.000000 0.412263
O O17 0.750000 0.362828 0.163883
O O18 0.010153 0.403636 0.135682
O O19 0.500000 0.756885 0.500000
O O20 0.750000 0.767503 0.576120
O O21 0.750000 0.562831 0.928816
O O22 0.532974 0.500000 0.909033
O O23 0.500000 0.572174 0.000000
#
# Coordination Sequence:
#
# PCOD9400073 Si02
#       8
#     8   8   8   8   8   8   8   8
#     4   8  16  29  43  59  82 111 141 174 210 249
#     4  10  19  29  42  63  88 115 146 177 213 254
#     4   9  17  30  45  61  83 111 143 178 214 252
#     4  11  20  30  45  63  86 115 146 179 215 257
#     4  10  20  33  47  63  85 113 146 183 219 254
#     4  10  19  29  44  63  84 112 144 177 212 252
#     4  10  19  30  44  63  87 115 146 178 212 251
#     4  10  20  32  45  61  83 111 143 179 215 250
#
# _framework density 14.422409999999999
#
# number of rings (size 3 to 8) (size 9 to 14) (size 15 to 20)
#    0.000    2.250    0.000    4.875    0.000    7.500 
#    0.000    0.000    0.000    0.000    0.000    0.000 
#    0.000    1.000    0.000    3.500    0.000    4.875 
#
# Total GULP energy -356916.925594 kJ/mol
# GULP energy per Si atom -5576.826962 kJ/mol
# Density = 1.438958 g / cm^3
# Si number density = 14.422410 Si / 1000 Ang^3
#
#
#
# Elastic Constant Matrix: (Units=GPa)
#
#
# Indices 1 2 3 4 5 6 
#
# 1 85.5574 37.8638 46.5539 0.0000 0.0000 0.0000
# 2 37.8638 44.3396 28.6992 0.0000 0.0000 0.0000
# 3 46.5539 28.6992 92.6034 0.0000 0.0000 0.0000
# 4 0.0000 0.0000 0.0000 23.5986 0.0000 0.0000
# 5 0.0000 0.0000 0.0000 0.0000 26.9718 0.0000
# 6 0.0000 0.0000 0.0000 0.0000 0.0000 20.2138
#
#
#
# Elastic Compliance Matrix: (Units=1/GPa)
#
#
# Indices 1 2 3 4 5 6 
#
# 1 0.021433 -0.014171 -0.006383 0.000000 0.000000 0.000000
# 2 -0.014171 0.037582 -0.004523 0.000000 0.000000 0.000000
# 3 -0.006383 -0.004523 0.015409 0.000000 0.000000 0.000000
# 4 0.000000 0.000000 0.000000 0.042375 0.000000 0.000000
# 5 0.000000 0.000000 0.000000 0.000000 0.037076 0.000000
# 6 0.000000 0.000000 0.000000 0.000000 0.000000 0.049471
#
#
# Mechanical properties :
#
#
# Convention : Reuss Voigt Hill
#
# Bulk Modulus (GPa) = 41.20304 49.85936 45.53120
# Shear Modulus (GPa) = 19.11384 21.44907 20.28146
#
# Velocity S-wave (km/s) = 3.64440 3.86061 3.75406
# Velocity P-wave (km/s) = 6.80732 7.38365 7.10133
#
# Compressibility (1/GPa) = 0.02427005
#
# Stress axis : x y z
#
# Youngs Moduli (GPa) = 46.65796 26.60832 64.89564
#
# Poissons Ratio (x) = 0.37707 0.41422
# Poissons Ratio (y) = 0.66119 0.29354
# Poissons Ratio (z) = 0.29781 0.12035
#
# Static dielectric constant tensor:
#      x y z
#    x 1.481880 0.000000 0.000000 
#    y 0.000000 1.462500 0.000000 
#    z 0.000000 0.000000 1.470190 
# 
# From -- ./inp_files/28609.got.cif
#   From: 2010.05.17/outbox.cif.g08.bks.cpg/sg51_15_cif.got.tgz:28609.got - 2010.06.03 11:52:47.
