data_PCOD9400542
_publ_section_title
;
Structure prediction by ZEFSAII (Michael W. Deem and Ramdas Pophale) SiO2 
 PCOD9400542
Probable space group: P M M A
;
_chemical_formula_sum "Si O2"
_cell_formula_units_Z 64
_cell_length_a 8.798671
_cell_length_b 14.460639
_cell_length_c 27.015174
_cell_angle_alpha 90.000000
_cell_angle_beta 90.000000
_cell_angle_gamma 90.000000
_cell_volume 3437.259590
_symmetry_space_group_name_H-M "P M M A"
_symmetry_group_IT_number 51
_symmetry_cell_setting 'orthorhombic'
loop_
_space_group_symop_operation_xyz
x,y,z
1/2-x,-y,z
1/2+x,-y,-z
-x,y,-z
-x,-y,-z
1/2+x,y,-z
1/2-x,y,z
x,-y,z
loop_
_atom_site_type_symbol
_atom_site_label
_atom_site_fract_x
_atom_site_fract_y
_atom_site_fract_z
Si Si1 0.435262 0.104815 0.697959
Si Si2 0.931101 0.610798 0.745159
Si Si3 0.429137 0.712932 0.949232
Si Si4 0.076585 0.887866 0.807435
Si Si5 0.066758 0.392101 0.552556
Si Si6 0.933443 0.712634 0.349373
Si Si7 0.929476 0.892179 0.910598
Si Si8 0.431256 0.389289 0.144740
O O1 0.250000 0.101865 0.699461
O O2 0.480500 0.138847 0.753019
O O3 0.481636 0.181051 0.658348
O O4 0.488416 0.000000 0.689442
O O5 0.750000 0.627711 0.742379
O O6 0.953365 0.500000 0.742528
O O7 0.983862 0.641049 0.800219
O O8 0.011431 0.657729 0.698900
O O9 0.250000 0.706358 0.951733
O O10 0.479802 0.819587 0.943213
O O11 0.489606 0.660499 0.900810
O O12 0.500000 0.675426 0.000000
O O13 0.250000 0.854275 0.815871
O O14 0.970695 0.867029 0.853738
O O15 0.085127 0.000000 0.804888
O O16 0.250000 0.387371 0.550228
O O17 0.024597 0.500000 0.559717
O O18 0.013254 0.333715 0.599780
O O19 0.000000 0.361303 0.500000
O O20 0.750000 0.709883 0.349791
O O21 0.750000 0.882276 0.918733
O O22 0.971356 0.000000 0.918399
O O23 0.250000 0.372480 0.141869
O O24 0.454065 0.500000 0.141585
#
# Coordination Sequence:
#
# PCOD9400542 Si02
#       8
#     8   8   8   8   8   8   8   8
#     4   8  15  28  46  71 105 141 176 214 259 312
#     4   9  19  35  54  79 112 145 172 205 259 323
#     4  12  26  42  61  83 108 139 180 227 273 325
#     4   8  14  27  47  71 100 134 172 211 252 306
#     4   9  18  32  49  71 101 137 178 227 276 322
#     4  10  19  30  50  80 109 139 180 226 268 310
#     4  10  21  37  57  81 110 143 178 219 269 324
#     4   9  20  41  64  84 111 144 177 218 267 322
#
# _framework density 18.619485000000001
#
# number of rings (size 3 to 8) (size 9 to 14) (size 15 to 20)
#    0.000    2.625    0.000    3.375    1.750    3.250 
#    0.000    2.500    0.000    0.750    0.000    0.000 
#    0.000    0.000    0.000    0.000    0.000    0.000 
#
# Total GULP energy -357125.491008 kJ/mol
# GULP energy per Si atom -5580.085797 kJ/mol
# Density = 1.857711 g / cm^3
# Si number density = 18.619485 Si / 1000 Ang^3
#
#
#
# Elastic Constant Matrix: (Units=GPa)
#
#
# Indices 1 2 3 4 5 6 
#
# 1 33.9295 25.3860 36.8090 0.0000 0.0000 0.0000
# 2 25.3860 64.1452 67.6500 0.0000 0.0000 0.0000
# 3 36.8090 67.6500 157.4298 0.0000 0.0000 0.0000
# 4 0.0000 0.0000 0.0000 28.1203 0.0000 0.0000
# 5 0.0000 0.0000 0.0000 0.0000 26.4225 0.0000
# 6 0.0000 0.0000 0.0000 0.0000 0.0000 20.0422
#
#
#
# Elastic Compliance Matrix: (Units=1/GPa)
#
#
# Indices 1 2 3 4 5 6 
#
# 1 0.044028 -0.012011 -0.005133 0.000000 0.000000 0.000000
# 2 -0.012011 0.031787 -0.010851 0.000000 0.000000 0.000000
# 3 -0.005133 -0.010851 0.012215 0.000000 0.000000 0.000000
# 4 0.000000 0.000000 0.000000 0.035562 0.000000 0.000000
# 5 0.000000 0.000000 0.000000 0.000000 0.037847 0.000000
# 6 0.000000 0.000000 0.000000 0.000000 0.000000 0.049895
#
#
# Mechanical properties :
#
#
# Convention : Reuss Voigt Hill
#
# Bulk Modulus (GPa) = 31.21092 57.24383 44.22738
# Shear Modulus (GPa) = 17.98543 23.29430 20.63986
#
# Velocity S-wave (km/s) = 3.11134 3.54089 3.33304
# Velocity P-wave (km/s) = 5.45033 6.89405 6.21426
#
# Compressibility (1/GPa) = 0.03204006
#
# Stress axis : x y z
#
# Youngs Moduli (GPa) = 22.71277 31.45946 81.86628
#
# Poissons Ratio (x) = 0.37786 0.42022
# Poissons Ratio (y) = 0.27280 0.88833
# Poissons Ratio (z) = 0.11658 0.34137
#
# Static dielectric constant tensor:
#      x y z
#    x 1.620230 0.000000 0.000000 
#    y 0.000000 1.673850 0.000000 
#    z 0.000000 0.000000 1.641020 
# 
# From -- ./inp_files/34834.got.cif
#   From: 2010.05.17/outbox.cif.g08.bks.cpg/sg51_18_cif.got.tgz:34834.got - 2010.06.03 11:52:47.
