data_PCOD9400094
_publ_section_title
;
Structure prediction by ZEFSAII (Michael W. Deem and Ramdas Pophale) SiO2 
 PCOD9400094
Probable space group: P M M A
;
_chemical_formula_sum "Si O2"
_cell_formula_units_Z 64
_cell_length_a 7.674595
_cell_length_b 15.387886
_cell_length_c 29.272559
_cell_angle_alpha 90.000000
_cell_angle_beta 90.000000
_cell_angle_gamma 90.000000
_cell_volume 3456.966067
_symmetry_space_group_name_H-M "P M M A"
_symmetry_group_IT_number 51
_symmetry_cell_setting 'orthorhombic'
loop_
_space_group_symop_operation_xyz
x,y,z
1/2-x,-y,z
1/2+x,-y,-z
-x,y,-z
-x,-y,-z
1/2+x,y,-z
1/2-x,y,z
x,-y,z
loop_
_atom_site_type_symbol
_atom_site_label
_atom_site_fract_x
_atom_site_fract_y
_atom_site_fract_z
Si Si1 0.043129 0.401003 0.451063
Si Si2 0.540870 0.224069 0.949616
Si Si3 0.043504 0.400615 0.648863
Si Si4 0.544980 0.274559 0.273371
Si Si5 0.960490 0.598141 0.807404
Si Si6 0.541996 0.902002 0.235162
Si Si7 0.462516 0.403894 0.086417
Si Si8 0.039235 0.098708 0.130274
O O1 0.250000 0.405635 0.448195
O O2 0.969430 0.500000 0.452779
O O3 0.000000 0.359238 0.500000
O O4 0.979670 0.365595 0.402668
O O5 0.750000 0.226660 0.945349
O O6 0.475240 0.322528 0.942830
O O7 0.475082 0.164060 0.908465
O O8 0.500000 0.190920 0.000000
O O9 0.250000 0.407765 0.657370
O O10 0.972135 0.500000 0.651388
O O11 0.969314 0.334775 0.686408
O O12 0.750000 0.262929 0.283422
O O13 0.529593 0.330108 0.226933
O O14 0.470839 0.178256 0.264744
O O15 0.750000 0.601504 0.805813
O O16 0.014094 0.500000 0.793690
O O17 0.010609 0.610573 0.860352
O O18 0.750000 0.906020 0.242333
O O19 0.513861 0.879483 0.181840
O O20 0.472046 0.000000 0.242849
O O21 0.250000 0.405269 0.085250
O O22 0.522613 0.500000 0.072363
O O23 0.250000 0.099818 0.129411
O O24 0.981395 0.000000 0.121017
#
# Coordination Sequence:
#
# PCOD9400094 Si02
#       8
#     8   8   8   8   8   8   8   8
#     4   9  16  26  41  60  83 115 155 194 227 258
#     4  10  20  32  46  64  85 107 132 165 205 250
#     4   9  17  28  40  57  86 122 155 184 216 257
#     4  10  19  29  43  64  92 123 149 179 223 267
#     4   9  17  29  46  66  86 112 147 181 212 253
#     4   9  18  32  49  69  91 115 146 183 220 260
#     4   8  15  29  46  61  79 106 138 169 202 242
#     4   9  18  33  51  68  85 107 136 169 208 257
#
# _framework density 18.513342999999999
#
# number of rings (size 3 to 8) (size 9 to 14) (size 15 to 20)
#    0.000    2.875    0.000    2.250    0.000    5.250 
#    0.000    1.875    0.000    0.750    0.000    0.000 
#    0.000    0.500    0.000    0.875    0.000    1.250 
#
# Total GULP energy -356805.568119 kJ/mol
# GULP energy per Si atom -5575.087002 kJ/mol
# Density = 1.847121 g / cm^3
# Si number density = 18.513343 Si / 1000 Ang^3
#
#
#
# Elastic Constant Matrix: (Units=GPa)
#
#
# Indices 1 2 3 4 5 6 
#
# 1 32.2960 8.6271 2.8624 0.0000 0.0000 0.0000
# 2 8.6271 102.8069 66.3637 0.0000 0.0000 0.0000
# 3 2.8624 66.3637 72.0247 0.0000 0.0000 0.0000
# 4 0.0000 0.0000 0.0000 15.5711 0.0000 0.0000
# 5 0.0000 0.0000 0.0000 0.0000 14.2619 0.0000
# 6 0.0000 0.0000 0.0000 0.0000 0.0000 6.4320
#
#
#
# Elastic Compliance Matrix: (Units=1/GPa)
#
#
# Indices 1 2 3 4 5 6 
#
# 1 0.031927 -0.004590 0.002961 0.000000 0.000000 0.000000
# 2 -0.004590 0.024664 -0.022543 0.000000 0.000000 0.000000
# 3 0.002961 -0.022543 0.034538 0.000000 0.000000 0.000000
# 4 0.000000 0.000000 0.000000 0.064222 0.000000 0.000000
# 5 0.000000 0.000000 0.000000 0.000000 0.070117 0.000000
# 6 0.000000 0.000000 0.000000 0.000000 0.000000 0.155473
#
#
# Mechanical properties :
#
#
# Convention : Reuss Voigt Hill
#
# Bulk Modulus (GPa) = 23.37342 40.31490 31.84416
# Shear Modulus (GPa) = 11.27273 15.87129 13.57201
#
# Velocity S-wave (km/s) = 2.47026 2.93113 2.71051
# Velocity P-wave (km/s) = 4.55948 5.76877 5.19940
#
# Compressibility (1/GPa) = 0.04278365
#
# Stress axis : x y z
#
# Youngs Moduli (GPa) = 31.32106 40.54447 28.95373
#
# Poissons Ratio (x) = 0.18612 -0.08572
# Poissons Ratio (y) = 0.14378 0.65271
# Poissons Ratio (z) = -0.09273 0.91400
#
# Static dielectric constant tensor:
#      x y z
#    x 1.678070 0.000000 0.000000 
#    y 0.000000 1.667470 0.000000 
#    z 0.000000 0.000000 1.640590 
# 
# From -- ./inp_files/37678.got.cif
#   From: 2010.05.17/outbox.cif.g08.bks.cpg/sg51_19_cif.got.tgz:37678.got - 2010.06.03 11:52:47.
