data_PCOD9400410
_publ_section_title
;
Structure prediction by ZEFSAII (Michael W. Deem and Ramdas Pophale) SiO2 
 PCOD9400410
Probable space group: P M M A
;
_chemical_formula_sum "Si O2"
_cell_formula_units_Z 64
_cell_length_a 9.007470
_cell_length_b 25.288656
_cell_length_c 15.541458
_cell_angle_alpha 90.000000
_cell_angle_beta 90.000000
_cell_angle_gamma 90.000000
_cell_volume 3540.139145
_symmetry_space_group_name_H-M "P M M A"
_symmetry_group_IT_number 51
_symmetry_cell_setting 'orthorhombic'
loop_
_space_group_symop_operation_xyz
x,y,z
1/2-x,-y,z
1/2+x,-y,-z
-x,y,-z
-x,-y,-z
1/2+x,y,-z
1/2-x,y,z
x,-y,z
loop_
_atom_site_type_symbol
_atom_site_label
_atom_site_fract_x
_atom_site_fract_y
_atom_site_fract_z
Si Si1 0.071408 0.560887 0.591357
Si Si2 0.426051 0.939214 0.276839
Si Si3 0.072453 0.093017 0.086556
Si Si4 0.421908 0.212981 0.128089
Si Si5 0.570791 0.653217 0.279257
Si Si6 0.577721 0.237736 0.671085
Si Si7 0.073454 0.139356 0.589404
Si Si8 0.073793 0.678150 0.913248
O O1 0.250000 0.562553 0.582888
O O2 0.028479 0.500000 0.609840
O O3 0.029853 0.601307 0.666860
O O4 0.000000 0.576010 0.500000
O O5 0.750000 0.910663 0.921081
O O6 0.469506 0.933666 0.176666
O O7 0.517713 0.899751 0.335924
O O8 0.443843 0.000000 0.303841
O O9 0.250000 0.074674 0.282507
O O10 0.032998 0.155188 0.096597
O O11 0.000000 0.071607 0.000000
O O12 0.250000 0.222900 0.102652
O O13 0.426725 0.214288 0.231805
O O14 0.523001 0.260755 0.096044
O O15 0.750000 0.659811 0.282601
O O16 0.494099 0.704453 0.321109
O O17 0.528988 0.651876 0.177993
O O18 0.750000 0.240547 0.644609
O O19 0.487099 0.197722 0.612013
O O20 0.250000 0.139438 0.583442
O O21 0.000000 0.122164 0.500000
O O22 0.250000 0.675077 0.921105
O O23 0.000000 0.656434 0.000000
#
# Coordination Sequence:
#
# PCOD9400410 Si02
#       8
#     8   8   8   8   8   8   8   8
#     4   9  18  34  56  80 108 143 184 230 277 326
#     4  10  22  43  65  82 108 145 183 228 278 328
#     4  10  20  34  53  81 111 143 180 220 269 323
#     4   9  17  31  51  74 105 141 178 218 263 319
#     4   9  19  34  52  79 113 149 188 226 272 329
#     4  10  19  35  57  82 114 147 181 220 271 327
#     4  12  25  41  63  87 113 143 180 225 276 333
#     4  10  19  30  46  71 105 143 184 225 268 318
#
# _framework density 18.078385000000001
#
# number of rings (size 3 to 8) (size 9 to 14) (size 15 to 20)
#    0.000    2.125    1.250    2.250    0.000    4.750 
#    0.000    1.250    0.000    0.375    0.000    0.000 
#    0.000    0.000    0.000    0.000    0.000    0.375 
#
# Total GULP energy -357284.696714 kJ/mol
# GULP energy per Si atom -5582.573386 kJ/mol
# Density = 1.803724 g / cm^3
# Si number density = 18.078385 Si / 1000 Ang^3
#
#
#
# Elastic Constant Matrix: (Units=GPa)
#
#
# Indices 1 2 3 4 5 6 
#
# 1 65.4248 40.9511 52.3850 0.0000 0.0000 0.0000
# 2 40.9511 75.0267 56.9579 0.0000 0.0000 0.0000
# 3 52.3850 56.9579 114.0634 0.0000 0.0000 0.0000
# 4 0.0000 0.0000 0.0000 0.0026 0.0000 0.0000
# 5 0.0000 0.0000 0.0000 0.0000 32.0801 0.0000
# 6 0.0000 0.0000 0.0000 0.0000 0.0000 10.7490
#
#
#
# Elastic Compliance Matrix: (Units=1/GPa)
#
#
# Indices 1 2 3 4 5 6 
#
# 1 0.027271 -0.008660 -0.008200 0.000000 0.000000 0.000000
# 2 -0.008660 0.024216 -0.008115 0.000000 0.000000 0.000000
# 3 -0.008200 -0.008115 0.016586 0.000000 0.000000 0.000000
# 4 0.000000 0.000000 0.000000380.832927 0.000000 0.000000
# 5 0.000000 0.000000 0.000000 0.000000 0.031172 0.000000
# 6 0.000000 0.000000 0.000000 0.000000 0.000000 0.093032
#
#
# Mechanical properties :
#
#
# Convention : Reuss Voigt Hill
#
# Bulk Modulus (GPa) = 55.18135 61.67811 58.42973
# Shear Modulus (GPa) = 0.01312 15.51440 7.76376
#
# Velocity S-wave (km/s) = 0.08528 2.93264 2.07457
# Velocity P-wave (km/s) = 5.53167 6.75709 6.17485
#
# Compressibility (1/GPa) = 0.01812206
#
# Stress axis : x y z
#
# Youngs Moduli (GPa) = 36.66910 41.29487 60.29339
#
# Poissons Ratio (x) = 0.35760 0.49442
# Poissons Ratio (y) = 0.31754 0.48930
# Poissons Ratio (z) = 0.30070 0.33512
#
# Static dielectric constant tensor:
#      x y z
#    x 1.607450 0.000000 0.000000 
#    y 0.000000 1.601110 0.000000 
#    z 0.000000 0.000000 1.640060 
# 
# From -- ./inp_files/22209.got.cif
#   From: 2010.05.17/outbox.cif.g08.bks.cpg/sg51_12_cif.got.tgz:22209.got - 2010.06.03 11:52:47.
