data_PCOD9400581
_publ_section_title
;
Structure prediction by ZEFSAII (Michael W. Deem and Ramdas Pophale) SiO2 
 PCOD9400581
Probable space group: P M M A
;
_chemical_formula_sum "Si O2"
_cell_formula_units_Z 52
_cell_length_a 9.948515
_cell_length_b 16.214152
_cell_length_c 18.937508
_cell_angle_alpha 90.000000
_cell_angle_beta 90.000000
_cell_angle_gamma 90.000000
_cell_volume 3054.747573
_symmetry_space_group_name_H-M "P M M A"
_symmetry_group_IT_number 51
_symmetry_cell_setting 'orthorhombic'
loop_
_space_group_symop_operation_xyz
x,y,z
1/2-x,-y,z
1/2+x,-y,-z
-x,y,-z
-x,-y,-z
1/2+x,y,-z
1/2-x,y,z
x,-y,z
loop_
_atom_site_type_symbol
_atom_site_label
_atom_site_fract_x
_atom_site_fract_y
_atom_site_fract_z
Si Si1 0.998294 0.292662 0.082897
Si Si2 0.909939 0.740791 0.221939
Si Si3 0.250000 0.589290 0.923343
Si Si4 0.909734 0.321383 0.565107
Si Si5 0.093538 0.000000 0.567792
Si Si6 0.593150 0.596486 0.716605
Si Si7 0.750000 0.592948 0.908453
Si Si8 0.091609 0.178774 0.630485
O O1 0.967815 0.229638 0.146211
O O2 0.878894 0.357641 0.091457
O O3 0.125117 0.347788 0.102924
O O4 0.000000 0.265937 0.000000
O O5 0.750000 0.726038 0.217129
O O6 0.930029 0.803242 0.286759
O O7 0.990597 0.658198 0.244859
O O8 0.250000 0.500000 0.888945
O O9 0.250000 0.579608 0.007457
O O10 0.750000 0.309091 0.548733
O O11 0.915924 0.380944 0.633344
O O12 0.000000 0.353400 0.500000
O O13 0.987472 0.237406 0.588688
O O14 0.070451 0.916122 0.610993
O O15 0.000000 0.000000 0.500000
O O16 0.250000 0.000000 0.546084
O O17 0.750000 0.612063 0.737438
O O18 0.563927 0.500000 0.728372
O O19 0.750000 0.500000 0.877250
O O20 0.250000 0.199601 0.614719
#
# Coordination Sequence:
#
# PCOD9400581 Si02
#       8
#     8   8   4   8   4   8   4   8
#     4  10  19  31  46  65  90 123 165 207 250 297
#     4  10  20  35  50  69  96 129 164 206 250 292
#     4   9  16  28  42  60  88 117 155 208 258 299
#     4  10  19  32  51  73  98 129 163 200 242 284
#     4  10  20  34  56  86 111 132 156 186 229 290
#     4   9  20  36  49  65  92 127 168 209 248 290
#     4   9  18  28  40  60  88 121 157 206 260 299
#     4   9  19  35  54  75 104 132 159 192 237 293
#
# _framework density 17.022684000000002
#
# number of rings (size 3 to 8) (size 9 to 14) (size 15 to 20)
#    0.000    2.462    0.769    1.385    1.077    6.154 
#    0.000    0.000    0.000    0.000    0.000    0.538 
#    0.000    0.000    0.000    0.000    0.000    0.000 
#
# Total GULP energy -289543.105943 kJ/mol
# GULP energy per Si atom -5568.136653 kJ/mol
# Density = 1.698394 g / cm^3
# Si number density = 17.022684 Si / 1000 Ang^3
#
#
#
# Elastic Constant Matrix: (Units=GPa)
#
#
# Indices 1 2 3 4 5 6 
#
# 1 106.8438 26.7282 45.9767 0.0000 0.0000 0.0000
# 2 26.7282 62.3503 31.6325 0.0000 0.0000 0.0000
# 3 45.9767 31.6325 126.7359 0.0000 0.0000 0.0000
# 4 0.0000 0.0000 0.0000 13.0080 0.0000 0.0000
# 5 0.0000 0.0000 0.0000 0.0000 35.6019 0.0000
# 6 0.0000 0.0000 0.0000 0.0000 0.0000 18.7904
#
#
#
# Elastic Compliance Matrix: (Units=1/GPa)
#
#
# Indices 1 2 3 4 5 6 
#
# 1 0.011642 -0.003261 -0.003410 0.000000 0.000000 0.000000
# 2 -0.003261 0.019277 -0.003628 0.000000 0.000000 0.000000
# 3 -0.003410 -0.003628 0.010033 0.000000 0.000000 0.000000
# 4 0.000000 0.000000 0.000000 0.076876 0.000000 0.000000
# 5 0.000000 0.000000 0.000000 0.000000 0.028088 0.000000
# 6 0.000000 0.000000 0.000000 0.000000 0.000000 0.053219
#
#
# Mechanical properties :
#
#
# Convention : Reuss Voigt Hill
#
# Bulk Modulus (GPa) = 49.12946 56.06719 52.59833
# Shear Modulus (GPa) = 22.07323 26.25291 24.16307
#
# Velocity S-wave (km/s) = 3.60487 3.93138 3.77166
# Velocity P-wave (km/s) = 6.80078 7.32229 7.06635
#
# Compressibility (1/GPa) = 0.02035438
#
# Stress axis : x y z
#
# Youngs Moduli (GPa) = 85.89235 51.87476 99.67099
#
# Poissons Ratio (x) = 0.16916 0.33985
# Poissons Ratio (y) = 0.28010 0.36165
# Poissons Ratio (z) = 0.29286 0.18823
#
# Static dielectric constant tensor:
#      x y z
#    x 1.352920 0.000000 0.000000 
#    y 0.000000 1.554130 0.000000 
#    z 0.000000 0.000000 1.648190 
# 
# From -- ./inp_files/31840.got.cif
#   From: 2010.05.17/outbox.cif.g08.bks.cpg/sg51_16_cif.got.tgz:31840.got - 2010.06.03 11:52:47.
