data_PCOD9400102
_publ_section_title
;
Structure prediction by ZEFSAII (Michael W. Deem and Ramdas Pophale) SiO2 
 PCOD9400102
Probable space group: P M M A
;
_chemical_formula_sum "Si O2"
_cell_formula_units_Z 48
_cell_length_a 9.205022
_cell_length_b 13.735546
_cell_length_c 24.104297
_cell_angle_alpha 90.000000
_cell_angle_beta 90.000000
_cell_angle_gamma 90.000000
_cell_volume 3047.650971
_symmetry_space_group_name_H-M "P M M A"
_symmetry_group_IT_number 51
_symmetry_cell_setting 'orthorhombic'
loop_
_space_group_symop_operation_xyz
x,y,z
1/2-x,-y,z
1/2+x,-y,-z
-x,y,-z
-x,-y,-z
1/2+x,y,-z
1/2-x,y,z
x,-y,z
loop_
_atom_site_type_symbol
_atom_site_label
_atom_site_fract_x
_atom_site_fract_y
_atom_site_fract_z
Si Si1 0.920248 0.617375 0.668540
Si Si2 0.077512 0.705851 0.774976
Si Si3 0.422733 0.112220 0.173805
Si Si4 0.422948 0.387862 0.894249
Si Si5 0.422033 0.795536 0.055067
Si Si6 0.417727 0.618533 0.555735
O O1 0.750000 0.642233 0.667057
O O2 0.931905 0.500000 0.672351
O O3 0.997608 0.663203 0.721654
O O4 0.998727 0.647975 0.611532
O O5 0.250000 0.709540 0.765874
O O6 0.051279 0.639004 0.829551
O O7 0.013980 0.811290 0.790653
O O8 0.250000 0.127195 0.183521
O O9 0.449068 0.138193 0.109143
O O10 0.457904 0.000000 0.184788
O O11 0.250000 0.375294 0.904349
O O12 0.461381 0.500000 0.904929
O O13 0.512030 0.310235 0.929883
O O14 0.250000 0.788641 0.046417
O O15 0.500000 0.832746 0.000000
O O16 0.500000 0.650527 0.500000
O O17 0.250000 0.649686 0.556194
O O18 0.418179 0.500000 0.555052
#
# Coordination Sequence:
#
# PCOD9400102 Si02
#       6
#     8   8   8   8   8   8
#     4  10  19  29  43  65  94 129 165 196 228 269
#     4  10  19  31  48  70  94 118 149 190 232 275
#     4   9  19  36  54  70  90 116 145 181 228 279
#     4   9  18  32  48  65  88 119 151 183 221 264
#     4  10  20  33  49  69  91 115 145 181 221 267
#     4   9  16  26  40  59  87 124 164 202 236 269
#
# _framework density 15.749834999999999
#
# number of rings (size 3 to 8) (size 9 to 14) (size 15 to 20)
#    0.000    2.500    0.000    2.500    0.000    6.333 
#    0.000    0.000    0.000    0.000    0.000    0.000 
#    0.000    0.667    0.000    2.500    0.000    3.833 
#
# Total GULP energy -267761.726234 kJ/mol
# GULP energy per Si atom -5578.369297 kJ/mol
# Density = 1.571399 g / cm^3
# Si number density = 15.749835 Si / 1000 Ang^3
#
#
#
# Elastic Constant Matrix: (Units=GPa)
#
#
# Indices 1 2 3 4 5 6 
#
# 1 90.6307 17.8258 57.6485 0.0000 0.0000 0.0000
# 2 17.8258 31.1349 -2.8691 0.0000 0.0000 0.0000
# 3 57.6485 -2.8691 87.4761 0.0000 0.0000 0.0000
# 4 0.0000 0.0000 0.0000 9.0765 0.0000 0.0000
# 5 0.0000 0.0000 0.0000 0.0000 33.2841 0.0000
# 6 0.0000 0.0000 0.0000 0.0000 0.0000 19.4298
#
#
#
# Elastic Compliance Matrix: (Units=1/GPa)
#
#
# Indices 1 2 3 4 5 6 
#
# 1 0.024928 -0.015834 -0.016947 0.000000 0.000000 0.000000
# 2 -0.015834 0.042273 0.011821 0.000000 0.000000 0.000000
# 3 -0.016947 0.011821 0.022988 0.000000 0.000000 0.000000
# 4 0.000000 0.000000 0.000000 0.110174 0.000000 0.000000
# 5 0.000000 0.000000 0.000000 0.000000 0.030044 0.000000
# 6 0.000000 0.000000 0.000000 0.000000 0.000000 0.051467
#
#
# Mechanical properties :
#
#
# Convention : Reuss Voigt Hill
#
# Bulk Modulus (GPa) = 20.71714 39.38355 30.05035
# Shear Modulus (GPa) = 14.71089 21.46719 18.08904
#
# Velocity S-wave (km/s) = 3.05951 3.69590 3.39266
# Velocity P-wave (km/s) = 5.06589 6.57821 5.87095
#
# Compressibility (1/GPa) = 0.04826920
#
# Stress axis : x y z
#
# Youngs Moduli (GPa) = 40.11565 23.65582 43.50090
#
# Poissons Ratio (x) = 0.37456 0.73722
# Poissons Ratio (y) = 0.63518 -0.51423
# Poissons Ratio (z) = 0.67985 -0.27964
#
# Static dielectric constant tensor:
#      x y z
#    x 1.522860 0.000000 0.000000 
#    y 0.000000 1.496000 0.000000 
#    z 0.000000 0.000000 1.515340 
# 
# From -- ./inp_files/31567.got.cif
#   From: 2010.05.17/outbox.cif.g08.bks.cpg/sg51_16_cif.got.tgz:31567.got - 2010.06.03 11:52:47.
