data_PCOD9400091
_publ_section_title
;
Structure prediction by ZEFSAII (Michael W. Deem and Ramdas Pophale) SiO2 
 PCOD9400091
Probable space group: P M M A
;
_chemical_formula_sum "Si O2"
_cell_formula_units_Z 48
_cell_length_a 30.459573
_cell_length_b 7.968189
_cell_length_c 10.527304
_cell_angle_alpha 90.000000
_cell_angle_beta 90.000000
_cell_angle_gamma 90.000000
_cell_volume 2555.057052
_symmetry_space_group_name_H-M "P M M A"
_symmetry_group_IT_number 51
_symmetry_cell_setting 'orthorhombic'
loop_
_space_group_symop_operation_xyz
x,y,z
1/2-x,-y,z
1/2+x,-y,-z
-x,y,-z
-x,-y,-z
1/2+x,y,-z
1/2-x,y,z
x,-y,z
loop_
_atom_site_type_symbol
_atom_site_label
_atom_site_fract_x
_atom_site_fract_y
_atom_site_fract_z
Si Si1 0.178101 0.188582 0.059677
Si Si2 0.106011 0.500000 0.776472
Si Si3 0.957853 0.190018 0.790052
Si Si4 0.080102 0.189957 0.940355
Si Si5 0.477145 0.500000 0.364062
Si Si6 0.203153 0.500000 0.895572
Si Si7 0.381047 0.500000 0.479288
Si Si8 0.359125 0.810800 0.329799
O O1 0.128742 0.185916 0.002507
O O2 0.201413 0.336113 0.984890
O O3 0.172142 0.223699 0.209283
O O4 0.196033 0.000000 0.043629
O O5 0.083109 0.335913 0.837089
O O6 0.157729 0.500000 0.816908
O O7 0.105599 0.500000 0.625349
O O8 0.951287 0.227256 0.939424
O O9 0.984933 0.332659 0.718037
O O10 0.908758 0.189231 0.728459
O O11 0.974747 0.000000 0.775972
O O12 0.070888 0.000000 0.894386
O O13 0.500000 0.500000 0.500000
O O14 0.425569 0.500000 0.397198
O O15 0.250000 0.500000 0.824706
O O16 0.356223 0.668139 0.435546
O O17 0.350904 0.000000 0.376432
#
# Coordination Sequence:
#
# PCOD9400091 Si02
#       8
#     8   4   8   8   4   4   4   8
#     4   8  14  26  45  67  87 106 135 179 222 253
#     4  10  19  29  43  64  90 119 149 178 208 252
#     4   8  14  26  45  66  85 108 140 179 224 267
#     4   8  14  26  45  66  84 107 145 188 221 248
#     4  10  19  29  43  65  90 114 143 184 232 275
#     4  10  19  29  43  65  91 116 140 170 211 255
#     4  10  19  29  43  64  90 121 152 178 212 262
#     4   8  14  26  45  67  87 106 135 178 221 257
#
# _framework density 18.786273999999999
#
# number of rings (size 3 to 8) (size 9 to 14) (size 15 to 20)
#    0.000    3.333    0.000    3.000    0.000    5.333 
#    0.000    0.000    0.000    4.000    0.000    2.333 
#    0.000    0.000    0.000    0.000    0.000    0.000 
#
# Total GULP energy -267425.203155 kJ/mol
# GULP energy per Si atom -5571.358399 kJ/mol
# Density = 1.874352 g / cm^3
# Si number density = 18.786274 Si / 1000 Ang^3
#
#
#
# Elastic Constant Matrix: (Units=GPa)
#
#
# Indices 1 2 3 4 5 6 
#
# 1 47.8708 18.4315 7.7169 0.0000 0.0000 0.0000
# 2 18.4315 129.7112 80.1031 0.0000 0.0000 0.0000
# 3 7.7169 80.1031 94.5428 0.0000 0.0000 0.0000
# 4 0.0000 0.0000 0.0000 10.8069 0.0000 0.0000
# 5 0.0000 0.0000 0.0000 0.0000 10.2900 0.0000
# 6 0.0000 0.0000 0.0000 0.0000 0.0000 -17.0093
#
#
#
# Elastic Compliance Matrix: (Units=1/GPa)
#
#
# Indices 1 2 3 4 5 6 
#
# 1 0.022245 -0.004278 0.001809 0.000000 0.000000 0.000000
# 2 -0.004278 0.016993 -0.014048 0.000000 0.000000 0.000000
# 3 0.001809 -0.014048 0.022332 0.000000 0.000000 0.000000
# 4 0.000000 0.000000 0.000000 0.092534 0.000000 0.000000
# 5 0.000000 0.000000 0.000000 0.000000 0.097182 0.000000
# 6 0.000000 0.000000 0.000000 0.000000 0.000000 -0.058791
#
#
# Mechanical properties :
#
#
# Convention : Reuss Voigt Hill
#
# Bulk Modulus (GPa) = 35.04427 53.84754 44.44591
# Shear Modulus (GPa) = 21.27287 11.87574 16.57430
#
# Velocity S-wave (km/s) = 3.36871 2.51699 2.97350
# Velocity P-wave (km/s) = 5.81598 6.09692 5.95811
#
# Compressibility (1/GPa) = 0.02853534
#
# Stress axis : x y z
#
# Youngs Moduli (GPa) = 44.95372 58.84830 44.77830
#
# Poissons Ratio (x) = 0.25176 -0.08100
# Poissons Ratio (y) = 0.19231 0.62906
# Poissons Ratio (z) = -0.08132 0.82672
#
# Static dielectric constant tensor:
#      x y z
#    x 1.704350 0.000000 0.000000 
#    y 0.000000 1.669910 0.000000 
#    z 0.000000 0.000000 1.608760 
# 
# From -- ./inp_files/13019.got.cif
#   From: 2010.05.17/outbox.cif.g08.bks.cpg/sg51_7_cif.got.tgz:13019.got - 2010.06.03 11:52:47.
