data_PCOD9400634
_publ_section_title
;
Structure prediction by ZEFSAII (Michael W. Deem and Ramdas Pophale) SiO2 
 PCOD9400634
Probable space group: P M M A
;
_chemical_formula_sum "Si O2"
_cell_formula_units_Z 40
_cell_length_a 21.089698
_cell_length_b 7.548859
_cell_length_c 13.131441
_cell_angle_alpha 90.000000
_cell_angle_beta 90.000000
_cell_angle_gamma 90.000000
_cell_volume 2090.566857
_symmetry_space_group_name_H-M "P M M A"
_symmetry_group_IT_number 51
_symmetry_cell_setting 'orthorhombic'
loop_
_space_group_symop_operation_xyz
x,y,z
1/2-x,-y,z
1/2+x,-y,-z
-x,y,-z
-x,-y,-z
1/2+x,y,-z
1/2-x,y,z
x,-y,z
loop_
_atom_site_type_symbol
_atom_site_label
_atom_site_fract_x
_atom_site_fract_y
_atom_site_fract_z
Si Si1 0.424279 0.205654 0.023649
Si Si2 0.954566 0.785696 0.760049
Si Si3 0.068700 0.290058 0.467415
Si Si4 0.320855 0.710498 0.611771
Si Si5 0.597982 0.785688 0.195082
O O1 0.419782 0.280908 0.137441
O O2 0.404227 0.000000 0.029949
O O3 0.500000 0.206730 0.000000
O O4 0.393583 0.281018 0.920907
O O5 0.924653 0.733800 0.653188
O O6 0.028393 0.726614 0.765072
O O7 0.955469 0.000000 0.765499
O O8 0.066478 0.500000 0.489087
O O9 0.126673 0.216070 0.533438
O O10 0.000000 0.215325 0.500000
O O11 0.250000 0.784015 0.601740
O O12 0.316727 0.500000 0.593188
O O13 0.348947 0.734730 0.724624
O O14 0.595645 0.000000 0.190254
#
# Coordination Sequence:
#
# PCOD9400634 Si02
#       5
#     8   8   8   8   8
#     4   7  12  24  42  67  96 120 141 174 224 274
#     4   9  16  27  47  73  97 121 151 190 234 277
#     4  10  19  31  47  67  93 124 160 199 235 276
#     4  10  21  35  48  64  92 128 159 192 239 285
#     4   9  16  28  48  71  95 121 152 189 230 278
#
# _framework density 19.133565000000001
#
# number of rings (size 3 to 8) (size 9 to 14) (size 15 to 20)
#    0.000    3.000    2.000    2.400    0.000    1.600 
#    0.000    1.000    0.000    4.800    0.000    5.600 
#    0.000    0.000    0.000    0.000    0.000    0.000 
#
# Total GULP energy -222840.057920 kJ/mol
# GULP energy per Si atom -5571.001448 kJ/mol
# Density = 1.909002 g / cm^3
# Si number density = 19.133565 Si / 1000 Ang^3
#
#
#
# Elastic Constant Matrix: (Units=GPa)
#
#
# Indices 1 2 3 4 5 6 
#
# 1 117.9194 11.7529 88.4912 0.0000 0.0000 0.0000
# 2 11.7529 45.4610 -7.3825 0.0000 0.0000 0.0000
# 3 88.4912 -7.3825 174.7784 0.0000 0.0000 0.0000
# 4 0.0000 0.0000 0.0000 27.7647 0.0000 0.0000
# 5 0.0000 0.0000 0.0000 0.0000 14.4449 0.0000
# 6 0.0000 0.0000 0.0000 0.0000 0.0000 7.5970
#
#
#
# Elastic Compliance Matrix: (Units=1/GPa)
#
#
# Indices 1 2 3 4 5 6 
#
# 1 0.014749 -0.005060 -0.007681 0.000000 0.000000 0.000000
# 2 -0.005060 0.023885 0.003571 0.000000 0.000000 0.000000
# 3 -0.007681 0.003571 0.009761 0.000000 0.000000 0.000000
# 4 0.000000 0.000000 0.000000 0.036017 0.000000 0.000000
# 5 0.000000 0.000000 0.000000 0.000000 0.069229 0.000000
# 6 0.000000 0.000000 0.000000 0.000000 0.000000 0.131631
#
#
# Mechanical properties :
#
#
# Convention : Reuss Voigt Hill
#
# Bulk Modulus (GPa) = 33.27329 58.20912 45.74120
# Shear Modulus (GPa) = 15.94227 26.31445 21.12836
#
# Velocity S-wave (km/s) = 2.88967 3.71253 3.32664
# Velocity P-wave (km/s) = 5.34428 6.99040 6.22202
#
# Compressibility (1/GPa) = 0.03005414
#
# Stress axis : x y z
#
# Youngs Moduli (GPa) = 67.80089 41.86723 102.44386
#
# Poissons Ratio (x) = 0.21187 0.78690
# Poissons Ratio (y) = 0.34310 -0.36583
# Poissons Ratio (z) = 0.52080 -0.14951
#
# Static dielectric constant tensor:
#      x y z
#    x 1.646120 0.000000 0.000000 
#    y 0.000000 1.726300 0.000000 
#    z 0.000000 0.000000 1.704550 
# 
# From -- ./inp_files/17899.got.cif
#   From: 2010.05.17/outbox.cif.g08.bks.cpg/sg51_9_cif.got.tgz:17899.got - 2010.06.03 11:52:47.
