data_PCOD9400664
_publ_section_title
;
Structure prediction by ZEFSAII (Michael W. Deem and Ramdas Pophale) SiO2 
 PCOD9400664
Probable space group: P M M A
;
_chemical_formula_sum "Si O2"
_cell_formula_units_Z 40
_cell_length_a 8.351184
_cell_length_b 27.097816
_cell_length_c 9.852644
_cell_angle_alpha 90.000000
_cell_angle_beta 90.000000
_cell_angle_gamma 90.000000
_cell_volume 2229.641981
_symmetry_space_group_name_H-M "P M M A"
_symmetry_group_IT_number 51
_symmetry_cell_setting 'orthorhombic'
loop_
_space_group_symop_operation_xyz
x,y,z
1/2-x,-y,z
1/2+x,-y,-z
-x,y,-z
-x,-y,-z
1/2+x,y,-z
1/2-x,y,z
x,-y,z
loop_
_atom_site_type_symbol
_atom_site_label
_atom_site_fract_x
_atom_site_fract_y
_atom_site_fract_z
Si Si1 0.056505 0.088158 0.347988
Si Si2 0.556322 0.000000 0.845648
Si Si3 0.558269 0.713703 0.154989
Si Si4 0.441281 0.200160 0.348691
Si Si5 0.443486 0.606117 0.843451
Si Si6 0.443850 0.500000 0.842839
O O1 0.250000 0.087830 0.348647
O O2 0.001730 0.048224 0.238150
O O3 0.002128 0.144187 0.317234
O O4 0.000000 0.075444 0.500000
O O5 0.750000 0.000000 0.845257
O O6 0.500000 0.000000 0.000000
O O7 0.750000 0.713891 0.154553
O O8 0.499098 0.758963 0.244114
O O9 0.503175 0.659643 0.210406
O O10 0.500000 0.718273 0.000000
O O11 0.500000 0.212069 0.500000
O O12 0.250000 0.199497 0.348139
O O13 0.250000 0.605957 0.840640
O O14 0.497907 0.553105 0.783907
O O15 0.500000 0.605990 0.000000
O O16 0.250000 0.500000 0.841111
O O17 0.500000 0.500000 0.000000
#
# Coordination Sequence:
#
# PCOD9400664 Si02
#       6
#     8   4   8   8   8   4
#     4   9  19  35  55  76  98 125 161 199 237 282
#     4  10  21  36  52  76 106 132 159 194 234 280
#     4  10  19  31  47  70  99 131 163 199 243 291
#     4  10  20  35  53  74  98 127 163 203 243 288
#     4   8  14  23  37  58  86 118 153 190 233 281
#     4   8  12  20  34  54  81 114 149 188 230 276
#
# _framework density 17.940100000000001
#
# number of rings (size 3 to 8) (size 9 to 14) (size 15 to 20)
#    0.000    2.800    0.000    1.500    0.000    3.200 
#    0.000    2.000    0.000    0.000    0.000    0.700 
#    0.000    0.000    0.000    0.000    0.000    0.000 
#
# Total GULP energy -222713.940869 kJ/mol
# GULP energy per Si atom -5567.848522 kJ/mol
# Density = 1.789927 g / cm^3
# Si number density = 17.940100 Si / 1000 Ang^3
#
#
#
# Elastic Constant Matrix: (Units=GPa)
#
#
# Indices 1 2 3 4 5 6 
#
# 1 17.3816 25.3762 13.6572 0.0000 0.0000 0.0000
# 2 25.3762 190.9455 105.0648 0.0000 0.0000 0.0000
# 3 13.6572 105.0648 82.0844 0.0000 0.0000 0.0000
# 4 0.0000 0.0000 0.0000 -21.4719 0.0000 0.0000
# 5 0.0000 0.0000 0.0000 0.0000 26.2657 0.0000
# 6 0.0000 0.0000 0.0000 0.0000 0.0000 19.7620
#
#
#
# Elastic Compliance Matrix: (Units=1/GPa)
#
#
# Indices 1 2 3 4 5 6 
#
# 1 0.071402 -0.009984 0.000899 0.000000 0.000000 0.000000
# 2 -0.009984 0.019106 -0.022793 0.000000 0.000000 0.000000
# 3 0.000899 -0.022793 0.041207 0.000000 0.000000 0.000000
# 4 0.000000 0.000000 0.000000 -0.046573 0.000000 0.000000
# 5 0.000000 0.000000 0.000000 0.000000 0.038072 0.000000
# 6 0.000000 0.000000 0.000000 0.000000 0.000000 0.050602
#
#
# Mechanical properties :
#
#
# Convention : Reuss Voigt Hill
#
# Bulk Modulus (GPa) = 14.71482 64.28973 39.50227
# Shear Modulus (GPa) = 19.21412 14.66540 16.93976
#
# Velocity S-wave (km/s) = 3.27619 2.86224 3.07618
# Velocity P-wave (km/s) = 4.74670 6.84374 5.88931
#
# Compressibility (1/GPa) = 0.06795870
#
# Stress axis : x y z
#
# Youngs Moduli (GPa) = 14.00530 52.34080 24.26745
#
# Poissons Ratio (x) = 0.52256 -0.02182
# Poissons Ratio (y) = 0.13983 0.55313
# Poissons Ratio (z) = -0.01259 1.19302
#
# Static dielectric constant tensor:
#      x y z
#    x 1.634420 0.000000 0.000000 
#    y 0.000000 1.696180 0.000000 
#    z 0.000000 0.000000 1.557180 
# 
# From -- ./inp_files/5555.got.cif
#   From: 2010.05.17/outbox.cif.g08.bks.cpg/sg51_3_cif.got.tgz:5555.got - 2010.06.03 11:52:47.
