data_PCOD9400860
_publ_section_title
;
Structure prediction by ZEFSAII (Michael W. Deem and Ramdas Pophale) SiO2 
 PCOD9400860
Probable space group: P M M A
;
_chemical_formula_sum "Si O2"
_cell_formula_units_Z 48
_cell_length_a 16.796182
_cell_length_b 7.551177
_cell_length_c 17.149904
_cell_angle_alpha 90.000000
_cell_angle_beta 90.000000
_cell_angle_gamma 90.000000
_cell_volume 2175.138500
_symmetry_space_group_name_H-M "P M M A"
_symmetry_group_IT_number 51
_symmetry_cell_setting 'orthorhombic'
loop_
_space_group_symop_operation_xyz
x,y,z
1/2-x,-y,z
1/2+x,-y,-z
-x,y,-z
-x,-y,-z
1/2+x,y,-z
1/2-x,y,z
x,-y,z
loop_
_atom_site_type_symbol
_atom_site_label
_atom_site_fract_x
_atom_site_fract_y
_atom_site_fract_z
Si Si1 0.404790 0.286783 0.309460
Si Si2 0.658795 0.788434 0.525291
Si Si3 0.845105 0.205701 0.357199
Si Si4 0.250000 0.716215 0.216246
Si Si5 0.445118 0.703117 0.783931
Si Si6 0.917148 0.283451 0.042394
Si Si7 0.750000 0.283546 0.963883
O O1 0.406777 0.500000 0.306110
O O2 0.395609 0.243795 0.400233
O O3 0.327030 0.224529 0.263510
O O4 0.480902 0.216680 0.263176
O O5 0.750000 0.722752 0.540141
O O6 0.627869 0.721105 0.441489
O O7 0.664843 0.000000 0.515754
O O8 0.750000 0.213160 0.360909
O O9 0.875504 0.296168 0.279446
O O10 0.869213 0.000000 0.350729
O O11 0.250000 0.500000 0.216311
O O12 0.250000 0.771080 0.126531
O O13 0.467733 0.500000 0.801650
O O14 0.422205 0.778168 0.867749
O O15 0.914963 0.500000 0.039576
O O16 0.833352 0.226210 0.003709
O O17 0.000000 0.231146 0.000000
O O18 0.750000 0.500000 0.966018
#
# Coordination Sequence:
#
# PCOD9400860 Si02
#       7
#     8   8   8   4   8   8   4
#     4  10  19  31  49  76 108 138 166 206 263 313
#     4   9  18  34  54  75  99 132 177 220 255 301
#     4   9  20  38  56  73  99 138 179 216 258 309
#     4   9  16  28  47  72 103 136 170 205 251 311
#     4  10  21  33  50  79 110 136 169 216 262 306
#     4   9  17  30  47  72 107 137 167 212 258 303
#     4   9  16  26  46  70  95 136 174 201 251 311
#
# _framework density 22.067561999999999
#
# number of rings (size 3 to 8) (size 9 to 14) (size 15 to 20)
#    0.000    2.667    0.833    2.000    1.167    6.333 
#    0.000    5.000    0.000    0.500    0.000    2.333 
#    0.000    0.000    0.000    0.000    0.000    0.000 
#
# Total GULP energy -267831.422481 kJ/mol
# GULP energy per Si atom -5579.821302 kJ/mol
# Density = 2.201733 g / cm^3
# Si number density = 22.067562 Si / 1000 Ang^3
#
#
#
# Elastic Constant Matrix: (Units=GPa)
#
#
# Indices 1 2 3 4 5 6 
#
# 1 95.6623 4.4198 73.0923 0.0000 0.0000 0.0000
# 2 4.4198 49.2975 2.7171 0.0000 0.0000 0.0000
# 3 73.0923 2.7171 211.0366 0.0000 0.0000 0.0000
# 4 0.0000 0.0000 0.0000 27.7042 0.0000 0.0000
# 5 0.0000 0.0000 0.0000 0.0000 26.4255 0.0000
# 6 0.0000 0.0000 0.0000 0.0000 0.0000 3.4280
#
#
#
# Elastic Compliance Matrix: (Units=1/GPa)
#
#
# Indices 1 2 3 4 5 6 
#
# 1 0.014265 -0.001007 -0.004928 0.000000 0.000000 0.000000
# 2 -0.001007 0.020371 0.000087 0.000000 0.000000 0.000000
# 3 -0.004928 0.000087 0.006444 0.000000 0.000000 0.000000
# 4 0.000000 0.000000 0.000000 0.036096 0.000000 0.000000
# 5 0.000000 0.000000 0.000000 0.000000 0.037842 0.000000
# 6 0.000000 0.000000 0.000000 0.000000 0.000000 0.291719
#
#
# Mechanical properties :
#
#
# Convention : Reuss Voigt Hill
#
# Bulk Modulus (GPa) = 34.03347 57.38387 45.70867
# Shear Modulus (GPa) = 11.67602 29.89600 20.78601
#
# Velocity S-wave (km/s) = 2.30272 3.68468 3.07241
# Velocity P-wave (km/s) = 4.74615 6.64550 5.77445
#
# Compressibility (1/GPa) = 0.02938284
#
# Stress axis : x y z
#
# Youngs Moduli (GPa) = 70.10117 49.09049 155.18032
#
# Poissons Ratio (x) = 0.04945 0.76469
# Poissons Ratio (y) = 0.07062 -0.01344
# Poissons Ratio (z) = 0.34544 -0.00425
#
# Static dielectric constant tensor:
#      x y z
#    x 1.837540 0.000000 0.000000 
#    y 0.000000 1.867300 0.000000 
#    z 0.000000 0.000000 1.794590 
# 
# From -- ./inp_files/29644.got.cif
#   From: 2010.05.17/outbox.cif.g08.bks.cpg/sg51_15_cif.got.tgz:29644.got - 2010.06.03 11:52:47.
