data_PCOD9400220
_publ_section_title
;
Structure prediction by ZEFSAII (Michael W. Deem and Ramdas Pophale) SiO2 
 PCOD9400220
Probable space group: P M M A
;
_chemical_formula_sum "Si O2"
_cell_formula_units_Z 60
_cell_length_a 7.846717
_cell_length_b 25.353202
_cell_length_c 19.014011
_cell_angle_alpha 90.000000
_cell_angle_beta 90.000000
_cell_angle_gamma 90.000000
_cell_volume 3782.635962
_symmetry_space_group_name_H-M "P M M A"
_symmetry_group_IT_number 51
_symmetry_cell_setting 'orthorhombic'
loop_
_space_group_symop_operation_xyz
x,y,z
1/2-x,-y,z
1/2+x,-y,-z
-x,y,-z
-x,-y,-z
1/2+x,y,-z
1/2-x,y,z
x,-y,z
loop_
_atom_site_type_symbol
_atom_site_label
_atom_site_fract_x
_atom_site_fract_y
_atom_site_fract_z
Si Si1 0.954882 0.000000 0.417262
Si Si2 0.956016 0.671562 0.082454
Si Si3 0.451568 0.777952 0.848255
Si Si4 0.451215 0.835778 0.283129
Si Si5 0.955380 0.443297 0.082886
Si Si6 0.548576 0.057180 0.784432
Si Si7 0.953118 0.884655 0.418414
Si Si8 0.453925 0.113700 0.919059
O O1 0.021272 0.942713 0.393310
O O2 0.000000 0.000000 0.500000
O O3 0.750000 0.000000 0.408827
O O4 0.750000 0.670688 0.087700
O O5 0.021965 0.722486 0.124283
O O6 0.018098 0.613920 0.108566
O O7 0.000000 0.677217 0.000000
O O8 0.250000 0.776881 0.862321
O O9 0.476629 0.789870 0.765832
O O10 0.519222 0.829291 0.890352
O O11 0.250000 0.835403 0.270882
O O12 0.526247 0.891081 0.252956
O O13 0.483774 0.839636 0.365853
O O14 0.750000 0.443482 0.089501
O O15 0.018339 0.500000 0.111582
O O16 0.000000 0.443327 0.000000
O O17 0.750000 0.055723 0.768839
O O18 0.526617 0.069426 0.867040
O O19 0.474727 0.000000 0.765420
O O20 0.750000 0.886488 0.414312
O O21 0.000000 0.877414 0.500000
O O22 0.250000 0.112755 0.911747
O O23 0.500000 0.106862 0.000000
#
# Coordination Sequence:
#
# PCOD9400220 Si02
#       8
#     4   8   8   8   8   8   8   8
#     4   8  16  28  42  62  84 104 123 146 177 216
#     4   9  16  25  39  58  79 106 139 175 212 245
#     4   9  18  31  43  57  78 103 133 166 201 241
#     4  10  20  32  47  64  81 103 128 159 198 237
#     4   8  13  21  33  51  76 104 134 168 205 243
#     4   9  19  34  47  59  75  96 122 152 190 238
#     4  10  19  32  48  67  88 108 130 155 186 228
#     4  10  19  30  44  59  74  94 121 158 200 239
#
# _framework density 15.861955
#
# number of rings (size 3 to 8) (size 9 to 14) (size 15 to 20)
#    0.000    2.800    0.000    1.600    0.933    2.667 
#    0.000    0.000    0.000    0.000    0.000    0.000 
#    0.000    0.000    0.000    0.000    0.000    0.667 
#
# Total GULP energy -334183.799124 kJ/mol
# GULP energy per Si atom -5569.729985 kJ/mol
# Density = 1.582585 g / cm^3
# Si number density = 15.861955 Si / 1000 Ang^3
#
#
#
# Elastic Constant Matrix: (Units=GPa)
#
#
# Indices 1 2 3 4 5 6 
#
# 1 23.5124 3.4953 -10.8414 0.0000 0.0000 0.0000
# 2 3.4953 106.5462 24.4248 0.0000 0.0000 0.0000
# 3 -10.8414 24.4248 55.5315 0.0000 0.0000 0.0000
# 4 0.0000 0.0000 0.0000 11.8074 0.0000 0.0000
# 5 0.0000 0.0000 0.0000 0.0000 16.0192 0.0000
# 6 0.0000 0.0000 0.0000 0.0000 0.0000 5.2591
#
#
#
# Elastic Compliance Matrix: (Units=1/GPa)
#
#
# Indices 1 2 3 4 5 6 
#
# 1 0.048349 -0.004170 0.011273 0.000000 0.000000 0.000000
# 2 -0.004170 0.010798 -0.005563 0.000000 0.000000 0.000000
# 3 0.011273 -0.005563 0.022656 0.000000 0.000000 0.000000
# 4 0.000000 0.000000 0.000000 0.084693 0.000000 0.000000
# 5 0.000000 0.000000 0.000000 0.000000 0.062425 0.000000
# 6 0.000000 0.000000 0.000000 0.000000 0.000000 0.190146
#
#
# Mechanical properties :
#
#
# Convention : Reuss Voigt Hill
#
# Bulk Modulus (GPa) = 11.78116 24.41640 18.09878
# Shear Modulus (GPa) = 11.25414 17.85122 14.55268
#
# Velocity S-wave (km/s) = 2.66654 3.35835 3.03224
# Velocity P-wave (km/s) = 4.11388 5.51947 4.86768
#
# Compressibility (1/GPa) = 0.08488127
#
# Stress axis : x y z
#
# Youngs Moduli (GPa) = 20.68305 92.61152 44.13899
#
# Poissons Ratio (x) = 0.38623 -0.49760
# Poissons Ratio (y) = 0.08626 0.24557
# Poissons Ratio (z) = -0.23317 0.51524
#
# Static dielectric constant tensor:
#      x y z
#    x 1.555850 0.000000 0.000000 
#    y 0.000000 1.584380 0.000000 
#    z 0.000000 0.000000 1.532550 
# 
# From -- ./inp_files/28584.got.cif
#   From: 2010.05.17/outbox.cif.g08.bks.cpg/sg51_15_cif.got.tgz:28584.got - 2010.06.03 11:52:47.
