data_PCOD9400154
_publ_section_title
;
Structure prediction by ZEFSAII (Michael W. Deem and Ramdas Pophale) SiO2 
 PCOD9400154
Probable space group: P M M A
;
_chemical_formula_sum "Si O2"
_cell_formula_units_Z 64
_cell_length_a 8.843767
_cell_length_b 19.473318
_cell_length_c 24.165547
_cell_angle_alpha 90.000000
_cell_angle_beta 90.000000
_cell_angle_gamma 90.000000
_cell_volume 4161.729779
_symmetry_space_group_name_H-M "P M M A"
_symmetry_group_IT_number 51
_symmetry_cell_setting 'orthorhombic'
loop_
_space_group_symop_operation_xyz
x,y,z
1/2-x,-y,z
1/2+x,-y,-z
-x,y,-z
-x,-y,-z
1/2+x,y,-z
1/2-x,y,z
x,-y,z
loop_
_atom_site_type_symbol
_atom_site_label
_atom_site_fract_x
_atom_site_fract_y
_atom_site_fract_z
Si Si1 0.069495 0.922286 0.757019
Si Si2 0.431473 0.420129 0.221061
Si Si3 0.069362 0.347328 0.336403
Si Si4 0.569161 0.784625 0.731328
Si Si5 0.569632 0.293073 0.163217
Si Si6 0.930744 0.923029 0.879212
Si Si7 0.068561 0.783793 0.060016
Si Si8 0.569483 0.579710 0.440876
O O1 0.250000 0.914977 0.755133
O O2 0.991596 0.861170 0.723455
O O3 0.014050 0.915272 0.820566
O O4 0.029505 0.000000 0.739367
O O5 0.250000 0.410711 0.214593
O O6 0.467352 0.500000 0.213913
O O7 0.468806 0.395052 0.283371
O O8 0.516258 0.369501 0.179370
O O9 0.250000 0.351680 0.344566
O O10 0.032256 0.269948 0.316820
O O11 0.988097 0.373738 0.390869
O O12 0.750000 0.784785 0.738622
O O13 0.495093 0.754562 0.787303
O O14 0.750000 0.288118 0.161716
O O15 0.498482 0.266763 0.106236
O O16 0.750000 0.918563 0.868846
O O17 0.971573 0.861171 0.919778
O O18 0.963293 0.000000 0.900594
O O19 0.250000 0.778187 0.058785
O O20 0.000000 0.770710 0.000000
O O21 0.500000 0.599744 0.500000
O O22 0.750000 0.582288 0.444281
O O23 0.524035 0.500000 0.430328
#
# Coordination Sequence:
#
# PCOD9400154 Si02
#       8
#     8   8   8   8   8   8   8   8
#     4  10  19  29  45  70  97 125 158 196 238 285
#     4   9  18  33  53  75  99 127 156 190 236 288
#     4   9  18  31  48  71  99 129 164 202 238 276
#     4  10  19  32  49  69  95 129 163 197 240 289
#     4  11  21  33  50  71  96 122 153 194 238 285
#     4   9  18  32  49  67  90 123 157 189 229 280
#     4  11  22  35  51  69  92 121 157 196 235 286
#     4  10  20  32  47  68  97 135 174 207 240 279
#
# _framework density 15.378221
#
# number of rings (size 3 to 8) (size 9 to 14) (size 15 to 20)
#    0.000    2.125    1.250    3.750    0.000    5.500 
#    0.000    0.000    0.000    0.375    0.000    0.000 
#    0.000    0.500    0.000    1.625    0.000    2.375 
#
# Total GULP energy -357093.305141 kJ/mol
# GULP energy per Si atom -5579.582893 kJ/mol
# Density = 1.534322 g / cm^3
# Si number density = 15.378221 Si / 1000 Ang^3
#
#
#
# Elastic Constant Matrix: (Units=GPa)
#
#
# Indices 1 2 3 4 5 6 
#
# 1 60.3091 55.4886 50.2715 0.0000 0.0000 0.0000
# 2 55.4886 125.4050 68.7251 0.0000 0.0000 0.0000
# 3 50.2715 68.7251 107.0318 0.0000 0.0000 0.0000
# 4 0.0000 0.0000 0.0000 22.0965 0.0000 0.0000
# 5 0.0000 0.0000 0.0000 0.0000 25.7875 0.0000
# 6 0.0000 0.0000 0.0000 0.0000 0.0000 22.2500
#
#
#
# Elastic Compliance Matrix: (Units=1/GPa)
#
#
# Indices 1 2 3 4 5 6 
#
# 1 0.033256 -0.009497 -0.009522 0.000000 0.000000 0.000000
# 2 -0.009497 0.015016 -0.005181 0.000000 0.000000 0.000000
# 3 -0.009522 -0.005181 0.017142 0.000000 0.000000 0.000000
# 4 0.000000 0.000000 0.000000 0.045256 0.000000 0.000000
# 5 0.000000 0.000000 0.000000 0.000000 0.038778 0.000000
# 6 0.000000 0.000000 0.000000 0.000000 0.000000 0.044944
#
#
# Mechanical properties :
#
#
# Convention : Reuss Voigt Hill
#
# Bulk Modulus (GPa) = 58.77447 71.30180 65.03813
# Shear Modulus (GPa) = 20.12369 21.91084 21.01726
#
# Velocity S-wave (km/s) = 3.62136 3.77874 3.70089
# Velocity P-wave (km/s) = 7.46913 8.09349 7.78757
#
# Compressibility (1/GPa) = 0.01701419
#
# Stress axis : x y z
#
# Youngs Moduli (GPa) = 30.06960 66.59779 58.33555
#
# Poissons Ratio (x) = 0.63245 0.55548
# Poissons Ratio (y) = 0.28556 0.30224
# Poissons Ratio (z) = 0.28633 0.34504
#
# Static dielectric constant tensor:
#      x y z
#    x 1.511230 0.000000 0.000000 
#    y 0.000000 1.533570 0.000000 
#    z 0.000000 0.000000 1.472250 
# 
# From -- ./inp_files/32411.got.cif
#   From: 2010.05.17/outbox.cif.g08.bks.cpg/sg51_17_cif.got.tgz:32411.got - 2010.06.03 11:52:47.
