data_PCOD9400087
_publ_section_title
;
Structure prediction by ZEFSAII (Michael W. Deem and Ramdas Pophale) SiO2 
 PCOD9400087
Probable space group: P M M A
;
_chemical_formula_sum "Si O2"
_cell_formula_units_Z 64
_cell_length_a 22.855266
_cell_length_b 7.390161
_cell_length_c 14.782433
_cell_angle_alpha 90.000000
_cell_angle_beta 90.000000
_cell_angle_gamma 90.000000
_cell_volume 2496.813474
_symmetry_space_group_name_H-M "P M M A"
_symmetry_group_IT_number 51
_symmetry_cell_setting 'orthorhombic'
loop_
_space_group_symop_operation_xyz
x,y,z
1/2-x,-y,z
1/2+x,-y,-z
-x,y,-z
-x,-y,-z
1/2+x,y,-z
1/2-x,y,z
x,-y,z
loop_
_atom_site_type_symbol
_atom_site_label
_atom_site_fract_x
_atom_site_fract_y
_atom_site_fract_z
Si Si1 0.813237 0.720433 0.735380
Si Si2 0.186815 0.719805 0.962793
Si Si3 0.563602 0.293528 0.512110
Si Si4 0.061711 0.704457 0.272028
Si Si5 0.562774 0.702827 0.015990
Si Si6 0.687466 0.789882 0.253107
Si Si7 0.312600 0.279686 0.479009
Si Si8 0.933048 0.790208 0.219450
O O1 0.750000 0.778283 0.773874
O O2 0.814872 0.500000 0.742621
O O3 0.877564 0.783872 0.766934
O O4 0.810871 0.763982 0.628062
O O5 0.250000 0.775266 0.000965
O O6 0.184585 0.500000 0.965154
O O7 0.126253 0.783051 0.008018
O O8 0.187194 0.776113 0.857124
O O9 0.500000 0.206452 0.500000
O O10 0.559144 0.500000 0.475191
O O11 0.570425 0.304093 0.620290
O O12 0.625728 0.212609 0.481512
O O13 0.056687 0.500000 0.237377
O O14 0.997987 0.786088 0.258487
O O15 0.559657 0.500000 0.976251
O O16 0.565525 0.691270 0.124192
O O17 0.500000 0.793930 0.000000
O O18 0.750000 0.705982 0.281076
O O19 0.622549 0.718294 0.276463
O O20 0.689542 0.000000 0.279648
O O21 0.250000 0.219214 0.517289
O O22 0.314581 0.500000 0.484711
O O23 0.920022 0.000000 0.200384
#
# Coordination Sequence:
#
# PCOD9400087 Si02
#       8
#     8   8   8   8   8   8   8   8
#     4   7  10  18  34  56  77  97 130 174 209 236
#     4   8  13  22  38  60  82 101 125 162 204 238
#     4   8  13  21  35  56  79 103 132 165 202 244
#     4   9  16  26  42  62  84 110 137 169 209 249
#     4   9  17  29  45  64  85 109 136 166 202 244
#     4   8  14  25  40  57  76 100 134 172 203 232
#     4   7   9  14  26  46  71  96 124 162 203 236
#     4  10  19  29  43  63  86 111 138 170 206 245
#
# _framework density 25.632671999999999
#
# number of rings (size 3 to 8) (size 9 to 14) (size 15 to 20)
#    0.000    3.750    0.000    2.625    0.000    0.750 
#    0.000    0.000    0.000    2.250    0.000    5.250 
#    0.000    0.000    0.000    0.000    0.000    0.000 
#
# Total GULP energy -356378.873496 kJ/mol
# GULP energy per Si atom -5568.419898 kJ/mol
# Density = 2.557433 g / cm^3
# Si number density = 25.632672 Si / 1000 Ang^3
#
#
#
# Elastic Constant Matrix: (Units=GPa)
#
#
# Indices 1 2 3 4 5 6 
#
# 1 372.0205 20.2116 11.4852 0.0000 0.0000 0.0000
# 2 20.2116 96.9975 -2.7550 0.0000 0.0000 0.0000
# 3 11.4852 -2.7550 65.6085 0.0000 0.0000 0.0000
# 4 0.0000 0.0000 0.0000 -4.6161 0.0000 0.0000
# 5 0.0000 0.0000 0.0000 0.0000 14.5867 0.0000
# 6 0.0000 0.0000 0.0000 0.0000 0.0000 -39.9951
#
#
#
# Elastic Compliance Matrix: (Units=1/GPa)
#
#
# Indices 1 2 3 4 5 6 
#
# 1 0.002735 -0.000584 -0.000503 0.000000 0.000000 0.000000
# 2 -0.000584 0.010447 0.000541 0.000000 0.000000 0.000000
# 3 -0.000503 0.000541 0.015353 0.000000 0.000000 0.000000
# 4 0.000000 0.000000 0.000000 -0.216632 0.000000 0.000000
# 5 0.000000 0.000000 0.000000 0.000000 0.068555 0.000000
# 6 0.000000 0.000000 0.000000 0.000000 0.000000 -0.025003
#
#
# Mechanical properties :
#
#
# Convention : Reuss Voigt Hill
#
# Bulk Modulus (GPa) = 36.44136 65.83447 51.13791
# Shear Modulus (GPa) = -37.22887 27.70741 -4.76073
#
# Velocity S-wave (km/s) = -3.81517 3.29133 -1.36430
# Velocity P-wave (km/s) = 2.27151 6.33904 4.18471
#
# Compressibility (1/GPa) = 0.02744135
#
# Stress axis : x y z
#
# Youngs Moduli (GPa) = 365.58978 95.72448 65.13487
#
# Poissons Ratio (x) = 0.05593 0.03279
# Poissons Ratio (y) = 0.21360 -0.03523
# Poissons Ratio (z) = 0.18403 -0.05178
#
# Static dielectric constant tensor:
#      x y z
#    x 2.180040 0.000000 0.000000 
#    y 0.000000 2.030130 0.000000 
#    z 0.000000 0.000000 2.011300 
# 
# From -- ./inp_files/35939.got.cif
#   From: 2010.05.17/outbox.cif.g08.bks.cpg/sg51_18_cif.got.tgz:35939.got - 2010.06.03 11:52:47.
