data_PCOD9400977
_publ_section_title
;
Structure prediction by ZEFSAII (Michael W. Deem and Ramdas Pophale) SiO2 
 PCOD9400977
Probable space group: P M M A
;
_chemical_formula_sum "Si O2"
_cell_formula_units_Z 48
_cell_length_a 16.432301
_cell_length_b 27.442942
_cell_length_c 5.266920
_cell_angle_alpha 90.000000
_cell_angle_beta 90.000000
_cell_angle_gamma 90.000000
_cell_volume 2375.121173
_symmetry_space_group_name_H-M "P M M A"
_symmetry_group_IT_number 51
_symmetry_cell_setting 'orthorhombic'
loop_
_space_group_symop_operation_xyz
x,y,z
1/2-x,-y,z
1/2+x,-y,-z
-x,y,-z
-x,-y,-z
1/2+x,y,-z
1/2-x,y,z
x,-y,z
loop_
_atom_site_type_symbol
_atom_site_label
_atom_site_fract_x
_atom_site_fract_y
_atom_site_fract_z
Si Si1 0.650421 0.056162 0.432181
Si Si2 0.598709 0.719053 0.497385
Si Si3 0.848280 0.886680 0.931228
Si Si4 0.901830 0.775804 0.997730
Si Si5 0.904573 0.555904 0.936409
Si Si6 0.654941 0.391661 0.438352
O O1 0.750000 0.055915 0.433250
O O2 0.623188 0.087642 0.673193
O O3 0.624454 0.000000 0.447606
O O4 0.624018 0.082105 0.173500
O O5 0.500000 0.717638 0.500000
O O6 0.625883 0.741917 0.764449
O O7 0.629412 0.664635 0.453750
O O8 0.625687 0.753542 0.265569
O O9 0.750000 0.887741 0.929266
O O10 0.874725 0.830996 0.955897
O O11 0.000000 0.775075 0.000000
O O12 0.875131 0.500000 0.939115
O O13 0.863191 0.586762 0.160466
O O14 0.891030 0.579034 0.660248
O O15 0.000000 0.555985 0.000000
O O16 0.750000 0.396245 0.492313
#
# Coordination Sequence:
#
# PCOD9400977 Si02
#       6
#     8   8   8   8   8   8
#     4   9  17  30  49  74 102 133 172 215 262 322
#     4  10  21  38  58  79 108 150 192 226 274 345
#     4  10  19  31  51  76 101 133 172 219 271 320
#     4  10  21  36  55  78 106 143 184 227 274 330
#     4  11  24  43  66  90 121 165 208 241 285 356
#     4  12  25  40  63  95 126 155 194 253 310 345
#
# _framework density 20.209493999999999
#
# number of rings (size 3 to 8) (size 9 to 14) (size 15 to 20)
#    0.000    1.667    0.000    5.000    0.000    8.000 
#    0.000    0.000    0.000    3.000    0.000    0.000 
#    0.000    0.000    0.000    0.000    0.000    0.000 
#
# Total GULP energy -268396.231802 kJ/mol
# GULP energy per Si atom -5591.588163 kJ/mol
# Density = 2.016350 g / cm^3
# Si number density = 20.209494 Si / 1000 Ang^3
#
#
#
# Elastic Constant Matrix: (Units=GPa)
#
#
# Indices 1 2 3 4 5 6 
#
# 1 9.6917 -8.4881 -7.7887 0.0000 0.0000 0.0000
# 2 -8.4881 113.3681 8.8179 0.0000 0.0000 0.0000
# 3 -7.7887 8.8179 87.4233 0.0000 0.0000 0.0000
# 4 0.0000 0.0000 0.0000 51.4818 0.0000 0.0000
# 5 0.0000 0.0000 0.0000 0.0000 18.2906 0.0000
# 6 0.0000 0.0000 0.0000 0.0000 0.0000 15.6140
#
#
#
# Elastic Compliance Matrix: (Units=1/GPa)
#
#
# Indices 1 2 3 4 5 6 
#
# 1 0.118059 0.008085 0.009703 0.000000 0.000000 0.000000
# 2 0.008085 0.009444 -0.000232 0.000000 0.000000 0.000000
# 3 0.009703 -0.000232 0.012326 0.000000 0.000000 0.000000
# 4 0.000000 0.000000 0.000000 0.019424 0.000000 0.000000
# 5 0.000000 0.000000 0.000000 0.000000 0.054673 0.000000
# 6 0.000000 0.000000 0.000000 0.000000 0.000000 0.064045
#
#
# Mechanical properties :
#
#
# Convention : Reuss Voigt Hill
#
# Bulk Modulus (GPa) = 5.71625 21.72946 13.72285
# Shear Modulus (GPa) = 16.60163 31.60675 24.10419
#
# Velocity S-wave (km/s) = 2.86925 3.95898 3.45732
# Velocity P-wave (km/s) = 3.71637 5.62792 4.76890
#
# Compressibility (1/GPa) = 0.17493990
#
# Stress axis : x y z
#
# Youngs Moduli (GPa) = 8.47033 105.88500 81.12630
#
# Poissons Ratio (x) = -0.85605 -0.78714
# Poissons Ratio (y) = -0.06848 0.01885
# Poissons Ratio (z) = -0.08219 0.02460
#
# Static dielectric constant tensor:
#      x y z
#    x 1.720130 0.000000 0.000000 
#    y 0.000000 1.665160 0.000000 
#    z 0.000000 0.000000 1.696150 
# 
# From -- ./inp_files/1449.got.cif
#   From: 2010.05.17/outbox.cif.g08.bks.cpg/sg51_1_cif.got.tgz:1449.got - 2010.06.03 11:52:47.
