data_PCOD9400856
_publ_section_title
;
Structure prediction by ZEFSAII (Michael W. Deem and Ramdas Pophale) SiO2 
 PCOD9400856
Probable space group: P M M A
;
_chemical_formula_sum "Si O2"
_cell_formula_units_Z 64
_cell_length_a 19.883729
_cell_length_b 8.618830
_cell_length_c 19.718255
_cell_angle_alpha 90.000000
_cell_angle_beta 90.000000
_cell_angle_gamma 90.000000
_cell_volume 3379.205697
_symmetry_space_group_name_H-M "P M M A"
_symmetry_group_IT_number 51
_symmetry_cell_setting 'orthorhombic'
loop_
_space_group_symop_operation_xyz
x,y,z
1/2-x,-y,z
1/2+x,-y,-z
-x,y,-z
-x,-y,-z
1/2+x,y,-z
1/2-x,y,z
x,-y,z
loop_
_atom_site_type_symbol
_atom_site_label
_atom_site_fract_x
_atom_site_fract_y
_atom_site_fract_z
Si Si1 0.172181 0.689549 0.531534
Si Si2 0.571971 0.687042 0.353051
Si Si3 0.328191 0.188013 0.003121
Si Si4 0.045100 0.684909 0.935601
Si Si5 0.530949 0.178919 0.214114
Si Si6 0.898845 0.676798 0.734228
Si Si7 0.670979 0.175084 0.849118
Si Si8 0.072135 0.316778 0.414189
O O1 0.250000 0.741026 0.524273
O O2 0.173564 0.500000 0.527144
O O3 0.136952 0.730305 0.602837
O O4 0.118572 0.745924 0.474534
O O5 0.567500 0.500000 0.350822
O O6 0.573647 0.746090 0.275716
O O7 0.503064 0.740301 0.393090
O O8 0.250000 0.232176 0.993866
O O9 0.378693 0.263921 0.950946
O O10 0.331571 0.000000 0.000427
O O11 0.354382 0.234638 0.078413
O O12 0.038567 0.500000 0.934006
O O13 0.029373 0.747853 0.860674
O O14 0.000000 0.742665 0.000000
O O15 0.456496 0.206183 0.243217
O O16 0.548607 0.000000 0.207715
O O17 0.923606 0.500000 0.742498
O O18 0.840756 0.713051 0.786546
O O19 0.885255 0.697223 0.655185
O O20 0.750000 0.160475 0.860093
O O21 0.645078 0.000000 0.836801
O O22 0.062195 0.500000 0.429460
#
# Coordination Sequence:
#
# PCOD9400856 Si02
#       8
#     8   8   8   8   8   8   8   8
#     4   9  16  27  48  78 106 132 168 215 263 309
#     4   9  17  32  53  75 101 133 171 215 259 306
#     4   9  19  36  55  75 102 139 181 219 260 317
#     4  11  23  37  56  84 113 138 171 221 274 320
#     4  11  22  36  55  76 101 136 175 215 262 319
#     4  10  19  31  49  75 106 137 172 219 266 307
#     4   9  18  32  49  70 101 142 181 213 251 309
#     4   8  15  27  45  71 103 136 168 207 258 312
#
# _framework density 18.939363
#
# number of rings (size 3 to 8) (size 9 to 14) (size 15 to 20)
#    0.000    2.500    0.000    4.500    0.000    6.000 
#    0.000    3.125    0.000    9.375    0.000    0.000 
#    0.000    0.000    0.000    0.000    0.000    0.000 
#
# Total GULP energy -356321.869424 kJ/mol
# GULP energy per Si atom -5567.529210 kJ/mol
# Density = 1.889626 g / cm^3
# Si number density = 18.939363 Si / 1000 Ang^3
#
#
#
# Elastic Constant Matrix: (Units=GPa)
#
#
# Indices 1 2 3 4 5 6 
#
# 1 61.3269 10.5833 47.2687 0.0000 0.0000 0.0000
# 2 10.5833 22.2746 28.9778 0.0000 0.0000 0.0000
# 3 47.2687 28.9778 122.9462 0.0000 0.0000 0.0000
# 4 0.0000 0.0000 0.0000 -0.6188 0.0000 0.0000
# 5 0.0000 0.0000 0.0000 0.0000 26.6585 0.0000
# 6 0.0000 0.0000 0.0000 0.0000 0.0000 17.8686
#
#
#
# Elastic Compliance Matrix: (Units=1/GPa)
#
#
# Indices 1 2 3 4 5 6 
#
# 1 0.023184 0.000837 -0.009111 0.000000 0.000000 0.000000
# 2 0.000837 0.064777 -0.015590 0.000000 0.000000 0.000000
# 3 -0.009111 -0.015590 0.015311 0.000000 0.000000 0.000000
# 4 0.000000 0.000000 0.000000 -1.616012 0.000000 0.000000
# 5 0.000000 0.000000 0.000000 0.000000 0.037511 0.000000
# 6 0.000000 0.000000 0.000000 0.000000 0.000000 0.055964
#
#
# Mechanical properties :
#
#
# Convention : Reuss Voigt Hill
#
# Bulk Modulus (GPa) = 18.00316 42.24524 30.12420
# Shear Modulus (GPa) = -3.69543 16.76287 6.53372
#
# Velocity S-wave (km/s) = -1.39837 2.97826 1.85938
# Velocity P-wave (km/s) = 2.63042 5.84642 4.53320
#
# Compressibility (1/GPa) = 0.05554579
#
# Stress axis : x y z
#
# Youngs Moduli (GPa) = 43.13356 15.43749 65.31347
#
# Poissons Ratio (x) = -0.01292 0.59505
# Poissons Ratio (y) = -0.03611 1.01821
# Poissons Ratio (z) = 0.39298 0.24066
#
# Static dielectric constant tensor:
#      x y z
#    x 1.694910 0.000000 0.000000 
#    y 0.000000 1.666210 0.000000 
#    z 0.000000 0.000000 1.692250 
# 
# From -- ./inp_files/30695.got.cif
#   From: 2010.05.17/outbox.cif.g08.bks.cpg/sg51_16_cif.got.tgz:30695.got - 2010.06.03 11:52:47.
