data_PCOD9400945
_publ_section_title
;
Structure prediction by ZEFSAII (Michael W. Deem and Ramdas Pophale) SiO2 
 PCOD9400945
Probable space group: P M M A
;
_chemical_formula_sum "Si O2"
_cell_formula_units_Z 64
_cell_length_a 18.476007
_cell_length_b 7.577275
_cell_length_c 21.305223
_cell_angle_alpha 90.000000
_cell_angle_beta 90.000000
_cell_angle_gamma 90.000000
_cell_volume 2982.684049
_symmetry_space_group_name_H-M "P M M A"
_symmetry_group_IT_number 51
_symmetry_cell_setting 'orthorhombic'
loop_
_space_group_symop_operation_xyz
x,y,z
1/2-x,-y,z
1/2+x,-y,-z
-x,y,-z
-x,-y,-z
1/2+x,y,-z
1/2-x,y,z
x,-y,z
loop_
_atom_site_type_symbol
_atom_site_label
_atom_site_fract_x
_atom_site_fract_y
_atom_site_fract_z
Si Si1 0.168111 0.789649 0.498411
Si Si2 0.913298 0.784018 0.872699
Si Si3 0.166409 0.784058 0.254397
Si Si4 0.921498 0.210812 0.121441
Si Si5 0.088126 0.290486 0.627790
Si Si6 0.667250 0.287222 0.247155
Si Si7 0.833372 0.215988 0.000175
Si Si8 0.918436 0.211451 0.622335
O O1 0.250000 0.718421 0.498281
O O2 0.129549 0.763778 0.564880
O O3 0.119702 0.719786 0.440905
O O4 0.173376 0.000000 0.489289
O O5 0.872168 0.727548 0.809777
O O6 0.871477 0.729791 0.935549
O O7 0.996375 0.722852 0.873667
O O8 0.913569 0.000000 0.872126
O O9 0.250000 0.729363 0.257030
O O10 0.121986 0.723372 0.315260
O O11 0.165915 0.000000 0.254545
O O12 0.876925 0.243577 0.184641
O O13 0.927088 0.000000 0.113498
O O14 0.878399 0.277435 0.060623
O O15 0.093259 0.500000 0.631107
O O16 0.126231 0.219314 0.690768
O O17 0.003695 0.245295 0.624237
O O18 0.750000 0.222774 0.244144
O O19 0.670050 0.500000 0.251107
O O20 0.750000 0.272298 0.003111
O O21 0.833282 0.000000 0.000817
O O22 0.909998 0.000000 0.622312
#
# Coordination Sequence:
#
# PCOD9400945 Si02
#       8
#     8   8   8   8   8   8   8   8
#     4  10  21  37  57  81 109 141 175 213 259 307
#     4   9  16  26  43  70 104 137 167 205 255 304
#     4   9  16  27  46  72 101 135 174 212 252 304
#     4  10  19  31  50  77 104 130 166 213 259 303
#     4  11  23  38  56  78 105 138 176 216 258 308
#     4  10  22  39  55  72  99 135 171 209 256 307
#     4   9  16  26  42  68 103 138 170 207 252 301
#     4  10  20  35  55  80 109 137 169 213 261 307
#
# _framework density 21.457183000000001
#
# number of rings (size 3 to 8) (size 9 to 14) (size 15 to 20)
#    0.000    2.250    0.000    3.375    0.000   10.000 
#    0.000    0.000    0.000    2.625    0.000    0.000 
#    0.000    3.000    0.000    0.000    0.000    0.000 
#
# Total GULP energy -357734.598846 kJ/mol
# GULP energy per Si atom -5589.603107 kJ/mol
# Density = 2.140835 g / cm^3
# Si number density = 21.457183 Si / 1000 Ang^3
#
#
#
# Elastic Constant Matrix: (Units=GPa)
#
#
# Indices 1 2 3 4 5 6 
#
# 1 221.6602 -0.7795 126.6559 0.0000 0.0000 0.0000
# 2 -0.7795 47.6121 -2.1895 0.0000 0.0000 0.0000
# 3 126.6559 -2.1895 228.5255 0.0000 0.0000 0.0000
# 4 0.0000 0.0000 0.0000 129.3604 0.0000 0.0000
# 5 0.0000 0.0000 0.0000 0.0000 49.1636 0.0000
# 6 0.0000 0.0000 0.0000 0.0000 0.0000 -43.7709
#
#
#
# Elastic Compliance Matrix: (Units=1/GPa)
#
#
# Indices 1 2 3 4 5 6 
#
# 1 0.006602 -0.000060 -0.003660 0.000000 0.000000 0.000000
# 2 -0.000060 0.021013 0.000235 0.000000 0.000000 0.000000
# 3 -0.003660 0.000235 0.006407 0.000000 0.000000 0.000000
# 4 0.000000 0.000000 0.000000 0.007730 0.000000 0.000000
# 5 0.000000 0.000000 0.000000 0.000000 0.020340 0.000000
# 6 0.000000 0.000000 0.000000 0.000000 0.000000 -0.022846
#
#
# Mechanical properties :
#
#
# Convention : Reuss Voigt Hill
#
# Bulk Modulus (GPa) = 36.96710 82.79684 59.88197
# Shear Modulus (GPa) = 90.52414 51.89136 71.20775
#
# Velocity S-wave (km/s) = 6.50230 4.92303 5.76698
# Velocity P-wave (km/s) = 8.58131 8.42530 8.50366
#
# Compressibility (1/GPa) = 0.02705108
#
# Stress axis : x y z
#
# Youngs Moduli (GPa) = 151.45966 47.58992 156.09085
#
# Poissons Ratio (x) = 0.00287 0.57127
# Poissons Ratio (y) = 0.00912 -0.03663
# Poissons Ratio (z) = 0.55432 -0.01117
#
# Static dielectric constant tensor:
#      x y z
#    x 1.685440 0.000000 0.000000 
#    y 0.000000 1.810310 0.000000 
#    z 0.000000 0.000000 1.737270 
# 
# From -- ./inp_files/33875.got.cif
#   From: 2010.05.17/outbox.cif.g08.bks.cpg/sg51_17_cif.got.tgz:33875.got - 2010.06.03 11:52:47.
