data_PCOD9400141
_publ_section_title
;
Structure prediction by ZEFSAII (Michael W. Deem and Ramdas Pophale) SiO2 
 PCOD9400141
Probable space group: P M M A
;
_chemical_formula_sum "Si O2"
_cell_formula_units_Z 64
_cell_length_a 25.412577
_cell_length_b 11.142254
_cell_length_c 12.775774
_cell_angle_alpha 90.000000
_cell_angle_beta 90.000000
_cell_angle_gamma 90.000000
_cell_volume 3617.503689
_symmetry_space_group_name_H-M "P M M A"
_symmetry_group_IT_number 51
_symmetry_cell_setting 'orthorhombic'
loop_
_space_group_symop_operation_xyz
x,y,z
1/2-x,-y,z
1/2+x,-y,-z
-x,y,-z
-x,-y,-z
1/2+x,y,-z
1/2-x,y,z
x,-y,z
loop_
_atom_site_type_symbol
_atom_site_label
_atom_site_fract_x
_atom_site_fract_y
_atom_site_fract_z
Si Si1 0.550528 0.278060 0.936399
Si Si2 0.959807 0.300523 0.581433
Si Si3 0.127489 0.861323 0.519005
Si Si4 0.690333 0.853611 0.278920
Si Si5 0.493473 0.864883 0.758564
Si Si6 0.686951 0.137501 0.699772
Si Si7 0.111052 0.861468 0.887766
Si Si8 0.620382 0.370682 0.756460
O O1 0.526613 0.174936 0.860627
O O2 0.582604 0.361366 0.857560
O O3 0.500000 0.328884 0.000000
O O4 0.589955 0.220213 0.019730
O O5 0.923572 0.211346 0.513915
O O6 0.993190 0.224559 0.665709
O O7 0.917852 0.368366 0.654723
O O8 0.000000 0.361090 0.500000
O O9 0.156180 0.813274 0.622069
O O10 0.167974 0.858163 0.421206
O O11 0.112937 0.000000 0.537070
O O12 0.750000 0.812940 0.287979
O O13 0.663761 0.819828 0.169394
O O14 0.689985 0.000000 0.281964
O O15 0.433505 0.860660 0.796982
O O16 0.507431 0.000000 0.727832
O O17 0.750000 0.151134 0.708000
O O18 0.656032 0.249648 0.752176
O O19 0.673505 0.000000 0.736728
O O20 0.116142 0.000000 0.922778
O O21 0.648647 0.500000 0.757550
#
# Coordination Sequence:
#
# PCOD9400141 Si02
#       8
#     8   8   8   8   8   8   8   8
#     4   9  18  32  49  67  91 127 170 211 253 301
#     4  10  19  29  44  68  99 134 170 206 247 294
#     4   9  16  26  43  69 102 136 167 200 242 296
#     4   9  16  25  38  60  93 130 163 195 235 288
#     4   9  16  26  42  67  97 126 160 206 256 301
#     4   9  18  34  56  80 105 134 168 208 255 304
#     4   9  16  26  42  64  91 124 162 204 252 301
#     4  10  22  37  53  76 104 135 173 214 256 306
#
# _framework density 17.691758
#
# number of rings (size 3 to 8) (size 9 to 14) (size 15 to 20)
#    0.000    2.750    0.000    1.875    0.000    9.250 
#    0.000    0.625    0.000    1.500    0.000    0.875 
#    0.000    4.000    0.000    0.000    0.000    0.000 
#
# Total GULP energy -356455.520960 kJ/mol
# GULP energy per Si atom -5569.617515 kJ/mol
# Density = 1.765149 g / cm^3
# Si number density = 17.691758 Si / 1000 Ang^3
#
#
#
# Elastic Constant Matrix: (Units=GPa)
#
#
# Indices 1 2 3 4 5 6 
#
# 1 54.2697 27.5056 38.7015 0.0000 0.0000 0.0000
# 2 27.5056 80.5797 21.5997 0.0000 0.0000 0.0000
# 3 38.7015 21.5997 80.0121 0.0000 0.0000 0.0000
# 4 0.0000 0.0000 0.0000 -5.3752 0.0000 0.0000
# 5 0.0000 0.0000 0.0000 0.0000 19.0917 0.0000
# 6 0.0000 0.0000 0.0000 0.0000 0.0000 5.5866
#
#
#
# Elastic Compliance Matrix: (Units=1/GPa)
#
#
# Indices 1 2 3 4 5 6 
#
# 1 0.031588 -0.007209 -0.013333 0.000000 0.000000 0.000000
# 2 -0.007209 0.015023 -0.000569 0.000000 0.000000 0.000000
# 3 -0.013333 -0.000569 0.019101 0.000000 0.000000 0.000000
# 4 0.000000 0.000000 0.000000 -0.186040 0.000000 0.000000
# 5 0.000000 0.000000 0.000000 0.000000 0.052379 0.000000
# 6 0.000000 0.000000 0.000000 0.000000 0.000000 0.178999
#
#
# Mechanical properties :
#
#
# Convention : Reuss Voigt Hill
#
# Bulk Modulus (GPa) = 42.56901 43.38612 42.97757
# Shear Modulus (GPa) = 31.03630 12.33094 21.68362
#
# Velocity S-wave (km/s) = 4.19296 2.64292 3.50470
# Velocity P-wave (km/s) = 6.89601 5.82151 6.38141
#
# Compressibility (1/GPa) = 0.02349127
#
# Stress axis : x y z
#
# Youngs Moduli (GPa) = 31.65723 66.56380 52.35367
#
# Poissons Ratio (x) = 0.47983 0.69804
# Poissons Ratio (y) = 0.22820 0.02978
# Poissons Ratio (z) = 0.42209 0.03786
#
# Static dielectric constant tensor:
#      x y z
#    x 1.616030 0.000000 0.000000 
#    y 0.000000 1.900950 0.000000 
#    z 0.000000 0.000000 1.604940 
# 
# From -- ./inp_files/18854.got.cif
#   From: 2010.05.17/outbox.cif.g08.bks.cpg/sg51_10_cif.got.tgz:18854.got - 2010.06.03 11:52:47.
