data_PCOD9400356
_publ_section_title
;
Structure prediction by ZEFSAII (Michael W. Deem and Ramdas Pophale) SiO2 
 PCOD9400356
Probable space group: P M M A
;
_chemical_formula_sum "Si O2"
_cell_formula_units_Z 64
_cell_length_a 9.462519
_cell_length_b 15.026707
_cell_length_c 21.595251
_cell_angle_alpha 90.000000
_cell_angle_beta 90.000000
_cell_angle_gamma 90.000000
_cell_volume 3070.639548
_symmetry_space_group_name_H-M "P M M A"
_symmetry_group_IT_number 51
_symmetry_cell_setting 'orthorhombic'
loop_
_space_group_symop_operation_xyz
x,y,z
1/2-x,-y,z
1/2+x,-y,-z
-x,y,-z
-x,-y,-z
1/2+x,y,-z
1/2-x,y,z
x,-y,z
loop_
_atom_site_type_symbol
_atom_site_label
_atom_site_fract_x
_atom_site_fract_y
_atom_site_fract_z
Si Si1 0.413719 0.137763 0.939225
Si Si2 0.581488 0.856080 0.302845
Si Si3 0.585882 0.136037 0.817714
Si Si4 0.088999 0.644670 0.940293
Si Si5 0.913692 0.605094 0.556751
Si Si6 0.408504 0.354069 0.175535
Si Si7 0.083212 0.321154 0.306994
Si Si8 0.591740 0.894081 0.442786
O O1 0.250000 0.109672 0.939955
O O2 0.496721 0.108586 0.877769
O O3 0.412674 0.246490 0.939587
O O4 0.500000 0.109802 0.000000
O O5 0.750000 0.871452 0.295959
O O6 0.493024 0.894060 0.245033
O O7 0.536086 0.753437 0.300421
O O8 0.537398 0.883958 0.372415
O O9 0.750000 0.108858 0.819453
O O10 0.586599 0.245164 0.820217
O O11 0.250000 0.615805 0.945093
O O12 0.017854 0.616261 0.876007
O O13 0.000000 0.616545 0.000000
O O14 0.750000 0.618608 0.542776
O O15 0.942576 0.500000 0.559098
O O16 0.939121 0.639461 0.625523
O O17 0.000000 0.645048 0.500000
O O18 0.250000 0.378134 0.155824
O O19 0.430780 0.383049 0.246527
O O20 0.250000 0.288811 0.304693
O O21 0.500000 0.859032 0.500000
O O22 0.750000 0.855394 0.444406
O O23 0.603007 0.000000 0.452361
#
# Coordination Sequence:
#
# PCOD9400356 Si02
#       8
#     8   8   8   8   8   8   8   8
#     4   9  15  22  33  51  77 111 150 187 223 265
#     4  10  19  30  46  68  92 118 149 186 227 271
#     4   9  16  26  39  56  82 115 148 183 224 268
#     4   9  15  21  31  48  72 104 140 175 210 252
#     4   9  18  33  51  69  90 118 151 185 222 265
#     4   8  14  24  36  51  75 107 140 174 213 255
#     4   9  18  31  46  65  91 121 150 183 224 269
#     4   9  19  35  52  69  90 117 149 185 225 269
#
# _framework density 20.842562999999998
#
# number of rings (size 3 to 8) (size 9 to 14) (size 15 to 20)
#    0.000    3.000    0.000    2.250    0.000    8.000 
#    0.000    2.500    0.000    0.000    0.000    0.000 
#    0.000    1.000    0.000    2.250    0.000    5.750 
#
# Total GULP energy -356789.673327 kJ/mol
# GULP energy per Si atom -5574.838646 kJ/mol
# Density = 2.079512 g / cm^3
# Si number density = 20.842563 Si / 1000 Ang^3
#
#
#
# Elastic Constant Matrix: (Units=GPa)
#
#
# Indices 1 2 3 4 5 6 
#
# 1 154.9736 7.8367 138.9982 0.0000 0.0000 0.0000
# 2 7.8367 31.5706 2.8693 0.0000 0.0000 0.0000
# 3 138.9982 2.8693 240.8140 0.0000 0.0000 0.0000
# 4 0.0000 0.0000 0.0000 47.6837 0.0000 0.0000
# 5 0.0000 0.0000 0.0000 0.0000 39.6203 0.0000
# 6 0.0000 0.0000 0.0000 0.0000 0.0000 -18.0744
#
#
#
# Elastic Compliance Matrix: (Units=1/GPa)
#
#
# Indices 1 2 3 4 5 6 
#
# 1 0.013599 -0.002665 -0.007818 0.000000 0.000000 0.000000
# 2 -0.002665 0.032232 0.001154 0.000000 0.000000 0.000000
# 3 -0.007818 0.001154 0.008651 0.000000 0.000000 0.000000
# 4 0.000000 0.000000 0.000000 0.020972 0.000000 0.000000
# 5 0.000000 0.000000 0.000000 0.000000 0.025240 0.000000
# 6 0.000000 0.000000 0.000000 0.000000 0.000000 -0.055327
#
#
# Mechanical properties :
#
#
# Convention : Reuss Voigt Hill
#
# Bulk Modulus (GPa) = 27.91349 80.75184 54.33267
# Shear Modulus (GPa) = 65.81905 32.35619 49.08762
#
# Velocity S-wave (km/s) = 5.62563 3.94434 4.85827
# Velocity P-wave (km/s) = 7.45779 7.71826 7.58914
#
# Compressibility (1/GPa) = 0.03582497
#
# Stress axis : x y z
#
# Youngs Moduli (GPa) = 73.53241 31.02533 115.58945
#
# Poissons Ratio (x) = 0.08269 0.90366
# Poissons Ratio (y) = 0.19598 -0.13343
# Poissons Ratio (z) = 0.57487 -0.03581
#
# Static dielectric constant tensor:
#      x y z
#    x 1.720350 0.000000 0.000000 
#    y 0.000000 1.793470 0.000000 
#    z 0.000000 0.000000 1.758640 
# 
# From -- ./inp_files/32614.got.cif
#   From: 2010.05.17/outbox.cif.g08.bks.cpg/sg51_17_cif.got.tgz:32614.got - 2010.06.03 11:52:47.
