data_PCOD9400164
_publ_section_title
;
Structure prediction by ZEFSAII (Michael W. Deem and Ramdas Pophale) SiO2 
 PCOD9400164
Probable space group: P M M A
;
_chemical_formula_sum "Si O2"
_cell_formula_units_Z 40
_cell_length_a 21.212846
_cell_length_b 8.047978
_cell_length_c 13.921282
_cell_angle_alpha 90.000000
_cell_angle_beta 90.000000
_cell_angle_gamma 90.000000
_cell_volume 2376.648473
_symmetry_space_group_name_H-M "P M M A"
_symmetry_group_IT_number 51
_symmetry_cell_setting 'orthorhombic'
loop_
_space_group_symop_operation_xyz
x,y,z
1/2-x,-y,z
1/2+x,-y,-z
-x,y,-z
-x,-y,-z
1/2+x,y,-z
1/2-x,y,z
x,-y,z
loop_
_atom_site_type_symbol
_atom_site_label
_atom_site_fract_x
_atom_site_fract_y
_atom_site_fract_z
Si Si1 0.180711 0.801484 0.625348
Si Si2 0.953144 0.500000 0.907006
Si Si3 0.817415 0.500000 0.999781
Si Si4 0.493335 0.815198 0.801143
Si Si5 0.638436 0.310534 0.169544
Si Si6 0.958078 0.697357 0.409914
O O1 0.250000 0.743253 0.591253
O O2 0.174903 0.756004 0.738368
O O3 0.116874 0.730238 0.578685
O O4 0.178272 0.000000 0.615741
O O5 0.880927 0.500000 0.939872
O O6 0.967280 0.334697 0.846019
O O7 0.000000 0.500000 0.000000
O O8 0.750000 0.500000 0.949969
O O9 0.822573 0.656142 0.073618
O O10 0.423463 0.797137 0.846800
O O11 0.480557 0.784922 0.688037
O O12 0.518495 0.000000 0.817602
O O13 0.615943 0.500000 0.195263
O O14 0.967390 0.500000 0.398685
O O15 0.000000 0.753584 0.500000
#
# Coordination Sequence:
#
# PCOD9400164 Si02
#       6
#     8   4   4   8   8   8
#     4  10  19  29  45  74 111 144 173 212 265 332
#     4  12  20  40  53  80 113 138 189 234 253 329
#     4  10  20  32  54  74 104 150 179 224 283 311
#     4  11  20  34  58  83 109 146 181 227 278 319
#     4   9  16  30  49  73 107 132 174 215 266 326
#     4  10  20  35  56  81 111 141 179 228 275 323
#
# _framework density 16.830421999999999
#
# number of rings (size 3 to 8) (size 9 to 14) (size 15 to 20)
#    0.600    1.200    4.000    4.800    0.000    3.200 
#    0.000    0.000    0.000    4.200    0.000    0.000 
#    0.000    0.000    0.000    0.000    0.000    0.000 
#
# Total GULP energy -222772.510419 kJ/mol
# GULP energy per Si atom -5569.312760 kJ/mol
# Density = 1.679212 g / cm^3
# Si number density = 16.830422 Si / 1000 Ang^3
#
#
#
# Elastic Constant Matrix: (Units=GPa)
#
#
# Indices 1 2 3 4 5 6 
#
# 1 137.6648 25.0489 50.2703 0.0000 0.0000 0.0000
# 2 25.0489 88.4808 23.6459 0.0000 0.0000 0.0000
# 3 50.2703 23.6459 48.6247 0.0000 0.0000 0.0000
# 4 0.0000 0.0000 0.0000 -8.3153 0.0000 0.0000
# 5 0.0000 0.0000 0.0000 0.0000 20.3881 0.0000
# 6 0.0000 0.0000 0.0000 0.0000 0.0000 15.9592
#
#
#
# Elastic Compliance Matrix: (Units=1/GPa)
#
#
# Indices 1 2 3 4 5 6 
#
# 1 0.011670 -0.000091 -0.012021 0.000000 0.000000 0.000000
# 2 -0.000091 0.012991 -0.006223 0.000000 0.000000 0.000000
# 3 -0.012021 -0.006223 0.036019 0.000000 0.000000 0.000000
# 4 0.000000 0.000000 0.000000 -0.120260 0.000000 0.000000
# 5 0.000000 0.000000 0.000000 0.000000 0.049048 0.000000
# 6 0.000000 0.000000 0.000000 0.000000 0.000000 0.062660
#
#
# Mechanical properties :
#
#
# Convention : Reuss Voigt Hill
#
# Bulk Modulus (GPa) = 41.64859 52.52228 47.08543
# Shear Modulus (GPa) = 51.65222 17.32676 34.48949
#
# Velocity S-wave (km/s) = 5.54585 3.21205 4.53176
# Velocity P-wave (km/s) = 8.11223 6.71050 7.44443
#
# Compressibility (1/GPa) = 0.02401042
#
# Stress axis : x y z
#
# Youngs Moduli (GPa) = 85.68846 76.97774 27.76288
#
# Poissons Ratio (x) = 0.00703 0.33373
# Poissons Ratio (y) = 0.00783 0.17276
# Poissons Ratio (z) = 1.03004 0.47902
#
# Static dielectric constant tensor:
#      x y z
#    x 1.603180 0.000000 0.000000 
#    y 0.000000 1.602730 0.000000 
#    z 0.000000 0.000000 1.569610 
# 
# From -- ./inp_files/17923.got.cif
#   From: 2010.05.17/outbox.cif.g08.bks.cpg/sg51_9_cif.got.tgz:17923.got - 2010.06.03 11:52:47.
