data_PCOD9400383
_publ_section_title
;
Structure prediction by ZEFSAII (Michael W. Deem and Ramdas Pophale) SiO2 
 PCOD9400383
Probable space group: P M M A
;
_chemical_formula_sum "Si O2"
_cell_formula_units_Z 64
_cell_length_a 8.765334
_cell_length_b 19.517303
_cell_length_c 24.168357
_cell_angle_alpha 90.000000
_cell_angle_beta 90.000000
_cell_angle_gamma 90.000000
_cell_volume 4134.618098
_symmetry_space_group_name_H-M "P M M A"
_symmetry_group_IT_number 51
_symmetry_cell_setting 'orthorhombic'
loop_
_space_group_symop_operation_xyz
x,y,z
1/2-x,-y,z
1/2+x,-y,-z
-x,y,-z
-x,-y,-z
1/2+x,y,-z
1/2-x,y,z
x,-y,z
loop_
_atom_site_type_symbol
_atom_site_label
_atom_site_fract_x
_atom_site_fract_y
_atom_site_fract_z
Si Si1 0.433695 0.922457 0.259343
Si Si2 0.933675 0.579252 0.724618
Si Si3 0.067360 0.579527 0.939763
Si Si4 0.067598 0.340847 0.163093
Si Si5 0.435298 0.075736 0.388909
Si Si6 0.431999 0.215991 0.775100
Si Si7 0.566886 0.782278 0.559335
Si Si8 0.432125 0.703440 0.662473
O O1 0.250000 0.916295 0.256795
O O2 0.477778 0.915331 0.324310
O O3 0.508685 0.861450 0.225271
O O4 0.474548 0.000000 0.242280
O O5 0.750000 0.584202 0.719127
O O6 0.977834 0.500000 0.720321
O O7 0.973797 0.609748 0.785035
O O8 0.011283 0.628239 0.679733
O O9 0.250000 0.583745 0.941547
O O10 0.024804 0.500000 0.927598
O O11 0.003036 0.628226 0.892249
O O12 0.000000 0.596260 0.000000
O O13 0.250000 0.339348 0.158759
O O14 0.006109 0.266075 0.179797
O O15 0.250000 0.075323 0.390251
O O16 0.486810 0.140698 0.424093
O O17 0.487528 0.000000 0.407233
O O18 0.250000 0.218240 0.780229
O O19 0.473942 0.248397 0.715037
O O20 0.500000 0.763491 0.500000
O O21 0.750000 0.781912 0.557569
O O22 0.510250 0.732621 0.607859
O O23 0.250000 0.704734 0.656370
#
# Coordination Sequence:
#
# PCOD9400383 Si02
#       8
#     8   8   8   8   8   8   8   8
#     4   9  16  28  47  68  91 123 161 195 234 288
#     4   9  18  32  51  74  97 122 152 188 233 283
#     4  10  20  33  49  70 100 138 176 210 244 282
#     4  10  19  31  49  72 100 132 168 204 238 279
#     4   8  15  28  46  66  88 117 152 188 227 274
#     4  10  19  30  46  69  98 126 157 199 244 286
#     4  11  21  33  50  67  89 118 152 191 232 279
#     4  10  20  33  48  68  93 119 151 188 231 282
#
# _framework density 15.47906
#
# number of rings (size 3 to 8) (size 9 to 14) (size 15 to 20)
#    0.000    2.375    1.250    3.000    0.000    3.500 
#    0.000    0.000    0.000    1.500    0.000    0.000 
#    0.000    0.500    0.000    1.875    0.000    2.875 
#
# Total GULP energy -356982.745757 kJ/mol
# GULP energy per Si atom -5577.855402 kJ/mol
# Density = 1.544383 g / cm^3
# Si number density = 15.479060 Si / 1000 Ang^3
#
#
#
# Elastic Constant Matrix: (Units=GPa)
#
#
# Indices 1 2 3 4 5 6 
#
# 1 38.8593 39.7739 40.6552 0.0000 0.0000 0.0000
# 2 39.7739 115.3322 62.5574 0.0000 0.0000 0.0000
# 3 40.6552 62.5574 103.9717 0.0000 0.0000 0.0000
# 4 0.0000 0.0000 0.0000 24.5114 0.0000 0.0000
# 5 0.0000 0.0000 0.0000 0.0000 21.8813 0.0000
# 6 0.0000 0.0000 0.0000 0.0000 0.0000 20.5188
#
#
#
# Elastic Compliance Matrix: (Units=1/GPa)
#
#
# Indices 1 2 3 4 5 6 
#
# 1 0.050140 -0.009882 -0.013660 0.000000 0.000000 0.000000
# 2 -0.009882 0.014819 -0.005052 0.000000 0.000000 0.000000
# 3 -0.013660 -0.005052 0.017999 0.000000 0.000000 0.000000
# 4 0.000000 0.000000 0.000000 0.040797 0.000000 0.000000
# 5 0.000000 0.000000 0.000000 0.000000 0.045701 0.000000
# 6 0.000000 0.000000 0.000000 0.000000 0.000000 0.048736
#
#
# Mechanical properties :
#
#
# Convention : Reuss Voigt Hill
#
# Bulk Modulus (GPa) = 38.80551 60.45958 49.63254
# Shear Modulus (GPa) = 17.60748 21.06074 19.33411
#
# Velocity S-wave (km/s) = 3.37635 3.69263 3.53802
# Velocity P-wave (km/s) = 6.35010 7.57129 6.98742
#
# Compressibility (1/GPa) = 0.02576954
#
# Stress axis : x y z
#
# Youngs Moduli (GPa) = 19.94422 67.48147 55.55859
#
# Poissons Ratio (x) = 0.66686 0.75893
# Poissons Ratio (y) = 0.19709 0.28068
# Poissons Ratio (z) = 0.27244 0.34092
#
# Static dielectric constant tensor:
#      x y z
#    x 1.512560 0.000000 0.000000 
#    y 0.000000 1.519120 0.000000 
#    z 0.000000 0.000000 1.484860 
# 
# From -- ./inp_files/32628.got.cif
#   From: 2010.05.17/outbox.cif.g08.bks.cpg/sg51_17_cif.got.tgz:32628.got - 2010.06.03 11:52:47.
