data_PCOD9400827
_publ_section_title
;
Structure prediction by ZEFSAII (Michael W. Deem and Ramdas Pophale) SiO2 
 PCOD9400827
Probable space group: P M M A
;
_chemical_formula_sum "Si O2"
_cell_formula_units_Z 40
_cell_length_a 8.228039
_cell_length_b 27.712707
_cell_length_c 9.290185
_cell_angle_alpha 90.000000
_cell_angle_beta 90.000000
_cell_angle_gamma 90.000000
_cell_volume 2118.359448
_symmetry_space_group_name_H-M "P M M A"
_symmetry_group_IT_number 51
_symmetry_cell_setting 'orthorhombic'
loop_
_space_group_symop_operation_xyz
x,y,z
1/2-x,-y,z
1/2+x,-y,-z
-x,y,-z
-x,-y,-z
1/2+x,y,-z
1/2-x,y,z
x,-y,z
loop_
_atom_site_type_symbol
_atom_site_label
_atom_site_fract_x
_atom_site_fract_y
_atom_site_fract_z
Si Si1 0.443671 0.154806 0.334401
Si Si2 0.553652 0.448201 0.667228
Si Si3 0.053276 0.248813 0.164152
Si Si4 0.553389 0.656851 0.665954
Si Si5 0.444347 0.052060 0.667037
O O1 0.500000 0.158133 0.500000
O O2 0.250000 0.156139 0.335259
O O3 0.505704 0.200727 0.245853
O O4 0.494602 0.102728 0.271621
O O5 0.500000 0.448218 0.500000
O O6 0.750000 0.448345 0.672677
O O7 0.496847 0.500000 0.729395
O O8 0.498096 0.395904 0.723692
O O9 0.250000 0.248732 0.170277
O O10 0.995064 0.297380 0.243681
O O11 0.000000 0.248438 0.000000
O O12 0.500000 0.661437 0.500000
O O13 0.750000 0.657066 0.668384
O O14 0.500000 0.052256 0.500000
O O15 0.250000 0.052966 0.669918
O O16 0.499789 0.000000 0.728293
#
# Coordination Sequence:
#
# PCOD9400827 Si02
#       5
#     8   8   8   8   8
#     4  10  19  31  49  73  97 122 155 192 231 276
#     4   8  13  22  39  64  92 119 146 181 226 272
#     4  10  22  36  49  67  92 124 160 196 235 279
#     4   9  17  30  48  71  96 121 154 193 232 277
#     4   9  16  26  43  69  98 125 152 184 225 271
#
# _framework density 18.882536000000002
#
# number of rings (size 3 to 8) (size 9 to 14) (size 15 to 20)
#    0.000    2.800    0.000    3.000    0.000    3.600 
#    0.000    0.000    0.000    1.200    0.000    0.000 
#    0.000    0.000    0.000    0.000    0.000    0.000 
#
# Total GULP energy -222714.285392 kJ/mol
# GULP energy per Si atom -5567.857135 kJ/mol
# Density = 1.883956 g / cm^3
# Si number density = 18.882536 Si / 1000 Ang^3
#
#
#
# Elastic Constant Matrix: (Units=GPa)
#
#
# Indices 1 2 3 4 5 6 
#
# 1 17.9524 23.6939 2.8563 0.0000 0.0000 0.0000
# 2 23.6939 264.0413 71.2510 0.0000 0.0000 0.0000
# 3 2.8563 71.2510 50.3974 0.0000 0.0000 0.0000
# 4 0.0000 0.0000 0.0000 -3.7492 0.0000 0.0000
# 5 0.0000 0.0000 0.0000 0.0000 18.0404 0.0000
# 6 0.0000 0.0000 0.0000 0.0000 0.0000 17.0235
#
#
#
# Elastic Compliance Matrix: (Units=1/GPa)
#
#
# Indices 1 2 3 4 5 6 
#
# 1 0.064831 -0.007803 0.007358 0.000000 0.000000 0.000000
# 2 -0.007803 0.007063 -0.009543 0.000000 0.000000 0.000000
# 3 0.007358 -0.009543 0.032917 0.000000 0.000000 0.000000
# 4 0.000000 0.000000 0.000000 -0.266723 0.000000 0.000000
# 5 0.000000 0.000000 0.000000 0.000000 0.055431 0.000000
# 6 0.000000 0.000000 0.000000 0.000000 0.000000 0.058742
#
#
# Mechanical properties :
#
#
# Convention : Reuss Voigt Hill
#
# Bulk Modulus (GPa) = 11.78777 58.66592 35.22684
# Shear Modulus (GPa) = 9699.73060 21.90226 4860.81643
#
# Velocity S-wave (km/s) = 71.74978 3.40946 50.79200
# Velocity P-wave (km/s) = 82.88726 6.82902 58.80873
#
# Compressibility (1/GPa) = 0.08483370
#
# Stress axis : x y z
#
# Youngs Moduli (GPa) = 15.42471 141.59140 30.37981
#
# Poissons Ratio (x) = 1.10485 -0.22352
# Poissons Ratio (y) = 0.12036 0.28991
# Poissons Ratio (z) = -0.11349 1.35116
#
# Static dielectric constant tensor:
#      x y z
#    x 1.662770 0.000000 0.000000 
#    y 0.000000 1.758040 0.000000 
#    z 0.000000 0.000000 1.586910 
# 
# From -- ./inp_files/5495.got.cif
#   From: 2010.05.17/outbox.cif.g08.bks.cpg/sg51_3_cif.got.tgz:5495.got - 2010.06.03 11:52:47.
