data_PCOD9400299
_publ_section_title
;
Structure prediction by ZEFSAII (Michael W. Deem and Ramdas Pophale) SiO2 
 PCOD9400299
Probable space group: P M M A
;
_chemical_formula_sum "Si O2"
_cell_formula_units_Z 56
_cell_length_a 7.605564
_cell_length_b 20.639715
_cell_length_c 16.154301
_cell_angle_alpha 90.000000
_cell_angle_beta 90.000000
_cell_angle_gamma 90.000000
_cell_volume 2535.848432
_symmetry_space_group_name_H-M "P M M A"
_symmetry_group_IT_number 51
_symmetry_cell_setting 'orthorhombic'
loop_
_space_group_symop_operation_xyz
x,y,z
1/2-x,-y,z
1/2+x,-y,-z
-x,y,-z
-x,-y,-z
1/2+x,y,-z
1/2-x,y,z
x,-y,z
loop_
_atom_site_type_symbol
_atom_site_label
_atom_site_fract_x
_atom_site_fract_y
_atom_site_fract_z
Si Si1 0.454875 0.817249 0.275702
Si Si2 0.055565 0.171079 0.093798
Si Si3 0.962615 0.569725 0.205402
Si Si4 0.459193 0.681964 0.911872
Si Si5 0.461799 0.285370 0.409325
Si Si6 0.547941 0.570394 0.606155
Si Si7 0.959657 0.074105 0.405468
O O1 0.250000 0.801076 0.259520
O O2 0.533002 0.836685 0.185306
O O3 0.528146 0.756860 0.330804
O O4 0.463466 0.877349 0.338329
O O5 0.250000 0.143209 0.102214
O O6 0.052783 0.249172 0.089043
O O7 0.000000 0.150540 0.000000
O O8 0.750000 0.572993 0.214161
O O9 0.003055 0.500000 0.165181
O O10 0.020414 0.632731 0.157065
O O11 0.046047 0.570186 0.295025
O O12 0.250000 0.693460 0.903918
O O13 0.500000 0.650729 0.000000
O O14 0.500000 0.255543 0.500000
O O15 0.250000 0.288764 0.400733
O O16 0.533003 0.359303 0.413115
O O17 0.750000 0.570537 0.576255
O O18 0.466962 0.500000 0.583732
O O19 0.750000 0.074935 0.395272
O O20 0.000000 0.093360 0.500000
O O21 0.022710 0.000000 0.395096
#
# Coordination Sequence:
#
# PCOD9400299 Si02
#       7
#     8   8   8   8   8   8   8
#     4  10  21  36  56  82 113 148 183 225 274 323
#     4  10  20  35  55  79 107 139 178 223 270 319
#     4   9  18  31  45  63  87 115 154 206 260 316
#     4  10  19  30  45  65  91 124 162 207 263 323
#     4  10  21  35  50  74 106 137 175 221 268 319
#     4   9  18  33  51  68  90 126 170 214 261 314
#     4  10  21  37  59  88 121 155 189 225 265 315
#
# _framework density 22.083338999999999
#
# number of rings (size 3 to 8) (size 9 to 14) (size 15 to 20)
#    0.000    2.286    0.000    3.429    0.000    7.143 
#    0.000    0.000    0.000    0.429    0.000    0.000 
#    0.000    0.000    0.000    0.000    0.000    0.000 
#
# Total GULP energy -312094.771581 kJ/mol
# GULP energy per Si atom -5573.120921 kJ/mol
# Density = 2.203308 g / cm^3
# Si number density = 22.083339 Si / 1000 Ang^3
#
#
#
# Elastic Constant Matrix: (Units=GPa)
#
#
# Indices 1 2 3 4 5 6 
#
# 1 51.9671 -0.2818 -1.5228 0.0000 0.0000 0.0000
# 2 -0.2818 78.4501 48.0164 0.0000 0.0000 0.0000
# 3 -1.5228 48.0164 169.4620 0.0000 0.0000 0.0000
# 4 0.0000 0.0000 0.0000 26.4909 0.0000 0.0000
# 5 0.0000 0.0000 0.0000 0.0000 21.6037 0.0000
# 6 0.0000 0.0000 0.0000 0.0000 0.0000 15.0686
#
#
#
# Elastic Compliance Matrix: (Units=1/GPa)
#
#
# Indices 1 2 3 4 5 6 
#
# 1 0.019248 -0.000044 0.000186 0.000000 0.000000 0.000000
# 2 -0.000044 0.015422 -0.004370 0.000000 0.000000 0.000000
# 3 0.000186 -0.004370 0.007141 0.000000 0.000000 0.000000
# 4 0.000000 0.000000 0.000000 0.037749 0.000000 0.000000
# 5 0.000000 0.000000 0.000000 0.000000 0.046288 0.000000
# 6 0.000000 0.000000 0.000000 0.000000 0.000000 0.066363
#
#
# Mechanical properties :
#
#
# Convention : Reuss Voigt Hill
#
# Bulk Modulus (GPa) = 29.98250 43.58919 36.78585
# Shear Modulus (GPa) = 23.60870 29.54380 26.57625
#
# Velocity S-wave (km/s) = 3.27322 3.66161 3.47284
# Velocity P-wave (km/s) = 5.28126 6.13660 5.72492
#
# Compressibility (1/GPa) = 0.03335279
#
# Stress axis : x y z
#
# Youngs Moduli (GPa) = 51.95307 64.84440 140.03791
#
# Poissons Ratio (x) = 0.00288 -0.02599
# Poissons Ratio (y) = 0.00231 0.61197
# Poissons Ratio (z) = -0.00964 0.28337
#
# Static dielectric constant tensor:
#      x y z
#    x 1.842800 0.000000 0.000000 
#    y 0.000000 1.805450 0.000000 
#    z 0.000000 0.000000 1.861620 
# 
# From -- ./inp_files/21701.got.cif
#   From: 2010.05.17/outbox.cif.g08.bks.cpg/sg51_11_cif.got.tgz:21701.got - 2010.06.03 11:52:47.
