data_PCOD9400722
_publ_section_title
;
Structure prediction by ZEFSAII (Michael W. Deem and Ramdas Pophale) SiO2 
 PCOD9400722
Probable space group: P M M A
;
_chemical_formula_sum "Si O2"
_cell_formula_units_Z 56
_cell_length_a 14.735991
_cell_length_b 9.386570
_cell_length_c 18.620221
_cell_angle_alpha 90.000000
_cell_angle_beta 90.000000
_cell_angle_gamma 90.000000
_cell_volume 2575.556622
_symmetry_space_group_name_H-M "P M M A"
_symmetry_group_IT_number 51
_symmetry_cell_setting 'orthorhombic'
loop_
_space_group_symop_operation_xyz
x,y,z
1/2-x,-y,z
1/2+x,-y,-z
-x,y,-z
-x,-y,-z
1/2+x,y,-z
1/2-x,y,z
x,-y,z
loop_
_atom_site_type_symbol
_atom_site_label
_atom_site_fract_x
_atom_site_fract_y
_atom_site_fract_z
Si Si1 0.110687 0.163708 0.141597
Si Si2 0.858461 0.661632 0.559253
Si Si3 0.889316 0.335823 0.999697
Si Si4 0.611111 0.835663 0.141330
Si Si5 0.608360 0.662104 0.280417
Si Si6 0.358766 0.839860 0.575835
Si Si7 0.108542 0.337560 0.279460
O O1 0.138898 0.255578 0.072729
O O2 0.141266 0.238163 0.215218
O O3 0.999769 0.163314 0.141684
O O4 0.139522 0.000000 0.136365
O O5 0.750000 0.651251 0.549900
O O6 0.896101 0.500000 0.555071
O O7 0.893181 0.761109 0.495649
O O8 0.873621 0.716123 0.639991
O O9 0.860067 0.500000 0.001459
O O10 0.860842 0.248844 0.070070
O O11 0.000000 0.336848 0.000000
O O12 0.641878 0.752733 0.212526
O O13 0.640065 0.000000 0.140853
O O14 0.642927 0.500000 0.281971
O O15 0.625242 0.743872 0.354415
O O16 0.499834 0.653862 0.271797
O O17 0.250000 0.851431 0.568438
O O18 0.395743 0.000000 0.584360
O O19 0.143993 0.500000 0.274231
#
# Coordination Sequence:
#
# PCOD9400722 Si02
#       7
#     8   8   8   8   8   8   8
#     4   9  16  25  39  61  90 124 158 192 232 277
#     4   9  18  34  54  72  92 122 159 195 232 278
#     4   9  15  23  37  58  87 123 159 193 231 275
#     4   9  16  26  40  61  91 123 156 193 232 276
#     4  10  19  31  48  70  97 126 156 192 235 282
#     4  10  21  36  52  70  93 121 155 195 236 279
#     4   9  18  31  47  70  98 125 155 194 237 279
#
# _framework density 21.742874
#
# number of rings (size 3 to 8) (size 9 to 14) (size 15 to 20)
#    0.000    2.714    0.000    2.143    0.000    7.714 
#    0.000    2.857    0.000    0.000    0.000    1.000 
#    0.000    5.714    0.000    0.000    0.000    0.000 
#
# Total GULP energy -312876.612795 kJ/mol
# GULP energy per Si atom -5587.082371 kJ/mol
# Density = 2.169339 g / cm^3
# Si number density = 21.742874 Si / 1000 Ang^3
#
#
#
# Elastic Constant Matrix: (Units=GPa)
#
#
# Indices 1 2 3 4 5 6 
#
# 1 66.3338 5.4320 -0.4422 0.0000 0.0000 0.0000
# 2 5.4320 224.5113 162.5845 0.0000 0.0000 0.0000
# 3 -0.4422 162.5845 248.7702 0.0000 0.0000 0.0000
# 4 0.0000 0.0000 0.0000 49.2960 0.0000 0.0000
# 5 0.0000 0.0000 0.0000 0.0000 48.9279 0.0000
# 6 0.0000 0.0000 0.0000 0.0000 0.0000 18.1876
#
#
#
# Elastic Compliance Matrix: (Units=1/GPa)
#
#
# Indices 1 2 3 4 5 6 
#
# 1 0.015139 -0.000732 0.000506 0.000000 0.000000 0.000000
# 2 -0.000732 0.008492 -0.005551 0.000000 0.000000 0.000000
# 3 0.000506 -0.005551 0.007649 0.000000 0.000000 0.000000
# 4 0.000000 0.000000 0.000000 0.020286 0.000000 0.000000
# 5 0.000000 0.000000 0.000000 0.000000 0.020438 0.000000
# 6 0.000000 0.000000 0.000000 0.000000 0.000000 0.054983
#
#
# Mechanical properties :
#
#
# Convention : Reuss Voigt Hill
#
# Bulk Modulus (GPa) = 50.70194 97.19600 73.94897
# Shear Modulus (GPa) = 34.45525 48.08505 41.27015
#
# Velocity S-wave (km/s) = 3.98511 4.70779 4.36145
# Velocity P-wave (km/s) = 6.67415 8.62268 7.71022
#
# Compressibility (1/GPa) = 0.01972311
#
# Stress axis : x y z
#
# Youngs Moduli (GPa) = 66.05627 117.76040 130.74214
#
# Poissons Ratio (x) = 0.08625 -0.06610
# Poissons Ratio (y) = 0.04838 0.72577
# Poissons Ratio (z) = -0.03340 0.65371
#
# Static dielectric constant tensor:
#      x y z
#    x 1.837550 0.000000 0.000000 
#    y 0.000000 1.767730 0.000000 
#    z 0.000000 0.000000 1.739500 
# 
# From -- ./inp_files/30437.got.cif
#   From: 2010.05.17/outbox.cif.g08.bks.cpg/sg51_16_cif.got.tgz:30437.got - 2010.06.03 11:52:47.
