data_PCOD9400160
_publ_section_title
;
Structure prediction by ZEFSAII (Michael W. Deem and Ramdas Pophale) SiO2 
 PCOD9400160
Probable space group: P M M A
;
_chemical_formula_sum "Si O2"
_cell_formula_units_Z 64
_cell_length_a 15.094748
_cell_length_b 8.016849
_cell_length_c 27.311755
_cell_angle_alpha 90.000000
_cell_angle_beta 90.000000
_cell_angle_gamma 90.000000
_cell_volume 3305.058710
_symmetry_space_group_name_H-M "P M M A"
_symmetry_group_IT_number 51
_symmetry_cell_setting 'orthorhombic'
loop_
_space_group_symop_operation_xyz
x,y,z
1/2-x,-y,z
1/2+x,-y,-z
-x,y,-z
-x,-y,-z
1/2+x,y,-z
1/2-x,y,z
x,-y,z
loop_
_atom_site_type_symbol
_atom_site_label
_atom_site_fract_x
_atom_site_fract_y
_atom_site_fract_z
Si Si1 0.149534 0.300388 0.761235
Si Si2 0.852169 0.296485 0.498410
Si Si3 0.505561 0.302816 0.055026
Si Si4 0.149847 0.802364 0.867980
Si Si5 0.998128 0.699730 0.311894
Si Si6 0.647862 0.201486 0.762533
Si Si7 0.003055 0.703822 0.423010
Si Si8 0.147492 0.798324 0.127242
O O1 0.250000 0.234039 0.758026
O O2 0.153761 0.500000 0.755610
O O3 0.115676 0.266324 0.816098
O O4 0.084451 0.233141 0.719724
O O5 0.750000 0.239011 0.497567
O O6 0.849584 0.500000 0.498438
O O7 0.913899 0.246892 0.452320
O O8 0.910332 0.245245 0.545760
O O9 0.518419 0.500000 0.051386
O O10 0.586554 0.235372 0.087030
O O11 0.417155 0.268018 0.085923
O O12 0.500000 0.232899 0.000000
O O13 0.250000 0.736617 0.875368
O O14 0.154196 0.000000 0.862302
O O15 0.987358 0.500000 0.315672
O O16 0.003914 0.763919 0.367256
O O17 0.084500 0.733420 0.279525
O O18 0.750000 0.251544 0.755099
O O19 0.621351 0.255644 0.817608
O O20 0.644687 0.000000 0.762100
O O21 0.003883 0.500000 0.422995
O O22 0.250000 0.750503 0.119574
O O23 0.143159 0.000000 0.126431
#
# Coordination Sequence:
#
# PCOD9400160 Si02
#       8
#     8   8   8   8   8   8   8   8
#     4   9  18  32  49  71 101 134 163 194 241 299
#     4   8  13  23  39  56  81 122 163 198 240 285
#     4  11  24  38  53  77 107 136 165 201 250 304
#     4  10  21  37  57  78  99 129 171 213 249 290
#     4  10  19  29  45  72 103 130 158 199 246 289
#     4   9  19  35  52  71  97 129 162 195 238 292
#     4   8  15  25  36  59  92 120 154 198 240 284
#     4   9  19  37  59  79 100 130 169 211 249 288
#
# _framework density 19.364256000000001
#
# number of rings (size 3 to 8) (size 9 to 14) (size 15 to 20)
#    0.000    2.750    0.000    3.000    0.000    6.750 
#    0.000    7.500    0.000    0.000    0.000    1.750 
#    0.000    1.000    0.000    0.000    0.000    0.000 
#
# Total GULP energy -356990.288494 kJ/mol
# GULP energy per Si atom -5577.973258 kJ/mol
# Density = 1.932018 g / cm^3
# Si number density = 19.364256 Si / 1000 Ang^3
#
#
#
# Elastic Constant Matrix: (Units=GPa)
#
#
# Indices 1 2 3 4 5 6 
#
# 1 121.8686 -0.9366 88.1033 0.0000 0.0000 0.0000
# 2 -0.9366 10.5721 -0.0753 0.0000 0.0000 0.0000
# 3 88.1033 -0.0753 180.8967 0.0000 0.0000 0.0000
# 4 0.0000 0.0000 0.0000 -51.7211 0.0000 0.0000
# 5 0.0000 0.0000 0.0000 0.0000 374.1399 0.0000
# 6 0.0000 0.0000 0.0000 0.0000 0.0000 17.1510
#
#
#
# Elastic Compliance Matrix: (Units=1/GPa)
#
#
# Indices 1 2 3 4 5 6 
#
# 1 0.012677 0.001079 -0.006174 0.000000 0.000000 0.000000
# 2 0.001079 0.094681 -0.000486 0.000000 0.000000 0.000000
# 3 -0.006174 -0.000486 0.008535 0.000000 0.000000 0.000000
# 4 0.000000 0.000000 0.000000 -0.019334 0.000000 0.000000
# 5 0.000000 0.000000 0.000000 0.000000 0.002673 0.000000
# 6 0.000000 0.000000 0.000000 0.000000 0.000000 0.058306
#
#
# Mechanical properties :
#
#
# Convention : Reuss Voigt Hill
#
# Bulk Modulus (GPa) = 9.54829 54.16890 31.85859
# Shear Modulus (GPa) = 24.55697 82.99703 53.77700
#
# Velocity S-wave (km/s) = 3.56499 6.55393 5.27556
# Velocity P-wave (km/s) = 4.67836 9.23614 7.32098
#
# Compressibility (1/GPa) = 0.10473078
#
# Stress axis : x y z
#
# Youngs Moduli (GPa) = 78.88248 10.56183 117.16927
#
# Poissons Ratio (x) = -0.01140 0.72337
# Poissons Ratio (y) = -0.08513 0.05696
# Poissons Ratio (z) = 0.48700 0.00513
#
# Static dielectric constant tensor:
#      x y z
#    x 1.676560 0.000000 0.000000 
#    y 0.000000 1.688650 0.000000 
#    z 0.000000 0.000000 1.668120 
# 
# From -- ./inp_files/35644.got.cif
#   From: 2010.05.17/outbox.cif.g08.bks.cpg/sg51_18_cif.got.tgz:35644.got - 2010.06.03 11:52:47.
