data_PCOD9400208
_publ_section_title
;
Structure prediction by ZEFSAII (Michael W. Deem and Ramdas Pophale) SiO2 
 PCOD9400208
Probable space group: P M M A
;
_chemical_formula_sum "Si O2"
_cell_formula_units_Z 52
_cell_length_a 9.056288
_cell_length_b 12.911257
_cell_length_c 30.868893
_cell_angle_alpha 90.000000
_cell_angle_beta 90.000000
_cell_angle_gamma 90.000000
_cell_volume 3609.439829
_symmetry_space_group_name_H-M "P M M A"
_symmetry_group_IT_number 51
_symmetry_cell_setting 'orthorhombic'
loop_
_space_group_symop_operation_xyz
x,y,z
1/2-x,-y,z
1/2+x,-y,-z
-x,y,-z
-x,-y,-z
1/2+x,y,-z
1/2-x,y,z
x,-y,z
loop_
_atom_site_type_symbol
_atom_site_label
_atom_site_fract_x
_atom_site_fract_y
_atom_site_fract_z
Si Si1 0.420435 0.126223 0.955850
Si Si2 0.426742 0.618038 0.545762
Si Si3 0.079506 0.873747 0.132485
Si Si4 0.571559 0.000000 0.547666
Si Si5 0.072744 0.814746 0.602346
Si Si6 0.419999 0.126017 0.779420
Si Si7 0.923396 0.125195 0.690324
O O1 0.250000 0.157881 0.955397
O O2 0.502725 0.159714 0.912120
O O3 0.423223 0.000000 0.955882
O O4 0.500000 0.159840 0.000000
O O5 0.500000 0.646470 0.500000
O O6 0.250000 0.618874 0.540010
O O7 0.471867 0.500000 0.556544
O O8 0.461578 0.702806 0.581910
O O9 0.250000 0.842153 0.133902
O O10 0.993742 0.839823 0.175595
O O11 0.076852 0.000000 0.132500
O O12 0.500000 0.000000 0.500000
O O13 0.511185 0.099435 0.573688
O O14 0.750000 0.000000 0.545734
O O15 0.250000 0.831929 0.600378
O O16 0.014915 0.826176 0.651101
O O17 0.250000 0.159172 0.776360
O O18 0.511841 0.156380 0.736971
O O19 0.420628 0.000000 0.780118
O O20 0.750000 0.149713 0.686993
O O21 0.937775 0.000000 0.686702
#
# Coordination Sequence:
#
# PCOD9400208 Si02
#       7
#     8   8   8   4   8   8   8
#     4   9  15  21  28  38  53  74 102 139 185 234
#     4   9  19  35  53  72  91 112 139 171 205 241
#     4   9  15  22  31  43  59  80 109 145 186 232
#     4  12  24  36  48  66  92 118 142 170 201 242
#     4  11  21  33  50  69  90 115 141 170 204 246
#     4   9  16  25  37  51  68  92 122 155 189 232
#     4  10  19  30  43  60  83 109 134 164 199 240
#
# _framework density 14.406667000000001
#
# number of rings (size 3 to 8) (size 9 to 14) (size 15 to 20)
#    0.000    2.308    0.769    3.462    0.000    8.615 
#    0.000    0.000    0.000    0.000    0.000    0.000 
#    0.000    0.000    0.000    0.000    0.000    0.000 
#
# Total GULP energy -289865.189502 kJ/mol
# GULP energy per Si atom -5574.330567 kJ/mol
# Density = 1.437388 g / cm^3
# Si number density = 14.406667 Si / 1000 Ang^3
#
#
#
# Elastic Constant Matrix: (Units=GPa)
#
#
# Indices 1 2 3 4 5 6 
#
# 1 108.8648 25.7852 69.2811 0.0000 0.0000 0.0000
# 2 25.7852 28.2420 32.0023 0.0000 0.0000 0.0000
# 3 69.2811 32.0023 144.8584 0.0000 0.0000 0.0000
# 4 0.0000 0.0000 0.0000 4.8761 0.0000 0.0000
# 5 0.0000 0.0000 0.0000 0.0000 31.9823 0.0000
# 6 0.0000 0.0000 0.0000 0.0000 0.0000 5.2299
#
#
#
# Elastic Compliance Matrix: (Units=1/GPa)
#
#
# Indices 1 2 3 4 5 6 
#
# 1 0.014176 -0.007017 -0.005230 0.000000 0.000000 0.000000
# 2 -0.007017 0.050705 -0.007846 0.000000 0.000000 0.000000
# 3 -0.005230 -0.007846 0.011138 0.000000 0.000000 0.000000
# 4 0.000000 0.000000 0.000000 0.205084 0.000000 0.000000
# 5 0.000000 0.000000 0.000000 0.000000 0.031267 0.000000
# 6 0.000000 0.000000 0.000000 0.000000 0.000000 0.191208
#
#
# Mechanical properties :
#
#
# Convention : Reuss Voigt Hill
#
# Bulk Modulus (GPa) = 27.90635 59.56692 43.73664
# Shear Modulus (GPa) = 8.99754 18.74410 13.87082
#
# Velocity S-wave (km/s) = 2.50179 3.61095 3.10628
# Velocity P-wave (km/s) = 5.26856 7.66954 6.57950
#
# Compressibility (1/GPa) = 0.03583414
#
# Stress axis : x y z
#
# Youngs Moduli (GPa) = 70.54280 19.72185 89.78400
#
# Poissons Ratio (x) = 0.13838 0.46954
# Poissons Ratio (y) = 0.49497 0.70445
# Poissons Ratio (z) = 0.36892 0.15474
#
# Static dielectric constant tensor:
#      x y z
#    x 1.482430 0.000000 0.000000 
#    y 0.000000 1.447760 0.000000 
#    z 0.000000 0.000000 1.472710 
# 
# From -- ./inp_files/37324.got.cif
#   From: 2010.05.17/outbox.cif.g08.bks.cpg/sg51_19_cif.got.tgz:37324.got - 2010.06.03 11:52:47.
