data_PCOD9400661
_publ_section_title
;
Structure prediction by ZEFSAII (Michael W. Deem and Ramdas Pophale) SiO2 
 PCOD9400661
Probable space group: P M M A
;
_chemical_formula_sum "Si O2"
_cell_formula_units_Z 64
_cell_length_a 7.955417
_cell_length_b 20.813525
_cell_length_c 18.351467
_cell_angle_alpha 90.000000
_cell_angle_beta 90.000000
_cell_angle_gamma 90.000000
_cell_volume 3038.640872
_symmetry_space_group_name_H-M "P M M A"
_symmetry_group_IT_number 51
_symmetry_cell_setting 'orthorhombic'
loop_
_space_group_symop_operation_xyz
x,y,z
1/2-x,-y,z
1/2+x,-y,-z
-x,y,-z
-x,-y,-z
1/2+x,y,-z
1/2-x,y,z
x,-y,z
loop_
_atom_site_type_symbol
_atom_site_label
_atom_site_fract_x
_atom_site_fract_y
_atom_site_fract_z
Si Si1 0.950889 0.393562 0.577776
Si Si2 0.945561 0.071841 0.111687
Si Si3 0.546666 0.210503 0.078084
Si Si4 0.057945 0.075948 0.272607
Si Si5 0.560631 0.878682 0.577762
Si Si6 0.451259 0.710484 0.781272
Si Si7 0.047139 0.569478 0.261007
Si Si8 0.448116 0.746689 0.619717
O O1 0.750000 0.389579 0.579964
O O2 0.005448 0.425928 0.653712
O O3 0.000000 0.422688 0.500000
O O4 0.026334 0.322206 0.583329
O O5 0.750000 0.068461 0.090360
O O6 0.021715 0.137000 0.079402
O O7 0.957531 0.084867 0.198323
O O8 0.019364 0.000000 0.097567
O O9 0.750000 0.207102 0.083299
O O10 0.485991 0.251345 0.147832
O O11 0.500000 0.239541 0.000000
O O12 0.250000 0.101057 0.261812
O O13 0.975158 0.102745 0.345986
O O14 0.069668 0.000000 0.283279
O O15 0.500000 0.902805 0.500000
O O16 0.750000 0.901980 0.585867
O O17 0.549216 0.801836 0.579080
O O18 0.250000 0.716734 0.780231
O O19 0.490349 0.634512 0.778630
O O20 0.509576 0.739753 0.703723
O O21 0.250000 0.570217 0.259778
O O22 0.990072 0.500000 0.231881
O O23 0.250000 0.762691 0.618417
#
# Coordination Sequence:
#
# PCOD9400661 Si02
#       8
#     8   8   8   8   8   8   8   8
#     4  10  19  31  47  70 103 138 171 209 254 302
#     4   9  18  34  56  80 107 140 175 210 249 297
#     4  10  21  36  54  81 114 142 171 207 249 300
#     4   9  19  35  52  70  93 123 163 210 256 304
#     4  11  22  33  46  66  93 125 164 212 263 310
#     4   9  19  35  55  78 104 135 171 213 256 303
#     4   9  19  35  54  77 104 135 174 219 264 310
#     4  10  19  33  52  71  94 127 168 210 254 303
#
# _framework density 21.062048999999998
#
# number of rings (size 3 to 8) (size 9 to 14) (size 15 to 20)
#    0.000    2.375    0.000    2.250    0.000    5.000 
#    0.000    0.000    0.000    0.375    0.000    0.000 
#    0.000    0.000    0.000    0.000    0.000    0.000 
#
# Total GULP energy -357014.313289 kJ/mol
# GULP energy per Si atom -5578.348645 kJ/mol
# Density = 2.101411 g / cm^3
# Si number density = 21.062049 Si / 1000 Ang^3
#
#
#
# Elastic Constant Matrix: (Units=GPa)
#
#
# Indices 1 2 3 4 5 6 
#
# 1 27.6970 -1.0743 0.7955 0.0000 0.0000 0.0000
# 2 -1.0743 64.1730 52.6829 0.0000 0.0000 0.0000
# 3 0.7955 52.6829 113.1450 0.0000 0.0000 0.0000
# 4 0.0000 0.0000 0.0000 -5.3762 0.0000 0.0000
# 5 0.0000 0.0000 0.0000 0.0000 20.0459 0.0000
# 6 0.0000 0.0000 0.0000 0.0000 0.0000 12.1150
#
#
#
# Elastic Compliance Matrix: (Units=1/GPa)
#
#
# Indices 1 2 3 4 5 6 
#
# 1 0.036181 0.001319 -0.000868 0.000000 0.000000 0.000000
# 2 0.001319 0.025273 -0.011777 0.000000 0.000000 0.000000
# 3 -0.000868 -0.011777 0.014328 0.000000 0.000000 0.000000
# 4 0.000000 0.000000 0.000000 -0.186005 0.000000 0.000000
# 5 0.000000 0.000000 0.000000 0.000000 0.049886 0.000000
# 6 0.000000 0.000000 0.000000 0.000000 0.000000 0.082542
#
#
# Mechanical properties :
#
#
# Convention : Reuss Voigt Hill
#
# Bulk Modulus (GPa) = 18.82223 34.42479 26.62351
# Shear Modulus (GPa) = 79.91291 15.53101 47.72196
#
# Velocity S-wave (km/s) = 6.16636 2.71844 4.76518
# Velocity P-wave (km/s) = 7.72364 5.12184 6.55316
#
# Compressibility (1/GPa) = 0.05312866
#
# Stress axis : x y z
#
# Youngs Moduli (GPa) = 27.63876 39.56728 69.79332
#
# Poissons Ratio (x) = -0.05217 0.06060
# Poissons Ratio (y) = -0.03644 0.82197
# Poissons Ratio (z) = 0.02400 0.46599
#
# Static dielectric constant tensor:
#      x y z
#    x 1.775330 0.000000 0.000000 
#    y 0.000000 1.777360 0.000000 
#    z 0.000000 0.000000 1.797280 
# 
# From -- ./inp_files/28392.got.cif
#   From: 2010.05.17/outbox.cif.g08.bks.cpg/sg51_15_cif.got.tgz:28392.got - 2010.06.03 11:52:47.
