data_PCOD9400043
_publ_section_title
;
Structure prediction by ZEFSAII (Michael W. Deem and Ramdas Pophale) SiO2 
 PCOD9400043
Probable space group: P M M A
;
_chemical_formula_sum "Si O2"
_cell_formula_units_Z 64
_cell_length_a 26.695644
_cell_length_b 9.067166
_cell_length_c 18.622456
_cell_angle_alpha 90.000000
_cell_angle_beta 90.000000
_cell_angle_gamma 90.000000
_cell_volume 4507.636904
_symmetry_space_group_name_H-M "P M M A"
_symmetry_group_IT_number 51
_symmetry_cell_setting 'orthorhombic'
loop_
_space_group_symop_operation_xyz
x,y,z
1/2-x,-y,z
1/2+x,-y,-z
-x,y,-z
-x,-y,-z
1/2+x,y,-z
1/2-x,y,z
x,-y,z
loop_
_atom_site_type_symbol
_atom_site_label
_atom_site_fract_x
_atom_site_fract_y
_atom_site_fract_z
Si Si1 0.895117 0.674685 0.920170
Si Si2 0.899033 0.324869 0.585938
Si Si3 0.308370 0.176490 0.169154
Si Si4 0.489952 0.822471 0.326332
Si Si5 0.553401 0.831384 0.458269
Si Si6 0.996353 0.675209 0.828222
Si Si7 0.308804 0.824378 0.336973
Si Si8 0.948554 0.169827 0.046545
O O1 0.890948 0.500000 0.931309
O O2 0.846320 0.739511 0.882081
O O3 0.942665 0.699956 0.867212
O O4 0.908064 0.754431 0.994956
O O5 0.902940 0.500000 0.591730
O O6 0.941077 0.249023 0.636666
O O7 0.911125 0.271911 0.505019
O O8 0.845779 0.266606 0.613170
O O9 0.250000 0.211366 0.155363
O O10 0.318779 0.210876 0.253012
O O11 0.314599 0.000000 0.160842
O O12 0.537398 0.787911 0.377978
O O13 0.496533 0.758257 0.247343
O O14 0.484163 0.000000 0.325628
O O15 0.500000 0.831999 0.500000
O O16 0.572186 0.000000 0.459064
O O17 0.002566 0.500000 0.818829
O O18 0.038069 0.740154 0.882008
O O19 0.250000 0.796529 0.350373
O O20 0.317533 0.000000 0.346158
O O21 0.936085 0.000000 0.062320
O O22 0.000000 0.170577 0.000000
#
# Coordination Sequence:
#
# PCOD9400043 Si02
#       8
#     8   8   8   8   8   8   8   8
#     4  10  19  29  42  61  85 113 142 173 212 252
#     4  11  20  28  42  63  86 112 141 176 217 255
#     4   9  18  31  45  61  81 108 144 181 212 245
#     4  10  19  30  44  61  83 113 147 177 206 248
#     4   8  16  30  44  58  79 109 143 176 207 245
#     4  10  19  29  42  63  89 112 138 175 215 253
#     4   9  18  32  47  61  81 112 147 180 212 248
#     4   9  17  29  44  60  80 110 144 174 205 245
#
# _framework density 14.198126
#
# number of rings (size 3 to 8) (size 9 to 14) (size 15 to 20)
#    0.000    2.500    0.000    4.875    0.000    8.750 
#    0.000    1.250    0.000    0.000    0.000    0.000 
#    0.000    1.000    0.000    8.750    0.000    4.875 
#
# Total GULP energy -356788.629733 kJ/mol
# GULP energy per Si atom -5574.822340 kJ/mol
# Density = 1.416581 g / cm^3
# Si number density = 14.198126 Si / 1000 Ang^3
#
#
#
# Elastic Constant Matrix: (Units=GPa)
#
#
# Indices 1 2 3 4 5 6 
#
# 1 58.9729 48.1667 36.5876 0.0000 0.0000 0.0000
# 2 48.1667 83.4385 55.5880 0.0000 0.0000 0.0000
# 3 36.5876 55.5880 82.7589 0.0000 0.0000 0.0000
# 4 0.0000 0.0000 0.0000 20.0231 0.0000 0.0000
# 5 0.0000 0.0000 0.0000 0.0000 25.8905 0.0000
# 6 0.0000 0.0000 0.0000 0.0000 0.0000 13.5649
#
#
#
# Elastic Compliance Matrix: (Units=1/GPa)
#
#
# Indices 1 2 3 4 5 6 
#
# 1 0.032547 -0.016655 -0.003202 0.000000 0.000000 0.000000
# 2 -0.016655 0.030215 -0.012931 0.000000 0.000000 0.000000
# 3 -0.003202 -0.012931 0.022185 0.000000 0.000000 0.000000
# 4 0.000000 0.000000 0.000000 0.049942 0.000000 0.000000
# 5 0.000000 0.000000 0.000000 0.000000 0.038624 0.000000
# 6 0.000000 0.000000 0.000000 0.000000 0.000000 0.073719
#
#
# Mechanical properties :
#
#
# Convention : Reuss Voigt Hill
#
# Bulk Modulus (GPa) = 51.62879 56.20610 53.91744
# Shear Modulus (GPa) = 15.66096 17.55091 16.60593
#
# Velocity S-wave (km/s) = 3.32479 3.51970 3.42363
# Velocity P-wave (km/s) = 7.15409 7.49604 7.32706
#
# Compressibility (1/GPa) = 0.01936904
#
# Stress axis : x y z
#
# Youngs Moduli (GPa) = 30.72510 33.09660 45.07607
#
# Poissons Ratio (x) = 0.55123 0.14433
# Poissons Ratio (y) = 0.51173 0.58290
# Poissons Ratio (z) = 0.09838 0.42799
#
# Static dielectric constant tensor:
#      x y z
#    x 1.447100 0.000000 0.000000 
#    y 0.000000 1.470070 0.000000 
#    z 0.000000 0.000000 1.464660 
# 
# From -- ./inp_files/30847.got.cif
#   From: 2010.05.17/outbox.cif.g08.bks.cpg/sg51_16_cif.got.tgz:30847.got - 2010.06.03 11:52:47.
