data_PCOD9400406
_publ_section_title
;
Structure prediction by ZEFSAII (Michael W. Deem and Ramdas Pophale) SiO2 
 PCOD9400406
Probable space group: P M M A
;
_chemical_formula_sum "Si O2"
_cell_formula_units_Z 64
_cell_length_a 8.872034
_cell_length_b 19.534049
_cell_length_c 24.151617
_cell_angle_alpha 90.000000
_cell_angle_beta 90.000000
_cell_angle_gamma 90.000000
_cell_volume 4185.638174
_symmetry_space_group_name_H-M "P M M A"
_symmetry_group_IT_number 51
_symmetry_cell_setting 'orthorhombic'
loop_
_space_group_symop_operation_xyz
x,y,z
1/2-x,-y,z
1/2+x,-y,-z
-x,y,-z
-x,-y,-z
1/2+x,y,-z
1/2-x,y,z
x,-y,z
loop_
_atom_site_type_symbol
_atom_site_label
_atom_site_fract_x
_atom_site_fract_y
_atom_site_fract_z
Si Si1 0.430273 0.079812 0.559889
Si Si2 0.429957 0.281637 0.721907
Si Si3 0.931486 0.078252 0.774724
Si Si4 0.069941 0.421836 0.110486
Si Si5 0.069887 0.798944 0.835414
Si Si6 0.069478 0.577317 0.767563
Si Si7 0.430235 0.842137 0.337448
Si Si8 0.430952 0.711206 0.941460
O O1 0.500000 0.096056 0.500000
O O2 0.250000 0.085601 0.557547
O O3 0.496019 0.127525 0.607680
O O4 0.468518 0.000000 0.572150
O O5 0.250000 0.275930 0.712771
O O6 0.462870 0.250163 0.782876
O O7 0.472012 0.361393 0.726261
O O8 0.514497 0.233853 0.678315
O O9 0.750000 0.079245 0.776934
O O10 0.975551 0.110340 0.715180
O O11 0.994800 0.128838 0.821297
O O12 0.982958 0.000000 0.779665
O O13 0.250000 0.413256 0.107983
O O14 0.033139 0.500000 0.093583
O O15 0.013757 0.414069 0.173827
O O16 0.989760 0.364250 0.074354
O O17 0.250000 0.807557 0.837397
O O18 0.021594 0.761857 0.891670
O O19 0.250000 0.583746 0.778002
O O20 0.040304 0.500000 0.747529
O O21 0.250000 0.843886 0.342082
O O22 0.250000 0.710487 0.943935
O O23 0.500000 0.731950 0.000000
#
# Coordination Sequence:
#
# PCOD9400406 Si02
#       8
#     8   8   8   8   8   8   8   8
#     4  10  20  33  49  69  96 133 171 204 237 274
#     4   9  16  29  46  67  94 123 156 193 234 280
#     4   9  18  31  48  71  96 121 149 185 230 275
#     4  10  20  32  47  68  92 119 152 188 226 272
#     4   9  18  32  48  67  90 115 146 183 228 280
#     4   9  16  28  47  68  93 126 158 191 233 279
#     4  10  19  30  46  70  99 130 162 197 234 273
#     4  11  22  36  51  68  88 115 150 189 231 279
#
# _framework density 15.290381
#
# number of rings (size 3 to 8) (size 9 to 14) (size 15 to 20)
#    0.000    2.375    1.250    1.875    0.000    4.500 
#    0.000    0.000    0.000    0.375    0.000    0.000 
#    0.000    0.500    0.000    1.375    0.000    2.000 
#
# Total GULP energy -356914.609129 kJ/mol
# GULP energy per Si atom -5576.790768 kJ/mol
# Density = 1.525558 g / cm^3
# Si number density = 15.290381 Si / 1000 Ang^3
#
#
#
# Elastic Constant Matrix: (Units=GPa)
#
#
# Indices 1 2 3 4 5 6 
#
# 1 32.8229 34.4857 36.3735 0.0000 0.0000 0.0000
# 2 34.4857 104.4768 55.4440 0.0000 0.0000 0.0000
# 3 36.3735 55.4440 97.7998 0.0000 0.0000 0.0000
# 4 0.0000 0.0000 0.0000 25.3962 0.0000 0.0000
# 5 0.0000 0.0000 0.0000 0.0000 24.1364 0.0000
# 6 0.0000 0.0000 0.0000 0.0000 0.0000 22.9599
#
#
#
# Elastic Compliance Matrix: (Units=1/GPa)
#
#
# Indices 1 2 3 4 5 6 
#
# 1 0.060013 -0.011391 -0.015862 0.000000 0.000000 0.000000
# 2 -0.011391 0.015852 -0.004750 0.000000 0.000000 0.000000
# 3 -0.015862 -0.004750 0.018817 0.000000 0.000000 0.000000
# 4 0.000000 0.000000 0.000000 0.039376 0.000000 0.000000
# 5 0.000000 0.000000 0.000000 0.000000 0.041431 0.000000
# 6 0.000000 0.000000 0.000000 0.000000 0.000000 0.043554
#
#
# Mechanical properties :
#
#
# Convention : Reuss Voigt Hill
#
# Bulk Modulus (GPa) = 32.59948 54.18952 43.39450
# Shear Modulus (GPa) = 17.04880 21.75160 19.40020
#
# Velocity S-wave (km/s) = 3.34279 3.77579 3.56586
# Velocity P-wave (km/s) = 6.02208 7.38417 6.73764
#
# Compressibility (1/GPa) = 0.03067533
#
# Stress axis : x y z
#
# Youngs Moduli (GPa) = 16.66316 63.08165 53.14256
#
# Poissons Ratio (x) = 0.71858 0.84294
# Poissons Ratio (y) = 0.18982 0.25244
# Poissons Ratio (z) = 0.26431 0.29966
#
# Static dielectric constant tensor:
#      x y z
#    x 1.510210 0.000000 0.000000 
#    y 0.000000 1.518730 0.000000 
#    z 0.000000 0.000000 1.480170 
# 
# From -- ./inp_files/32406.got.cif
#   From: 2010.05.17/outbox.cif.g08.bks.cpg/sg51_17_cif.got.tgz:32406.got - 2010.06.03 11:52:47.
