data_PCOD9400077
_publ_section_title
;
Structure prediction by ZEFSAII (Michael W. Deem and Ramdas Pophale) SiO2 
 PCOD9400077
Probable space group: P M M A
;
_chemical_formula_sum "Si O2"
_cell_formula_units_Z 64
_cell_length_a 14.230660
_cell_length_b 9.010348
_cell_length_c 32.275130
_cell_angle_alpha 90.000000
_cell_angle_beta 90.000000
_cell_angle_gamma 90.000000
_cell_volume 4138.420413
_symmetry_space_group_name_H-M "P M M A"
_symmetry_group_IT_number 51
_symmetry_cell_setting 'orthorhombic'
loop_
_space_group_symop_operation_xyz
x,y,z
1/2-x,-y,z
1/2+x,-y,-z
-x,y,-z
-x,-y,-z
1/2+x,y,-z
1/2-x,y,z
x,-y,z
loop_
_atom_site_type_symbol
_atom_site_label
_atom_site_fract_x
_atom_site_fract_y
_atom_site_fract_z
Si Si1 0.861053 0.677243 0.183629
Si Si2 0.358614 0.176777 0.058551
Si Si3 0.355713 0.819798 0.479864
Si Si4 0.363276 0.671423 0.971934
Si Si5 0.039612 0.176426 0.894276
Si Si6 0.861287 0.677196 0.355534
Si Si7 0.135955 0.829226 0.730396
Si Si8 0.042894 0.179458 0.565400
O O1 0.750000 0.713041 0.177371
O O2 0.869130 0.500000 0.185268
O O3 0.919689 0.742305 0.145675
O O4 0.891945 0.747446 0.227341
O O5 0.250000 0.212210 0.067903
O O6 0.430684 0.209302 0.095383
O O7 0.364662 0.000000 0.049877
O O8 0.387485 0.263435 0.016996
O O9 0.250000 0.766148 0.472009
O O10 0.391599 0.780461 0.525960
O O11 0.437120 0.775314 0.447732
O O12 0.354160 0.000000 0.478886
O O13 0.250000 0.676625 0.968881
O O14 0.392972 0.500000 0.968176
O O15 0.405588 0.767405 0.934953
O O16 0.051298 0.000000 0.889561
O O17 0.750000 0.712200 0.361190
O O18 0.870609 0.500000 0.354433
O O19 0.892256 0.746131 0.311617
O O20 0.918824 0.746054 0.393359
O O21 0.250000 0.828142 0.730402
O O22 0.104870 0.000000 0.730212
O O23 0.045488 0.000000 0.569560
#
# Coordination Sequence:
#
# PCOD9400077 Si02
#       8
#     8   8   8   8   8   8   8   8
#     4  10  20  33  48  68  96 124 146 173 214 263
#     4   9  19  35  50  64  86 116 150 188 225 258
#     4   8  14  25  41  62  89 119 152 192 233 268
#     4  10  20  32  46  66  92 120 148 180 220 263
#     4  11  21  31  47  69  90 117 152 184 216 258
#     4  10  19  29  42  63  92 122 149 181 223 266
#     4   9  17  30  48  68  90 117 148 180 214 258
#     4   9  16  26  43  65  86 115 156 194 226 265
#
# _framework density 15.464838
#
# number of rings (size 3 to 8) (size 9 to 14) (size 15 to 20)
#    0.000    2.500    0.000    3.750    0.000    8.250 
#    0.000    1.250    0.000    1.125    0.000    0.875 
#    0.000    7.000    0.000    0.000    0.000    0.000 
#
# Total GULP energy -356902.830934 kJ/mol
# GULP energy per Si atom -5576.606733 kJ/mol
# Density = 1.542964 g / cm^3
# Si number density = 15.464838 Si / 1000 Ang^3
#
#
#
# Elastic Constant Matrix: (Units=GPa)
#
#
# Indices 1 2 3 4 5 6 
#
# 1 80.1658 39.0011 65.1101 0.0000 0.0000 0.0000
# 2 39.0011 54.2439 57.7678 0.0000 0.0000 0.0000
# 3 65.1101 57.7678 142.2573 0.0000 0.0000 0.0000
# 4 0.0000 0.0000 0.0000 -334.1089 0.0000 0.0000
# 5 0.0000 0.0000 0.0000 0.0000 25.3733 0.0000
# 6 0.0000 0.0000 0.0000 0.0000 0.0000 15.1858
#
#
#
# Elastic Compliance Matrix: (Units=1/GPa)
#
#
# Indices 1 2 3 4 5 6 
#
# 1 0.022104 -0.009019 -0.006454 0.000000 0.000000 0.000000
# 2 -0.009019 0.036163 -0.010557 0.000000 0.000000 0.000000
# 3 -0.006454 -0.010557 0.014271 0.000000 0.000000 0.000000
# 4 0.000000 0.000000 0.000000 -0.002993 0.000000 0.000000
# 5 0.000000 0.000000 0.000000 0.000000 0.039412 0.000000
# 6 0.000000 0.000000 0.000000 0.000000 0.000000 0.065851
#
#
# Mechanical properties :
#
#
# Convention : Reuss Voigt Hill
#
# Bulk Modulus (GPa) = 48.83630 66.71390 57.77510
# Shear Modulus (GPa) = 21.39550 -51.05743 -14.83096
#
# Velocity S-wave (km/s) = 3.72357 -5.75212 -3.10015
# Velocity P-wave (km/s) = 7.08054 0.93971 4.96241
#
# Compressibility (1/GPa) = 0.02047657
#
# Stress axis : x y z
#
# Youngs Moduli (GPa) = 45.24012 27.65272 70.07377
#
# Poissons Ratio (x) = 0.24940 0.45229
# Poissons Ratio (y) = 0.40802 0.73977
# Poissons Ratio (z) = 0.29200 0.29193
#
# Static dielectric constant tensor:
#      x y z
#    x 1.526000 0.000000 0.000000 
#    y 0.000000 1.515340 0.000000 
#    z 0.000000 0.000000 1.484510 
# 
# From -- ./inp_files/37808.got.cif
#   From: 2010.05.17/outbox.cif.g08.bks.cpg/sg51_19_cif.got.tgz:37808.got - 2010.06.03 11:52:47.
