data_PCOD9400919
_publ_section_title
;
Structure prediction by ZEFSAII (Michael W. Deem and Ramdas Pophale) SiO2 
 PCOD9400919
Probable space group: P M M A
;
_chemical_formula_sum "Si O2"
_cell_formula_units_Z 64
_cell_length_a 18.176179
_cell_length_b 9.063849
_cell_length_c 22.628115
_cell_angle_alpha 90.000000
_cell_angle_beta 90.000000
_cell_angle_gamma 90.000000
_cell_volume 3727.894644
_symmetry_space_group_name_H-M "P M M A"
_symmetry_group_IT_number 51
_symmetry_cell_setting 'orthorhombic'
loop_
_space_group_symop_operation_xyz
x,y,z
1/2-x,-y,z
1/2+x,-y,-z
-x,y,-z
-x,-y,-z
1/2+x,y,-z
1/2-x,y,z
x,-y,z
loop_
_atom_site_type_symbol
_atom_site_label
_atom_site_fract_x
_atom_site_fract_y
_atom_site_fract_z
Si Si1 0.931731 0.831434 0.046078
Si Si2 0.622946 0.675528 0.423256
Si Si3 0.466793 0.323649 0.137493
Si Si4 0.830253 0.176840 0.542824
Si Si5 0.835129 0.677160 0.951486
Si Si6 0.018302 0.175346 0.746613
Si Si7 0.474988 0.176223 0.387589
Si Si8 0.667311 0.322868 0.289380
O O1 0.963856 0.738002 0.100209
O O2 0.915019 0.000000 0.063074
O O3 0.865542 0.756273 0.010267
O O4 0.000000 0.834637 0.000000
O O5 0.624080 0.500000 0.430060
O O6 0.660943 0.750466 0.478870
O O7 0.540190 0.736850 0.419497
O O8 0.658726 0.710792 0.359494
O O9 0.470706 0.500000 0.141167
O O10 0.392172 0.284652 0.101356
O O11 0.472574 0.251362 0.201533
O O12 0.750000 0.214299 0.567568
O O13 0.897114 0.220251 0.585148
O O14 0.834246 0.000000 0.535627
O O15 0.750000 0.714858 0.939414
O O16 0.840040 0.500000 0.959556
O O17 0.100778 0.241606 0.743329
O O18 0.982798 0.204193 0.682257
O O19 0.021461 0.000000 0.755735
O O20 0.485704 0.000000 0.396675
O O21 0.750000 0.282789 0.270363
O O22 0.658517 0.500000 0.282938
#
# Coordination Sequence:
#
# PCOD9400919 Si02
#       8
#     8   8   8   8   8   8   8   8
#     4   9  17  30  50  76 104 131 160 197 240 284
#     4  10  19  31  50  75  99 123 155 198 250 306
#     4  10  19  33  54  76 101 136 173 205 242 292
#     4  10  20  33  49  69  95 128 164 202 247 300
#     4   9  18  33  53  78 107 137 169 205 245 289
#     4  10  20  34  52  73  98 130 170 212 248 287
#     4   9  19  35  51  68  94 129 167 205 247 297
#     4   9  18  33  51  71  97 127 158 197 249 306
#
# _framework density 17.167867999999999
#
# number of rings (size 3 to 8) (size 9 to 14) (size 15 to 20)
#    0.000    2.500    0.000    2.250    0.000    6.250 
#    0.000    1.250    0.000    4.500    0.000    0.000 
#    0.000    0.000    0.000    0.000    0.000    0.000 
#
# Total GULP energy -356922.974492 kJ/mol
# GULP energy per Si atom -5576.921476 kJ/mol
# Density = 1.712879 g / cm^3
# Si number density = 17.167868 Si / 1000 Ang^3
#
#
#
# Elastic Constant Matrix: (Units=GPa)
#
#
# Indices 1 2 3 4 5 6 
#
# 1 119.2019 37.7898 37.1393 0.0000 0.0000 0.0000
# 2 37.7898 36.2406 26.2085 0.0000 0.0000 0.0000
# 3 37.1393 26.2085 46.5933 0.0000 0.0000 0.0000
# 4 0.0000 0.0000 0.0000 30.0968 0.0000 0.0000
# 5 0.0000 0.0000 0.0000 0.0000 17.5271 0.0000
# 6 0.0000 0.0000 0.0000 0.0000 0.0000 16.0811
#
#
#
# Elastic Compliance Matrix: (Units=1/GPa)
#
#
# Indices 1 2 3 4 5 6 
#
# 1 0.013104 -0.010300 -0.004651 0.000000 0.000000 0.000000
# 2 -0.010300 0.054612 -0.022509 0.000000 0.000000 0.000000
# 3 -0.004651 -0.022509 0.037831 0.000000 0.000000 0.000000
# 4 0.000000 0.000000 0.000000 0.033226 0.000000 0.000000
# 5 0.000000 0.000000 0.000000 0.000000 0.057054 0.000000
# 6 0.000000 0.000000 0.000000 0.000000 0.000000 0.062185
#
#
# Mechanical properties :
#
#
# Convention : Reuss Voigt Hill
#
# Bulk Modulus (GPa) = 32.65165 44.92343 38.78754
# Shear Modulus (GPa) = 14.57132 19.46755 17.01943
#
# Velocity S-wave (km/s) = 2.91650 3.37107 3.15199
# Velocity P-wave (km/s) = 5.51377 6.43243 5.99073
#
# Compressibility (1/GPa) = 0.03062632
#
# Stress axis : x y z
#
# Youngs Moduli (GPa) = 76.31449 18.31106 26.43368
#
# Poissons Ratio (x) = 0.18861 0.12294
# Poissons Ratio (y) = 0.78607 0.59498
# Poissons Ratio (z) = 0.35494 0.41215
#
# Static dielectric constant tensor:
#      x y z
#    x 1.584130 0.000000 0.000000 
#    y 0.000000 1.572830 0.000000 
#    z 0.000000 0.000000 1.569310 
# 
# From -- ./inp_files/33930.got.cif
#   From: 2010.05.17/outbox.cif.g08.bks.cpg/sg51_17_cif.got.tgz:33930.got - 2010.06.03 11:52:47.
