data_PCOD9400096
_publ_section_title
;
Structure prediction by ZEFSAII (Michael W. Deem and Ramdas Pophale) SiO2 
 PCOD9400096
Probable space group: P M M A
;
_chemical_formula_sum "Si O2"
_cell_formula_units_Z 64
_cell_length_a 9.695392
_cell_length_b 19.223821
_cell_length_c 17.586707
_cell_angle_alpha 90.000000
_cell_angle_beta 90.000000
_cell_angle_gamma 90.000000
_cell_volume 3277.854072
_symmetry_space_group_name_H-M "P M M A"
_symmetry_group_IT_number 51
_symmetry_cell_setting 'orthorhombic'
loop_
_space_group_symop_operation_xyz
x,y,z
1/2-x,-y,z
1/2+x,-y,-z
-x,y,-z
-x,-y,-z
1/2+x,y,-z
1/2-x,y,z
x,-y,z
loop_
_atom_site_type_symbol
_atom_site_label
_atom_site_fract_x
_atom_site_fract_y
_atom_site_fract_z
Si Si1 0.009286 0.770333 0.734106
Si Si2 0.396841 0.227679 0.900321
Si Si3 0.593111 0.722453 0.432630
Si Si4 0.584888 0.925616 0.757848
Si Si5 0.413422 0.105130 0.070566
Si Si6 0.089018 0.389389 0.927412
Si Si7 0.090178 0.423037 0.635192
Si Si8 0.409203 0.620353 0.223569
O O1 0.956367 0.849603 0.727768
O O2 0.913471 0.704018 0.757752
O O3 0.105039 0.770262 0.808603
O O4 0.069626 0.751918 0.651953
O O5 0.250000 0.195036 0.925448
O O6 0.532687 0.184710 0.921737
O O7 0.402196 0.305296 0.931314
O O8 0.500000 0.751248 0.500000
O O9 0.750000 0.733140 0.454757
O O10 0.566526 0.640131 0.421876
O O11 0.750000 0.926876 0.753244
O O12 0.547800 0.924984 0.847348
O O13 0.533243 0.000000 0.725080
O O14 0.250000 0.097692 0.061823
O O15 0.500000 0.076777 0.000000
O O16 0.250000 0.413758 0.924581
O O17 0.000649 0.399521 0.850203
O O18 0.000000 0.414132 0.000000
O O19 0.250000 0.415088 0.662722
O O20 0.076769 0.500000 0.602136
O O21 0.985502 0.413959 0.704784
O O22 0.250000 0.599923 0.214262
#
# Coordination Sequence:
#
# PCOD9400096 Si02
#       8
#     8   8   8   8   8   8   8   8
#     4   9  18  33  54  75 103 136 174 217 263 313
#     4   9  17  29  47  68  92 127 171 216 263 314
#     4  10  21  36  57  86 117 145 173 207 250 302
#     4   9  18  32  50  73 100 133 176 225 275 321
#     4  10  19  29  43  64  94 131 170 214 264 318
#     4  10  19  29  43  66  98 135 175 223 275 320
#     4   9  19  37  58  80 111 149 181 208 243 292
#     4  10  19  31  51  79 106 136 178 222 264 313
#
# _framework density 19.524968999999999
#
# number of rings (size 3 to 8) (size 9 to 14) (size 15 to 20)
#    0.000    2.500    0.000    2.250    0.000   10.750 
#    0.000    0.000    0.000   13.875    0.000    0.000 
#    0.000    0.000    0.000    0.000    0.000    0.000 
#
# Total GULP energy -356373.464883 kJ/mol
# GULP energy per Si atom -5568.335389 kJ/mol
# Density = 1.948053 g / cm^3
# Si number density = 19.524969 Si / 1000 Ang^3
#
#
#
# Elastic Constant Matrix: (Units=GPa)
#
#
# Indices 1 2 3 4 5 6 
#
# 1 100.1069 7.5050 47.5014 0.0000 0.0000 0.0000
# 2 7.5050 92.9007 7.9758 0.0000 0.0000 0.0000
# 3 47.5014 7.9758 88.6532 0.0000 0.0000 0.0000
# 4 0.0000 0.0000 0.0000 0.1397 0.0000 0.0000
# 5 0.0000 0.0000 0.0000 0.0000 19.5151 0.0000
# 6 0.0000 0.0000 0.0000 0.0000 0.0000 30.3636
#
#
#
# Elastic Compliance Matrix: (Units=1/GPa)
#
#
# Indices 1 2 3 4 5 6 
#
# 1 0.013415 -0.000470 -0.007146 0.000000 0.000000 0.000000
# 2 -0.000470 0.010864 -0.000725 0.000000 0.000000 0.000000
# 3 -0.007146 -0.000725 0.015174 0.000000 0.000000 0.000000
# 4 0.000000 0.000000 0.000000 7.158495 0.000000 0.000000
# 5 0.000000 0.000000 0.000000 0.000000 0.051242 0.000000
# 6 0.000000 0.000000 0.000000 0.000000 0.000000 0.032934
#
#
# Mechanical properties :
#
#
# Convention : Reuss Voigt Hill
#
# Bulk Modulus (GPa) = 43.91603 45.29167 44.60385
# Shear Modulus (GPa) = 0.68433 24.58226 12.63330
#
# Velocity S-wave (km/s) = 0.59266 3.55211 2.54644
# Velocity P-wave (km/s) = 4.79681 6.33013 5.61604
#
# Compressibility (1/GPa) = 0.02277073
#
# Stress axis : x y z
#
# Youngs Moduli (GPa) = 74.54186 92.04324 65.90240
#
# Poissons Ratio (x) = 0.04329 0.47092
# Poissons Ratio (y) = 0.03505 0.04781
# Poissons Ratio (z) = 0.53266 0.06677
#
# Static dielectric constant tensor:
#      x y z
#    x 1.693000 0.000000 0.000000 
#    y 0.000000 1.747380 0.000000 
#    z 0.000000 0.000000 1.670100 
# 
# From -- ./inp_files/28416.got.cif
#   From: 2010.05.17/outbox.cif.g08.bks.cpg/sg51_15_cif.got.tgz:28416.got - 2010.06.03 11:52:47.
