data_PCOD9400318
_publ_section_title
;
Structure prediction by ZEFSAII (Michael W. Deem and Ramdas Pophale) SiO2 
 PCOD9400318
Probable space group: P M M A
;
_chemical_formula_sum "Si O2"
_cell_formula_units_Z 52
_cell_length_a 8.828137
_cell_length_b 18.669298
_cell_length_c 18.814005
_cell_angle_alpha 90.000000
_cell_angle_beta 90.000000
_cell_angle_gamma 90.000000
_cell_volume 3100.832500
_symmetry_space_group_name_H-M "P M M A"
_symmetry_group_IT_number 51
_symmetry_cell_setting 'orthorhombic'
loop_
_space_group_symop_operation_xyz
x,y,z
1/2-x,-y,z
1/2+x,-y,-z
-x,y,-z
-x,-y,-z
1/2+x,y,-z
1/2-x,y,z
x,-y,z
loop_
_atom_site_type_symbol
_atom_site_label
_atom_site_fract_x
_atom_site_fract_y
_atom_site_fract_z
Si Si1 0.931884 0.351253 0.348199
Si Si2 0.067755 0.500000 0.578319
Si Si3 0.076971 0.863985 0.283233
Si Si4 0.931559 0.922072 0.146914
Si Si5 0.067921 0.226807 0.923166
Si Si6 0.567022 0.789358 0.577404
Si Si7 0.423956 0.706094 0.210991
O O1 0.750000 0.343990 0.350045
O O2 0.976501 0.427567 0.380871
O O3 0.003955 0.286680 0.394094
O O4 0.990340 0.343109 0.267654
O O5 0.250000 0.500000 0.573336
O O6 0.000000 0.500000 0.500000
O O7 0.250000 0.890553 0.284191
O O8 0.023891 0.849216 0.363554
O O9 0.078084 0.784419 0.248604
O O10 0.979792 0.910111 0.228719
O O11 0.750000 0.921842 0.143315
O O12 0.983748 0.853225 0.101861
O O13 0.987650 0.000000 0.122243
O O14 0.250000 0.228049 0.924785
O O15 0.007527 0.281142 0.863309
O O16 0.000000 0.242115 0.000000
O O17 0.500000 0.803695 0.500000
O O18 0.750000 0.786025 0.575809
O O19 0.250000 0.683835 0.201024
#
# Coordination Sequence:
#
# PCOD9400318 Si02
#       7
#     8   4   8   8   8   8   8
#     4  10  19  32  48  68  95 128 162 194 231 275
#     4  10  22  34  46  68 101 136 167 198 232 274
#     4   8  16  29  44  63  86 112 147 190 232 275
#     4   9  18  31  46  65  90 121 155 187 224 275
#     4  10  19  31  48  71  99 127 154 190 234 276
#     4  10  19  30  45  67  91 116 151 195 240 282
#     4   9  17  31  49  69  92 120 157 197 234 275
#
# _framework density 16.769691000000002
#
# number of rings (size 3 to 8) (size 9 to 14) (size 15 to 20)
#    0.000    2.615    0.000    3.231    0.000    8.000 
#    0.000    0.000    0.000    0.462    0.000    0.538 
#    0.000    0.000    0.000    0.000    0.000    0.000 
#
# Total GULP energy -289793.285383 kJ/mol
# GULP energy per Si atom -5572.947796 kJ/mol
# Density = 1.673152 g / cm^3
# Si number density = 16.769691 Si / 1000 Ang^3
#
#
#
# Elastic Constant Matrix: (Units=GPa)
#
#
# Indices 1 2 3 4 5 6 
#
# 1 44.1845 9.1318 31.4898 0.0000 0.0000 0.0000
# 2 9.1318 32.6883 20.6249 0.0000 0.0000 0.0000
# 3 31.4898 20.6249 140.0292 0.0000 0.0000 0.0000
# 4 0.0000 0.0000 0.0000 16.1989 0.0000 0.0000
# 5 0.0000 0.0000 0.0000 0.0000 32.0014 0.0000
# 6 0.0000 0.0000 0.0000 0.0000 0.0000 14.4831
#
#
#
# Elastic Compliance Matrix: (Units=1/GPa)
#
#
# Indices 1 2 3 4 5 6 
#
# 1 0.027456 -0.004161 -0.005561 0.000000 0.000000 0.000000
# 2 -0.004161 0.034357 -0.004125 0.000000 0.000000 0.000000
# 3 -0.005561 -0.004125 0.009000 0.000000 0.000000 0.000000
# 4 0.000000 0.000000 0.000000 0.061732 0.000000 0.000000
# 5 0.000000 0.000000 0.000000 0.000000 0.031249 0.000000
# 6 0.000000 0.000000 0.000000 0.000000 0.000000 0.069046
#
#
# Mechanical properties :
#
#
# Convention : Reuss Voigt Hill
#
# Bulk Modulus (GPa) = 23.19213 37.71055 30.45134
# Shear Modulus (GPa) = 18.18801 22.91373 20.55087
#
# Velocity S-wave (km/s) = 3.29686 3.70046 3.50448
# Velocity P-wave (km/s) = 5.32468 6.38702 5.87989
#
# Compressibility (1/GPa) = 0.04311807
#
# Stress axis : x y z
#
# Youngs Moduli (GPa) = 36.42207 29.10623 111.11680
#
# Poissons Ratio (x) = 0.12111 0.61797
# Poissons Ratio (y) = 0.15155 0.45832
# Poissons Ratio (z) = 0.20256 0.12005
#
# Static dielectric constant tensor:
#      x y z
#    x 1.568970 0.000000 0.000000 
#    y 0.000000 1.566550 0.000000 
#    z 0.000000 0.000000 1.564930 
# 
# From -- ./inp_files/27904.got.cif
#   From: 2010.05.17/outbox.cif.g08.bks.cpg/sg51_14_cif.got.tgz:27904.got - 2010.06.03 11:52:47.
