data_PCOD9400877
_publ_section_title
;
Structure prediction by ZEFSAII (Michael W. Deem and Ramdas Pophale) SiO2 
 PCOD9400877
Probable space group: P M M A
;
_chemical_formula_sum "Si O2"
_cell_formula_units_Z 64
_cell_length_a 8.057213
_cell_length_b 24.035360
_cell_length_c 18.499436
_cell_angle_alpha 90.000000
_cell_angle_beta 90.000000
_cell_angle_gamma 90.000000
_cell_volume 3582.564055
_symmetry_space_group_name_H-M "P M M A"
_symmetry_group_IT_number 51
_symmetry_cell_setting 'orthorhombic'
loop_
_space_group_symop_operation_xyz
x,y,z
1/2-x,-y,z
1/2+x,-y,-z
-x,y,-z
-x,-y,-z
1/2+x,y,-z
1/2-x,y,z
x,-y,z
loop_
_atom_site_type_symbol
_atom_site_label
_atom_site_fract_x
_atom_site_fract_y
_atom_site_fract_z
Si Si1 0.940605 0.769149 0.921015
Si Si2 0.448301 0.563351 0.081487
Si Si3 0.052331 0.669192 0.842080
Si Si4 0.061466 0.151403 0.804516
Si Si5 0.051842 0.681232 0.416673
Si Si6 0.049554 0.440213 0.415362
Si Si7 0.950592 0.935611 0.080808
Si Si8 0.948934 0.249179 0.285820
O O1 0.750000 0.785394 0.908923
O O2 0.963609 0.704249 0.905104
O O3 0.058952 0.800949 0.865795
O O4 0.000000 0.782640 0.000000
O O5 0.250000 0.563013 0.083966
O O6 0.509640 0.500000 0.091809
O O7 0.510558 0.605466 0.142812
O O8 0.500000 0.580642 0.000000
O O9 0.250000 0.675663 0.847487
O O10 0.995443 0.701307 0.769122
O O11 0.250000 0.135383 0.784582
O O12 0.986195 0.100243 0.850583
O O13 0.985147 0.188198 0.739159
O O14 0.250000 0.680098 0.414055
O O15 0.989461 0.620221 0.388810
O O16 0.000000 0.687570 0.500000
O O17 0.991318 0.730220 0.365290
O O18 0.250000 0.440238 0.410330
O O19 0.990416 0.500000 0.384703
O O20 0.000000 0.440534 0.500000
O O21 0.750000 0.933252 0.083273
O O22 0.003616 0.000000 0.086432
O O23 0.000000 0.915794 0.000000
O O24 0.750000 0.245429 0.279330
#
# Coordination Sequence:
#
# PCOD9400877 Si02
#       8
#     8   8   8   8   8   8   8   8
#     4  11  20  29  43  63  87 115 150 189 228 271
#     4  10  20  33  49  68  89 115 150 193 239 286
#     4  10  20  34  49  64  86 115 147 187 234 281
#     4   9  18  32  47  65  92 125 159 195 234 273
#     4  10  19  31  50  72  94 120 151 188 231 284
#     4   8  14  25  41  62  86 110 136 168 208 255
#     4   9  17  29  46  69  98 132 168 203 237 274
#     4   9  19  34  49  66  91 121 152 189 232 277
#
# _framework density 17.864301000000001
#
# number of rings (size 3 to 8) (size 9 to 14) (size 15 to 20)
#    0.000    2.500    0.000    3.750    0.000    5.250 
#    0.000    0.625    0.000    2.250    0.000    0.000 
#    0.000    0.500    0.000    0.875    0.000    1.250 
#
# Total GULP energy -356274.935433 kJ/mol
# GULP energy per Si atom -5566.795866 kJ/mol
# Density = 1.782364 g / cm^3
# Si number density = 17.864301 Si / 1000 Ang^3
#
#
#
# Elastic Constant Matrix: (Units=GPa)
#
#
# Indices 1 2 3 4 5 6 
#
# 1 36.8295 3.5068 2.9343 0.0000 0.0000 0.0000
# 2 3.5068 101.0547 45.8760 0.0000 0.0000 0.0000
# 3 2.9343 45.8760 61.0497 0.0000 0.0000 0.0000
# 4 0.0000 0.0000 0.0000 21.3126 0.0000 0.0000
# 5 0.0000 0.0000 0.0000 0.0000 17.7255 0.0000
# 6 0.0000 0.0000 0.0000 0.0000 0.0000 13.4663
#
#
#
# Elastic Compliance Matrix: (Units=1/GPa)
#
#
# Indices 1 2 3 4 5 6 
#
# 1 0.027275 -0.000533 -0.000910 0.000000 0.000000 0.000000
# 2 -0.000533 0.015030 -0.011268 0.000000 0.000000 0.000000
# 3 -0.000910 -0.011268 0.024892 0.000000 0.000000 0.000000
# 4 0.000000 0.000000 0.000000 0.046921 0.000000 0.000000
# 5 0.000000 0.000000 0.000000 0.000000 0.056416 0.000000
# 6 0.000000 0.000000 0.000000 0.000000 0.000000 0.074260
#
#
# Mechanical properties :
#
#
# Convention : Reuss Voigt Hill
#
# Bulk Modulus (GPa) = 23.93907 33.72978 28.83443
# Shear Modulus (GPa) = 17.59690 20.27534 18.93612
#
# Velocity S-wave (km/s) = 3.14193 3.37258 3.25929
# Velocity P-wave (km/s) = 5.15673 5.83848 5.50816
#
# Compressibility (1/GPa) = 0.04177272
#
# Stress axis : x y z
#
# Youngs Moduli (GPa) = 36.66298 66.53489 40.17425
#
# Poissons Ratio (x) = 0.03548 0.03657
# Poissons Ratio (y) = 0.01955 0.45270
# Poissons Ratio (z) = 0.03337 0.74975
#
# Static dielectric constant tensor:
#      x y z
#    x 1.687130 0.000000 0.000000 
#    y 0.000000 1.689580 0.000000 
#    z 0.000000 0.000000 1.595900 
# 
# From -- ./inp_files/28564.got.cif
#   From: 2010.05.17/outbox.cif.g08.bks.cpg/sg51_15_cif.got.tgz:28564.got - 2010.06.03 11:52:47.
