data_PCOD9400597
_publ_section_title
;
Structure prediction by ZEFSAII (Michael W. Deem and Ramdas Pophale) SiO2 
 PCOD9400597
Probable space group: P M M A
;
_chemical_formula_sum "Si O2"
_cell_formula_units_Z 52
_cell_length_a 8.062597
_cell_length_b 23.721598
_cell_length_c 14.840545
_cell_angle_alpha 90.000000
_cell_angle_beta 90.000000
_cell_angle_gamma 90.000000
_cell_volume 2838.368279
_symmetry_space_group_name_H-M "P M M A"
_symmetry_group_IT_number 51
_symmetry_cell_setting 'orthorhombic'
loop_
_space_group_symop_operation_xyz
x,y,z
1/2-x,-y,z
1/2+x,-y,-z
-x,y,-z
-x,-y,-z
1/2+x,y,-z
1/2-x,y,z
x,-y,z
loop_
_atom_site_type_symbol
_atom_site_label
_atom_site_fract_x
_atom_site_fract_y
_atom_site_fract_z
Si Si1 0.953023 0.388604 0.709391
Si Si2 0.947596 0.063778 0.399458
Si Si3 0.549998 0.723544 0.603681
Si Si4 0.949637 0.650855 0.901044
Si Si5 0.050268 0.781127 0.098747
Si Si6 0.450412 0.500000 0.395619
Si Si7 0.449893 0.831605 0.284020
O O1 0.750000 0.389124 0.708946
O O2 0.006307 0.332031 0.657269
O O3 0.006160 0.383729 0.813617
O O4 0.009048 0.444013 0.656392
O O5 0.750000 0.061349 0.398068
O O6 0.000000 0.082098 0.500000
O O7 0.002782 0.108879 0.326113
O O8 0.013367 0.000000 0.385298
O O9 0.500000 0.721446 0.500000
O O10 0.750000 0.723853 0.608506
O O11 0.490042 0.780515 0.652100
O O12 0.750000 0.652136 0.898464
O O13 0.008211 0.716035 0.891817
O O14 0.000000 0.630136 0.000000
O O15 0.250000 0.779440 0.102288
O O16 0.991046 0.818089 0.182857
O O17 0.000000 0.801610 0.000000
O O18 0.250000 0.500000 0.392400
O O19 0.500000 0.500000 0.500000
O O20 0.250000 0.829000 0.282910
#
# Coordination Sequence:
#
# PCOD9400597 Si02
#       7
#     8   8   8   8   8   4   8
#     4   9  17  32  51  69  95 131 166 200 245 300
#     4  10  21  36  53  74 102 136 171 206 244 289
#     4  10  19  31  46  68  98 128 158 200 249 294
#     4   9  16  30  50  71  97 128 161 200 246 298
#     4   9  17  30  49  73 100 131 163 201 249 300
#     4  10  20  34  53  72  92 130 175 208 243 294
#     4  10  19  32  51  74 101 131 164 203 252 300
#
# _framework density 18.320385999999999
#
# number of rings (size 3 to 8) (size 9 to 14) (size 15 to 20)
#    0.000    2.462    1.538    1.385    0.000    3.385 
#    0.000    1.923    0.000    0.462    0.000    0.000 
#    0.000    0.000    0.000    0.000    0.000    0.000 
#
# Total GULP energy -290078.534835 kJ/mol
# GULP energy per Si atom -5578.433362 kJ/mol
# Density = 1.827869 g / cm^3
# Si number density = 18.320386 Si / 1000 Ang^3
#
#
#
# Elastic Constant Matrix: (Units=GPa)
#
#
# Indices 1 2 3 4 5 6 
#
# 1 10.6730 9.4741 11.0572 0.0000 0.0000 0.0000
# 2 9.4741 100.2825 88.3982 0.0000 0.0000 0.0000
# 3 11.0572 88.3982 202.1806 0.0000 0.0000 0.0000
# 4 0.0000 0.0000 0.0000 36.2807 0.0000 0.0000
# 5 0.0000 0.0000 0.0000 0.0000 28.9537 0.0000
# 6 0.0000 0.0000 0.0000 0.0000 0.0000 -2.1574
#
#
#
# Elastic Compliance Matrix: (Units=1/GPa)
#
#
# Indices 1 2 3 4 5 6 
#
# 1 0.102891 -0.007745 -0.002241 0.000000 0.000000 0.000000
# 2 -0.007745 0.016808 -0.006925 0.000000 0.000000 0.000000
# 3 -0.002241 -0.006925 0.008097 0.000000 0.000000 0.000000
# 4 0.000000 0.000000 0.000000 0.027563 0.000000 0.000000
# 5 0.000000 0.000000 0.000000 0.000000 0.034538 0.000000
# 6 0.000000 0.000000 0.000000 0.000000 0.000000 -0.463526
#
#
# Mechanical properties :
#
#
# Convention : Reuss Voigt Hill
#
# Bulk Modulus (GPa) = 10.64135 58.99945 34.82040
# Shear Modulus (GPa) = -23.98288 26.22917 1.12315
#
# Velocity S-wave (km/s) = -3.62205 3.78788 0.78383
# Velocity P-wave (km/s) = 3.41632 7.16972 4.45722
#
# Compressibility (1/GPa) = 0.09397306
#
# Stress axis : x y z
#
# Youngs Moduli (GPa) = 9.71902 59.49472 123.50949
#
# Poissons Ratio (x) = 0.46081 0.27674
# Poissons Ratio (y) = 0.07528 0.85535
# Poissons Ratio (z) = 0.02178 0.41202
#
# Static dielectric constant tensor:
#      x y z
#    x 1.659260 0.000000 0.000000 
#    y 0.000000 1.626800 0.000000 
#    z 0.000000 0.000000 1.623630 
# 
# From -- ./inp_files/21566.got.cif
#   From: 2010.05.17/outbox.cif.g08.bks.cpg/sg51_11_cif.got.tgz:21566.got - 2010.06.03 11:52:47.
