data_PCOD9400802
_publ_section_title
;
Structure prediction by ZEFSAII (Michael W. Deem and Ramdas Pophale) SiO2 
 PCOD9400802
Probable space group: P M M A
;
_chemical_formula_sum "Si O2"
_cell_formula_units_Z 40
_cell_length_a 18.950867
_cell_length_b 7.738504
_cell_length_c 13.965068
_cell_angle_alpha 90.000000
_cell_angle_beta 90.000000
_cell_angle_gamma 90.000000
_cell_volume 2047.996216
_symmetry_space_group_name_H-M "P M M A"
_symmetry_group_IT_number 51
_symmetry_cell_setting 'orthorhombic'
loop_
_space_group_symop_operation_xyz
x,y,z
1/2-x,-y,z
1/2+x,-y,-z
-x,y,-z
-x,-y,-z
1/2+x,y,-z
1/2-x,y,z
x,-y,z
loop_
_atom_site_type_symbol
_atom_site_label
_atom_site_fract_x
_atom_site_fract_y
_atom_site_fract_z
Si Si1 0.031345 0.290056 0.195236
Si Si2 0.615738 0.795452 0.109668
Si Si3 0.671449 0.790777 0.315822
Si Si4 0.328516 0.297234 0.095948
Si Si5 0.525590 0.295492 0.398869
O O1 0.032042 0.500000 0.195956
O O2 0.106670 0.224933 0.158118
O O3 0.011007 0.226729 0.301816
O O4 0.967343 0.238189 0.125138
O O5 0.652604 0.732704 0.207672
O O6 0.627387 0.000000 0.102710
O O7 0.647824 0.715579 0.014516
O O8 0.750000 0.734550 0.342162
O O9 0.608934 0.728624 0.383666
O O10 0.669659 0.000000 0.315336
O O11 0.250000 0.222168 0.108601
O O12 0.324233 0.500000 0.120229
O O13 0.500000 0.221856 0.500000
O O14 0.510080 0.500000 0.399798
#
# Coordination Sequence:
#
# PCOD9400802 Si02
#       5
#     8   8   8   8   8
#     4   9  18  33  50  68  94 126 159 195 234 281
#     4  10  19  31  49  72  97 125 157 194 235 277
#     4   9  18  32  49  71  98 125 154 191 237 285
#     4  10  20  32  46  66  94 129 163 191 226 276
#     4   9  18  33  52  73  95 121 157 199 240 281
#
# _framework density 19.531285
#
# number of rings (size 3 to 8) (size 9 to 14) (size 15 to 20)
#    0.000    2.600    0.000    1.800    0.000    6.000 
#    0.000    1.000    0.000    3.600    0.000    0.000 
#    0.000    0.000    0.000    0.000    0.000    0.000 
#
# Total GULP energy -223172.849783 kJ/mol
# GULP energy per Si atom -5579.321245 kJ/mol
# Density = 1.948683 g / cm^3
# Si number density = 19.531285 Si / 1000 Ang^3
#
#
#
# Elastic Constant Matrix: (Units=GPa)
#
#
# Indices 1 2 3 4 5 6 
#
# 1 136.3905 -18.5231 50.7163 0.0000 0.0000 0.0000
# 2 -18.5231 24.5338 -11.9280 0.0000 0.0000 0.0000
# 3 50.7163 -11.9280 68.6936 0.0000 0.0000 0.0000
# 4 0.0000 0.0000 0.0000 5.5757 0.0000 0.0000
# 5 0.0000 0.0000 0.0000 0.0000 18.0448 0.0000
# 6 0.0000 0.0000 0.0000 0.0000 0.0000 -500.6610
#
#
#
# Elastic Compliance Matrix: (Units=1/GPa)
#
#
# Indices 1 2 3 4 5 6 
#
# 1 0.010555 0.004566 -0.007000 0.000000 0.000000 0.000000
# 2 0.004566 0.046493 0.004702 0.000000 0.000000 0.000000
# 3 -0.007000 0.004702 0.020542 0.000000 0.000000 0.000000
# 4 0.000000 0.000000 0.000000 0.179348 0.000000 0.000000
# 5 0.000000 0.000000 0.000000 0.000000 0.055418 0.000000
# 6 0.000000 0.000000 0.000000 0.000000 0.000000 -0.001997
#
#
# Mechanical properties :
#
#
# Convention : Reuss Voigt Hill
#
# Bulk Modulus (GPa) = 12.17633 30.01647 21.09640
# Shear Modulus (GPa) = 15.00610 -81.45124 -33.22257
#
# Velocity S-wave (km/s) = 2.77485 -6.46479 -4.12878
# Velocity P-wave (km/s) = 4.06377 6.35003 3.45027
#
# Compressibility (1/GPa) = 0.08212657
#
# Stress axis : x y z
#
# Youngs Moduli (GPa) = 94.74372 21.50840 48.68114
#
# Poissons Ratio (x) = -0.09820 0.34076
# Poissons Ratio (y) = -0.43257 -0.22891
# Poissons Ratio (z) = 0.66319 -0.10114
#
# Static dielectric constant tensor:
#      x y z
#    x 1.692980 0.000000 0.000000 
#    y 0.000000 1.717310 0.000000 
#    z 0.000000 0.000000 1.671870 
# 
# From -- ./inp_files/17907.got.cif
#   From: 2010.05.17/outbox.cif.g08.bks.cpg/sg51_9_cif.got.tgz:17907.got - 2010.06.03 11:52:47.
