data_PCOD9400467
_publ_section_title
;
Structure prediction by ZEFSAII (Michael W. Deem and Ramdas Pophale) SiO2 
 PCOD9400467
Probable space group: P M M A
;
_chemical_formula_sum "Si O2"
_cell_formula_units_Z 44
_cell_length_a 9.090508
_cell_length_b 12.998907
_cell_length_c 22.167368
_cell_angle_alpha 90.000000
_cell_angle_beta 90.000000
_cell_angle_gamma 90.000000
_cell_volume 2619.444017
_symmetry_space_group_name_H-M "P M M A"
_symmetry_group_IT_number 51
_symmetry_cell_setting 'orthorhombic'
loop_
_space_group_symop_operation_xyz
x,y,z
1/2-x,-y,z
1/2+x,-y,-z
-x,y,-z
-x,-y,-z
1/2+x,y,-z
1/2-x,y,z
x,-y,z
loop_
_atom_site_type_symbol
_atom_site_label
_atom_site_fract_x
_atom_site_fract_y
_atom_site_fract_z
Si Si1 0.577554 0.178517 0.142733
Si Si2 0.419094 0.118288 0.717125
Si Si3 0.076622 0.315629 0.319906
Si Si4 0.927171 0.617373 0.815135
Si Si5 0.572787 0.000000 0.934207
Si Si6 0.414949 0.623026 0.558783
O O1 0.750000 0.181516 0.125251
O O2 0.570011 0.133210 0.210690
O O3 0.509008 0.292891 0.148098
O O4 0.486877 0.101132 0.100679
O O5 0.250000 0.144713 0.700670
O O6 0.531146 0.196965 0.687476
O O7 0.446391 0.000000 0.702116
O O8 0.250000 0.329539 0.326870
O O9 0.033559 0.367581 0.255897
O O10 0.996095 0.357476 0.378483
O O11 0.750000 0.631691 0.819745
O O12 0.962182 0.500000 0.832979
O O13 0.750000 0.000000 0.936619
O O14 0.500000 0.000000 0.000000
O O15 0.500000 0.663627 0.500000
O O16 0.250000 0.665145 0.560986
O O17 0.405827 0.500000 0.551710
#
# Coordination Sequence:
#
# PCOD9400467 Si02
#       6
#     8   8   8   8   4   8
#     4  10  19  34  54  79 109 139 176 218 261 306
#     4   9  17  31  50  72 102 135 166 205 252 300
#     4  10  19  30  47  73 102 132 168 210 254 303
#     4   9  18  32  50  76 110 145 178 213 258 311
#     4  12  24  38  58  82 110 142 177 216 261 306
#     4  10  20  33  49  68  92 125 164 206 253 304
#
# _framework density 16.797459
#
# number of rings (size 3 to 8) (size 9 to 14) (size 15 to 20)
#    0.000    2.182    0.909    3.000    0.000    4.000 
#    0.000    0.000    0.000    1.091    0.000    0.000 
#    0.000    0.000    0.000    0.000    0.000    0.000 
#
# Total GULP energy -245369.712991 kJ/mol
# GULP energy per Si atom -5576.584386 kJ/mol
# Density = 1.675923 g / cm^3
# Si number density = 16.797459 Si / 1000 Ang^3
#
#
#
# Elastic Constant Matrix: (Units=GPa)
#
#
# Indices 1 2 3 4 5 6 
#
# 1 107.7495 50.3470 54.1358 0.0000 0.0000 0.0000
# 2 50.3470 94.6952 33.2814 0.0000 0.0000 0.0000
# 3 54.1358 33.2814 69.2483 0.0000 0.0000 0.0000
# 4 0.0000 0.0000 0.0000 19.1856 0.0000 0.0000
# 5 0.0000 0.0000 0.0000 0.0000 26.1142 0.0000
# 6 0.0000 0.0000 0.0000 0.0000 0.0000 29.2511
#
#
#
# Elastic Compliance Matrix: (Units=1/GPa)
#
#
# Indices 1 2 3 4 5 6 
#
# 1 0.017269 -0.005338 -0.010935 0.000000 0.000000 0.000000
# 2 -0.005338 0.014357 -0.002727 0.000000 0.000000 0.000000
# 3 -0.010935 -0.002727 0.024299 0.000000 0.000000 0.000000
# 4 0.000000 0.000000 0.000000 0.052123 0.000000 0.000000
# 5 0.000000 0.000000 0.000000 0.000000 0.038293 0.000000
# 6 0.000000 0.000000 0.000000 0.000000 0.000000 0.034187
#
#
# Mechanical properties :
#
#
# Convention : Reuss Voigt Hill
#
# Bulk Modulus (GPa) = 55.78481 60.80237 58.29359
# Shear Modulus (GPa) = 22.27148 23.83877 23.05513
#
# Velocity S-wave (km/s) = 3.64522 3.77130 3.70880
# Velocity P-wave (km/s) = 7.14137 7.43233 7.28830
#
# Compressibility (1/GPa) = 0.01792603
#
# Stress axis : x y z
#
# Youngs Moduli (GPa) = 57.90731 69.65342 41.15319
#
# Poissons Ratio (x) = 0.37184 0.44999
# Poissons Ratio (y) = 0.30913 0.11221
# Poissons Ratio (z) = 0.63319 0.18992
#
# Static dielectric constant tensor:
#      x y z
#    x 1.578020 0.000000 0.000000 
#    y 0.000000 1.564980 0.000000 
#    z 0.000000 0.000000 1.545470 
# 
# From -- ./inp_files/27330.got.cif
#   From: 2010.05.17/outbox.cif.g08.bks.cpg/sg51_14_cif.got.tgz:27330.got - 2010.06.03 11:52:47.
