data_PCOD9400824
_publ_section_title
;
Structure prediction by ZEFSAII (Michael W. Deem and Ramdas Pophale) SiO2 
 PCOD9400824
Probable space group: P M M A
;
_chemical_formula_sum "Si O2"
_cell_formula_units_Z 64
_cell_length_a 9.331446
_cell_length_b 19.846467
_cell_length_c 19.943735
_cell_angle_alpha 90.000000
_cell_angle_beta 90.000000
_cell_angle_gamma 90.000000
_cell_volume 3693.504636
_symmetry_space_group_name_H-M "P M M A"
_symmetry_group_IT_number 51
_symmetry_cell_setting 'orthorhombic'
loop_
_space_group_symop_operation_xyz
x,y,z
1/2-x,-y,z
1/2+x,-y,-z
-x,y,-z
-x,-y,-z
1/2+x,y,-z
1/2-x,y,z
x,-y,z
loop_
_atom_site_type_symbol
_atom_site_label
_atom_site_fract_x
_atom_site_fract_y
_atom_site_fract_z
Si Si1 0.921094 0.424533 0.603848
Si Si2 0.086955 0.098462 0.065452
Si Si3 0.092281 0.259875 0.061080
Si Si4 0.078771 0.078822 0.220576
Si Si5 0.418942 0.808493 0.690913
Si Si6 0.408026 0.707414 0.815102
Si Si7 0.910111 0.425959 0.261605
Si Si8 0.925011 0.729943 0.569053
O O1 0.750000 0.426545 0.598492
O O2 0.973505 0.500000 0.579673
O O3 0.963461 0.350552 0.575969
O O4 0.973920 0.420617 0.680328
O O5 0.250000 0.073047 0.063331
O O6 0.094476 0.178928 0.057362
O O7 0.031749 0.085874 0.141729
O O8 0.000000 0.074236 0.000000
O O9 0.250000 0.287177 0.055584
O O10 0.026156 0.274841 0.132231
O O11 0.000000 0.286435 0.000000
O O12 0.250000 0.095496 0.222142
O O13 0.993912 0.127393 0.272072
O O14 0.062226 0.000000 0.238446
O O15 0.250000 0.821602 0.673959
O O16 0.419362 0.751601 0.748463
O O17 0.506886 0.775330 0.628983
O O18 0.250000 0.720089 0.844696
O O19 0.422749 0.630994 0.792798
O O20 0.750000 0.418465 0.292987
O O21 0.918522 0.500000 0.231686
O O22 0.750000 0.735364 0.568531
O O23 0.000000 0.752401 0.500000
#
# Coordination Sequence:
#
# PCOD9400824 Si02
#       8
#     8   8   8   8   8   8   8   8
#     4   9  18  32  50  76 111 148 184 222 263 314
#     4   9  18  31  48  74 108 145 182 218 259 312
#     4  10  19  31  49  73 104 139 177 222 272 322
#     4  10  21  38  58  81 112 149 186 224 271 325
#     4  11  22  37  58  84 112 140 181 229 271 320
#     4  10  19  31  51  78 105 137 178 225 271 318
#     4   9  17  30  49  74 105 140 177 220 270 321
#     4  11  23  38  58  82 113 149 186 226 273 323
#
# _framework density 17.327717
#
# number of rings (size 3 to 8) (size 9 to 14) (size 15 to 20)
#    0.000    2.125    2.500    1.125    0.000    3.250 
#    0.000    0.000    0.000    0.750    0.000    0.000 
#    0.000    0.000    0.000    0.000    0.000    0.000 
#
# Total GULP energy -356277.403856 kJ/mol
# GULP energy per Si atom -5566.834435 kJ/mol
# Density = 1.728828 g / cm^3
# Si number density = 17.327717 Si / 1000 Ang^3
#
#
#
# Elastic Constant Matrix: (Units=GPa)
#
#
# Indices 1 2 3 4 5 6 
#
# 1 84.7277 40.8713 61.4836 0.0000 0.0000 0.0000
# 2 40.8713 77.1995 39.6120 0.0000 0.0000 0.0000
# 3 61.4836 39.6120 94.4822 0.0000 0.0000 0.0000
# 4 0.0000 0.0000 0.0000 5.6395 0.0000 0.0000
# 5 0.0000 0.0000 0.0000 0.0000 25.1322 0.0000
# 6 0.0000 0.0000 0.0000 0.0000 0.0000 7.6931
#
#
#
# Elastic Compliance Matrix: (Units=1/GPa)
#
#
# Indices 1 2 3 4 5 6 
#
# 1 0.024415 -0.006082 -0.013338 0.000000 0.000000 0.000000
# 2 -0.006082 0.018019 -0.003597 0.000000 0.000000 0.000000
# 3 -0.013338 -0.003597 0.020772 0.000000 0.000000 0.000000
# 4 0.000000 0.000000 0.000000 0.177320 0.000000 0.000000
# 5 0.000000 0.000000 0.000000 0.000000 0.039790 0.000000
# 6 0.000000 0.000000 0.000000 0.000000 0.000000 0.129987
#
#
# Mechanical properties :
#
#
# Convention : Reuss Voigt Hill
#
# Bulk Modulus (GPa) = 58.23389 60.03811 59.13600
# Shear Modulus (GPa) = 10.82109 15.32247 13.07178
#
# Velocity S-wave (km/s) = 2.50170 2.97690 2.74959
# Velocity P-wave (km/s) = 6.48267 6.82200 6.65450
#
# Compressibility (1/GPa) = 0.01717213
#
# Stress axis : x y z
#
# Youngs Moduli (GPa) = 40.95763 55.49714 48.14253
#
# Poissons Ratio (x) = 0.33754 0.64214
# Poissons Ratio (y) = 0.24911 0.17315
# Poissons Ratio (z) = 0.54630 0.19960
#
# Static dielectric constant tensor:
#      x y z
#    x 1.572150 0.000000 0.000000 
#    y 0.000000 1.556700 0.000000 
#    z 0.000000 0.000000 1.566850 
# 
# From -- ./inp_files/28391.got.cif
#   From: 2010.05.17/outbox.cif.g08.bks.cpg/sg51_15_cif.got.tgz:28391.got - 2010.06.03 11:52:47.
