data_PCOD9400323
_publ_section_title
;
Structure prediction by ZEFSAII (Michael W. Deem and Ramdas Pophale) SiO2 
 PCOD9400323
Probable space group: P M M A
;
_chemical_formula_sum "Si O2"
_cell_formula_units_Z 48
_cell_length_a 19.199408
_cell_length_b 7.736318
_cell_length_c 16.826742
_cell_angle_alpha 90.000000
_cell_angle_beta 90.000000
_cell_angle_gamma 90.000000
_cell_volume 2499.321854
_symmetry_space_group_name_H-M "P M M A"
_symmetry_group_IT_number 51
_symmetry_cell_setting 'orthorhombic'
loop_
_space_group_symop_operation_xyz
x,y,z
1/2-x,-y,z
1/2+x,-y,-z
-x,y,-z
-x,-y,-z
1/2+x,y,-z
1/2-x,y,z
x,-y,z
loop_
_atom_site_type_symbol
_atom_site_label
_atom_site_fract_x
_atom_site_fract_y
_atom_site_fract_z
Si Si1 0.953107 0.299303 0.260935
Si Si2 0.829859 0.288334 0.155688
Si Si3 0.089625 0.203723 0.180557
Si Si4 0.530689 0.708404 0.583362
Si Si5 0.170260 0.291420 0.023729
Si Si6 0.671851 0.792287 0.664532
O O1 0.937595 0.500000 0.277993
O O2 0.884502 0.223383 0.220532
O O3 0.015765 0.290748 0.197427
O O4 0.985250 0.223882 0.341969
O O5 0.750000 0.237938 0.170782
O O6 0.831767 0.500000 0.156056
O O7 0.848782 0.234976 0.065610
O O8 0.120601 0.232115 0.093903
O O9 0.143021 0.267130 0.249203
O O10 0.079529 0.000000 0.193208
O O11 0.500000 0.771747 0.500000
O O12 0.525536 0.500000 0.583552
O O13 0.611384 0.748355 0.601734
O O14 0.250000 0.234461 0.039222
O O15 0.170188 0.500000 0.023877
O O16 0.750000 0.726507 0.648782
O O17 0.675837 0.000000 0.667612
#
# Coordination Sequence:
#
# PCOD9400323 Si02
#       6
#     8   8   8   8   8   8
#     4   9  17  31  50  68  89 120 155 189 228 275
#     4   8  15  29  48  67  86 114 156 198 228 262
#     4  10  19  30  45  67  96 125 153 187 227 272
#     4   9  18  32  49  72  99 122 148 186 233 281
#     4   9  17  29  45  65  89 118 154 193 229 266
#     4   9  18  32  49  69  93 123 158 190 222 268
#
# _framework density 19.205209
#
# number of rings (size 3 to 8) (size 9 to 14) (size 15 to 20)
#    0.000    3.000    0.000    2.000    0.000    3.000 
#    0.000    5.000    0.000    4.500    0.000    0.000 
#    0.000    0.000    0.000    0.000    0.000    0.000 
#
# Total GULP energy -267571.411725 kJ/mol
# GULP energy per Si atom -5574.404411 kJ/mol
# Density = 1.916150 g / cm^3
# Si number density = 19.205209 Si / 1000 Ang^3
#
#
#
# Elastic Constant Matrix: (Units=GPa)
#
#
# Indices 1 2 3 4 5 6 
#
# 1 141.5554 0.1910 99.8564 0.0000 0.0000 0.0000
# 2 0.1910 28.7773 2.8824 0.0000 0.0000 0.0000
# 3 99.8564 2.8824 111.3031 0.0000 0.0000 0.0000
# 4 0.0000 0.0000 0.0000 2.5226 0.0000 0.0000
# 5 0.0000 0.0000 0.0000 0.0000 25.1509 0.0000
# 6 0.0000 0.0000 0.0000 0.0000 0.0000 -12.1733
#
#
#
# Elastic Compliance Matrix: (Units=1/GPa)
#
#
# Indices 1 2 3 4 5 6 
#
# 1 0.019317 0.001612 -0.017372 0.000000 0.000000 0.000000
# 2 0.001612 0.034974 -0.002352 0.000000 0.000000 0.000000
# 3 -0.017372 -0.002352 0.024631 0.000000 0.000000 0.000000
# 4 0.000000 0.000000 0.000000 0.396414 0.000000 0.000000
# 5 0.000000 0.000000 0.000000 0.000000 0.039760 0.000000
# 6 0.000000 0.000000 0.000000 0.000000 0.000000 -0.082147
#
#
# Mechanical properties :
#
#
# Convention : Reuss Voigt Hill
#
# Bulk Modulus (GPa) = 23.42018 54.16613 38.79316
# Shear Modulus (GPa) = 10.34328 15.01378 12.67853
#
# Velocity S-wave (km/s) = 2.32322 2.79902 2.57215
# Velocity P-wave (km/s) = 4.40655 6.22183 5.39114
#
# Compressibility (1/GPa) = 0.04269822
#
# Stress axis : x y z
#
# Youngs Moduli (GPa) = 51.76868 28.59228 40.59979
#
# Poissons Ratio (x) = -0.04608 0.70529
# Poissons Ratio (y) = -0.08344 0.09548
# Poissons Ratio (z) = 0.89932 0.06724
#
# Static dielectric constant tensor:
#      x y z
#    x 1.662550 0.000000 0.000000 
#    y 0.000000 1.705300 0.000000 
#    z 0.000000 0.000000 1.662360 
# 
# From -- ./inp_files/24726.got.cif
#   From: 2010.05.17/outbox.cif.g08.bks.cpg/sg51_13_cif.got.tgz:24726.got - 2010.06.03 11:52:47.
