data_PCOD9400163
_publ_section_title
;
Structure prediction by ZEFSAII (Michael W. Deem and Ramdas Pophale) SiO2 
 PCOD9400163
Probable space group: P M M A
;
_chemical_formula_sum "Si O2"
_cell_formula_units_Z 40
_cell_length_a 21.720528
_cell_length_b 9.176960
_cell_length_c 11.731067
_cell_angle_alpha 90.000000
_cell_angle_beta 90.000000
_cell_angle_gamma 90.000000
_cell_volume 2338.335011
_symmetry_space_group_name_H-M "P M M A"
_symmetry_group_IT_number 51
_symmetry_cell_setting 'orthorhombic'
loop_
_space_group_symop_operation_xyz
x,y,z
1/2-x,-y,z
1/2+x,-y,-z
-x,y,-z
-x,-y,-z
1/2+x,y,-z
1/2-x,y,z
x,-y,z
loop_
_atom_site_type_symbol
_atom_site_label
_atom_site_fract_x
_atom_site_fract_y
_atom_site_fract_z
Si Si1 0.822624 0.838158 0.870483
Si Si2 0.555417 0.826241 0.586946
Si Si3 0.597932 0.332705 0.026845
Si Si4 0.321809 0.325469 0.366123
Si Si5 0.007263 0.668368 0.191913
O O1 0.750000 0.848453 0.882171
O O2 0.832331 0.730807 0.763465
O O3 0.847712 0.000000 0.844496
O O4 0.849907 0.775910 0.986739
O O5 0.500000 0.788788 0.500000
O O6 0.621643 0.748590 0.565950
O O7 0.531083 0.772020 0.709681
O O8 0.564305 0.000000 0.584906
O O9 0.619192 0.500000 0.037196
O O10 0.559402 0.294508 0.139287
O O11 0.551731 0.327767 0.918124
O O12 0.250000 0.287272 0.395966
O O13 0.327177 0.500000 0.370571
O O14 0.006655 0.500000 0.232377
#
# Coordination Sequence:
#
# PCOD9400163 Si02
#       5
#     8   8   8   8   8
#     4  10  19  29  45  73 106 136 166 204 253 308
#     4  11  23  36  52  78 109 138 173 217 263 312
#     4   9  17  30  49  73 101 130 164 206 248 296
#     4  10  20  34  53  76 102 134 173 216 261 308
#     4   9  18  32  50  73 100 131 167 206 250 297
#
# _framework density 17.106189000000001
#
# number of rings (size 3 to 8) (size 9 to 14) (size 15 to 20)
#    0.000    2.200    2.000    3.000    0.000    4.800 
#    0.000    2.000    0.000    1.200    0.000    0.000 
#    0.000    0.000    0.000    0.000    0.000    0.000 
#
# Total GULP energy -222784.336731 kJ/mol
# GULP energy per Si atom -5569.608418 kJ/mol
# Density = 1.706725 g / cm^3
# Si number density = 17.106189 Si / 1000 Ang^3
#
#
#
# Elastic Constant Matrix: (Units=GPa)
#
#
# Indices 1 2 3 4 5 6 
#
# 1 108.0556 52.8597 36.3809 0.0000 0.0000 0.0000
# 2 52.8597 68.5489 25.2093 0.0000 0.0000 0.0000
# 3 36.3809 25.2093 34.7872 0.0000 0.0000 0.0000
# 4 0.0000 0.0000 0.0000 19.6625 0.0000 0.0000
# 5 0.0000 0.0000 0.0000 0.0000 30.0768 0.0000
# 6 0.0000 0.0000 0.0000 0.0000 0.0000 27.8248
#
#
#
# Elastic Compliance Matrix: (Units=1/GPa)
#
#
# Indices 1 2 3 4 5 6 
#
# 1 0.017842 -0.009402 -0.011846 0.000000 0.000000 0.000000
# 2 -0.009402 0.024843 -0.008170 0.000000 0.000000 0.000000
# 3 -0.011846 -0.008170 0.047056 0.000000 0.000000 0.000000
# 4 0.000000 0.000000 0.000000 0.050858 0.000000 0.000000
# 5 0.000000 0.000000 0.000000 0.000000 0.033248 0.000000
# 6 0.000000 0.000000 0.000000 0.000000 0.000000 0.035939
#
#
# Mechanical properties :
#
#
# Convention : Reuss Voigt Hill
#
# Bulk Modulus (GPa) = 32.35817 48.92127 40.63972
# Shear Modulus (GPa) = 17.92591 21.97560 19.95076
#
# Velocity S-wave (km/s) = 3.24067 3.58810 3.41880
# Velocity P-wave (km/s) = 5.74106 6.76954 6.27640
#
# Compressibility (1/GPa) = 0.03090409
#
# Stress axis : x y z
#
# Youngs Moduli (GPa) = 56.04613 40.25277 21.25127
#
# Poissons Ratio (x) = 0.37846 0.25175
# Poissons Ratio (y) = 0.52696 0.17363
# Poissons Ratio (z) = 0.66394 0.32887
#
# Static dielectric constant tensor:
#      x y z
#    x 1.649430 0.000000 0.000000 
#    y 0.000000 1.594590 0.000000 
#    z 0.000000 0.000000 1.557530 
# 
# From -- ./inp_files/17896.got.cif
#   From: 2010.05.17/outbox.cif.g08.bks.cpg/sg51_9_cif.got.tgz:17896.got - 2010.06.03 11:52:47.
