data_PCOD9400241
_publ_section_title
;
Structure prediction by ZEFSAII (Michael W. Deem and Ramdas Pophale) SiO2 
 PCOD9400241
Probable space group: P M M A
;
_chemical_formula_sum "Si O2"
_cell_formula_units_Z 44
_cell_length_a 9.118680
_cell_length_b 12.535168
_cell_length_c 25.497894
_cell_angle_alpha 90.000000
_cell_angle_beta 90.000000
_cell_angle_gamma 90.000000
_cell_volume 2914.516012
_symmetry_space_group_name_H-M "P M M A"
_symmetry_group_IT_number 51
_symmetry_cell_setting 'orthorhombic'
loop_
_space_group_symop_operation_xyz
x,y,z
1/2-x,-y,z
1/2+x,-y,-z
-x,y,-z
-x,-y,-z
1/2+x,y,-z
1/2-x,y,z
x,-y,z
loop_
_atom_site_type_symbol
_atom_site_label
_atom_site_fract_x
_atom_site_fract_y
_atom_site_fract_z
Si Si1 0.574803 0.500000 0.443543
Si Si2 0.419483 0.630044 0.053283
Si Si3 0.576810 0.628531 0.732714
Si Si4 0.919110 0.370200 0.159515
Si Si5 0.077291 0.872587 0.444895
Si Si6 0.926077 0.294597 0.372323
O O1 0.750000 0.500000 0.450835
O O2 0.500000 0.500000 0.500000
O O3 0.536504 0.604486 0.409675
O O4 0.250000 0.663004 0.053842
O O5 0.421173 0.500000 0.053386
O O6 0.503220 0.664896 0.105816
O O7 0.500000 0.664109 0.000000
O O8 0.750000 0.651344 0.731171
O O9 0.558659 0.500000 0.727786
O O10 0.507618 0.660959 0.788468
O O11 0.493013 0.682353 0.684571
O O12 0.750000 0.335898 0.161867
O O13 0.919353 0.500000 0.158625
O O14 0.250000 0.846255 0.447159
O O15 0.000000 0.844462 0.500000
O O16 0.997658 0.808136 0.399186
O O17 0.063159 0.000000 0.437826
O O18 0.750000 0.286088 0.369640
#
# Coordination Sequence:
#
# PCOD9400241 Si02
#       6
#     4   8   8   8   8   8
#     4  10  22  34  46  66  92 118 143 176 217 262
#     4   9  15  22  32  47  68  95 132 177 221 262
#     4  10  19  30  44  62  85 115 148 182 220 265
#     4   9  16  25  37  52  73 103 138 178 220 261
#     4  10  21  37  55  74  94 116 146 183 223 268
#     4  11  21  34  50  69  93 120 150 183 222 268
#
# _framework density 15.096845999999999
#
# number of rings (size 3 to 8) (size 9 to 14) (size 15 to 20)
#    0.000    2.182    0.909    3.273    0.000    9.091 
#    0.000    0.000    0.000    0.000    0.000    0.000 
#    0.000    0.000    0.000    0.000    0.000    0.909 
#
# Total GULP energy -245446.952173 kJ/mol
# GULP energy per Si atom -5578.339822 kJ/mol
# Density = 1.506249 g / cm^3
# Si number density = 15.096846 Si / 1000 Ang^3
#
#
#
# Elastic Constant Matrix: (Units=GPa)
#
#
# Indices 1 2 3 4 5 6 
#
# 1 129.1841 31.1419 90.6103 0.0000 0.0000 0.0000
# 2 31.1419 19.8513 30.5944 0.0000 0.0000 0.0000
# 3 90.6103 30.5944 168.2048 0.0000 0.0000 0.0000
# 4 0.0000 0.0000 0.0000 10.1330 0.0000 0.0000
# 5 0.0000 0.0000 0.0000 0.0000 34.9582 0.0000
# 6 0.0000 0.0000 0.0000 0.0000 0.0000 14.8209
#
#
#
# Elastic Compliance Matrix: (Units=1/GPa)
#
#
# Indices 1 2 3 4 5 6 
#
# 1 0.015307 -0.015709 -0.005389 0.000000 0.000000 0.000000
# 2 -0.015709 0.086116 -0.007201 0.000000 0.000000 0.000000
# 3 -0.005389 -0.007201 0.010158 0.000000 0.000000 0.000000
# 4 0.000000 0.000000 0.000000 0.098687 0.000000 0.000000
# 5 0.000000 0.000000 0.000000 0.000000 0.028606 0.000000
# 6 0.000000 0.000000 0.000000 0.000000 0.000000 0.067472
#
#
# Mechanical properties :
#
#
# Convention : Reuss Voigt Hill
#
# Bulk Modulus (GPa) = 18.18717 69.10369 43.64543
# Shear Modulus (GPa) = 13.11401 22.97533 18.04467
#
# Velocity S-wave (km/s) = 2.95050 3.90534 3.46101
# Velocity P-wave (km/s) = 4.86625 8.13686 6.70406
#
# Compressibility (1/GPa) = 0.05498381
#
# Stress axis : x y z
#
# Youngs Moduli (GPa) = 65.32800 11.61225 98.44604
#
# Poissons Ratio (x) = 0.18241 0.53050
# Poissons Ratio (y) = 1.02621 0.70895
# Poissons Ratio (z) = 0.35204 0.08362
#
# Static dielectric constant tensor:
#      x y z
#    x 1.502160 0.000000 0.000000 
#    y 0.000000 1.476280 0.000000 
#    z 0.000000 0.000000 1.488650 
# 
# From -- ./inp_files/34527.got.cif
#   From: 2010.05.17/outbox.cif.g08.bks.cpg/sg51_18_cif.got.tgz:34527.got - 2010.06.03 11:52:47.
