data_PCOD9400927
_publ_section_title
;
Structure prediction by ZEFSAII (Michael W. Deem and Ramdas Pophale) SiO2 
 PCOD9400927
Probable space group: P M M A
;
_chemical_formula_sum "Si O2"
_cell_formula_units_Z 64
_cell_length_a 16.288319
_cell_length_b 8.467584
_cell_length_c 23.855537
_cell_angle_alpha 90.000000
_cell_angle_beta 90.000000
_cell_angle_gamma 90.000000
_cell_volume 3290.220296
_symmetry_space_group_name_H-M "P M M A"
_symmetry_group_IT_number 51
_symmetry_cell_setting 'orthorhombic'
loop_
_space_group_symop_operation_xyz
x,y,z
1/2-x,-y,z
1/2+x,-y,-z
-x,y,-z
-x,-y,-z
1/2+x,y,-z
1/2-x,y,z
x,-y,z
loop_
_atom_site_type_symbol
_atom_site_label
_atom_site_fract_x
_atom_site_fract_y
_atom_site_fract_z
Si Si1 0.157511 0.188783 0.524545
Si Si2 0.488217 0.310945 0.870073
Si Si3 0.428708 0.315771 0.419126
Si Si4 0.839162 0.689718 0.692427
Si Si5 0.010180 0.689792 0.744091
Si Si6 0.157652 0.809299 0.079548
Si Si7 0.342138 0.809603 0.948379
Si Si8 0.912562 0.182792 0.363751
O O1 0.250000 0.213506 0.504898
O O2 0.098389 0.275691 0.481469
O O3 0.149827 0.242923 0.589009
O O4 0.140254 0.000000 0.523540
O O5 0.487243 0.500000 0.870708
O O6 0.470737 0.254666 0.806595
O O7 0.579439 0.256549 0.887754
O O8 0.417405 0.252043 0.911791
O O9 0.453139 0.500000 0.414133
O O10 0.356490 0.288688 0.373753
O O11 0.502074 0.207388 0.397264
O O12 0.750000 0.754618 0.708473
O O13 0.837239 0.500000 0.701550
O O14 0.919710 0.749572 0.724886
O O15 0.006034 0.500000 0.744861
O O16 0.074200 0.735569 0.695759
O O17 0.250000 0.759177 0.097921
O O18 0.155401 0.000000 0.082531
O O19 0.148669 0.764818 0.013847
O O20 0.250000 0.758309 0.930156
O O21 0.343632 0.000000 0.946323
O O22 0.895724 0.000000 0.353081
#
# Coordination Sequence:
#
# PCOD9400927 Si02
#       8
#     8   8   8   8   8   8   8   8
#     4  10  21  35  50  72 101 127 157 205 259 306
#     4  11  22  34  53  83 116 147 180 225 279 327
#     4  10  19  31  50  76 103 129 160 199 247 309
#     4   8  14  27  47  68  92 125 163 201 240 288
#     4   9  20  36  51  71 101 136 174 214 257 310
#     4   9  19  36  57  82 114 150 185 221 263 317
#     4   9  19  37  59  81 107 144 189 231 271 319
#     4  10  20  35  54  72  94 130 171 210 255 301
#
# _framework density 19.451585999999999
#
# number of rings (size 3 to 8) (size 9 to 14) (size 15 to 20)
#    0.000    2.500    0.000    3.750    0.000    7.250 
#    0.000    3.125    0.000    5.625    0.000    0.000 
#    0.000    0.000    0.000    0.000    0.000    0.000 
#
# Total GULP energy -356811.248540 kJ/mol
# GULP energy per Si atom -5575.175758 kJ/mol
# Density = 1.940731 g / cm^3
# Si number density = 19.451586 Si / 1000 Ang^3
#
#
#
# Elastic Constant Matrix: (Units=GPa)
#
#
# Indices 1 2 3 4 5 6 
#
# 1 45.1987 9.0814 20.2666 0.0000 0.0000 0.0000
# 2 9.0814 7.1152 15.0440 0.0000 0.0000 0.0000
# 3 20.2666 15.0440 89.6154 0.0000 0.0000 0.0000
# 4 0.0000 0.0000 0.0000 31.3897 0.0000 0.0000
# 5 0.0000 0.0000 0.0000 0.0000 11.7033 0.0000
# 6 0.0000 0.0000 0.0000 0.0000 0.0000 10.3628
#
#
#
# Elastic Compliance Matrix: (Units=1/GPa)
#
#
# Indices 1 2 3 4 5 6 
#
# 1 0.029772 -0.036840 -0.000549 0.000000 0.000000 0.000000
# 2 -0.036840 0.263462 -0.035897 0.000000 0.000000 0.000000
# 3 -0.000549 -0.035897 0.017309 0.000000 0.000000 0.000000
# 4 0.000000 0.000000 0.000000 0.031858 0.000000 0.000000
# 5 0.000000 0.000000 0.000000 0.000000 0.085446 0.000000
# 6 0.000000 0.000000 0.000000 0.000000 0.000000 0.096499
#
#
# Mechanical properties :
#
#
# Convention : Reuss Voigt Hill
#
# Bulk Modulus (GPa) = 6.09856 25.63482 15.86669
# Shear Modulus (GPa) = 6.89109 17.19365 12.04237
#
# Velocity S-wave (km/s) = 1.88425 2.97630 2.49086
# Velocity P-wave (km/s) = 2.80640 5.00186 4.05552
#
# Compressibility (1/GPa) = 0.16397306
#
# Stress axis : x y z
#
# Youngs Moduli (GPa) = 33.58812 3.79561 57.77326
#
# Poissons Ratio (x) = 0.13983 0.03170
# Poissons Ratio (y) = 1.23737 2.07389
# Poissons Ratio (z) = 0.01843 0.13625
#
# Static dielectric constant tensor:
#      x y z
#    x 1.700800 0.000000 0.000000 
#    y 0.000000 1.670870 0.000000 
#    z 0.000000 0.000000 1.691180 
# 
# From -- ./inp_files/35642.got.cif
#   From: 2010.05.17/outbox.cif.g08.bks.cpg/sg51_18_cif.got.tgz:35642.got - 2010.06.03 11:52:47.
