data_PCOD9400151
_publ_section_title
;
Structure prediction by ZEFSAII (Michael W. Deem and Ramdas Pophale) SiO2 
 PCOD9400151
Probable space group: P M M A
;
_chemical_formula_sum "Si O2"
_cell_formula_units_Z 64
_cell_length_a 8.884289
_cell_length_b 19.513523
_cell_length_c 24.124506
_cell_angle_alpha 90.000000
_cell_angle_beta 90.000000
_cell_angle_gamma 90.000000
_cell_volume 4182.315496
_symmetry_space_group_name_H-M "P M M A"
_symmetry_group_IT_number 51
_symmetry_cell_setting 'orthorhombic'
loop_
_space_group_symop_operation_xyz
x,y,z
1/2-x,-y,z
1/2+x,-y,-z
-x,y,-z
-x,-y,-z
1/2+x,y,-z
1/2-x,y,z
x,-y,z
loop_
_atom_site_type_symbol
_atom_site_label
_atom_site_fract_x
_atom_site_fract_y
_atom_site_fract_z
Si Si1 0.069637 0.785265 0.059991
Si Si2 0.930134 0.421751 0.230084
Si Si3 0.929681 0.077584 0.244773
Si Si4 0.570070 0.289363 0.162947
Si Si5 0.570133 0.420087 0.440180
Si Si6 0.429424 0.348183 0.335597
Si Si7 0.929766 0.214413 0.730763
Si Si8 0.929863 0.076868 0.877355
O O1 0.250000 0.780545 0.057816
O O2 0.028704 0.861766 0.081724
O O3 0.005432 0.733751 0.106089
O O4 0.000000 0.773066 0.000000
O O5 0.750000 0.418425 0.240265
O O6 0.969897 0.500000 0.217120
O O7 0.963184 0.367323 0.181604
O O8 0.012463 0.395743 0.285295
O O9 0.750000 0.085099 0.246131
O O10 0.006988 0.138618 0.278460
O O11 0.986553 0.084292 0.181276
O O12 0.968525 0.000000 0.262716
O O13 0.750000 0.280337 0.159964
O O14 0.504582 0.243055 0.212817
O O15 0.500000 0.403850 0.500000
O O16 0.750000 0.414679 0.442794
O O17 0.532079 0.500000 0.427641
O O18 0.506156 0.372580 0.391864
O O19 0.250000 0.354435 0.340402
O O20 0.465174 0.270440 0.316444
O O21 0.750000 0.212476 0.738217
O O22 0.750000 0.081830 0.866894
O O23 0.961083 0.000000 0.898850
#
# Coordination Sequence:
#
# PCOD9400151 Si02
#       8
#     8   8   8   8   8   8   8   8
#     4  11  22  34  49  67  89 117 151 189 228 278
#     4   9  18  32  50  72  96 122 151 187 235 285
#     4  10  19  29  45  69  94 122 156 192 231 278
#     4  10  19  32  50  69  91 117 148 188 231 279
#     4  10  20  33  49  69  97 135 174 207 240 278
#     4  10  20  31  46  71 101 130 164 201 235 273
#     4  10  19  31  47  68  95 127 158 192 234 280
#     4   9  18  32  48  65  88 119 150 182 223 271
#
# _framework density 15.302528000000001
#
# number of rings (size 3 to 8) (size 9 to 14) (size 15 to 20)
#    0.000    2.125    1.250    2.625    0.000    6.000 
#    0.000    0.000    0.000    0.375    0.000    0.000 
#    0.000    0.500    0.000    1.625    0.000    2.375 
#
# Total GULP energy -357056.223731 kJ/mol
# GULP energy per Si atom -5579.003496 kJ/mol
# Density = 1.526770 g / cm^3
# Si number density = 15.302528 Si / 1000 Ang^3
#
#
#
# Elastic Constant Matrix: (Units=GPa)
#
#
# Indices 1 2 3 4 5 6 
#
# 1 53.4580 54.7400 48.8275 0.0000 0.0000 0.0000
# 2 54.7400 132.9776 69.6202 0.0000 0.0000 0.0000
# 3 48.8275 69.6202 104.9437 0.0000 0.0000 0.0000
# 4 0.0000 0.0000 0.0000 22.6725 0.0000 0.0000
# 5 0.0000 0.0000 0.0000 0.0000 25.2454 0.0000
# 6 0.0000 0.0000 0.0000 0.0000 0.0000 22.5069
#
#
#
# Elastic Compliance Matrix: (Units=1/GPa)
#
#
# Indices 1 2 3 4 5 6 
#
# 1 0.040023 -0.010305 -0.011785 0.000000 0.000000 0.000000
# 2 -0.010305 0.014175 -0.004609 0.000000 0.000000 0.000000
# 3 -0.011785 -0.004609 0.018070 0.000000 0.000000 0.000000
# 4 0.000000 0.000000 0.000000 0.044106 0.000000 0.000000
# 5 0.000000 0.000000 0.000000 0.000000 0.039611 0.000000
# 6 0.000000 0.000000 0.000000 0.000000 0.000000 0.044431
#
#
# Mechanical properties :
#
#
# Convention : Reuss Voigt Hill
#
# Bulk Modulus (GPa) = 52.99651 70.86160 61.92906
# Shear Modulus (GPa) = 19.22297 21.96439 20.59368
#
# Velocity S-wave (km/s) = 3.54813 3.79270 3.67245
# Velocity P-wave (km/s) = 7.17589 8.09859 7.65116
#
# Compressibility (1/GPa) = 0.01886917
#
# Stress axis : x y z
#
# Youngs Moduli (GPa) = 24.98567 70.54481 55.34059
#
# Poissons Ratio (x) = 0.72699 0.65219
# Poissons Ratio (y) = 0.25749 0.25508
# Poissons Ratio (z) = 0.29446 0.32516
#
# Static dielectric constant tensor:
#      x y z
#    x 1.509450 0.000000 0.000000 
#    y 0.000000 1.534240 0.000000 
#    z 0.000000 0.000000 1.467570 
# 
# From -- ./inp_files/32584.got.cif
#   From: 2010.05.17/outbox.cif.g08.bks.cpg/sg51_17_cif.got.tgz:32584.got - 2010.06.03 11:52:47.
