data_PCOD9400052
_publ_section_title
;
Structure prediction by ZEFSAII (Michael W. Deem and Ramdas Pophale) SiO2 
 PCOD9400052
Probable space group: P M M A
;
_chemical_formula_sum "Si O2"
_cell_formula_units_Z 64
_cell_length_a 20.625367
_cell_length_b 7.458943
_cell_length_c 20.762530
_cell_angle_alpha 90.000000
_cell_angle_beta 90.000000
_cell_angle_gamma 90.000000
_cell_volume 3194.178972
_symmetry_space_group_name_H-M "P M M A"
_symmetry_group_IT_number 51
_symmetry_cell_setting 'orthorhombic'
loop_
_space_group_symop_operation_xyz
x,y,z
1/2-x,-y,z
1/2+x,-y,-z
-x,y,-z
-x,-y,-z
1/2+x,y,-z
1/2-x,y,z
x,-y,z
loop_
_atom_site_type_symbol
_atom_site_label
_atom_site_fract_x
_atom_site_fract_y
_atom_site_fract_z
Si Si1 0.944694 0.785563 0.593205
Si Si2 0.674884 0.718802 0.993568
Si Si3 0.421361 0.718638 0.761283
Si Si4 0.820955 0.712272 0.341467
Si Si5 0.585357 0.281257 0.878893
Si Si6 0.415081 0.215600 0.547525
Si Si7 0.937832 0.717572 0.092893
Si Si8 0.565323 0.286489 0.735441
O O1 0.912182 0.722556 0.526495
O O2 0.912548 0.745018 0.662081
O O3 0.019216 0.719999 0.583749
O O4 0.946889 0.000000 0.590557
O O5 0.750000 0.776954 0.003856
O O6 0.676429 0.500000 0.996548
O O7 0.644707 0.771535 0.924483
O O8 0.617889 0.777139 0.043292
O O9 0.422479 0.500000 0.759373
O O10 0.366766 0.786907 0.714037
O O11 0.414241 0.766373 0.835596
O O12 0.491293 0.780336 0.736992
O O13 0.750000 0.790474 0.340303
O O14 0.816628 0.500000 0.329093
O O15 0.854598 0.733608 0.409885
O O16 0.583444 0.500000 0.879329
O O17 0.514266 0.225767 0.907830
O O18 0.593341 0.221781 0.804271
O O19 0.419219 0.000000 0.546125
O O20 0.940349 0.500000 0.086982
O O21 0.565045 0.500000 0.742050
#
# Coordination Sequence:
#
# PCOD9400052 Si02
#       8
#     8   8   8   8   8   8   8   8
#     4   9  17  29  46  67  88 107 135 183 225 251
#     4   9  15  21  31  50  78 111 144 177 216 259
#     4   8  14  24  36  55  82 109 141 175 207 248
#     4  10  19  29  42  61  88 119 147 177 210 250
#     4   8  14  23  35  53  78 109 144 178 211 255
#     4   9  18  31  45  63  87 113 141 175 219 260
#     4   8  13  21  34  50  74 110 146 175 205 252
#     4   9  15  25  43  63  84 112 142 172 215 266
#
# _framework density 20.036446999999999
#
# number of rings (size 3 to 8) (size 9 to 14) (size 15 to 20)
#    0.000    3.250    1.250    2.625    0.000    2.750 
#    0.000    3.750    0.000    0.750    0.000    1.750 
#    0.000    9.000    0.000    1.375    0.000    0.000 
#
# Total GULP energy -356330.155819 kJ/mol
# GULP energy per Si atom -5567.658685 kJ/mol
# Density = 1.999084 g / cm^3
# Si number density = 20.036447 Si / 1000 Ang^3
#
#
#
# Elastic Constant Matrix: (Units=GPa)
#
#
# Indices 1 2 3 4 5 6 
#
# 1 52.9921 -0.9278 30.3199 0.0000 0.0000 0.0000
# 2 -0.9278 56.2584 -4.2827 0.0000 0.0000 0.0000
# 3 30.3199 -4.2827 112.5925 0.0000 0.0000 0.0000
# 4 0.0000 0.0000 0.0000 53.4538 0.0000 0.0000
# 5 0.0000 0.0000 0.0000 0.0000 5.4000 0.0000
# 6 0.0000 0.0000 0.0000 0.0000 0.0000 3.5602
#
#
#
# Elastic Compliance Matrix: (Units=1/GPa)
#
#
# Indices 1 2 3 4 5 6 
#
# 1 0.022308 -0.000090 -0.006011 0.000000 0.000000 0.000000
# 2 -0.000090 0.017827 0.000702 0.000000 0.000000 0.000000
# 3 -0.006011 0.000702 0.010527 0.000000 0.000000 0.000000
# 4 0.000000 0.000000 0.000000 0.018708 0.000000 0.000000
# 5 0.000000 0.000000 0.000000 0.000000 0.185184 0.000000
# 6 0.000000 0.000000 0.000000 0.000000 0.000000 0.280886
#
#
# Mechanical properties :
#
#
# Convention : Reuss Voigt Hill
#
# Bulk Modulus (GPa) = 25.08410 30.22910 27.65660
# Shear Modulus (GPa) = 8.93616 25.59839 17.26727
#
# Velocity S-wave (km/s) = 2.11415 3.57822 2.93882
# Velocity P-wave (km/s) = 4.30185 5.67374 5.03474
#
# Compressibility (1/GPa) = 0.03986589
#
# Stress axis : x y z
#
# Youngs Moduli (GPa) = 44.82643 56.09441 94.99449
#
# Poissons Ratio (x) = 0.00503 0.57099
# Poissons Ratio (y) = 0.00402 -0.06671
# Poissons Ratio (z) = 0.26944 -0.03939
#
# Static dielectric constant tensor:
#      x y z
#    x 1.689320 0.000000 0.000000 
#    y 0.000000 1.775460 0.000000 
#    z 0.000000 0.000000 1.747920 
# 
# From -- ./inp_files/30713.got.cif
#   From: 2010.05.17/outbox.cif.g08.bks.cpg/sg51_16_cif.got.tgz:30713.got - 2010.06.03 11:52:47.
