data_PCOD9400132
_publ_section_title
;
Structure prediction by ZEFSAII (Michael W. Deem and Ramdas Pophale) SiO2 
 PCOD9400132
Probable space group: P M M A
;
_chemical_formula_sum "Si O2"
_cell_formula_units_Z 56
_cell_length_a 19.719641
_cell_length_b 7.995613
_cell_length_c 18.389273
_cell_angle_alpha 90.000000
_cell_angle_beta 90.000000
_cell_angle_gamma 90.000000
_cell_volume 2899.448037
_symmetry_space_group_name_H-M "P M M A"
_symmetry_group_IT_number 51
_symmetry_cell_setting 'orthorhombic'
loop_
_space_group_symop_operation_xyz
x,y,z
1/2-x,-y,z
1/2+x,-y,-z
-x,y,-z
-x,-y,-z
1/2+x,y,-z
1/2-x,y,z
x,-y,z
loop_
_atom_site_type_symbol
_atom_site_label
_atom_site_fract_x
_atom_site_fract_y
_atom_site_fract_z
Si Si1 0.671595 0.201117 0.339435
Si Si2 0.035278 0.195411 0.306556
Si Si3 0.048285 0.310301 0.562137
Si Si4 0.070089 0.701364 0.964248
Si Si5 0.826889 0.704003 0.916127
Si Si6 0.418757 0.199921 0.797732
Si Si7 0.827716 0.297760 0.751858
O O1 0.750000 0.260853 0.346895
O O2 0.619659 0.240828 0.406000
O O3 0.635190 0.261200 0.263863
O O4 0.674277 0.000000 0.335068
O O5 0.114573 0.225077 0.298946
O O6 0.001085 0.303347 0.368724
O O7 0.993581 0.239952 0.233660
O O8 0.021056 0.000000 0.322021
O O9 0.062664 0.500000 0.538400
O O10 0.000000 0.228669 0.500000
O O11 0.068765 0.500000 0.968405
O O12 0.084915 0.741738 0.880519
O O13 0.127161 0.765446 0.019004
O O14 0.000000 0.762578 0.000000
O O15 0.750000 0.755095 0.928218
O O16 0.828870 0.500000 0.915736
O O17 0.845608 0.755267 0.834408
O O18 0.411694 0.000000 0.799051
O O19 0.750000 0.248020 0.736768
O O20 0.830231 0.500000 0.748713
#
# Coordination Sequence:
#
# PCOD9400132 Si02
#       7
#     8   8   8   8   8   8   8
#     4   9  19  37  59  82 110 143 177 215 261 314
#     4  10  20  34  53  75 101 134 169 206 249 302
#     4  10  21  37  58  84 111 138 170 210 254 301
#     4  10  19  29  44  67  93 125 169 218 262 305
#     4   8  15  28  44  63  90 124 161 203 253 303
#     4   9  19  33  48  70  99 132 170 212 259 307
#     4   9  17  31  52  74  97 129 168 212 260 304
#
# _framework density 19.314021
#
# number of rings (size 3 to 8) (size 9 to 14) (size 15 to 20)
#    0.000    2.714    0.000    3.429    0.000    6.571 
#    0.000    1.429    0.000    1.714    0.000    0.000 
#    0.000    0.000    0.000    0.000    0.000    0.000 
#
# Total GULP energy -311853.721823 kJ/mol
# GULP energy per Si atom -5568.816461 kJ/mol
# Density = 1.927006 g / cm^3
# Si number density = 19.314021 Si / 1000 Ang^3
#
#
#
# Elastic Constant Matrix: (Units=GPa)
#
#
# Indices 1 2 3 4 5 6 
#
# 1 129.9448 11.3866 56.2377 0.0000 0.0000 0.0000
# 2 11.3866 16.2847 1.8093 0.0000 0.0000 0.0000
# 3 56.2377 1.8093 48.0853 0.0000 0.0000 0.0000
# 4 0.0000 0.0000 0.0000 31.3120 0.0000 0.0000
# 5 0.0000 0.0000 0.0000 0.0000 27.9419 0.0000
# 6 0.0000 0.0000 0.0000 0.0000 0.0000 9.6670
#
#
#
# Elastic Compliance Matrix: (Units=1/GPa)
#
#
# Indices 1 2 3 4 5 6 
#
# 1 0.016986 -0.009710 -0.019500 0.000000 0.000000 0.000000
# 2 -0.009710 0.067216 0.008827 0.000000 0.000000 0.000000
# 3 -0.019500 0.008827 0.043270 0.000000 0.000000 0.000000
# 4 0.000000 0.000000 0.000000 0.031937 0.000000 0.000000
# 5 0.000000 0.000000 0.000000 0.000000 0.035789 0.000000
# 6 0.000000 0.000000 0.000000 0.000000 0.000000 0.103445
#
#
# Mechanical properties :
#
#
# Convention : Reuss Voigt Hill
#
# Bulk Modulus (GPa) = 11.53316 37.02022 24.27669
# Shear Modulus (GPa) = 13.57548 22.10958 17.84253
#
# Velocity S-wave (km/s) = 2.65407 3.38707 3.04273
# Velocity P-wave (km/s) = 3.92128 5.87414 4.99410
#
# Compressibility (1/GPa) = 0.08670654
#
# Stress axis : x y z
#
# Youngs Moduli (GPa) = 58.87281 14.87733 23.11045
#
# Poissons Ratio (x) = 0.14446 0.45066
# Poissons Ratio (y) = 0.57167 -0.20401
# Poissons Ratio (z) = 1.14803 -0.13133
#
# Static dielectric constant tensor:
#      x y z
#    x 1.566950 0.000000 0.000000 
#    y 0.000000 1.711240 0.000000 
#    z 0.000000 0.000000 1.697830 
# 
# From -- ./inp_files/25785.got.cif
#   From: 2010.05.17/outbox.cif.g08.bks.cpg/sg51_13_cif.got.tgz:25785.got - 2010.06.03 11:52:47.
