data_PCOD9400600
_publ_section_title
;
Structure prediction by ZEFSAII (Michael W. Deem and Ramdas Pophale) SiO2 
 PCOD9400600
Probable space group: P M M A
;
_chemical_formula_sum "Si O2"
_cell_formula_units_Z 56
_cell_length_a 18.965052
_cell_length_b 7.521610
_cell_length_c 19.855103
_cell_angle_alpha 90.000000
_cell_angle_beta 90.000000
_cell_angle_gamma 90.000000
_cell_volume 2832.285268
_symmetry_space_group_name_H-M "P M M A"
_symmetry_group_IT_number 51
_symmetry_cell_setting 'orthorhombic'
loop_
_space_group_symop_operation_xyz
x,y,z
1/2-x,-y,z
1/2+x,-y,-z
-x,y,-z
-x,-y,-z
1/2+x,y,-z
1/2-x,y,z
x,-y,z
loop_
_atom_site_type_symbol
_atom_site_label
_atom_site_fract_x
_atom_site_fract_y
_atom_site_fract_z
Si Si1 0.077064 0.788185 0.923490
Si Si2 0.328679 0.211753 0.199859
Si Si3 0.472436 0.717181 0.572211
Si Si4 0.541792 0.286491 0.709494
Si Si5 0.399310 0.712380 0.776899
Si Si6 0.085186 0.217658 0.071646
Si Si7 0.171631 0.282871 0.640568
O O1 0.117166 0.751029 0.854288
O O2 0.995917 0.724037 0.917204
O O3 0.072644 0.000000 0.928934
O O4 0.105783 0.726094 0.995811
O O5 0.250000 0.282368 0.210621
O O6 0.382916 0.239456 0.260690
O O7 0.365337 0.281890 0.131688
O O8 0.323150 0.000000 0.191228
O O9 0.500000 0.778062 0.500000
O O10 0.472382 0.500000 0.571180
O O11 0.522616 0.772866 0.634134
O O12 0.393074 0.771951 0.592719
O O13 0.537859 0.500000 0.709214
O O14 0.478017 0.220854 0.757666
O O15 0.400943 0.500000 0.771268
O O16 0.348275 0.773823 0.716903
O O17 0.085605 0.000000 0.073669
O O18 0.250000 0.223425 0.621942
O O19 0.171923 0.500000 0.639928
#
# Coordination Sequence:
#
# PCOD9400600 Si02
#       7
#     8   8   8   8   8   8   8
#     4   9  15  26  45  63  82 110 145 187 227 263
#     4  10  19  31  47  64  85 118 157 191 222 264
#     4   8  14  26  45  68  93 119 149 184 216 254
#     4   9  17  29  45  66  92 117 142 181 228 264
#     4   9  16  26  42  65  89 113 145 182 219 263
#     4   8  15  27  42  61  83 109 146 187 225 262
#     4   8  14  25  41  61  87 119 149 177 216 265
#
# _framework density 19.772020000000001
#
# number of rings (size 3 to 8) (size 9 to 14) (size 15 to 20)
#    0.000    3.286    1.429    2.571    0.000    0.286 
#    0.000    3.571    0.000    4.286    0.000    0.000 
#    0.000    0.000    0.000    0.000    0.000    0.000 
#
# Total GULP energy -312049.308548 kJ/mol
# GULP energy per Si atom -5572.309081 kJ/mol
# Density = 1.972702 g / cm^3
# Si number density = 19.772020 Si / 1000 Ang^3
#
#
#
# Elastic Constant Matrix: (Units=GPa)
#
#
# Indices 1 2 3 4 5 6 
#
# 1 140.8075 4.9969 87.4784 0.0000 0.0000 0.0000
# 2 4.9969 46.8298 1.3116 0.0000 0.0000 0.0000
# 3 87.4784 1.3116 174.3735 0.0000 0.0000 0.0000
# 4 0.0000 0.0000 0.0000 17.0793 0.0000 0.0000
# 5 0.0000 0.0000 0.0000 0.0000 19.3846 0.0000
# 6 0.0000 0.0000 0.0000 0.0000 0.0000 7.3816
#
#
#
# Elastic Compliance Matrix: (Units=1/GPa)
#
#
# Indices 1 2 3 4 5 6 
#
# 1 0.010361 -0.000960 -0.005190 0.000000 0.000000 0.000000
# 2 -0.000960 0.021447 0.000320 0.000000 0.000000 0.000000
# 3 -0.005190 0.000320 0.008336 0.000000 0.000000 0.000000
# 4 0.000000 0.000000 0.000000 0.058550 0.000000 0.000000
# 5 0.000000 0.000000 0.000000 0.000000 0.051587 0.000000
# 6 0.000000 0.000000 0.000000 0.000000 0.000000 0.135473
#
#
# Mechanical properties :
#
#
# Convention : Reuss Voigt Hill
#
# Bulk Modulus (GPa) = 35.10753 61.06495 48.08624
# Shear Modulus (GPa) = 16.29144 26.65068 21.47106
#
# Velocity S-wave (km/s) = 2.87359 3.67536 3.29892
# Velocity P-wave (km/s) = 5.36701 6.99733 6.23568
#
# Compressibility (1/GPa) = 0.02848391
#
# Stress axis : x y z
#
# Youngs Moduli (GPa) = 96.51986 46.62566 119.95752
#
# Poissons Ratio (x) = 0.04477 0.62263
# Poissons Ratio (y) = 0.09267 -0.03843
# Poissons Ratio (z) = 0.50098 -0.01494
#
# Static dielectric constant tensor:
#      x y z
#    x 1.691310 0.000000 0.000000 
#    y 0.000000 1.764100 0.000000 
#    z 0.000000 0.000000 1.704610 
# 
# From -- ./inp_files/30230.got.cif
#   From: 2010.05.17/outbox.cif.g08.bks.cpg/sg51_16_cif.got.tgz:30230.got - 2010.06.03 11:52:47.
