data_PCOD9400518
_publ_section_title
;
Structure prediction by ZEFSAII (Michael W. Deem and Ramdas Pophale) SiO2 
 PCOD9400518
Probable space group: P M M A
;
_chemical_formula_sum "Si O2"
_cell_formula_units_Z 40
_cell_length_a 24.939345
_cell_length_b 9.193724
_cell_length_c 10.382826
_cell_angle_alpha 90.000000
_cell_angle_beta 90.000000
_cell_angle_gamma 90.000000
_cell_volume 2380.630980
_symmetry_space_group_name_H-M "P M M A"
_symmetry_group_IT_number 51
_symmetry_cell_setting 'orthorhombic'
loop_
_space_group_symop_operation_xyz
x,y,z
1/2-x,-y,z
1/2+x,-y,-z
-x,y,-z
-x,-y,-z
1/2+x,y,-z
1/2-x,y,z
x,-y,z
loop_
_atom_site_type_symbol
_atom_site_label
_atom_site_fract_x
_atom_site_fract_y
_atom_site_fract_z
Si Si1 0.461463 0.671191 0.122895
Si Si2 0.250000 0.666869 0.022721
Si Si3 0.750000 0.667981 0.290274
Si Si4 0.467222 0.674119 0.629586
Si Si5 0.139868 0.173509 0.713716
Si Si6 0.641348 0.172442 0.978726
O O1 0.447216 0.500000 0.131357
O O2 0.495010 0.711337 0.249170
O O3 0.500000 0.689634 0.000000
O O4 0.408639 0.764116 0.098591
O O5 0.250000 0.500000 0.065599
O O6 0.250000 0.667588 0.866223
O O7 0.196199 0.749595 0.062103
O O8 0.750000 0.500000 0.332953
O O9 0.695543 0.751010 0.328008
O O10 0.500000 0.705543 0.500000
O O11 0.456656 0.500000 0.634957
O O12 0.411375 0.758376 0.643203
O O13 0.133129 0.201874 0.867871
O O14 0.142883 0.000000 0.696213
O O15 0.645973 0.000000 0.963418
#
# Coordination Sequence:
#
# PCOD9400518 Si02
#       6
#     8   4   4   8   8   8
#     4  10  19  32  52  75 100 133 172 210 249 299
#     4   9  17  29  47  72 103 136 169 208 256 306
#     4   9  17  29  49  74 101 134 171 210 254 302
#     4  10  21  36  53  74 103 138 175 214 256 303
#     4  10  19  31  49  75 106 135 168 211 257 305
#     4  10  19  30  48  75 106 135 168 211 258 305
#
# _framework density 16.802268999999999
#
# number of rings (size 3 to 8) (size 9 to 14) (size 15 to 20)
#    0.000    2.200    2.000    1.800    0.000    5.600 
#    0.000    0.000    0.000    1.200    0.000    8.400 
#    0.000    0.000    0.000    0.000    0.000    0.000 
#
# Total GULP energy -223173.103891 kJ/mol
# GULP energy per Si atom -5579.327597 kJ/mol
# Density = 1.676403 g / cm^3
# Si number density = 16.802269 Si / 1000 Ang^3
#
#
#
# Elastic Constant Matrix: (Units=GPa)
#
#
# Indices 1 2 3 4 5 6 
#
# 1 175.6890 96.8953 48.2857 0.0000 0.0000 0.0000
# 2 96.8953 87.0213 37.2175 0.0000 0.0000 0.0000
# 3 48.2857 37.2175 66.3469 0.0000 0.0000 0.0000
# 4 0.0000 0.0000 0.0000 12.1616 0.0000 0.0000
# 5 0.0000 0.0000 0.0000 0.0000 15.2442 0.0000
# 6 0.0000 0.0000 0.0000 0.0000 0.0000 -319.5691
#
#
#
# Elastic Compliance Matrix: (Units=1/GPa)
#
#
# Indices 1 2 3 4 5 6 
#
# 1 0.014954 -0.015783 -0.002030 0.000000 0.000000 0.000000
# 2 -0.015783 0.031776 -0.006338 0.000000 0.000000 0.000000
# 3 -0.002030 -0.006338 0.020105 0.000000 0.000000 0.000000
# 4 0.000000 0.000000 0.000000 0.082226 0.000000 0.000000
# 5 0.000000 0.000000 0.000000 0.000000 0.065599 0.000000
# 6 0.000000 0.000000 0.000000 0.000000 0.000000 -0.003129
#
#
# Mechanical properties :
#
#
# Convention : Reuss Voigt Hill
#
# Bulk Modulus (GPa) = 53.95783 77.09491 65.52637
# Shear Modulus (GPa) = 18.79617 -48.65541 -14.92962
#
# Velocity S-wave (km/s) = 3.34828 -5.38707 -2.98409
# Velocity P-wave (km/s) = 6.86521 2.69986 5.21634
#
# Compressibility (1/GPa) = 0.01853299
#
# Stress axis : x y z
#
# Youngs Moduli (GPa) = 66.87017 31.47017 49.73851
#
# Poissons Ratio (x) = 0.49669 0.10096
# Poissons Ratio (y) = 1.05541 0.31526
# Poissons Ratio (z) = 0.13574 0.19947
#
# Static dielectric constant tensor:
#      x y z
#    x 1.543640 0.000000 0.000000 
#    y 0.000000 1.560450 0.000000 
#    z 0.000000 0.000000 1.546230 
# 
# From -- ./inp_files/12164.got.cif
#   From: 2010.05.17/outbox.cif.g08.bks.cpg/sg51_7_cif.got.tgz:12164.got - 2010.06.03 11:52:47.
