data_PCOD9400544
_publ_section_title
;
Structure prediction by ZEFSAII (Michael W. Deem and Ramdas Pophale) SiO2 
 PCOD9400544
Probable space group: P M M A
;
_chemical_formula_sum "Si O2"
_cell_formula_units_Z 64
_cell_length_a 26.538606
_cell_length_b 19.982970
_cell_length_c 6.693632
_cell_angle_alpha 90.000000
_cell_angle_beta 90.000000
_cell_angle_gamma 90.000000
_cell_volume 3549.768044
_symmetry_space_group_name_H-M "P M M A"
_symmetry_group_IT_number 51
_symmetry_cell_setting 'orthorhombic'
loop_
_space_group_symop_operation_xyz
x,y,z
1/2-x,-y,z
1/2+x,-y,-z
-x,y,-z
-x,-y,-z
1/2+x,y,-z
1/2-x,y,z
x,-y,z
loop_
_atom_site_type_symbol
_atom_site_label
_atom_site_fract_x
_atom_site_fract_y
_atom_site_fract_z
Si Si1 0.058890 0.801001 0.989486
Si Si2 0.142900 0.696502 0.925542
Si Si3 0.120956 0.859590 0.346841
Si Si4 0.695208 0.224298 0.388607
Si Si5 0.399861 0.923739 0.733748
Si Si6 0.189887 0.423498 0.687819
Si Si7 0.305512 0.650553 0.314206
Si Si8 0.192728 0.921024 0.012854
O O1 0.090261 0.735997 0.916636
O O2 0.069558 0.865212 0.846117
O O3 0.081210 0.821960 0.206333
O O4 0.000000 0.787767 0.000000
O O5 0.181543 0.751728 0.834076
O O6 0.154012 0.629258 0.799914
O O7 0.156212 0.675410 0.149080
O O8 0.149946 0.813667 0.505574
O O9 0.097538 0.914583 0.495154
O O10 0.162733 0.886903 0.193286
O O11 0.750000 0.190866 0.399723
O O12 0.698395 0.291371 0.520959
O O13 0.342364 0.914502 0.816715
O O14 0.414576 0.000000 0.789192
O O15 0.250000 0.409076 0.723578
O O16 0.180742 0.500000 0.747032
O O17 0.182023 0.413305 0.449714
O O18 0.250000 0.641547 0.220291
O O19 0.250000 0.896648 0.991802
O O20 0.194845 0.000000 0.055992
#
# Coordination Sequence:
#
# PCOD9400544 Si02
#       8
#     8   8   8   8   8   8   8   8
#     4  11  25  42  60  83 112 148 202 262 310 351
#     4  11  19  36  56  82 116 156 192 233 288 337
#     4  11  20  37  55  82 111 146 189 240 297 353
#     4  10  19  30  50  83 114 143 178 222 275 346
#     4  10  22  41  60  80 109 147 194 250 308 368
#     4   9  19  34  55  88 126 158 189 224 270 342
#     4   9  17  30  50  79 116 151 182 218 267 331
#     4   9  19  34  52  78 112 148 183 222 278 355
#
# _framework density 18.029347000000001
#
# number of rings (size 3 to 8) (size 9 to 14) (size 15 to 20)
#    0.000    2.000    2.500    2.625    0.000    2.750 
#    0.000    3.125    0.000    0.375    0.000    0.875 
#    0.000    0.000    0.000    0.000    0.000    0.000 
#
# Total GULP energy -356640.258987 kJ/mol
# GULP energy per Si atom -5572.504047 kJ/mol
# Density = 1.798831 g / cm^3
# Si number density = 18.029347 Si / 1000 Ang^3
#
#
#
# Elastic Constant Matrix: (Units=GPa)
#
#
# Indices 1 2 3 4 5 6 
#
# 1 109.8071 49.5518 31.7448 0.0000 0.0000 0.0000
# 2 49.5518 102.9423 34.4384 0.0000 0.0000 0.0000
# 3 31.7448 34.4384 80.0408 0.0000 0.0000 0.0000
# 4 0.0000 0.0000 0.0000 25.4712 0.0000 0.0000
# 5 0.0000 0.0000 0.0000 0.0000 10.0734 0.0000
# 6 0.0000 0.0000 0.0000 0.0000 0.0000 14.5727
#
#
#
# Elastic Compliance Matrix: (Units=1/GPa)
#
#
# Indices 1 2 3 4 5 6 
#
# 1 0.012107 -0.004931 -0.002680 0.000000 0.000000 0.000000
# 2 -0.004931 0.013356 -0.003791 0.000000 0.000000 0.000000
# 3 -0.002680 -0.003791 0.015188 0.000000 0.000000 0.000000
# 4 0.000000 0.000000 0.000000 0.039260 0.000000 0.000000
# 5 0.000000 0.000000 0.000000 0.000000 0.099272 0.000000
# 6 0.000000 0.000000 0.000000 0.000000 0.000000 0.068622
#
#
# Mechanical properties :
#
#
# Convention : Reuss Voigt Hill
#
# Bulk Modulus (GPa) = 56.03337 58.25114 57.14226
# Shear Modulus (GPa) = 18.07946 21.82711 19.95329
#
# Velocity S-wave (km/s) = 3.17011 3.48321 3.33034
# Velocity P-wave (km/s) = 6.67427 6.96823 6.82283
#
# Compressibility (1/GPa) = 0.01784651
#
# Stress axis : x y z
#
# Youngs Moduli (GPa) = 82.59755 74.87272 65.84323
#
# Poissons Ratio (x) = 0.36921 0.17646
# Poissons Ratio (y) = 0.40730 0.24960
# Poissons Ratio (z) = 0.22136 0.28383
#
# Static dielectric constant tensor:
#      x y z
#    x 1.614980 0.000000 0.000000 
#    y 0.000000 1.667870 0.000000 
#    z 0.000000 0.000000 1.646490 
# 
# From -- ./inp_files/3670.got.cif
#   From: 2010.05.17/outbox.cif.g08.bks.cpg/sg51_2_cif.got.tgz:3670.got - 2010.06.03 11:52:47.
