data_PCOD9400268
_publ_section_title
;
Structure prediction by ZEFSAII (Michael W. Deem and Ramdas Pophale) SiO2 
 PCOD9400268
Probable space group: P M M A
;
_chemical_formula_sum "Si O2"
_cell_formula_units_Z 56
_cell_length_a 7.719174
_cell_length_b 21.271478
_cell_length_c 15.732588
_cell_angle_alpha 90.000000
_cell_angle_beta 90.000000
_cell_angle_gamma 90.000000
_cell_volume 2583.263259
_symmetry_space_group_name_H-M "P M M A"
_symmetry_group_IT_number 51
_symmetry_cell_setting 'orthorhombic'
loop_
_space_group_symop_operation_xyz
x,y,z
1/2-x,-y,z
1/2+x,-y,-z
-x,y,-z
-x,-y,-z
1/2+x,y,-z
1/2-x,y,z
x,-y,z
loop_
_atom_site_type_symbol
_atom_site_label
_atom_site_fract_x
_atom_site_fract_y
_atom_site_fract_z
Si Si1 0.456425 0.604286 0.091594
Si Si2 0.956114 0.878900 0.907468
Si Si3 0.040693 0.258860 0.135705
Si Si4 0.545163 0.432229 0.280014
Si Si5 0.543696 0.703224 0.326117
Si Si6 0.955636 0.930796 0.274284
Si Si7 0.041533 0.173116 0.594544
O O1 0.250000 0.603960 0.100775
O O2 0.521806 0.676759 0.092635
O O3 0.527644 0.574121 0.177731
O O4 0.500000 0.576135 0.000000
O O5 0.750000 0.876797 0.900151
O O6 0.024510 0.806863 0.901318
O O7 0.021420 0.915111 0.824896
O O8 0.000000 0.905394 0.000000
O O9 0.250000 0.258563 0.131312
O O10 0.986178 0.266093 0.233517
O O11 0.750000 0.433106 0.298731
O O12 0.470943 0.500000 0.305948
O O13 0.471548 0.367823 0.320428
O O14 0.750000 0.697027 0.339340
O O15 0.474074 0.755798 0.390267
O O16 0.750000 0.933033 0.290472
O O17 0.025836 0.875108 0.333983
O O18 0.028405 0.000000 0.292894
O O19 0.250000 0.176237 0.603619
O O20 0.000000 0.151288 0.500000
#
# Coordination Sequence:
#
# PCOD9400268 Si02
#       7
#     8   8   8   8   8   8   8
#     4  10  19  30  44  66  98 135 177 224 272 321
#     4  11  22  35  55  82 113 150 192 234 278 326
#     4   9  18  31  49  75 104 137 179 227 275 320
#     4   9  18  32  50  72  98 133 176 220 268 321
#     4   9  17  32  55  79 105 138 176 219 269 321
#     4  10  22  41  61  82 113 150 186 228 276 325
#     4  10  21  37  60  89 115 143 179 222 275 333
#
# _framework density 21.678008999999999
#
# number of rings (size 3 to 8) (size 9 to 14) (size 15 to 20)
#    0.000    2.286    1.429    1.286    0.000    3.714 
#    0.000    0.000    0.000    0.429    0.000    0.000 
#    0.000    0.000    0.000    0.000    0.000    0.000 
#
# Total GULP energy -312513.878761 kJ/mol
# GULP energy per Si atom -5580.604978 kJ/mol
# Density = 2.162867 g / cm^3
# Si number density = 21.678009 Si / 1000 Ang^3
#
#
#
# Elastic Constant Matrix: (Units=GPa)
#
#
# Indices 1 2 3 4 5 6 
#
# 1 35.1363 11.9888 -6.4995 0.0000 0.0000 0.0000
# 2 11.9888 153.7926 49.0276 0.0000 0.0000 0.0000
# 3 -6.4995 49.0276 72.1578 0.0000 0.0000 0.0000
# 4 0.0000 0.0000 0.0000 -15.1253 0.0000 0.0000
# 5 0.0000 0.0000 0.0000 0.0000 20.7666 0.0000
# 6 0.0000 0.0000 0.0000 0.0000 0.0000 5.4783
#
#
#
# Elastic Compliance Matrix: (Units=1/GPa)
#
#
# Indices 1 2 3 4 5 6 
#
# 1 0.030943 -0.004213 0.005650 0.000000 0.000000 0.000000
# 2 -0.004213 0.008874 -0.006409 0.000000 0.000000 0.000000
# 3 0.005650 -0.006409 0.018722 0.000000 0.000000 0.000000
# 4 0.000000 0.000000 0.000000 -0.066114 0.000000 0.000000
# 5 0.000000 0.000000 0.000000 0.000000 0.048154 0.000000
# 6 0.000000 0.000000 0.000000 0.000000 0.000000 0.182539
#
#
# Mechanical properties :
#
#
# Convention : Reuss Voigt Hill
#
# Bulk Modulus (GPa) = 20.57845 41.12449 30.85147
# Shear Modulus (GPa) = 20.05933 15.99523 18.02728
#
# Velocity S-wave (km/s) = 3.04523 2.71930 2.88686
# Velocity P-wave (km/s) = 4.67738 5.37319 5.03732
#
# Compressibility (1/GPa) = 0.04859453
#
# Stress axis : x y z
#
# Youngs Moduli (GPa) = 32.31719 112.69178 53.41354
#
# Poissons Ratio (x) = 0.47480 -0.30178
# Poissons Ratio (y) = 0.13616 0.34232
# Poissons Ratio (z) = -0.18259 0.72222
#
# Static dielectric constant tensor:
#      x y z
#    x 1.782640 0.000000 0.000000 
#    y 0.000000 1.855210 0.000000 
#    z 0.000000 0.000000 1.825350 
# 
# From -- ./inp_files/21755.got.cif
#   From: 2010.05.17/outbox.cif.g08.bks.cpg/sg51_11_cif.got.tgz:21755.got - 2010.06.03 11:52:47.
