data_PCOD9400571
_publ_section_title
;
Structure prediction by ZEFSAII (Michael W. Deem and Ramdas Pophale) SiO2 
 PCOD9400571
Probable space group: P M M A
;
_chemical_formula_sum "Si O2"
_cell_formula_units_Z 64
_cell_length_a 19.812031
_cell_length_b 7.436463
_cell_length_c 22.414713
_cell_angle_alpha 90.000000
_cell_angle_beta 90.000000
_cell_angle_gamma 90.000000
_cell_volume 3302.391842
_symmetry_space_group_name_H-M "P M M A"
_symmetry_group_IT_number 51
_symmetry_cell_setting 'orthorhombic'
loop_
_space_group_symop_operation_xyz
x,y,z
1/2-x,-y,z
1/2+x,-y,-z
-x,y,-z
-x,-y,-z
1/2+x,y,-z
1/2-x,y,z
x,-y,z
loop_
_atom_site_type_symbol
_atom_site_label
_atom_site_fract_x
_atom_site_fract_y
_atom_site_fract_z
Si Si1 0.922097 0.217031 0.855429
Si Si2 0.823520 0.219966 0.609282
Si Si3 0.031400 0.779547 0.437312
Si Si4 0.022578 0.793544 0.685507
Si Si5 0.924384 0.712879 0.991078
Si Si6 0.825763 0.714014 0.092838
Si Si7 0.567399 0.216561 0.192064
Si Si8 0.368592 0.793891 0.264804
O O1 0.903308 0.264195 0.922530
O O2 0.874102 0.284129 0.801662
O O3 0.999000 0.279001 0.841677
O O4 0.922368 0.000000 0.850953
O O5 0.750000 0.272158 0.585428
O O6 0.890792 0.275530 0.573964
O O7 0.830373 0.283575 0.678135
O O8 0.825734 0.000000 0.610992
O O9 0.000000 0.723810 0.500000
O O10 0.987448 0.716218 0.380368
O O11 0.031070 0.000000 0.435685
O O12 0.065796 0.714371 0.739783
O O13 0.946587 0.798245 0.712763
O O14 0.045063 0.000000 0.677061
O O15 0.929061 0.500000 0.002965
O O16 0.871335 0.787481 0.038653
O O17 0.000000 0.788076 0.000000
O O18 0.750000 0.786951 0.094936
O O19 0.820352 0.500000 0.083750
O O20 0.867725 0.740270 0.153307
O O21 0.562153 0.000000 0.195660
O O22 0.344544 0.000000 0.258699
#
# Coordination Sequence:
#
# PCOD9400571 Si02
#       8
#     8   8   8   8   8   8   8   8
#     4   9  16  26  43  65  84 103 133 173 212 247
#     4   8  12  18  29  45  68 100 135 168 202 242
#     4   8  12  18  30  49  75 108 143 172 199 240
#     4   7  11  20  34  53  75  98 128 166 203 235
#     4  10  19  31  46  63  82 107 141 175 206 252
#     4  10  21  35  47  60  82 110 138 173 218 260
#     4   9  16  27  45  65  83 105 136 175 212 250
#     4   7  11  20  32  49  72  95 122 159 201 241
#
# _framework density 19.379894
#
# number of rings (size 3 to 8) (size 9 to 14) (size 15 to 20)
#    0.000    3.500    1.250    3.000    0.000    1.000 
#    0.000    0.625    0.000    1.500    0.000    3.500 
#    0.000    0.500    0.000    0.375    0.000    3.125 
#
# Total GULP energy -356343.844176 kJ/mol
# GULP energy per Si atom -5567.872565 kJ/mol
# Density = 1.933578 g / cm^3
# Si number density = 19.379894 Si / 1000 Ang^3
#
#
#
# Elastic Constant Matrix: (Units=GPa)
#
#
# Indices 1 2 3 4 5 6 
#
# 1 119.1419 8.1338 86.2532 0.0000 0.0000 0.0000
# 2 8.1338 59.3402 -0.4172 0.0000 0.0000 0.0000
# 3 86.2532 -0.4172 180.4014 0.0000 0.0000 0.0000
# 4 0.0000 0.0000 0.0000 10.4670 0.0000 0.0000
# 5 0.0000 0.0000 0.0000 0.0000 18.0770 0.0000
# 6 0.0000 0.0000 0.0000 0.0000 0.0000 -2.1830
#
#
#
# Elastic Compliance Matrix: (Units=1/GPa)
#
#
# Indices 1 2 3 4 5 6 
#
# 1 0.013032 -0.001830 -0.006235 0.000000 0.000000 0.000000
# 2 -0.001830 0.017109 0.000915 0.000000 0.000000 0.000000
# 3 -0.006235 0.000915 0.008526 0.000000 0.000000 0.000000
# 4 0.000000 0.000000 0.000000 0.095539 0.000000 0.000000
# 5 0.000000 0.000000 0.000000 0.000000 0.055319 0.000000
# 6 0.000000 0.000000 0.000000 0.000000 0.000000 -0.458095
#
#
# Mechanical properties :
#
#
# Convention : Reuss Voigt Hill
#
# Bulk Modulus (GPa) = 41.03997 60.75811 50.89904
# Shear Modulus (GPa) = -20.31318 22.93310 1.30996
#
# Velocity S-wave (km/s) = -3.24104 3.44371 0.82305
# Velocity P-wave (km/s) = 2.68641 6.87251 5.21767
#
# Compressibility (1/GPa) = 0.02436649
#
# Stress axis : x y z
#
# Youngs Moduli (GPa) = 76.73238 58.44779 117.28170
#
# Poissons Ratio (x) = 0.10697 0.73128
# Poissons Ratio (y) = 0.14043 -0.10727
# Poissons Ratio (z) = 0.47844 -0.05346
#
# Static dielectric constant tensor:
#      x y z
#    x 1.676910 0.000000 0.000000 
#    y 0.000000 1.758700 0.000000 
#    z 0.000000 0.000000 1.697670 
# 
# From -- ./inp_files/34112.got.cif
#   From: 2010.05.17/outbox.cif.g08.bks.cpg/sg51_18_cif.got.tgz:34112.got - 2010.06.03 11:52:47.
