data_PCOD9400124
_publ_section_title
;
Structure prediction by ZEFSAII (Michael W. Deem and Ramdas Pophale) SiO2 
 PCOD9400124
Probable space group: P M M A
;
_chemical_formula_sum "Si O2"
_cell_formula_units_Z 64
_cell_length_a 8.985645
_cell_length_b 20.244968
_cell_length_c 20.297877
_cell_angle_alpha 90.000000
_cell_angle_beta 90.000000
_cell_angle_gamma 90.000000
_cell_volume 3692.469935
_symmetry_space_group_name_H-M "P M M A"
_symmetry_group_IT_number 51
_symmetry_cell_setting 'orthorhombic'
loop_
_space_group_symop_operation_xyz
x,y,z
1/2-x,-y,z
1/2+x,-y,-z
-x,y,-z
-x,-y,-z
1/2+x,y,-z
1/2-x,y,z
x,-y,z
loop_
_atom_site_type_symbol
_atom_site_label
_atom_site_fract_x
_atom_site_fract_y
_atom_site_fract_z
Si Si1 0.925348 0.393866 0.566298
Si Si2 0.570668 0.573620 0.714706
Si Si3 0.925478 0.707133 0.243256
Si Si4 0.575149 0.889484 0.432626
Si Si5 0.929176 0.829718 0.819266
Si Si6 0.922939 0.262447 0.397052
Si Si7 0.428632 0.076039 0.927693
Si Si8 0.426369 0.072953 0.297939
O O1 0.750000 0.403132 0.561072
O O2 0.974212 0.422313 0.637204
O O3 0.000000 0.420175 0.500000
O O4 0.968454 0.316636 0.572540
O O5 0.750000 0.582542 0.716591
O O6 0.535386 0.500000 0.739117
O O7 0.493571 0.633699 0.752628
O O8 0.750000 0.705099 0.229199
O O9 0.943827 0.735204 0.318012
O O10 0.008005 0.756570 0.193610
O O11 0.500000 0.911931 0.500000
O O12 0.750000 0.901868 0.435454
O O13 0.550987 0.810605 0.423791
O O14 0.507581 0.920679 0.367194
O O15 0.750000 0.828891 0.824893
O O16 0.971618 0.871957 0.754230
O O17 0.000483 0.869789 0.879547
O O18 0.750000 0.281046 0.410313
O O19 0.250000 0.083547 0.930656
O O20 0.460231 0.000000 0.905749
O O21 0.500000 0.083019 0.000000
O O22 0.250000 0.080225 0.309560
O O23 0.453225 0.000000 0.269721
#
# Coordination Sequence:
#
# PCOD9400124 Si02
#       8
#     8   8   8   8   8   8   8   8
#     4  10  19  29  44  65  89 120 159 203 257 320
#     4   9  19  35  51  69  97 133 171 213 267 328
#     4  10  19  33  53  78 105 131 171 220 266 316
#     4  11  22  35  50  68  90 121 162 212 271 328
#     4  11  21  35  58  84 112 145 182 223 268 316
#     4   9  18  32  48  67  91 119 156 206 262 319
#     4  10  21  37  58  86 122 161 196 229 267 313
#     4  10  22  38  54  73  97 128 169 216 266 320
#
# _framework density 17.332571999999999
#
# number of rings (size 3 to 8) (size 9 to 14) (size 15 to 20)
#    0.000    2.000    1.250    2.625    0.000    5.750 
#    0.000    0.000    0.000    0.000    0.000    0.000 
#    0.000    0.500    0.000    1.875    0.000    2.875 
#
# Total GULP energy -357334.574008 kJ/mol
# GULP energy per Si atom -5583.352719 kJ/mol
# Density = 1.729312 g / cm^3
# Si number density = 17.332572 Si / 1000 Ang^3
#
#
#
# Elastic Constant Matrix: (Units=GPa)
#
#
# Indices 1 2 3 4 5 6 
#
# 1 48.2540 54.6204 38.6926 0.0000 0.0000 0.0000
# 2 54.6204 111.9736 50.4169 0.0000 0.0000 0.0000
# 3 38.6926 50.4169 74.5429 0.0000 0.0000 0.0000
# 4 0.0000 0.0000 0.0000 22.3140 0.0000 0.0000
# 5 0.0000 0.0000 0.0000 0.0000 26.4764 0.0000
# 6 0.0000 0.0000 0.0000 0.0000 0.0000 19.8090
#
#
#
# Elastic Compliance Matrix: (Units=1/GPa)
#
#
# Indices 1 2 3 4 5 6 
#
# 1 0.056256 -0.020553 -0.015300 0.000000 0.000000 0.000000
# 2 -0.020553 0.020350 -0.003095 0.000000 0.000000 0.000000
# 3 -0.015300 -0.003095 0.023450 0.000000 0.000000 0.000000
# 4 0.000000 0.000000 0.000000 0.044815 0.000000 0.000000
# 5 0.000000 0.000000 0.000000 0.000000 0.037769 0.000000
# 6 0.000000 0.000000 0.000000 0.000000 0.000000 0.050482
#
#
# Mechanical properties :
#
#
# Convention : Reuss Voigt Hill
#
# Bulk Modulus (GPa) = 45.12545 58.02561 51.57553
# Shear Modulus (GPa) = 15.70322 19.78926 17.74624
#
# Velocity S-wave (km/s) = 3.01324 3.38263 3.20326
# Velocity P-wave (km/s) = 6.18043 6.98618 6.59562
#
# Compressibility (1/GPa) = 0.02216044
#
# Stress axis : x y z
#
# Youngs Moduli (GPa) = 17.77579 49.13994 42.64339
#
# Poissons Ratio (x) = 1.00996 0.65244
# Poissons Ratio (y) = 0.36534 0.13200
# Poissons Ratio (z) = 0.27197 0.15211
#
# Static dielectric constant tensor:
#      x y z
#    x 1.577260 0.000000 0.000000 
#    y 0.000000 1.604700 0.000000 
#    z 0.000000 0.000000 1.572920 
# 
# From -- ./inp_files/28326.got.cif
#   From: 2010.05.17/outbox.cif.g08.bks.cpg/sg51_15_cif.got.tgz:28326.got - 2010.06.03 11:52:47.
