data_PCOD9400676
_publ_section_title
;
Structure prediction by ZEFSAII (Michael W. Deem and Ramdas Pophale) SiO2 
 PCOD9400676
Probable space group: P M M A
;
_chemical_formula_sum "Si O2"
_cell_formula_units_Z 64
_cell_length_a 25.266748
_cell_length_b 9.389170
_cell_length_c 18.175716
_cell_angle_alpha 90.000000
_cell_angle_beta 90.000000
_cell_angle_gamma 90.000000
_cell_volume 4311.894035
_symmetry_space_group_name_H-M "P M M A"
_symmetry_group_IT_number 51
_symmetry_cell_setting 'orthorhombic'
loop_
_space_group_symop_operation_xyz
x,y,z
1/2-x,-y,z
1/2+x,-y,-z
-x,y,-z
-x,-y,-z
1/2+x,y,-z
1/2-x,y,z
x,-y,z
loop_
_atom_site_type_symbol
_atom_site_label
_atom_site_fract_x
_atom_site_fract_y
_atom_site_fract_z
Si Si1 0.814326 0.665518 0.005304
Si Si2 0.004269 0.836433 0.589123
Si Si3 0.685728 0.664811 0.170098
Si Si4 0.813683 0.833245 0.314919
Si Si5 0.889632 0.330508 0.421176
Si Si6 0.311503 0.329851 0.284505
Si Si7 0.185567 0.836719 0.137246
Si Si8 0.100835 0.331162 0.404740
O O1 0.750000 0.671228 0.005172
O O2 0.828559 0.500000 0.993991
O O3 0.832959 0.761068 0.937650
O O4 0.831463 0.708143 0.087747
O O5 0.950704 0.760459 0.615359
O O6 0.000000 0.838386 0.500000
O O7 0.056096 0.743506 0.605704
O O8 0.008989 0.000000 0.614057
O O9 0.750000 0.665864 0.169280
O O10 0.669890 0.500000 0.182931
O O11 0.669380 0.766302 0.236500
O O12 0.750000 0.820391 0.320286
O O13 0.841930 0.744034 0.378506
O O14 0.827238 0.000000 0.319533
O O15 0.890641 0.500000 0.408470
O O16 0.885977 0.306834 0.509241
O O17 0.250000 0.292907 0.300039
O O18 0.313476 0.500000 0.271836
O O19 0.328813 0.249611 0.210491
O O20 0.349941 0.296480 0.352253
O O21 0.250000 0.835459 0.135125
O O22 0.168316 0.000000 0.141039
O O23 0.088884 0.500000 0.397337
#
# Coordination Sequence:
#
# PCOD9400676 Si02
#       8
#     8   8   8   8   8   8   8   8
#     4   8  13  22  37  55  75 103 139 175 210 249
#     4   9  17  30  48  67  86 107 134 174 224 269
#     4   8  14  25  40  57  78 107 143 178 211 250
#     4  10  20  31  42  60  89 121 149 178 215 259
#     4  10  19  31  48  66  85 111 145 184 220 257
#     4   9  17  29  43  59  84 117 148 178 213 253
#     4   9  16  24  35  54  80 109 141 175 210 250
#     4   9  18  31  47  66  85 109 145 185 221 257
#
# _framework density 14.842665999999999
#
# number of rings (size 3 to 8) (size 9 to 14) (size 15 to 20)
#    0.000    3.000    0.000    2.250    0.000    5.750 
#    0.000    3.750    0.000    1.500    0.000    0.000 
#    0.000    1.000    0.000   10.500    0.000    8.000 
#
# Total GULP energy -356299.091633 kJ/mol
# GULP energy per Si atom -5567.173307 kJ/mol
# Density = 1.480888 g / cm^3
# Si number density = 14.842666 Si / 1000 Ang^3
#
#
#
# Elastic Constant Matrix: (Units=GPa)
#
#
# Indices 1 2 3 4 5 6 
#
# 1 37.8759 40.6625 34.5451 0.0000 0.0000 0.0000
# 2 40.6625 91.5344 65.2103 0.0000 0.0000 0.0000
# 3 34.5451 65.2103 84.9876 0.0000 0.0000 0.0000
# 4 0.0000 0.0000 0.0000 16.6339 0.0000 0.0000
# 5 0.0000 0.0000 0.0000 0.0000 -1.1381 0.0000
# 6 0.0000 0.0000 0.0000 0.0000 0.0000 19.0245
#
#
#
# Elastic Compliance Matrix: (Units=1/GPa)
#
#
# Indices 1 2 3 4 5 6 
#
# 1 0.052617 -0.017949 -0.007615 0.000000 0.000000 0.000000
# 2 -0.017949 0.030220 -0.015892 0.000000 0.000000 0.000000
# 3 -0.007615 -0.015892 0.027055 0.000000 0.000000 0.000000
# 4 0.000000 0.000000 0.000000 0.060118 0.000000 0.000000
# 5 0.000000 0.000000 0.000000 0.000000 -0.878638 0.000000
# 6 0.000000 0.000000 0.000000 0.000000 0.000000 0.052564
#
#
# Mechanical properties :
#
#
# Convention : Reuss Voigt Hill
#
# Bulk Modulus (GPa) = 37.06391 55.02599 46.04495
# Shear Modulus (GPa) = -8.86276 11.83605 1.48664
#
# Velocity S-wave (km/s) = -2.44624 2.82695 1.00189
# Velocity P-wave (km/s) = 4.12875 6.91440 5.69454
#
# Compressibility (1/GPa) = 0.02698042
#
# Stress axis : x y z
#
# Youngs Moduli (GPa) = 19.00522 33.09084 36.96115
#
# Poissons Ratio (x) = 0.59395 0.28147
# Poissons Ratio (y) = 0.34112 0.58738
# Poissons Ratio (z) = 0.14473 0.52587
#
# Static dielectric constant tensor:
#      x y z
#    x 1.469810 0.000000 0.000000 
#    y 0.000000 1.496640 0.000000 
#    z 0.000000 0.000000 1.490710 
# 
# From -- ./inp_files/30909.got.cif
#   From: 2010.05.17/outbox.cif.g08.bks.cpg/sg51_16_cif.got.tgz:30909.got - 2010.06.03 11:52:47.
