data_PCOD9400718
_publ_section_title
;
Structure prediction by ZEFSAII (Michael W. Deem and Ramdas Pophale) SiO2 
 PCOD9400718
Probable space group: P M M A
;
_chemical_formula_sum "Si O2"
_cell_formula_units_Z 56
_cell_length_a 9.093126
_cell_length_b 19.204022
_cell_length_c 19.413668
_cell_angle_alpha 90.000000
_cell_angle_beta 90.000000
_cell_angle_gamma 90.000000
_cell_volume 3390.103849
_symmetry_space_group_name_H-M "P M M A"
_symmetry_group_IT_number 51
_symmetry_cell_setting 'orthorhombic'
loop_
_space_group_symop_operation_xyz
x,y,z
1/2-x,-y,z
1/2+x,-y,-z
-x,y,-z
-x,-y,-z
1/2+x,y,-z
1/2-x,y,z
x,-y,z
loop_
_atom_site_type_symbol
_atom_site_label
_atom_site_fract_x
_atom_site_fract_y
_atom_site_fract_z
Si Si1 0.074056 0.079704 0.339036
Si Si2 0.073155 0.156279 0.786846
Si Si3 0.073429 0.420519 0.210816
Si Si4 0.917622 0.415308 0.068419
Si Si5 0.073361 0.918586 0.927693
Si Si6 0.074298 0.211395 0.427659
Si Si7 0.427158 0.284012 0.287006
O O1 0.250000 0.086840 0.326357
O O2 0.036299 0.134266 0.399171
O O3 0.988592 0.103144 0.270665
O O4 0.042655 0.000000 0.356676
O O5 0.250000 0.159260 0.783181
O O6 0.030678 0.128603 0.862491
O O7 0.003904 0.230132 0.765119
O O8 0.250000 0.420912 0.202978
O O9 0.027148 0.500000 0.226627
O O10 0.035148 0.362835 0.267199
O O11 0.002483 0.398607 0.138347
O O12 0.750000 0.390736 0.070365
O O13 0.914980 0.500000 0.064949
O O14 0.000000 0.390383 0.000000
O O15 0.250000 0.915055 0.934601
O O16 0.034869 0.000000 0.914085
O O17 0.000000 0.898308 0.000000
O O18 0.250000 0.215066 0.435679
O O19 0.031648 0.262135 0.364558
O O20 0.000000 0.226403 0.500000
O O21 0.250000 0.275230 0.281212
#
# Coordination Sequence:
#
# PCOD9400718 Si02
#       7
#     8   8   8   8   8   8   8
#     4   9  18  32  49  70  97 128 160 194 234 280
#     4  10  19  31  48  70  96 125 160 201 240 281
#     4   9  17  31  52  74  94 121 159 201 244 288
#     4   9  16  26  42  66  96 126 154 187 228 275
#     4   9  18  31  46  66  92 122 159 202 241 275
#     4   9  18  32  49  70  96 126 158 190 227 275
#     4   9  19  35  52  71  96 124 155 192 235 288
#
# _framework density 16.518668999999999
#
# number of rings (size 3 to 8) (size 9 to 14) (size 15 to 20)
#    0.000    2.857    0.000    2.143    0.000    6.857 
#    0.000    2.143    0.000    2.143    0.000    0.000 
#    0.000    0.000    0.000    0.000    0.000    0.286 
#
# Total GULP energy -312054.107500 kJ/mol
# GULP energy per Si atom -5572.394777 kJ/mol
# Density = 1.648107 g / cm^3
# Si number density = 16.518669 Si / 1000 Ang^3
#
#
#
# Elastic Constant Matrix: (Units=GPa)
#
#
# Indices 1 2 3 4 5 6 
#
# 1 24.8689 32.0078 42.7504 0.0000 0.0000 0.0000
# 2 32.0078 97.2421 76.0309 0.0000 0.0000 0.0000
# 3 42.7504 76.0309 147.0486 0.0000 0.0000 0.0000
# 4 0.0000 0.0000 0.0000 12.0454 0.0000 0.0000
# 5 0.0000 0.0000 0.0000 0.0000 31.0282 0.0000
# 6 0.0000 0.0000 0.0000 0.0000 0.0000 14.7389
#
#
#
# Elastic Compliance Matrix: (Units=1/GPa)
#
#
# Indices 1 2 3 4 5 6 
#
# 1 0.093047 -0.015907 -0.018826 0.000000 0.000000 0.000000
# 2 -0.015907 0.019982 -0.005707 0.000000 0.000000 0.000000
# 3 -0.018826 -0.005707 0.015224 0.000000 0.000000 0.000000
# 4 0.000000 0.000000 0.000000 0.083019 0.000000 0.000000
# 5 0.000000 0.000000 0.000000 0.000000 0.032229 0.000000
# 6 0.000000 0.000000 0.000000 0.000000 0.000000 0.067847
#
#
# Mechanical properties :
#
#
# Convention : Reuss Voigt Hill
#
# Bulk Modulus (GPa) = 21.10925 63.41532 42.26229
# Shear Modulus (GPa) = 12.25430 19.45389 15.85409
#
# Velocity S-wave (km/s) = 2.72664 3.43547 3.10137
# Velocity P-wave (km/s) = 4.76650 7.36275 6.20200
#
# Compressibility (1/GPa) = 0.04737259
#
# Stress axis : x y z
#
# Youngs Moduli (GPa) = 10.74723 50.04614 65.68448
#
# Poissons Ratio (x) = 0.79611 1.23658
# Poissons Ratio (y) = 0.17096 0.37484
# Poissons Ratio (z) = 0.20233 0.28560
#
# Static dielectric constant tensor:
#      x y z
#    x 1.554500 0.000000 0.000000 
#    y 0.000000 1.568610 0.000000 
#    z 0.000000 0.000000 1.530020 
# 
# From -- ./inp_files/28223.got.cif
#   From: 2010.05.17/outbox.cif.g08.bks.cpg/sg51_15_cif.got.tgz:28223.got - 2010.06.03 11:52:47.
