data_PCOD9400316
_publ_section_title
;
Structure prediction by ZEFSAII (Michael W. Deem and Ramdas Pophale) SiO2 
 PCOD9400316
Probable space group: P M M A
;
_chemical_formula_sum "Si O2"
_cell_formula_units_Z 48
_cell_length_a 9.582705
_cell_length_b 15.432987
_cell_length_c 16.000462
_cell_angle_alpha 90.000000
_cell_angle_beta 90.000000
_cell_angle_gamma 90.000000
_cell_volume 2366.304512
_symmetry_space_group_name_H-M "P M M A"
_symmetry_group_IT_number 51
_symmetry_cell_setting 'orthorhombic'
loop_
_space_group_symop_operation_xyz
x,y,z
1/2-x,-y,z
1/2+x,-y,-z
-x,y,-z
-x,-y,-z
1/2+x,y,-z
1/2-x,y,z
x,-y,z
loop_
_atom_site_type_symbol
_atom_site_label
_atom_site_fract_x
_atom_site_fract_y
_atom_site_fract_z
Si Si1 0.091262 0.405346 0.605900
Si Si2 0.577736 0.206605 0.416289
Si Si3 0.592054 0.874262 0.921964
Si Si4 0.097717 0.332297 0.072601
Si Si5 0.601802 0.401105 0.194854
Si Si6 0.916442 0.898095 0.727883
O O1 0.250000 0.407750 0.572177
O O2 0.024798 0.500000 0.586136
O O3 0.037643 0.309383 0.586090
O O4 0.100712 0.403881 0.706028
O O5 0.500000 0.171712 0.500000
O O6 0.750000 0.199564 0.417893
O O7 0.511110 0.158902 0.335084
O O8 0.750000 0.907618 0.926870
O O9 0.601891 0.770873 0.933976
O O10 0.542439 0.889582 0.826419
O O11 0.500000 0.905611 0.000000
O O12 0.250000 0.369932 0.065660
O O13 0.028642 0.351571 0.160499
O O14 0.000000 0.367609 0.000000
O O15 0.750000 0.361544 0.166720
O O16 0.596152 0.500000 0.164880
O O17 0.750000 0.874304 0.722046
O O18 0.928674 0.000000 0.705871
#
# Coordination Sequence:
#
# PCOD9400316 Si02
#       6
#     8   8   8   8   8   8
#     4   8  16  33  57  84 113 146 184 227 281 345
#     4  11  23  39  62  90 120 156 198 245 295 350
#     4   9  19  35  56  84 115 147 185 231 285 343
#     4  10  19  30  45  66  96 134 176 223 273 329
#     4   9  17  30  48  69  95 130 174 224 275 328
#     4  10  22  41  63  87 119 158 198 244 297 350
#
# _framework density 20.284794000000002
#
# number of rings (size 3 to 8) (size 9 to 14) (size 15 to 20)
#    0.000    2.500    0.000    3.000    0.000    3.333 
#    0.000    0.833    0.000    3.500    0.000    0.000 
#    0.000    0.000    0.000    0.000    0.000    0.000 
#
# Total GULP energy -267213.049918 kJ/mol
# GULP energy per Si atom -5566.938540 kJ/mol
# Density = 2.023862 g / cm^3
# Si number density = 20.284794 Si / 1000 Ang^3
#
#
#
# Elastic Constant Matrix: (Units=GPa)
#
#
# Indices 1 2 3 4 5 6 
#
# 1 110.1095 40.7218 71.5021 0.0000 0.0000 0.0000
# 2 40.7218 63.0841 43.9349 0.0000 0.0000 0.0000
# 3 71.5021 43.9349 137.1839 0.0000 0.0000 0.0000
# 4 0.0000 0.0000 0.0000 -48.0041 0.0000 0.0000
# 5 0.0000 0.0000 0.0000 0.0000 26.7118 0.0000
# 6 0.0000 0.0000 0.0000 0.0000 0.0000 -2.9629
#
#
#
# Elastic Compliance Matrix: (Units=1/GPa)
#
#
# Indices 1 2 3 4 5 6 
#
# 1 0.015069 -0.005479 -0.006099 0.000000 0.000000 0.000000
# 2 -0.005479 0.022395 -0.004316 0.000000 0.000000 0.000000
# 3 -0.006099 -0.004316 0.011851 0.000000 0.000000 0.000000
# 4 0.000000 0.000000 0.000000 -0.020832 0.000000 0.000000
# 5 0.000000 0.000000 0.000000 0.000000 0.037437 0.000000
# 6 0.000000 0.000000 0.000000 0.000000 0.000000 -0.337508
#
#
# Mechanical properties :
#
#
# Convention : Reuss Voigt Hill
#
# Bulk Modulus (GPa) = 57.06208 69.18834 63.12521
# Shear Modulus (GPa) = -21.37154 5.43022 -7.97066
#
# Velocity S-wave (km/s) = -3.24940 1.63793 -1.98442
# Velocity P-wave (km/s) = 3.75678 6.14488 5.09279
#
# Compressibility (1/GPa) = 0.01752477
#
# Stress axis : x y z
#
# Youngs Moduli (GPa) = 66.36098 44.65272 84.38170
#
# Poissons Ratio (x) = 0.24467 0.51467
# Poissons Ratio (y) = 0.36362 0.36422
# Poissons Ratio (z) = 0.40476 0.19274
#
# Static dielectric constant tensor:
#      x y z
#    x 1.748990 0.000000 0.000000 
#    y 0.000000 1.752470 0.000000 
#    z 0.000000 0.000000 1.733060 
# 
# From -- ./inp_files/27565.got.cif
#   From: 2010.05.17/outbox.cif.g08.bks.cpg/sg51_14_cif.got.tgz:27565.got - 2010.06.03 11:52:47.
