data_PCOD9400654
_publ_section_title
;
Structure prediction by ZEFSAII (Michael W. Deem and Ramdas Pophale) SiO2 
 PCOD9400654
Probable space group: P M M A
;
_chemical_formula_sum "Si O2"
_cell_formula_units_Z 44
_cell_length_a 8.552191
_cell_length_b 14.267542
_cell_length_c 19.541008
_cell_angle_alpha 90.000000
_cell_angle_beta 90.000000
_cell_angle_gamma 90.000000
_cell_volume 2384.369258
_symmetry_space_group_name_H-M "P M M A"
_symmetry_group_IT_number 51
_symmetry_cell_setting 'orthorhombic'
loop_
_space_group_symop_operation_xyz
x,y,z
1/2-x,-y,z
1/2+x,-y,-z
-x,y,-z
-x,-y,-z
1/2+x,y,-z
1/2-x,y,z
x,-y,z
loop_
_atom_site_type_symbol
_atom_site_label
_atom_site_fract_x
_atom_site_fract_y
_atom_site_fract_z
Si Si1 0.437903 0.218928 0.208731
Si Si2 0.935977 0.717996 0.423651
Si Si3 0.939103 0.106490 0.660159
Si Si4 0.061120 0.604889 0.299377
Si Si5 0.563135 0.293615 0.076869
Si Si6 0.561446 0.500000 0.077479
O O1 0.250000 0.220616 0.203269
O O2 0.480290 0.137179 0.262153
O O3 0.491123 0.314420 0.247070
O O4 0.507139 0.219745 0.133101
O O5 0.750000 0.712906 0.423775
O O6 0.000000 0.709320 0.500000
O O7 0.989429 0.816956 0.390649
O O8 0.004042 0.638255 0.373625
O O9 0.750000 0.113072 0.654792
O O10 0.986334 0.000000 0.645864
O O11 0.250000 0.605579 0.299209
O O12 0.007101 0.500000 0.282340
O O13 0.750000 0.294255 0.073547
O O14 0.508277 0.397801 0.102882
O O15 0.500000 0.279283 0.000000
O O16 0.750000 0.500000 0.079609
O O17 0.500000 0.500000 0.000000
#
# Coordination Sequence:
#
# PCOD9400654 Si02
#       6
#     8   8   8   8   8   4
#     4   9  18  32  52  78 104 132 169 212 261 314
#     4  11  22  36  55  80 110 141 174 216 260 309
#     4   9  19  38  61  81 104 135 171 213 263 318
#     4   9  19  36  55  76 105 143 183 219 257 306
#     4  10  19  31  47  69 100 137 175 216 259 304
#     4   8  16  28  40  60  90 126 165 202 241 288
#
# _framework density 18.453517000000002
#
# number of rings (size 3 to 8) (size 9 to 14) (size 15 to 20)
#    0.000    2.545    0.000    3.273    1.273    5.091 
#    0.000    0.000    0.000    0.545    0.000    0.000 
#    0.000    0.000    0.000    0.000    0.000    0.000 
#
# Total GULP energy -245311.111890 kJ/mol
# GULP energy per Si atom -5575.252543 kJ/mol
# Density = 1.841152 g / cm^3
# Si number density = 18.453517 Si / 1000 Ang^3
#
#
#
# Elastic Constant Matrix: (Units=GPa)
#
#
# Indices 1 2 3 4 5 6 
#
# 1 8.2272 0.0275 -0.4886 0.0000 0.0000 0.0000
# 2 0.0275 37.3294 -16.5729 0.0000 0.0000 0.0000
# 3 -0.4886 -16.5729 74.6386 0.0000 0.0000 0.0000
# 4 0.0000 0.0000 0.0000 15.9474 0.0000 0.0000
# 5 0.0000 0.0000 0.0000 0.0000 29.5357 0.0000
# 6 0.0000 0.0000 0.0000 0.0000 0.0000 17.3346
#
#
#
# Elastic Compliance Matrix: (Units=1/GPa)
#
#
# Indices 1 2 3 4 5 6 
#
# 1 0.121599 0.000293 0.000861 0.000000 0.000000 0.000000
# 2 0.000293 0.029719 0.006601 0.000000 0.000000 0.000000
# 3 0.000861 0.006601 0.014869 0.000000 0.000000 0.000000
# 4 0.000000 0.000000 0.000000 0.062706 0.000000 0.000000
# 5 0.000000 0.000000 0.000000 0.000000 0.033857 0.000000
# 6 0.000000 0.000000 0.000000 0.000000 0.000000 0.057688
#
#
# Mechanical properties :
#
#
# Convention : Reuss Voigt Hill
#
# Bulk Modulus (GPa) = 5.50372 9.56969 7.53671
# Shear Modulus (GPa) = 13.68008 21.71215 17.69612
#
# Velocity S-wave (km/s) = 2.72569 3.43386 3.10006
# Velocity P-wave (km/s) = 3.59093 4.57373 4.11180
#
# Compressibility (1/GPa) = 0.18169521
#
# Stress axis : x y z
#
# Youngs Moduli (GPa) = 8.22377 33.64874 67.25324
#
# Poissons Ratio (x) = -0.00984 -0.05790
# Poissons Ratio (y) = -0.00241 -0.44392
# Poissons Ratio (z) = -0.00708 -0.22211
#
# Static dielectric constant tensor:
#      x y z
#    x 1.621310 0.000000 0.000000 
#    y 0.000000 1.654940 0.000000 
#    z 0.000000 0.000000 1.619080 
# 
# From -- ./inp_files/27324.got.cif
#   From: 2010.05.17/outbox.cif.g08.bks.cpg/sg51_14_cif.got.tgz:27324.got - 2010.06.03 11:52:47.
