data_PCOD9400053
_publ_section_title
;
Structure prediction by ZEFSAII (Michael W. Deem and Ramdas Pophale) SiO2 
 PCOD9400053
Probable space group: P M M A
;
_chemical_formula_sum "Si O2"
_cell_formula_units_Z 56
_cell_length_a 9.144437
_cell_length_b 21.894621
_cell_length_c 18.763176
_cell_angle_alpha 90.000000
_cell_angle_beta 90.000000
_cell_angle_gamma 90.000000
_cell_volume 3756.650189
_symmetry_space_group_name_H-M "P M M A"
_symmetry_group_IT_number 51
_symmetry_cell_setting 'orthorhombic'
loop_
_space_group_symop_operation_xyz
x,y,z
1/2-x,-y,z
1/2+x,-y,-z
-x,y,-z
-x,-y,-z
1/2+x,y,-z
1/2-x,y,z
x,-y,z
loop_
_atom_site_type_symbol
_atom_site_label
_atom_site_fract_x
_atom_site_fract_y
_atom_site_fract_z
Si Si1 0.074732 0.930234 0.662795
Si Si2 0.577325 0.821992 0.575012
Si Si3 0.078054 0.755119 0.286185
Si Si4 0.422669 0.139295 0.799868
Si Si5 0.423694 0.202216 0.076388
Si Si6 0.921303 0.328446 0.836755
Si Si7 0.576344 0.428882 0.074936
O O1 0.250000 0.921453 0.653595
O O2 0.043445 0.916494 0.746447
O O3 0.990254 0.881328 0.614509
O O4 0.038285 0.000000 0.644933
O O5 0.500000 0.812455 0.500000
O O6 0.750000 0.831254 0.564970
O O7 0.557677 0.765401 0.630048
O O8 0.250000 0.771519 0.270652
O O9 0.053727 0.691766 0.245221
O O10 0.971198 0.803101 0.248441
O O11 0.250000 0.140182 0.814364
O O12 0.510850 0.149651 0.872445
O O13 0.250000 0.195229 0.069447
O O14 0.450405 0.267386 0.116006
O O15 0.500000 0.202333 0.000000
O O16 0.750000 0.343422 0.845673
O O17 0.017288 0.383490 0.865283
O O18 0.750000 0.422859 0.067056
O O19 0.542143 0.500000 0.090184
O O20 0.500000 0.412788 0.000000
#
# Coordination Sequence:
#
# PCOD9400053 Si02
#       7
#     8   8   8   8   8   8   8
#     4   9  18  32  48  65  85 111 144 177 208 249
#     4  10  19  31  47  67  92 118 142 171 209 253
#     4   8  16  30  45  62  85 112 141 174 211 252
#     4   9  16  27  44  63  82 106 136 172 215 258
#     4  10  19  29  42  62  86 109 137 176 219 260
#     4   9  17  29  45  63  83 110 144 179 213 250
#     4  10  20  31  42  59  86 120 154 185 216 249
#
# _framework density 14.906898
#
# number of rings (size 3 to 8) (size 9 to 14) (size 15 to 20)
#    0.000    2.714    0.000    3.000    0.000    6.571 
#    0.000    0.000    0.000    0.429    0.000    0.000 
#    0.000    0.571    0.000    1.286    0.000    2.286 
#
# Total GULP energy -311820.584416 kJ/mol
# GULP energy per Si atom -5568.224722 kJ/mol
# Density = 1.487297 g / cm^3
# Si number density = 14.906898 Si / 1000 Ang^3
#
#
#
# Elastic Constant Matrix: (Units=GPa)
#
#
# Indices 1 2 3 4 5 6 
#
# 1 55.2382 33.5653 57.1579 0.0000 0.0000 0.0000
# 2 33.5653 52.9849 44.5289 0.0000 0.0000 0.0000
# 3 57.1579 44.5289 115.7767 0.0000 0.0000 0.0000
# 4 0.0000 0.0000 0.0000 16.3552 0.0000 0.0000
# 5 0.0000 0.0000 0.0000 0.0000 26.1521 0.0000
# 6 0.0000 0.0000 0.0000 0.0000 0.0000 19.0848
#
#
#
# Elastic Compliance Matrix: (Units=1/GPa)
#
#
# Indices 1 2 3 4 5 6 
#
# 1 0.042957 -0.013874 -0.015871 0.000000 0.000000 0.000000
# 2 -0.013874 0.032369 -0.005600 0.000000 0.000000 0.000000
# 3 -0.015871 -0.005600 0.018626 0.000000 0.000000 0.000000
# 4 0.000000 0.000000 0.000000 0.061143 0.000000 0.000000
# 5 0.000000 0.000000 0.000000 0.000000 0.038238 0.000000
# 6 0.000000 0.000000 0.000000 0.000000 0.000000 0.052398
#
#
# Mechanical properties :
#
#
# Convention : Reuss Voigt Hill
#
# Bulk Modulus (GPa) = 42.98958 54.94492 48.96725
# Shear Modulus (GPa) = 15.42380 18.23492 16.82936
#
# Velocity S-wave (km/s) = 3.22013 3.50130 3.36365
# Velocity P-wave (km/s) = 6.53658 7.29960 6.92861
#
# Compressibility (1/GPa) = 0.02326145
#
# Stress axis : x y z
#
# Youngs Moduli (GPa) = 23.27914 30.89419 53.68716
#
# Poissons Ratio (x) = 0.42864 0.85208
# Poissons Ratio (y) = 0.32299 0.30063
# Poissons Ratio (z) = 0.36947 0.17299
#
# Static dielectric constant tensor:
#      x y z
#    x 1.497230 0.000000 0.000000 
#    y 0.000000 1.484350 0.000000 
#    z 0.000000 0.000000 1.509120 
# 
# From -- ./inp_files/28181.got.cif
#   From: 2010.05.17/outbox.cif.g08.bks.cpg/sg51_15_cif.got.tgz:28181.got - 2010.06.03 11:52:47.
