data_PCOD9400900
_publ_section_title
;
Structure prediction by ZEFSAII (Michael W. Deem and Ramdas Pophale) SiO2 
 PCOD9400900
Probable space group: P M M A
;
_chemical_formula_sum "Si O2"
_cell_formula_units_Z 64
_cell_length_a 18.607070
_cell_length_b 7.694540
_cell_length_c 22.327600
_cell_angle_alpha 90.000000
_cell_angle_beta 90.000000
_cell_angle_gamma 90.000000
_cell_volume 3196.706001
_symmetry_space_group_name_H-M "P M M A"
_symmetry_group_IT_number 51
_symmetry_cell_setting 'orthorhombic'
loop_
_space_group_symop_operation_xyz
x,y,z
1/2-x,-y,z
1/2+x,-y,-z
-x,y,-z
-x,-y,-z
1/2+x,y,-z
1/2-x,y,z
x,-y,z
loop_
_atom_site_type_symbol
_atom_site_label
_atom_site_fract_x
_atom_site_fract_y
_atom_site_fract_z
Si Si1 0.914011 0.708732 0.623224
Si Si2 0.953306 0.790891 0.186112
Si Si3 0.831170 0.208932 0.271522
Si Si4 0.167494 0.712878 0.495311
Si Si5 0.975410 0.291292 0.935495
Si Si6 0.171790 0.294967 0.121536
Si Si7 0.397391 0.793214 0.242593
Si Si8 0.922281 0.290781 0.389593
O O1 0.917051 0.500000 0.618662
O O2 0.865980 0.770382 0.567822
O O3 0.883514 0.750475 0.688639
O O4 0.996186 0.775006 0.617995
O O5 0.880706 0.725886 0.216919
O O6 0.968194 0.744562 0.117516
O O7 0.022769 0.727977 0.223944
O O8 0.952926 0.000000 0.190242
O O9 0.750000 0.277716 0.272600
O O10 0.873871 0.246898 0.332441
O O11 0.826816 0.000000 0.266271
O O12 0.250000 0.768212 0.502867
O O13 0.167526 0.500000 0.495730
O O14 0.117182 0.770438 0.550146
O O15 0.969022 0.500000 0.939970
O O16 0.898058 0.222039 0.912675
O O17 0.000000 0.224201 0.000000
O O18 0.250000 0.219749 0.106956
O O19 0.174053 0.500000 0.107917
O O20 0.156001 0.277708 0.192313
O O21 0.397093 0.000000 0.236050
O O22 0.926491 0.500000 0.393429
#
# Coordination Sequence:
#
# PCOD9400900 Si02
#       8
#     8   8   8   8   8   8   8   8
#     4  10  19  31  50  74  98 130 169 209 256 312
#     4   9  18  33  51  72 100 133 168 202 243 298
#     4  10  20  34  52  74 102 134 167 207 257 308
#     4   9  18  32  48  68  96 129 167 212 259 306
#     4   9  18  33  54  79 105 135 171 209 247 290
#     4   9  18  33  53  76 104 138 173 207 249 301
#     4  10  19  32  51  74 101 131 166 210 254 296
#     4  10  19  32  52  74  97 126 168 216 257 303
#
# _framework density 20.020607999999999
#
# number of rings (size 3 to 8) (size 9 to 14) (size 15 to 20)
#    0.000    2.500    1.250    1.125    0.000    4.250 
#    0.000    2.500    0.000    3.000    0.000    0.000 
#    0.000    0.000    0.000    0.000    0.000    0.000 
#
# Total GULP energy -357177.998675 kJ/mol
# GULP energy per Si atom -5580.906229 kJ/mol
# Density = 1.997504 g / cm^3
# Si number density = 20.020608 Si / 1000 Ang^3
#
#
#
# Elastic Constant Matrix: (Units=GPa)
#
#
# Indices 1 2 3 4 5 6 
#
# 1 71.2540 2.8035 36.5407 0.0000 0.0000 0.0000
# 2 2.8035 33.0868 -6.8382 0.0000 0.0000 0.0000
# 3 36.5407 -6.8382 143.1637 0.0000 0.0000 0.0000
# 4 0.0000 0.0000 0.0000 27.7262 0.0000 0.0000
# 5 0.0000 0.0000 0.0000 0.0000 14.4796 0.0000
# 6 0.0000 0.0000 0.0000 0.0000 0.0000 10.5939
#
#
#
# Elastic Compliance Matrix: (Units=1/GPa)
#
#
# Indices 1 2 3 4 5 6 
#
# 1 0.016314 -0.002265 -0.004272 0.000000 0.000000 0.000000
# 2 -0.002265 0.030839 0.002051 0.000000 0.000000 0.000000
# 3 -0.004272 0.002051 0.008173 0.000000 0.000000 0.000000
# 4 0.000000 0.000000 0.000000 0.036067 0.000000 0.000000
# 5 0.000000 0.000000 0.000000 0.000000 0.069063 0.000000
# 6 0.000000 0.000000 0.000000 0.000000 0.000000 0.094394
#
#
# Mechanical properties :
#
#
# Convention : Reuss Voigt Hill
#
# Bulk Modulus (GPa) = 21.57284 34.72406 28.14845
# Shear Modulus (GPa) = 17.90349 24.89317 21.39833
#
# Velocity S-wave (km/s) = 2.99365 3.52998 3.27282
# Velocity P-wave (km/s) = 4.76948 5.83062 5.32654
#
# Compressibility (1/GPa) = 0.04635457
#
# Stress axis : x y z
#
# Youngs Moduli (GPa) = 61.29586 32.42602 122.34784
#
# Poissons Ratio (x) = 0.07345 0.52270
# Poissons Ratio (y) = 0.13885 -0.25096
# Poissons Ratio (z) = 0.26187 -0.06651
#
# Static dielectric constant tensor:
#      x y z
#    x 1.718550 0.000000 0.000000 
#    y 0.000000 1.735850 0.000000 
#    z 0.000000 0.000000 1.675890 
# 
# From -- ./inp_files/33873.got.cif
#   From: 2010.05.17/outbox.cif.g08.bks.cpg/sg51_17_cif.got.tgz:33873.got - 2010.06.03 11:52:47.
