data_PCOD9400324
_publ_section_title
;
Structure prediction by ZEFSAII (Michael W. Deem and Ramdas Pophale) SiO2 
 PCOD9400324
Probable space group: P M M A
;
_chemical_formula_sum "Si O2"
_cell_formula_units_Z 36
_cell_length_a 14.662382
_cell_length_b 13.163749
_cell_length_c 11.554680
_cell_angle_alpha 90.000000
_cell_angle_beta 90.000000
_cell_angle_gamma 90.000000
_cell_volume 2230.190930
_symmetry_space_group_name_H-M "P M M A"
_symmetry_group_IT_number 51
_symmetry_cell_setting 'orthorhombic'
loop_
_space_group_symop_operation_xyz
x,y,z
1/2-x,-y,z
1/2+x,-y,-z
-x,y,-z
-x,-y,-z
1/2+x,y,-z
1/2-x,y,z
x,-y,z
loop_
_atom_site_type_symbol
_atom_site_label
_atom_site_fract_x
_atom_site_fract_y
_atom_site_fract_z
Si Si1 0.000000 0.268162 0.500000
Si Si2 0.643628 0.618319 0.658701
Si Si3 0.143403 0.197367 0.178147
Si Si4 0.027595 0.883076 0.701972
Si Si5 0.141721 0.881011 0.929843
O O1 0.923862 0.336293 0.562598
O O2 0.957563 0.193874 0.402983
O O3 0.750000 0.628006 0.623358
O O4 0.624794 0.500000 0.680193
O O5 0.632550 0.688979 0.772187
O O6 0.250000 0.168514 0.189322
O O7 0.076972 0.129403 0.256217
O O8 0.117935 0.182325 0.044175
O O9 0.087451 0.854723 0.814151
O O10 0.046761 0.000000 0.671056
O O11 0.250000 0.871318 0.909528
O O12 0.122407 0.000000 0.956029
#
# Coordination Sequence:
#
# PCOD9400324 Si02
#       5
#     4   8   8   8   8
#     4  10  20  32  48  68  94 124 158 194 226 264
#     4   9  18  33  52  70  88 116 154 195 238 277
#     4   9  17  29  47  70  91 115 151 192 232 276
#     4  10  19  30  45  67  96 128 157 185 221 268
#     4   9  17  29  46  68  94 123 152 183 223 272
#
# _framework density 16.142116999999999
#
# number of rings (size 3 to 8) (size 9 to 14) (size 15 to 20)
#    0.000    2.667    0.000    2.000    0.000    4.000 
#    0.000    0.000    0.000   16.000    0.000    3.111 
#    0.000    0.000    0.000    0.000    0.000    0.000 
#
# Total GULP energy -200614.198820 kJ/mol
# GULP energy per Si atom -5572.616634 kJ/mol
# Density = 1.610538 g / cm^3
# Si number density = 16.142117 Si / 1000 Ang^3
#
#
#
# Elastic Constant Matrix: (Units=GPa)
#
#
# Indices 1 2 3 4 5 6 
#
# 1 46.5645 37.4943 44.9673 0.0000 0.0000 0.0000
# 2 37.4943 90.0216 64.9348 0.0000 0.0000 0.0000
# 3 44.9673 64.9348 108.6308 0.0000 0.0000 0.0000
# 4 0.0000 0.0000 0.0000 19.4513 0.0000 0.0000
# 5 0.0000 0.0000 0.0000 0.0000 26.3932 0.0000
# 6 0.0000 0.0000 0.0000 0.0000 0.0000 17.9588
#
#
#
# Elastic Compliance Matrix: (Units=1/GPa)
#
#
# Indices 1 2 3 4 5 6 
#
# 1 0.038835 -0.008050 -0.011263 0.000000 0.000000 0.000000
# 2 -0.008050 0.021198 -0.009339 0.000000 0.000000 0.000000
# 3 -0.011263 -0.009339 0.019450 0.000000 0.000000 0.000000
# 4 0.000000 0.000000 0.000000 0.051410 0.000000 0.000000
# 5 0.000000 0.000000 0.000000 0.000000 0.037888 0.000000
# 6 0.000000 0.000000 0.000000 0.000000 0.000000 0.055683
#
#
# Mechanical properties :
#
#
# Convention : Reuss Voigt Hill
#
# Bulk Modulus (GPa) = 45.08981 60.00107 52.54544
# Shear Modulus (GPa) = 17.29137 19.28205 18.28671
#
# Velocity S-wave (km/s) = 3.27646 3.45993 3.36945
# Velocity P-wave (km/s) = 6.50440 7.29470 6.91086
#
# Compressibility (1/GPa) = 0.02217796
#
# Stress axis : x y z
#
# Youngs Moduli (GPa) = 25.75009 47.17520 51.41344
#
# Poissons Ratio (x) = 0.37977 0.57909
# Poissons Ratio (y) = 0.20729 0.48013
# Poissons Ratio (z) = 0.29003 0.44055
#
# Static dielectric constant tensor:
#      x y z
#    x 1.558150 0.000000 0.000000 
#    y 0.000000 1.527670 0.000000 
#    z 0.000000 0.000000 1.524900 
# 
# From -- ./inp_files/7812.got.cif
#   From: 2010.05.17/outbox.cif.g08.bks.cpg/sg51_4_cif.got.tgz:7812.got - 2010.06.03 11:52:47.
