data_PCOD9400526
_publ_section_title
;
Structure prediction by ZEFSAII (Michael W. Deem and Ramdas Pophale) SiO2 
 PCOD9400526
Probable space group: P M M A
;
_chemical_formula_sum "Si O2"
_cell_formula_units_Z 64
_cell_length_a 24.010779
_cell_length_b 9.002545
_cell_length_c 16.395075
_cell_angle_alpha 90.000000
_cell_angle_beta 90.000000
_cell_angle_gamma 90.000000
_cell_volume 3543.928564
_symmetry_space_group_name_H-M "P M M A"
_symmetry_group_IT_number 51
_symmetry_cell_setting 'orthorhombic'
loop_
_space_group_symop_operation_xyz
x,y,z
1/2-x,-y,z
1/2+x,-y,-z
-x,y,-z
-x,-y,-z
1/2+x,y,-z
1/2-x,y,z
x,-y,z
loop_
_atom_site_type_symbol
_atom_site_label
_atom_site_fract_x
_atom_site_fract_y
_atom_site_fract_z
Si Si1 0.815402 0.325412 0.379612
Si Si2 0.182510 0.670216 0.111903
Si Si3 0.520481 0.825317 0.296991
Si Si4 0.816272 0.177415 0.057507
Si Si5 0.684422 0.177085 0.717683
Si Si6 0.878355 0.676250 0.209239
Si Si7 0.587001 0.827747 0.466867
Si Si8 0.916100 0.675973 0.633441
O O1 0.750000 0.295737 0.384012
O O2 0.825193 0.500000 0.399284
O O3 0.838139 0.301921 0.287853
O O4 0.851762 0.223594 0.438715
O O5 0.250000 0.666420 0.110197
O O6 0.162647 0.500000 0.116495
O O7 0.168163 0.761631 0.192850
O O8 0.165704 0.749745 0.028176
O O9 0.562742 0.748089 0.234272
O O10 0.549499 0.810561 0.386204
O O11 0.461177 0.746832 0.305425
O O12 0.514776 0.000000 0.279574
O O13 0.750000 0.208327 0.068917
O O14 0.850595 0.246773 0.131627
O O15 0.822983 0.000000 0.054402
O O16 0.750000 0.210169 0.704583
O O17 0.644267 0.257278 0.654159
O O18 0.677269 0.000000 0.714148
O O19 0.884051 0.500000 0.196299
O O20 0.568842 0.727697 0.542226
O O21 0.585441 0.000000 0.491903
O O22 0.916059 0.500000 0.640051
#
# Coordination Sequence:
#
# PCOD9400526 Si02
#       8
#     8   8   8   8   8   8   8   8
#     4   9  18  32  49  71 103 141 176 213 261 314
#     4   9  17  31  52  78 108 140 174 214 260 308
#     4  10  21  38  57  77 104 137 175 219 265 312
#     4  10  19  30  48  77 111 146 183 219 258 307
#     4  10  21  38  59  82 109 139 171 211 261 314
#     4  10  19  32  51  76 106 140 179 221 264 309
#     4  10  21  36  54  76 102 135 175 220 266 310
#     4  12  24  37  57  81 104 134 173 216 261 311
#
# _framework density 18.059055000000001
#
# number of rings (size 3 to 8) (size 9 to 14) (size 15 to 20)
#    0.000    2.000    0.000    4.125    0.000    7.750 
#    0.000    0.000    0.000    0.750    0.000    5.250 
#    0.000    0.000    0.000    0.000    0.000    0.000 
#
# Total GULP energy -357400.986866 kJ/mol
# GULP energy per Si atom -5584.390420 kJ/mol
# Density = 1.801795 g / cm^3
# Si number density = 18.059055 Si / 1000 Ang^3
#
#
#
# Elastic Constant Matrix: (Units=GPa)
#
#
# Indices 1 2 3 4 5 6 
#
# 1 58.9275 40.6668 4.0724 0.0000 0.0000 0.0000
# 2 40.6668 101.5010 27.0820 0.0000 0.0000 0.0000
# 3 4.0724 27.0820 38.4835 0.0000 0.0000 0.0000
# 4 0.0000 0.0000 0.0000 31.9402 0.0000 0.0000
# 5 0.0000 0.0000 0.0000 0.0000 15.2211 0.0000
# 6 0.0000 0.0000 0.0000 0.0000 0.0000 25.9902
#
#
#
# Elastic Compliance Matrix: (Units=1/GPa)
#
#
# Indices 1 2 3 4 5 6 
#
# 1 0.024293 -0.011139 0.005268 0.000000 0.000000 0.000000
# 2 -0.011139 0.017237 -0.010951 0.000000 0.000000 0.000000
# 3 0.005268 -0.010951 0.033135 0.000000 0.000000 0.000000
# 4 0.000000 0.000000 0.000000 0.031308 0.000000 0.000000
# 5 0.000000 0.000000 0.000000 0.000000 0.065698 0.000000
# 6 0.000000 0.000000 0.000000 0.000000 0.000000 0.038476
#
#
# Mechanical properties :
#
#
# Convention : Reuss Voigt Hill
#
# Bulk Modulus (GPa) = 24.37835 38.06160 31.21998
# Shear Modulus (GPa) = 19.42014 23.10302 21.26158
#
# Velocity S-wave (km/s) = 3.28284 3.58062 3.43496
# Velocity P-wave (km/s) = 5.28185 6.18194 5.74953
#
# Compressibility (1/GPa) = 0.04102000
#
# Stress axis : x y z
#
# Youngs Moduli (GPa) = 41.16437 58.01530 30.17998
#
# Poissons Ratio (x) = 0.64621 -0.15898
# Poissons Ratio (y) = 0.45851 0.33051
# Poissons Ratio (z) = -0.21685 0.63535
#
# Static dielectric constant tensor:
#      x y z
#    x 1.613330 0.000000 0.000000 
#    y 0.000000 1.600690 0.000000 
#    z 0.000000 0.000000 1.605770 
# 
# From -- ./inp_files/26172.got.cif
#   From: 2010.05.17/outbox.cif.g08.bks.cpg/sg51_14_cif.got.tgz:26172.got - 2010.06.03 11:52:47.
