data_PCOD9400778
_publ_section_title
;
Structure prediction by ZEFSAII (Michael W. Deem and Ramdas Pophale) SiO2 
 PCOD9400778
Probable space group: P M M A
;
_chemical_formula_sum "Si O2"
_cell_formula_units_Z 64
_cell_length_a 13.307237
_cell_length_b 13.811217
_cell_length_c 19.286913
_cell_angle_alpha 90.000000
_cell_angle_beta 90.000000
_cell_angle_gamma 90.000000
_cell_volume 3544.725113
_symmetry_space_group_name_H-M "P M M A"
_symmetry_group_IT_number 51
_symmetry_cell_setting 'orthorhombic'
loop_
_space_group_symop_operation_xyz
x,y,z
1/2-x,-y,z
1/2+x,-y,-z
-x,y,-z
-x,-y,-z
1/2+x,y,-z
1/2-x,y,z
x,-y,z
loop_
_atom_site_type_symbol
_atom_site_label
_atom_site_fract_x
_atom_site_fract_y
_atom_site_fract_z
Si Si1 0.435056 0.611879 0.177494
Si Si2 0.433441 0.197819 0.254392
Si Si3 0.867580 0.714840 0.959468
Si Si4 0.924433 0.116544 0.602282
Si Si5 0.363435 0.385549 0.896541
Si Si6 0.965711 0.890317 0.887468
Si Si7 0.142310 0.882819 0.550464
Si Si8 0.366823 0.885326 0.787382
O O1 0.363691 0.500000 0.912572
O O2 0.406889 0.692908 0.233412
O O3 0.385290 0.639602 0.103727
O O4 0.553621 0.628769 0.162019
O O5 0.388595 0.163571 0.326515
O O6 0.409283 0.132914 0.186082
O O7 0.554692 0.177059 0.257482
O O8 0.750000 0.738051 0.961452
O O9 0.927443 0.810996 0.939943
O O10 0.893384 0.668974 0.033368
O O11 0.039887 0.147561 0.587229
O O12 0.866933 0.140470 0.531289
O O13 0.921860 0.000000 0.610204
O O14 0.250000 0.357766 0.876674
O O15 0.583348 0.500000 0.805190
O O16 0.949442 0.000000 0.909309
O O17 0.917580 0.877130 0.135999
O O18 0.250000 0.848758 0.578436
O O19 0.141604 0.000000 0.554752
O O20 0.250000 0.859903 0.784624
O O21 0.376579 0.000000 0.768049
#
# Coordination Sequence:
#
# PCOD9400778 Si02
#       8
#     8   8   8   8   8   8   8   8
#     4  10  20  34  50  68  94 121 150 198 252 292
#     4   9  17  28  45  69  96 123 156 189 233 283
#     4  10  19  31  49  71  90 119 161 198 236 283
#     4   9  15  26  44  65  96 128 153 188 225 266
#     4   9  18  33  53  73  90 111 146 194 249 302
#     4   8  16  30  45  66  96 125 154 191 230 274
#     4   8  15  26  41  65  95 126 157 187 222 262
#     4   8  14  26  45  67  92 122 152 184 224 272
#
# _framework density 18.054997
#
# number of rings (size 3 to 8) (size 9 to 14) (size 15 to 20)
#    0.750    2.375    0.000    2.250    0.000    3.000 
#    0.000    3.750    0.000   10.500    0.000    1.750 
#    0.000    1.000    0.000    0.000    0.000    0.000 
#
# Total GULP energy -356456.502094 kJ/mol
# GULP energy per Si atom -5569.632845 kJ/mol
# Density = 1.801390 g / cm^3
# Si number density = 18.054997 Si / 1000 Ang^3
#
#
#
# Elastic Constant Matrix: (Units=GPa)
#
#
# Indices 1 2 3 4 5 6 
#
# 1 28.1497 -0.1865 -8.6270 0.0000 0.0000 0.0000
# 2 -0.1865 70.2946 20.8492 0.0000 0.0000 0.0000
# 3 -8.6270 20.8492 54.0273 0.0000 0.0000 0.0000
# 4 0.0000 0.0000 0.0000 19.3877 0.0000 0.0000
# 5 0.0000 0.0000 0.0000 0.0000 3.2301 0.0000
# 6 0.0000 0.0000 0.0000 0.0000 0.0000 15.7134
#
#
#
# Elastic Compliance Matrix: (Units=1/GPa)
#
#
# Indices 1 2 3 4 5 6 
#
# 1 0.037575 -0.001897 0.006732 0.000000 0.000000 0.000000
# 2 -0.001897 0.016160 -0.006539 0.000000 0.000000 0.000000
# 3 0.006732 -0.006539 0.022108 0.000000 0.000000 0.000000
# 4 0.000000 0.000000 0.000000 0.051579 0.000000 0.000000
# 5 0.000000 0.000000 0.000000 0.000000 0.309588 0.000000
# 6 0.000000 0.000000 0.000000 0.000000 0.000000 0.063640
#
#
# Mechanical properties :
#
#
# Convention : Reuss Voigt Hill
#
# Bulk Modulus (GPa) = 13.80561 19.61590 16.71075
# Shear Modulus (GPa) = 9.46605 17.02863 13.24734
#
# Velocity S-wave (km/s) = 2.29222 3.07441 2.71167
# Velocity P-wave (km/s) = 3.82998 4.84673 4.36804
#
# Compressibility (1/GPa) = 0.07243434
#
# Stress axis : x y z
#
# Youngs Moduli (GPa) = 26.61349 61.88001 45.23332
#
# Poissons Ratio (x) = 0.11739 -0.30451
# Poissons Ratio (y) = 0.05049 0.29579
# Poissons Ratio (z) = -0.17916 0.40464
#
# Static dielectric constant tensor:
#      x y z
#    x 1.694100 0.000000 0.000000 
#    y 0.000000 1.609760 0.000000 
#    z 0.000000 0.000000 1.632720 
# 
# From -- ./inp_files/29937.got.cif
#   From: 2010.05.17/outbox.cif.g08.bks.cpg/sg51_15_cif.got.tgz:29937.got - 2010.06.03 11:52:47.
