data_PCOD9400991
_publ_section_title
;
Structure prediction by ZEFSAII (Michael W. Deem and Ramdas Pophale) SiO2 
 PCOD9400991
Probable space group: P M M A
;
_chemical_formula_sum "Si O2"
_cell_formula_units_Z 56
_cell_length_a 9.071043
_cell_length_b 23.930401
_cell_length_c 14.032852
_cell_angle_alpha 90.000000
_cell_angle_beta 90.000000
_cell_angle_gamma 90.000000
_cell_volume 3046.163056
_symmetry_space_group_name_H-M "P M M A"
_symmetry_group_IT_number 51
_symmetry_cell_setting 'orthorhombic'
loop_
_space_group_symop_operation_xyz
x,y,z
1/2-x,-y,z
1/2+x,-y,-z
-x,y,-z
-x,-y,-z
1/2+x,y,-z
1/2-x,y,z
x,-y,z
loop_
_atom_site_type_symbol
_atom_site_label
_atom_site_fract_x
_atom_site_fract_y
_atom_site_fract_z
Si Si1 0.574406 0.434265 0.206149
Si Si2 0.074583 0.876337 0.900306
Si Si3 0.925431 0.336608 0.901813
Si Si4 0.918781 0.432089 0.595468
Si Si5 0.573709 0.064403 0.297153
Si Si6 0.425878 0.167038 0.400360
Si Si7 0.425540 0.774642 0.205204
O O1 0.750000 0.426592 0.204532
O O2 0.543388 0.500000 0.190042
O O3 0.495861 0.394760 0.130581
O O4 0.509325 0.418790 0.309714
O O5 0.250000 0.873023 0.912656
O O6 0.042978 0.918524 0.812752
O O7 0.011694 0.817073 0.863519
O O8 0.000000 0.891830 0.000000
O O9 0.750000 0.341935 0.912970
O O10 0.955955 0.288801 0.823687
O O11 0.000000 0.318395 0.000000
O O12 0.750000 0.412298 0.601476
O O13 0.914133 0.500000 0.590325
O O14 0.000000 0.412298 0.500000
O O15 0.750000 0.071522 0.311566
O O16 0.487800 0.107418 0.364169
O O17 0.535617 0.000000 0.314272
O O18 0.500000 0.182154 0.500000
O O19 0.250000 0.164503 0.410866
O O20 0.461965 0.209488 0.313932
O O21 0.250000 0.784511 0.192318
#
# Coordination Sequence:
#
# PCOD9400991 Si02
#       7
#     8   8   8   8   8   8   8
#     4  10  21  37  56  80 111 146 184 224 267 319
#     4  10  19  31  51  77 105 140 180 224 274 324
#     4  11  23  39  59  82 108 139 177 221 270 324
#     4   9  16  28  49  76 105 138 175 214 256 303
#     4   9  19  35  52  74 107 146 188 229 267 313
#     4  10  20  36  58  83 110 141 178 220 269 321
#     4   9  20  38  58  80 106 136 175 223 269 320
#
# _framework density 18.383783000000001
#
# number of rings (size 3 to 8) (size 9 to 14) (size 15 to 20)
#    0.000    2.286    0.000    2.571    0.000    7.143 
#    0.000    0.714    0.000    1.714    0.000    0.000 
#    0.000    0.000    0.000    0.000    0.000    0.000 
#
# Total GULP energy -312591.894144 kJ/mol
# GULP energy per Si atom -5581.998110 kJ/mol
# Density = 1.834194 g / cm^3
# Si number density = 18.383783 Si / 1000 Ang^3
#
#
#
# Elastic Constant Matrix: (Units=GPa)
#
#
# Indices 1 2 3 4 5 6 
#
# 1 71.2887 47.2192 47.7805 0.0000 0.0000 0.0000
# 2 47.2192 73.0221 38.4967 0.0000 0.0000 0.0000
# 3 47.7805 38.4967 101.3509 0.0000 0.0000 0.0000
# 4 0.0000 0.0000 0.0000 9.6555 0.0000 0.0000
# 5 0.0000 0.0000 0.0000 0.0000 38.1374 0.0000
# 6 0.0000 0.0000 0.0000 0.0000 0.0000 19.6858
#
#
#
# Elastic Compliance Matrix: (Units=1/GPa)
#
#
# Indices 1 2 3 4 5 6 
#
# 1 0.029161 -0.014516 -0.008234 0.000000 0.000000 0.000000
# 2 -0.014516 0.024349 -0.002405 0.000000 0.000000 0.000000
# 3 -0.008234 -0.002405 0.014662 0.000000 0.000000 0.000000
# 4 0.000000 0.000000 0.000000 0.103568 0.000000 0.000000
# 5 0.000000 0.000000 0.000000 0.000000 0.026221 0.000000
# 6 0.000000 0.000000 0.000000 0.000000 0.000000 0.050798
#
#
# Mechanical properties :
#
#
# Convention : Reuss Voigt Hill
#
# Bulk Modulus (GPa) = 55.98487 56.96159 56.47323
# Shear Modulus (GPa) = 16.39214 20.97342 18.68278
#
# Velocity S-wave (km/s) = 2.98931 3.38133 3.19135
# Velocity P-wave (km/s) = 6.51415 6.80415 6.66073
#
# Compressibility (1/GPa) = 0.01786197
#
# Stress axis : x y z
#
# Youngs Moduli (GPa) = 34.29231 41.06908 68.20297
#
# Poissons Ratio (x) = 0.59616 0.56158
# Poissons Ratio (y) = 0.49779 0.16405
# Poissons Ratio (z) = 0.28236 0.09879
#
# Static dielectric constant tensor:
#      x y z
#    x 1.612610 0.000000 0.000000 
#    y 0.000000 1.619480 0.000000 
#    z 0.000000 0.000000 1.632590 
# 
# From -- ./inp_files/21842.got.cif
#   From: 2010.05.17/outbox.cif.g08.bks.cpg/sg51_11_cif.got.tgz:21842.got - 2010.06.03 11:52:47.
