data_PCOD9400829
_publ_section_title
;
Structure prediction by ZEFSAII (Michael W. Deem and Ramdas Pophale) SiO2 
 PCOD9400829
Probable space group: P M M A
;
_chemical_formula_sum "Si O2"
_cell_formula_units_Z 40
_cell_length_a 8.476157
_cell_length_b 26.863855
_cell_length_c 9.987946
_cell_angle_alpha 90.000000
_cell_angle_beta 90.000000
_cell_angle_gamma 90.000000
_cell_volume 2274.277803
_symmetry_space_group_name_H-M "P M M A"
_symmetry_group_IT_number 51
_symmetry_cell_setting 'orthorhombic'
loop_
_space_group_symop_operation_xyz
x,y,z
1/2-x,-y,z
1/2+x,-y,-z
-x,y,-z
-x,-y,-z
1/2+x,y,-z
1/2-x,y,z
x,-y,z
loop_
_atom_site_type_symbol
_atom_site_label
_atom_site_fract_x
_atom_site_fract_y
_atom_site_fract_z
Si Si1 0.938960 0.252370 0.347114
Si Si2 0.559357 0.443412 0.850666
Si Si3 0.440661 0.142845 0.652026
Si Si4 0.561222 0.356876 0.652184
Si Si5 0.559295 0.943538 0.149747
O O1 0.750000 0.255746 0.346445
O O2 0.986321 0.197871 0.293563
O O3 0.000000 0.251761 0.500000
O O4 0.007160 0.303457 0.289337
O O5 0.750000 0.442689 0.851913
O O6 0.508880 0.500000 0.817083
O O7 0.505107 0.402430 0.744132
O O8 0.500000 0.432190 0.000000
O O9 0.500000 0.137563 0.500000
O O10 0.250000 0.141769 0.648137
O O11 0.496546 0.098099 0.746118
O O12 0.500000 0.361514 0.500000
O O13 0.750000 0.357233 0.647277
O O14 0.750000 0.942594 0.148689
O O15 0.509701 0.000000 0.185761
O O16 0.500000 0.933303 0.000000
#
# Coordination Sequence:
#
# PCOD9400829 Si02
#       5
#     8   8   8   8   8
#     4   9  16  28  46  67  94 125 155 188 230 276
#     4   9  19  35  52  70  94 124 157 193 233 277
#     4   9  18  31  48  71  96 122 154 193 233 275
#     4  10  19  31  49  73  98 123 155 193 231 274
#     4   9  18  33  50  68  93 124 157 193 233 277
#
# _framework density 17.588000000000001
#
# number of rings (size 3 to 8) (size 9 to 14) (size 15 to 20)
#    0.000    2.800    0.000    2.400    0.000    4.000 
#    0.000    1.000    0.000    4.800    0.000    0.000 
#    0.000    0.000    0.000    0.000    0.000    0.000 
#
# Total GULP energy -222817.207032 kJ/mol
# GULP energy per Si atom -5570.430176 kJ/mol
# Density = 1.754797 g / cm^3
# Si number density = 17.588000 Si / 1000 Ang^3
#
#
#
# Elastic Constant Matrix: (Units=GPa)
#
#
# Indices 1 2 3 4 5 6 
#
# 1 19.0787 29.2456 13.7853 0.0000 0.0000 0.0000
# 2 29.2456 195.0047 101.4409 0.0000 0.0000 0.0000
# 3 13.7853 101.4409 75.4321 0.0000 0.0000 0.0000
# 4 0.0000 0.0000 0.0000 -5.0942 0.0000 0.0000
# 5 0.0000 0.0000 0.0000 0.0000 22.5642 0.0000
# 6 0.0000 0.0000 0.0000 0.0000 0.0000 3.5807
#
#
#
# Elastic Compliance Matrix: (Units=1/GPa)
#
#
# Indices 1 2 3 4 5 6 
#
# 1 0.068481 -0.012515 0.004315 0.000000 0.000000 0.000000
# 2 -0.012515 0.019356 -0.023742 0.000000 0.000000 0.000000
# 3 0.004315 -0.023742 0.044397 0.000000 0.000000 0.000000
# 4 0.000000 0.000000 0.000000 -0.196300 0.000000 0.000000
# 5 0.000000 0.000000 0.000000 0.000000 0.044318 0.000000
# 6 0.000000 0.000000 0.000000 0.000000 0.000000 0.279272
#
#
# Mechanical properties :
#
#
# Convention : Reuss Voigt Hill
#
# Bulk Modulus (GPa) = 14.63072 64.27325 39.45199
# Shear Modulus (GPa) = 14.44286 13.87972 14.16129
#
# Velocity S-wave (km/s) = 2.86873 2.81224 2.84063
# Velocity P-wave (km/s) = 4.39425 6.86790 5.76531
#
# Compressibility (1/GPa) = 0.06834932
#
# Stress axis : x y z
#
# Youngs Moduli (GPa) = 14.60261 51.66418 22.52403
#
# Poissons Ratio (x) = 0.64659 -0.09720
# Poissons Ratio (y) = 0.18275 0.53477
# Poissons Ratio (z) = -0.06302 1.22663
#
# Static dielectric constant tensor:
#      x y z
#    x 1.605720 0.000000 0.000000 
#    y 0.000000 1.653560 0.000000 
#    z 0.000000 0.000000 1.551550 
# 
# From -- ./inp_files/5472.got.cif
#   From: 2010.05.17/outbox.cif.g08.bks.cpg/sg51_3_cif.got.tgz:5472.got - 2010.06.03 11:52:47.
