data_PCOD9400637
_publ_section_title
;
Structure prediction by ZEFSAII (Michael W. Deem and Ramdas Pophale) SiO2 
 PCOD9400637
Probable space group: P M M A
;
_chemical_formula_sum "Si O2"
_cell_formula_units_Z 64
_cell_length_a 8.961062
_cell_length_b 14.490462
_cell_length_c 31.818191
_cell_angle_alpha 90.000000
_cell_angle_beta 90.000000
_cell_angle_gamma 90.000000
_cell_volume 4131.589823
_symmetry_space_group_name_H-M "P M M A"
_symmetry_group_IT_number 51
_symmetry_cell_setting 'orthorhombic'
loop_
_space_group_symop_operation_xyz
x,y,z
1/2-x,-y,z
1/2+x,-y,-z
-x,y,-z
-x,-y,-z
1/2+x,y,-z
1/2-x,y,z
x,-y,z
loop_
_atom_site_type_symbol
_atom_site_label
_atom_site_fract_x
_atom_site_fract_y
_atom_site_fract_z
Si Si1 0.427324 0.109932 0.202659
Si Si2 0.070450 0.796036 0.716153
Si Si3 0.427013 0.109810 0.045030
Si Si4 0.927304 0.606407 0.845693
Si Si5 0.571819 0.213677 0.123279
Si Si6 0.572523 0.396084 0.245554
Si Si7 0.929307 0.108015 0.370019
Si Si8 0.422297 0.887718 0.457068
O O1 0.250000 0.127835 0.200105
O O2 0.491967 0.148882 0.246221
O O3 0.508572 0.160353 0.164128
O O4 0.450987 0.000000 0.200207
O O5 0.250000 0.809165 0.719830
O O6 0.038687 0.687734 0.723267
O O7 0.024160 0.834442 0.670827
O O8 0.250000 0.128315 0.044342
O O9 0.505429 0.165359 0.082139
O O10 0.447222 0.000000 0.052482
O O11 0.500000 0.131315 0.000000
O O12 0.750000 0.622312 0.847844
O O13 0.957565 0.500000 0.857599
O O14 0.013637 0.681703 0.872785
O O15 0.982730 0.617428 0.797613
O O16 0.750000 0.210375 0.123334
O O17 0.750000 0.390830 0.235702
O O18 0.542196 0.500000 0.261273
O O19 0.750000 0.112397 0.373531
O O20 0.998935 0.140872 0.413862
O O21 0.969717 0.000000 0.363698
O O22 0.500000 0.855765 0.500000
O O23 0.250000 0.860978 0.456920
O O24 0.429741 0.000000 0.457448
#
# Coordination Sequence:
#
# PCOD9400637 Si02
#       8
#     8   8   8   8   8   8   8   8
#     4  11  23  35  47  67  97 132 168 206 244 284
#     4  10  19  31  47  67  93 129 164 198 241 289
#     4  10  21  38  59  82 108 136 167 204 245 290
#     4  10  20  34  53  76 101 129 163 205 251 295
#     4  12  23  35  54  78 103 133 168 205 245 291
#     4   9  17  30  48  70  95 124 161 203 245 289
#     4   9  17  28  41  59  87 123 161 196 232 281
#     4   9  16  26  41  60  82 111 150 194 238 280
#
# _framework density 15.490405000000001
#
# number of rings (size 3 to 8) (size 9 to 14) (size 15 to 20)
#    0.000    2.000    1.250    3.375    0.000    6.500 
#    0.000    1.250    0.000    0.375    0.000    0.000 
#    0.000    0.500    0.000    0.875    0.000    1.250 
#
# Total GULP energy -357126.971993 kJ/mol
# GULP energy per Si atom -5580.108937 kJ/mol
# Density = 1.545515 g / cm^3
# Si number density = 15.490405 Si / 1000 Ang^3
#
#
#
# Elastic Constant Matrix: (Units=GPa)
#
#
# Indices 1 2 3 4 5 6 
#
# 1 83.6163 60.7727 71.3804 0.0000 0.0000 0.0000
# 2 60.7727 86.3753 71.1124 0.0000 0.0000 0.0000
# 3 71.3804 71.1124 145.5363 0.0000 0.0000 0.0000
# 4 0.0000 0.0000 0.0000 6.9218 0.0000 0.0000
# 5 0.0000 0.0000 0.0000 0.0000 28.4759 0.0000
# 6 0.0000 0.0000 0.0000 0.0000 0.0000 19.8445
#
#
#
# Elastic Compliance Matrix: (Units=1/GPa)
#
#
# Indices 1 2 3 4 5 6 
#
# 1 0.028075 -0.014081 -0.006889 0.000000 0.000000 0.000000
# 2 -0.014081 0.026432 -0.006009 0.000000 0.000000 0.000000
# 3 -0.006889 -0.006009 0.013186 0.000000 0.000000 0.000000
# 4 0.000000 0.000000 0.000000 0.144472 0.000000 0.000000
# 5 0.000000 0.000000 0.000000 0.000000 0.035117 0.000000
# 6 0.000000 0.000000 0.000000 0.000000 0.000000 0.050392
#
#
# Mechanical properties :
#
#
# Convention : Reuss Voigt Hill
#
# Bulk Modulus (GPa) = 72.81162 80.22879 76.52020
# Shear Modulus (GPa) = 14.03661 18.53257 16.28459
#
# Velocity S-wave (km/s) = 3.01350 3.46264 3.24585
# Velocity P-wave (km/s) = 7.69510 8.23963 7.97202
#
# Compressibility (1/GPa) = 0.01373407
#
# Stress axis : x y z
#
# Youngs Moduli (GPa) = 35.61897 37.83309 75.83687
#
# Poissons Ratio (x) = 0.53274 0.52247
# Poissons Ratio (y) = 0.50156 0.45569
# Poissons Ratio (z) = 0.24539 0.22733
#
# Static dielectric constant tensor:
#      x y z
#    x 1.517780 0.000000 0.000000 
#    y 0.000000 1.517790 0.000000 
#    z 0.000000 0.000000 1.488410 
# 
# From -- ./inp_files/37625.got.cif
#   From: 2010.05.17/outbox.cif.g08.bks.cpg/sg51_19_cif.got.tgz:37625.got - 2010.06.03 11:52:47.
