data_PCOD9400982
_publ_section_title
;
Structure prediction by ZEFSAII (Michael W. Deem and Ramdas Pophale) SiO2 
 PCOD9400982
Probable space group: P M M A
;
_chemical_formula_sum "Si O2"
_cell_formula_units_Z 64
_cell_length_a 27.321336
_cell_length_b 9.177224
_cell_length_c 15.098186
_cell_angle_alpha 90.000000
_cell_angle_beta 90.000000
_cell_angle_gamma 90.000000
_cell_volume 3785.628877
_symmetry_space_group_name_H-M "P M M A"
_symmetry_group_IT_number 51
_symmetry_cell_setting 'orthorhombic'
loop_
_space_group_symop_operation_xyz
x,y,z
1/2-x,-y,z
1/2+x,-y,-z
-x,y,-z
-x,-y,-z
1/2+x,y,-z
1/2-x,y,z
x,-y,z
loop_
_atom_site_type_symbol
_atom_site_label
_atom_site_fract_x
_atom_site_fract_y
_atom_site_fract_z
Si Si1 0.080354 0.826762 0.162695
Si Si2 0.390235 0.174256 0.521397
Si Si3 0.083465 0.327721 0.346259
Si Si4 0.192977 0.826263 0.662025
Si Si5 0.966566 0.327994 0.353109
Si Si6 0.808197 0.328282 0.154637
Si Si7 0.535141 0.171584 0.170616
Si Si8 0.382256 0.174533 0.972043
O O1 0.094784 0.739383 0.250292
O O2 0.021975 0.805836 0.148657
O O3 0.087731 0.000000 0.176883
O O4 0.107909 0.782225 0.073235
O O5 0.388980 0.246036 0.425060
O O6 0.342748 0.209222 0.581107
O O7 0.436421 0.240591 0.573870
O O8 0.394701 0.000000 0.514638
O O9 0.092722 0.500000 0.348116
O O10 0.024977 0.305616 0.361552
O O11 0.250000 0.791457 0.643641
O O12 0.177808 0.744662 0.751709
O O13 0.189510 0.000000 0.677945
O O14 0.956604 0.500000 0.360848
O O15 0.952472 0.267452 0.256254
O O16 0.750000 0.305904 0.143849
O O17 0.818018 0.500000 0.157838
O O18 0.837872 0.254325 0.075783
O O19 0.569780 0.204409 0.087901
O O20 0.541499 0.000000 0.193384
O O21 0.374687 0.000000 0.970234
#
# Coordination Sequence:
#
# PCOD9400982 Si02
#       8
#     8   8   8   8   8   8   8   8
#     4   9  18  33  51  71  98 131 166 203 240 282
#     4  11  21  32  51  75  96 125 165 204 244 290
#     4  10  21  35  49  68  98 134 167 201 242 285
#     4   9  19  36  55  75 100 127 156 195 243 293
#     4  10  20  32  46  69 102 135 165 198 238 286
#     4  10  21  35  51  74 103 132 161 196 241 291
#     4   9  17  30  48  72 102 132 162 198 240 287
#     4  10  19  31  51  76  99 128 166 203 242 288
#
# _framework density 16.906040999999998
#
# number of rings (size 3 to 8) (size 9 to 14) (size 15 to 20)
#    0.000    2.250    0.000    3.000    0.000   10.250 
#    0.000    0.000    0.000    4.500    0.000    1.750 
#    0.000    0.000    0.000    0.000    0.000    0.000 
#
# Total GULP energy -357312.560928 kJ/mol
# GULP energy per Si atom -5583.008764 kJ/mol
# Density = 1.686756 g / cm^3
# Si number density = 16.906041 Si / 1000 Ang^3
#
#
#
# Elastic Constant Matrix: (Units=GPa)
#
#
# Indices 1 2 3 4 5 6 
#
# 1 49.3294 46.0959 63.2607 0.0000 0.0000 0.0000
# 2 46.0959 59.8164 75.9599 0.0000 0.0000 0.0000
# 3 63.2607 75.9599 161.2737 0.0000 0.0000 0.0000
# 4 0.0000 0.0000 0.0000 -36.4602 0.0000 0.0000
# 5 0.0000 0.0000 0.0000 0.0000 24.1770 0.0000
# 6 0.0000 0.0000 0.0000 0.0000 0.0000 19.3769
#
#
#
# Elastic Compliance Matrix: (Units=1/GPa)
#
#
# Indices 1 2 3 4 5 6 
#
# 1 0.074281 -0.050367 -0.005414 0.000000 0.000000 0.000000
# 2 -0.050367 0.075750 -0.015922 0.000000 0.000000 0.000000
# 3 -0.005414 -0.015922 0.015824 0.000000 0.000000 0.000000
# 4 0.000000 0.000000 0.000000 -0.027427 0.000000 0.000000
# 5 0.000000 0.000000 0.000000 0.000000 0.041362 0.000000
# 6 0.000000 0.000000 0.000000 0.000000 0.000000 0.051608
#
#
# Mechanical properties :
#
#
# Convention : Reuss Voigt Hill
#
# Bulk Modulus (GPa) = 44.54563 71.22807 57.88685
# Shear Modulus (GPa) = 13.07923 7.09229 10.08576
#
# Velocity S-wave (km/s) = 2.78446 2.05042 2.44514
# Velocity P-wave (km/s) = 6.06166 6.91584 6.50279
#
# Compressibility (1/GPa) = 0.02244889
#
# Stress axis : x y z
#
# Youngs Moduli (GPa) = 13.46245 13.20124 63.19690
#
# Poissons Ratio (x) = 0.66491 0.34217
# Poissons Ratio (y) = 0.67806 1.00620
# Poissons Ratio (z) = 0.07289 0.21019
#
# Static dielectric constant tensor:
#      x y z
#    x 1.566410 0.000000 0.000000 
#    y 0.000000 1.559480 0.000000 
#    z 0.000000 0.000000 1.553870 
# 
# From -- ./inp_files/26208.got.cif
#   From: 2010.05.17/outbox.cif.g08.bks.cpg/sg51_14_cif.got.tgz:26208.got - 2010.06.03 11:52:47.
