data_PCOD9400099
_publ_section_title
;
Structure prediction by ZEFSAII (Michael W. Deem and Ramdas Pophale) SiO2 
 PCOD9400099
Probable space group: P M M A
;
_chemical_formula_sum "Si O2"
_cell_formula_units_Z 64
_cell_length_a 20.944128
_cell_length_b 9.255874
_cell_length_c 20.647633
_cell_angle_alpha 90.000000
_cell_angle_beta 90.000000
_cell_angle_gamma 90.000000
_cell_volume 4002.671875
_symmetry_space_group_name_H-M "P M M A"
_symmetry_group_IT_number 51
_symmetry_cell_setting 'orthorhombic'
loop_
_space_group_symop_operation_xyz
x,y,z
1/2-x,-y,z
1/2+x,-y,-z
-x,y,-z
-x,-y,-z
1/2+x,y,-z
1/2-x,y,z
x,-y,z
loop_
_atom_site_type_symbol
_atom_site_label
_atom_site_fract_x
_atom_site_fract_y
_atom_site_fract_z
Si Si1 0.855189 0.834159 0.342495
Si Si2 0.659964 0.337849 0.219753
Si Si3 0.945843 0.673676 0.553686
Si Si4 0.546151 0.170760 0.061614
Si Si5 0.491685 0.831515 0.318501
Si Si6 0.509422 0.334737 0.191017
Si Si7 0.678371 0.673223 0.474096
Si Si8 0.820611 0.326256 0.070991
O O1 0.825115 0.769774 0.277322
O O2 0.835554 0.743506 0.404816
O O3 0.931976 0.825417 0.332839
O O4 0.837484 0.000000 0.351592
O O5 0.680930 0.500000 0.235715
O O6 0.583513 0.343203 0.212132
O O7 0.682525 0.298037 0.148235
O O8 0.948340 0.500000 0.563428
O O9 0.959327 0.753042 0.620804
O O10 0.877553 0.714537 0.523525
O O11 0.000000 0.709362 0.500000
O O12 0.513278 0.249469 0.123192
O O13 0.615746 0.242921 0.048681
O O14 0.554692 0.000000 0.075752
O O15 0.500000 0.186011 0.000000
O O16 0.477704 0.751127 0.250528
O O17 0.474270 0.000000 0.314328
O O18 0.486084 0.500000 0.183578
O O19 0.750000 0.711546 0.495445
O O20 0.674903 0.500000 0.466796
O O21 0.750000 0.289077 0.043691
O O22 0.829885 0.500000 0.063537
#
# Coordination Sequence:
#
# PCOD9400099 Si02
#       8
#     8   8   8   8   8   8   8   8
#     4  10  19  29  43  65  92 122 157 195 234 278
#     4   8  15  27  43  63  90 124 160 195 231 272
#     4  10  19  32  51  71  90 119 161 203 243 291
#     4  10  20  33  50  75 107 139 169 204 249 300
#     4  10  19  30  48  73  99 124 155 201 249 290
#     4   9  17  30  49  72  98 128 164 203 241 286
#     4  10  21  35  48  63  87 120 157 198 244 292
#     4   9  18  32  49  70  96 130 173 213 245 286
#
# _framework density 15.989319999999999
#
# number of rings (size 3 to 8) (size 9 to 14) (size 15 to 20)
#    0.000    2.500    1.250    2.250    0.000    6.750 
#    0.000    1.250    0.000    0.000    0.000    0.875 
#    0.000    5.000    0.000    0.000    0.000    0.000 
#
# Total GULP energy -356659.011887 kJ/mol
# GULP energy per Si atom -5572.797061 kJ/mol
# Density = 1.595293 g / cm^3
# Si number density = 15.989320 Si / 1000 Ang^3
#
#
#
# Elastic Constant Matrix: (Units=GPa)
#
#
# Indices 1 2 3 4 5 6 
#
# 1 73.2618 45.2775 39.2912 0.0000 0.0000 0.0000
# 2 45.2775 73.4691 57.4720 0.0000 0.0000 0.0000
# 3 39.2912 57.4720 87.2584 0.0000 0.0000 0.0000
# 4 0.0000 0.0000 0.0000 19.5987 0.0000 0.0000
# 5 0.0000 0.0000 0.0000 0.0000 9.8677 0.0000
# 6 0.0000 0.0000 0.0000 0.0000 0.0000 5.7405
#
#
#
# Elastic Compliance Matrix: (Units=1/GPa)
#
#
# Indices 1 2 3 4 5 6 
#
# 1 0.022220 -0.012103 -0.002034 0.000000 0.000000 0.000000
# 2 -0.012103 0.034669 -0.017385 0.000000 0.000000 0.000000
# 3 -0.002034 -0.017385 0.023827 0.000000 0.000000 0.000000
# 4 0.000000 0.000000 0.000000 0.051024 0.000000 0.000000
# 5 0.000000 0.000000 0.000000 0.000000 0.101341 0.000000
# 6 0.000000 0.000000 0.000000 0.000000 0.000000 0.174201
#
#
# Mechanical properties :
#
#
# Convention : Reuss Voigt Hill
#
# Bulk Modulus (GPa) = 56.58463 57.56342 57.07403
# Shear Modulus (GPa) = 10.49942 13.17129 11.83536
#
# Velocity S-wave (km/s) = 2.56530 2.87323 2.72362
# Velocity P-wave (km/s) = 6.65133 6.86197 6.75747
#
# Compressibility (1/GPa) = 0.01767264
#
# Stress axis : x y z
#
# Youngs Moduli (GPa) = 45.00366 28.84380 41.96979
#
# Poissons Ratio (x) = 0.34909 0.08537
# Poissons Ratio (y) = 0.54467 0.72965
# Poissons Ratio (z) = 0.09154 0.50145
#
# Static dielectric constant tensor:
#      x y z
#    x 1.556060 0.000000 0.000000 
#    y 0.000000 1.543540 0.000000 
#    z 0.000000 0.000000 1.507150 
# 
# From -- ./inp_files/30630.got.cif
#   From: 2010.05.17/outbox.cif.g08.bks.cpg/sg51_16_cif.got.tgz:30630.got - 2010.06.03 11:52:47.
