data_PCOD9400062
_publ_section_title
;
Structure prediction by ZEFSAII (Michael W. Deem and Ramdas Pophale) SiO2 
 PCOD9400062
Probable space group: P M M A
;
_chemical_formula_sum "Si O2"
_cell_formula_units_Z 56
_cell_length_a 14.345487
_cell_length_b 8.281323
_cell_length_c 20.868805
_cell_angle_alpha 90.000000
_cell_angle_beta 90.000000
_cell_angle_gamma 90.000000
_cell_volume 2479.205925
_symmetry_space_group_name_H-M "P M M A"
_symmetry_group_IT_number 51
_symmetry_cell_setting 'orthorhombic'
loop_
_space_group_symop_operation_xyz
x,y,z
1/2-x,-y,z
1/2+x,-y,-z
-x,y,-z
-x,-y,-z
1/2+x,y,-z
1/2-x,y,z
x,-y,z
loop_
_atom_site_type_symbol
_atom_site_label
_atom_site_fract_x
_atom_site_fract_y
_atom_site_fract_z
Si Si1 0.889818 0.317788 0.985355
Si Si2 0.651422 0.310433 0.307394
Si Si3 0.381365 0.189175 0.556160
Si Si4 0.349586 0.811051 0.881240
Si Si5 0.557286 0.307563 0.717351
Si Si6 0.396796 0.186142 0.417570
Si Si7 0.557864 0.807760 0.852918
O O1 0.855132 0.500000 0.993001
O O2 0.883427 0.261000 0.912293
O O3 0.851028 0.206897 0.041643
O O4 0.000000 0.319057 0.000000
O O5 0.750000 0.238098 0.283619
O O6 0.650557 0.500000 0.291119
O O7 0.653666 0.289929 0.384100
O O8 0.550324 0.241899 0.287781
O O9 0.356770 0.250338 0.484954
O O10 0.492754 0.189618 0.567093
O O11 0.353873 0.000000 0.560931
O O12 0.250000 0.737936 0.859835
O O13 0.449647 0.743246 0.857883
O O14 0.349300 0.000000 0.864089
O O15 0.552903 0.500000 0.722036
O O16 0.611603 0.266140 0.651828
O O17 0.595964 0.237330 0.783299
O O18 0.367556 0.000000 0.411813
O O19 0.553668 0.000000 0.860731
#
# Coordination Sequence:
#
# PCOD9400062 Si02
#       7
#     8   8   8   8   8   8   8
#     4   9  17  30  48  69  92 118 151 191 231 270
#     4   9  18  30  41  57  86 121 151 180 218 263
#     4   8  14  25  42  61  79 103 138 180 219 254
#     4   9  18  32  49  70  95 122 154 190 227 270
#     4  10  19  29  42  62  88 118 152 185 217 260
#     4   8  14  26  42  60  82 105 134 176 222 260
#     4  10  19  31  47  66  92 126 158 189 229 273
#
# _framework density 22.587876999999999
#
# number of rings (size 3 to 8) (size 9 to 14) (size 15 to 20)
#    0.000    3.000    0.000    2.143    0.000    4.571 
#    0.000    2.857    0.000    0.000    0.000    1.000 
#    0.000    3.429    0.000    0.000    0.000    0.000 
#
# Total GULP energy -312028.092833 kJ/mol
# GULP energy per Si atom -5571.930229 kJ/mol
# Density = 2.253647 g / cm^3
# Si number density = 22.587877 Si / 1000 Ang^3
#
#
#
# Elastic Constant Matrix: (Units=GPa)
#
#
# Indices 1 2 3 4 5 6 
#
# 1 41.2601 -5.8691 -7.6844 0.0000 0.0000 0.0000
# 2 -5.8691 20.8664 -0.6025 0.0000 0.0000 0.0000
# 3 -7.6844 -0.6025 156.1963 0.0000 0.0000 0.0000
# 4 0.0000 0.0000 0.0000 55.2434 0.0000 0.0000
# 5 0.0000 0.0000 0.0000 0.0000 -212.8328 0.0000
# 6 0.0000 0.0000 0.0000 0.0000 0.0000 76.8606
#
#
#
# Elastic Compliance Matrix: (Units=1/GPa)
#
#
# Indices 1 2 3 4 5 6 
#
# 1 0.025501 0.007210 0.001282 0.000000 0.000000 0.000000
# 2 0.007210 0.049968 0.000547 0.000000 0.000000 0.000000
# 3 0.001282 0.000547 0.006467 0.000000 0.000000 0.000000
# 4 0.000000 0.000000 0.000000 0.018102 0.000000 0.000000
# 5 0.000000 0.000000 0.000000 0.000000 -0.004699 0.000000
# 6 0.000000 0.000000 0.000000 0.000000 0.000000 0.013011
#
#
# Mechanical properties :
#
#
# Convention : Reuss Voigt Hill
#
# Bulk Modulus (GPa) = 9.99853 21.11233 15.55543
# Shear Modulus (GPa) = 40.45013 -0.64717 19.90148
#
# Velocity S-wave (km/s) = 4.23636 -0.53585 2.97150
# Velocity P-wave (km/s) = 5.32589 2.99737 4.32142
#
# Compressibility (1/GPa) = 0.10001466
#
# Stress axis : x y z
#
# Youngs Moduli (GPa) = 39.21441 20.01296 154.62166
#
# Poissons Ratio (x) = -0.14429 -0.19828
# Poissons Ratio (y) = -0.28272 -0.08464
# Poissons Ratio (z) = -0.05029 -0.01096
#
# Static dielectric constant tensor:
#      x y z
#    x 1.977710 0.000000 0.000000 
#    y 0.000000 1.786180 0.000000 
#    z 0.000000 0.000000 1.851060 
# 
# From -- ./inp_files/33720.got.cif
#   From: 2010.05.17/outbox.cif.g08.bks.cpg/sg51_17_cif.got.tgz:33720.got - 2010.06.03 11:52:47.
