data_PCOD9400058
_publ_section_title
;
Structure prediction by ZEFSAII (Michael W. Deem and Ramdas Pophale) SiO2 
 PCOD9400058
Probable space group: P M M A
;
_chemical_formula_sum "Si O2"
_cell_formula_units_Z 56
_cell_length_a 18.778191
_cell_length_b 7.371995
_cell_length_c 20.700300
_cell_angle_alpha 90.000000
_cell_angle_beta 90.000000
_cell_angle_gamma 90.000000
_cell_volume 2865.599044
_symmetry_space_group_name_H-M "P M M A"
_symmetry_group_IT_number 51
_symmetry_cell_setting 'orthorhombic'
loop_
_space_group_symop_operation_xyz
x,y,z
1/2-x,-y,z
1/2+x,-y,-z
-x,y,-z
-x,-y,-z
1/2+x,y,-z
1/2-x,y,z
x,-y,z
loop_
_atom_site_type_symbol
_atom_site_label
_atom_site_fract_x
_atom_site_fract_y
_atom_site_fract_z
Si Si1 0.473173 0.791494 0.068125
Si Si2 0.470500 0.205941 0.798385
Si Si3 0.968644 0.776863 0.346101
Si Si4 0.332560 0.221613 0.568368
Si Si5 0.429760 0.792047 0.454475
Si Si6 0.169249 0.280909 0.863633
Si Si7 0.330362 0.718887 0.011353
O O1 0.496988 0.709055 0.136201
O O2 0.388613 0.788574 0.060398
O O3 0.499190 0.000000 0.068611
O O4 0.500000 0.708547 0.000000
O O5 0.478230 0.284975 0.727343
O O6 0.386831 0.203865 0.814203
O O7 0.498797 0.000000 0.795031
O O8 0.892489 0.724380 0.378388
O O9 0.035682 0.714253 0.389487
O O10 0.968437 0.000000 0.347204
O O11 0.250000 0.277412 0.578118
O O12 0.366455 0.282532 0.499340
O O13 0.332841 0.000000 0.567889
O O14 0.500000 0.796084 0.500000
O O15 0.409299 0.000000 0.440073
O O16 0.250000 0.226486 0.850567
O O17 0.165932 0.500000 0.861360
O O18 0.151722 0.226763 0.937502
O O19 0.250000 0.777413 0.024618
O O20 0.331656 0.500000 0.012501
#
# Coordination Sequence:
#
# PCOD9400058 Si02
#       7
#     8   8   8   8   8   8   8
#     4  10  19  30  43  63  89 114 145 183 218 254
#     4  10  19  29  42  62  87 116 147 177 210 253
#     4   8  14  23  34  50  77 110 138 164 200 246
#     4   8  12  18  31  52  76 102 133 167 200 237
#     4   7  10  18  31  46  68 100 131 158 194 236
#     4   9  18  31  44  60  84 111 139 174 218 264
#     4   9  18  32  49  66  81 103 141 186 227 264
#
# _framework density 19.542161
#
# number of rings (size 3 to 8) (size 9 to 14) (size 15 to 20)
#    0.000    3.286    1.429    2.571    0.000    2.000 
#    0.000    2.857    0.000    0.857    0.000    4.000 
#    0.000    5.143    0.000    0.286    0.000    1.857 
#
# Total GULP energy -311860.247902 kJ/mol
# GULP energy per Si atom -5568.932998 kJ/mol
# Density = 1.949768 g / cm^3
# Si number density = 19.542161 Si / 1000 Ang^3
#
#
#
# Elastic Constant Matrix: (Units=GPa)
#
#
# Indices 1 2 3 4 5 6 
#
# 1 63.6437 4.7931 58.0677 0.0000 0.0000 0.0000
# 2 4.7931 70.5102 8.7561 0.0000 0.0000 0.0000
# 3 58.0677 8.7561 172.9646 0.0000 0.0000 0.0000
# 4 0.0000 0.0000 0.0000 -7.6260 0.0000 0.0000
# 5 0.0000 0.0000 0.0000 0.0000 24.3247 0.0000
# 6 0.0000 0.0000 0.0000 0.0000 0.0000 8.2162
#
#
#
# Elastic Compliance Matrix: (Units=1/GPa)
#
#
# Indices 1 2 3 4 5 6 
#
# 1 0.022676 -0.000600 -0.007582 0.000000 0.000000 0.000000
# 2 -0.000600 0.014288 -0.000522 0.000000 0.000000 0.000000
# 3 -0.007582 -0.000522 0.008353 0.000000 0.000000 0.000000
# 4 0.000000 0.000000 0.000000 -0.131131 0.000000 0.000000
# 5 0.000000 0.000000 0.000000 0.000000 0.041110 0.000000
# 6 0.000000 0.000000 0.000000 0.000000 0.000000 0.121711
#
#
# Mechanical properties :
#
#
# Convention : Reuss Voigt Hill
#
# Bulk Modulus (GPa) = 35.83083 50.03913 42.93498
# Shear Modulus (GPa) = 48.20736 20.68310 34.44523
#
# Velocity S-wave (km/s) = 4.97212 3.25681 4.20290
# Velocity P-wave (km/s) = 7.16502 6.30902 6.75060
#
# Compressibility (1/GPa) = 0.02790892
#
# Stress axis : x y z
#
# Youngs Moduli (GPa) = 44.10017 69.98910 119.71053
#
# Poissons Ratio (x) = 0.04198 0.90768
# Poissons Ratio (y) = 0.02645 0.06248
# Poissons Ratio (z) = 0.33438 0.03653
#
# Static dielectric constant tensor:
#      x y z
#    x 1.686930 0.000000 0.000000 
#    y 0.000000 1.750520 0.000000 
#    z 0.000000 0.000000 1.708060 
# 
# From -- ./inp_files/33693.got.cif
#   From: 2010.05.17/outbox.cif.g08.bks.cpg/sg51_17_cif.got.tgz:33693.got - 2010.06.03 11:52:47.
