data_PCOD9400933
_publ_section_title
;
Structure prediction by ZEFSAII (Michael W. Deem and Ramdas Pophale) SiO2 
 PCOD9400933
Probable space group: P M M A
;
_chemical_formula_sum "Si O2"
_cell_formula_units_Z 48
_cell_length_a 8.706643
_cell_length_b 31.936013
_cell_length_c 9.320528
_cell_angle_alpha 90.000000
_cell_angle_beta 90.000000
_cell_angle_gamma 90.000000
_cell_volume 2591.623738
_symmetry_space_group_name_H-M "P M M A"
_symmetry_group_IT_number 51
_symmetry_cell_setting 'orthorhombic'
loop_
_space_group_symop_operation_xyz
x,y,z
1/2-x,-y,z
1/2+x,-y,-z
-x,y,-z
-x,-y,-z
1/2+x,y,-z
1/2-x,y,z
x,-y,z
loop_
_atom_site_type_symbol
_atom_site_label
_atom_site_fract_x
_atom_site_fract_y
_atom_site_fract_z
Si Si1 0.566094 0.048462 0.158167
Si Si2 0.565819 0.545694 0.162259
Si Si3 0.565706 0.876799 0.658706
Si Si4 0.064628 0.713911 0.340218
Si Si5 0.564665 0.795271 0.840239
Si Si6 0.065717 0.368007 0.161381
O O1 0.750000 0.052466 0.155047
O O2 0.496119 0.080804 0.270112
O O3 0.527688 0.000000 0.191906
O O4 0.500000 0.057640 0.000000
O O5 0.750000 0.549259 0.156484
O O6 0.527193 0.500000 0.227201
O O7 0.495647 0.588093 0.225283
O O8 0.500000 0.544786 0.000000
O O9 0.500000 0.871552 0.500000
O O10 0.750000 0.877886 0.653211
O O11 0.518175 0.837466 0.757345
O O12 0.250000 0.714530 0.347114
O O13 0.014787 0.754559 0.249770
O O14 0.019083 0.671667 0.256633
O O15 0.000000 0.715009 0.500000
O O16 0.750000 0.794721 0.847540
O O17 0.500000 0.794356 0.000000
O O18 0.250000 0.369696 0.152368
O O19 0.000000 0.363388 0.000000
#
# Coordination Sequence:
#
# PCOD9400933 Si02
#       6
#     8   8   8   8   8   8
#     4  10  21  38  60  85 114 149 189 233 279 327
#     4   9  16  26  43  69 100 133 169 211 259 308
#     4  11  23  38  58  84 115 150 187 228 275 327
#     4  10  22  38  55  78 107 139 176 216 262 315
#     4  10  22  39  59  84 111 141 179 221 267 320
#     4  10  19  31  50  76 104 135 173 215 259 310
#
# _framework density 18.521208000000001
#
# number of rings (size 3 to 8) (size 9 to 14) (size 15 to 20)
#    0.000    2.000    0.000    4.500    0.000    7.000 
#    0.000    0.000    0.000    0.500    0.000    0.000 
#    0.000    0.000    0.000    0.000    0.000    0.000 
#
# Total GULP energy -268003.090591 kJ/mol
# GULP energy per Si atom -5583.397721 kJ/mol
# Density = 1.847905 g / cm^3
# Si number density = 18.521208 Si / 1000 Ang^3
#
#
#
# Elastic Constant Matrix: (Units=GPa)
#
#
# Indices 1 2 3 4 5 6 
#
# 1 43.8696 46.7161 35.6110 0.0000 0.0000 0.0000
# 2 46.7161 159.3100 97.9919 0.0000 0.0000 0.0000
# 3 35.6110 97.9919 134.3579 0.0000 0.0000 0.0000
# 4 0.0000 0.0000 0.0000 5.2110 0.0000 0.0000
# 5 0.0000 0.0000 0.0000 0.0000 32.8790 0.0000
# 6 0.0000 0.0000 0.0000 0.0000 0.0000 -16.8384
#
#
#
# Elastic Compliance Matrix: (Units=1/GPa)
#
#
# Indices 1 2 3 4 5 6 
#
# 1 0.033861 -0.007996 -0.003143 0.000000 0.000000 0.000000
# 2 -0.007996 0.013273 -0.007561 0.000000 0.000000 0.000000
# 3 -0.003143 -0.007561 0.013790 0.000000 0.000000 0.000000
# 4 0.000000 0.000000 0.000000 0.191901 0.000000 0.000000
# 5 0.000000 0.000000 0.000000 0.000000 0.030415 0.000000
# 6 0.000000 0.000000 0.000000 0.000000 0.000000 -0.059388
#
#
# Mechanical properties :
#
#
# Convention : Reuss Voigt Hill
#
# Bulk Modulus (GPa) = 42.50959 77.57506 60.04233
# Shear Modulus (GPa) = 18.58104 14.73156 16.65630
#
# Velocity S-wave (km/s) = 3.17082 2.82332 3.00210
# Velocity P-wave (km/s) = 6.03383 7.25283 6.67123
#
# Compressibility (1/GPa) = 0.02352410
#
# Stress axis : x y z
#
# Youngs Moduli (GPa) = 29.53243 75.34363 72.51587
#
# Poissons Ratio (x) = 0.60247 0.22790
# Poissons Ratio (y) = 0.23615 0.54827
# Poissons Ratio (z) = 0.09281 0.56965
#
# Static dielectric constant tensor:
#      x y z
#    x 1.625180 0.000000 0.000000 
#    y 0.000000 1.666430 0.000000 
#    z 0.000000 0.000000 1.590670 
# 
# From -- ./inp_files/5997.got.cif
#   From: 2010.05.17/outbox.cif.g08.bks.cpg/sg51_3_cif.got.tgz:5997.got - 2010.06.03 11:52:47.
