data_PCOD9400271
_publ_section_title
;
Structure prediction by ZEFSAII (Michael W. Deem and Ramdas Pophale) SiO2 
 PCOD9400271
Probable space group: P M M A
;
_chemical_formula_sum "Si O2"
_cell_formula_units_Z 64
_cell_length_a 7.416645
_cell_length_b 21.272110
_cell_length_c 20.696294
_cell_angle_alpha 90.000000
_cell_angle_beta 90.000000
_cell_angle_gamma 90.000000
_cell_volume 3265.206460
_symmetry_space_group_name_H-M "P M M A"
_symmetry_group_IT_number 51
_symmetry_cell_setting 'orthorhombic'
loop_
_space_group_symop_operation_xyz
x,y,z
1/2-x,-y,z
1/2+x,-y,-z
-x,y,-z
-x,-y,-z
1/2+x,y,-z
1/2-x,y,z
x,-y,z
loop_
_atom_site_type_symbol
_atom_site_label
_atom_site_fract_x
_atom_site_fract_y
_atom_site_fract_z
Si Si1 0.965656 0.928891 0.425788
Si Si2 0.965466 0.395526 0.070261
Si Si3 0.969112 0.756715 0.208925
Si Si4 0.464913 0.251075 0.930595
Si Si5 0.469275 0.608610 0.789238
Si Si6 0.465110 0.307914 0.575762
Si Si7 0.028917 0.812394 0.657291
Si Si8 0.470429 0.431745 0.648829
O O1 0.750000 0.931822 0.418380
O O2 0.032459 0.877049 0.375453
O O3 0.000000 0.909287 0.500000
O O4 0.036307 0.000000 0.417521
O O5 0.750000 0.394240 0.074842
O O6 0.034358 0.323190 0.066597
O O7 0.029021 0.418218 0.140914
O O8 0.000000 0.425290 0.000000
O O9 0.750000 0.758119 0.210745
O O10 0.028546 0.777440 0.137174
O O11 0.017341 0.682792 0.215390
O O12 0.030093 0.797323 0.269741
O O13 0.250000 0.255901 0.925379
O O14 0.500000 0.220511 0.000000
O O15 0.250000 0.605772 0.788928
O O16 0.528164 0.576110 0.723418
O O17 0.500000 0.304757 0.500000
O O18 0.250000 0.308366 0.585195
O O19 0.530397 0.246280 0.613218
O O20 0.533632 0.372334 0.607567
O O21 0.250000 0.813392 0.657113
O O22 0.250000 0.430551 0.648558
O O23 0.526329 0.500000 0.623891
#
# Coordination Sequence:
#
# PCOD9400271 Si02
#       8
#     8   8   8   8   8   8   8   8
#     4   9  17  28  42  61  84 110 138 166 197 234
#     4   8  13  20  33  53  74  96 121 151 187 226
#     4   8  12  20  36  56  75  99 132 164 192 226
#     4   8  13  20  32  51  75 100 125 154 189 228
#     4   8  12  21  36  54  74  96 127 163 193 225
#     4  10  19  30  45  63  81 102 129 161 200 242
#     4   9  15  25  42  62  83 107 135 166 197 231
#     4   9  16  26  41  60  78  97 128 169 203 231
#
# _framework density 19.600597
#
# number of rings (size 3 to 8) (size 9 to 14) (size 15 to 20)
#    0.000    3.375    1.250    1.875    0.000    0.250 
#    0.000    0.000    0.000    2.625    0.000    0.000 
#    0.000    0.500    0.000    0.375    0.000    0.750 
#
# Total GULP energy -356608.198672 kJ/mol
# GULP energy per Si atom -5572.003104 kJ/mol
# Density = 1.955598 g / cm^3
# Si number density = 19.600597 Si / 1000 Ang^3
#
#
#
# Elastic Constant Matrix: (Units=GPa)
#
#
# Indices 1 2 3 4 5 6 
#
# 1 61.3485 4.4740 -0.7442 0.0000 0.0000 0.0000
# 2 4.4740 88.1082 73.5945 0.0000 0.0000 0.0000
# 3 -0.7442 73.5945 178.6427 0.0000 0.0000 0.0000
# 4 0.0000 0.0000 0.0000 61.6385 0.0000 0.0000
# 5 0.0000 0.0000 0.0000 0.0000 15.8619 0.0000
# 6 0.0000 0.0000 0.0000 0.0000 0.0000 -5.9395
#
#
#
# Elastic Compliance Matrix: (Units=1/GPa)
#
#
# Indices 1 2 3 4 5 6 
#
# 1 0.016407 -0.001357 0.000627 0.000000 0.000000 0.000000
# 2 -0.001357 0.017416 -0.007181 0.000000 0.000000 0.000000
# 3 0.000627 -0.007181 0.008559 0.000000 0.000000 0.000000
# 4 0.000000 0.000000 0.000000 0.016224 0.000000 0.000000
# 5 0.000000 0.000000 0.000000 0.000000 0.063044 0.000000
# 6 0.000000 0.000000 0.000000 0.000000 0.000000 -0.168365
#
#
# Mechanical properties :
#
#
# Convention : Reuss Voigt Hill
#
# Bulk Modulus (GPa) = 37.64902 53.63866 45.64384
# Shear Modulus (GPa) = -226.84732 31.03053 -97.90840
#
# Velocity S-wave (km/s) = -10.76969 3.98319 -7.07532
# Velocity P-wave (km/s) = 11.63608 6.96991 6.58858
#
# Compressibility (1/GPa) = 0.02656112
#
# Stress axis : x y z
#
# Youngs Moduli (GPa) = 60.94998 57.41739 116.84265
#
# Poissons Ratio (x) = 0.07793 -0.07332
# Poissons Ratio (y) = 0.08272 0.83900
# Poissons Ratio (z) = -0.03824 0.41229
#
# Static dielectric constant tensor:
#      x y z
#    x 1.766460 0.000000 0.000000 
#    y 0.000000 1.666070 0.000000 
#    z 0.000000 0.000000 1.729430 
# 
# From -- ./inp_files/32583.got.cif
#   From: 2010.05.17/outbox.cif.g08.bks.cpg/sg51_17_cif.got.tgz:32583.got - 2010.06.03 11:52:47.
