data_PCOD9400881
_publ_section_title
;
Structure prediction by ZEFSAII (Michael W. Deem and Ramdas Pophale) SiO2 
 PCOD9400881
Probable space group: P M M A
;
_chemical_formula_sum "Si O2"
_cell_formula_units_Z 52
_cell_length_a 8.989749
_cell_length_b 15.490374
_cell_length_c 23.927241
_cell_angle_alpha 90.000000
_cell_angle_beta 90.000000
_cell_angle_gamma 90.000000
_cell_volume 3331.977757
_symmetry_space_group_name_H-M "P M M A"
_symmetry_group_IT_number 51
_symmetry_cell_setting 'orthorhombic'
loop_
_space_group_symop_operation_xyz
x,y,z
1/2-x,-y,z
1/2+x,-y,-z
-x,y,-z
-x,-y,-z
1/2+x,y,-z
1/2-x,y,z
x,-y,z
loop_
_atom_site_type_symbol
_atom_site_label
_atom_site_fract_x
_atom_site_fract_y
_atom_site_fract_z
Si Si1 0.573417 0.500000 0.060251
Si Si2 0.926254 0.668254 0.890865
Si Si3 0.572118 0.098946 0.816767
Si Si4 0.929164 0.265853 0.223182
Si Si5 0.068646 0.400358 0.679867
Si Si6 0.574588 0.851925 0.942077
Si Si7 0.580080 0.395164 0.443967
O O1 0.750000 0.500000 0.056636
O O2 0.514610 0.415041 0.090329
O O3 0.500000 0.500000 0.000000
O O4 0.750000 0.651479 0.887397
O O5 0.947048 0.749086 0.932749
O O6 0.991585 0.696239 0.831547
O O7 0.750000 0.118495 0.815988
O O8 0.487334 0.167363 0.777933
O O9 0.524024 0.109069 0.882247
O O10 0.550286 0.000000 0.800051
O O11 0.750000 0.267366 0.217844
O O12 0.971310 0.328140 0.274775
O O13 0.250000 0.402701 0.677523
O O14 0.022454 0.500000 0.692882
O O15 0.015606 0.375592 0.617409
O O16 0.750000 0.869875 0.946447
O O17 0.500000 0.879844 0.000000
O O18 0.500000 0.364641 0.500000
O O19 0.750000 0.365081 0.445553
O O20 0.581771 0.500000 0.445761
#
# Coordination Sequence:
#
# PCOD9400881 Si02
#       7
#     4   8   8   8   8   8   8
#     4  12  24  36  50  68  88 116 155 196 237 282
#     4  10  21  36  49  64  90 122 153 189 232 279
#     4   9  19  36  52  65  89 123 150 181 237 296
#     4  10  19  31  50  73  94 119 156 198 233 275
#     4   8  15  27  43  65  96 131 160 187 228 276
#     4   9  18  31  48  67  87 110 138 174 221 277
#     4   8  13  23  39  59  87 124 161 192 221 258
#
# _framework density 15.606348000000001
#
# number of rings (size 3 to 8) (size 9 to 14) (size 15 to 20)
#    0.000    2.769    0.000    3.923    1.077    4.923 
#    0.000    1.538    0.000    1.846    0.000    0.000 
#    0.000    0.615    0.000    1.385    0.000    2.462 
#
# Total GULP energy -289601.724585 kJ/mol
# GULP energy per Si atom -5569.263934 kJ/mol
# Density = 1.557083 g / cm^3
# Si number density = 15.606348 Si / 1000 Ang^3
#
#
#
# Elastic Constant Matrix: (Units=GPa)
#
#
# Indices 1 2 3 4 5 6 
#
# 1 52.0524 35.2886 30.4547 0.0000 0.0000 0.0000
# 2 35.2886 76.0523 37.9281 0.0000 0.0000 0.0000
# 3 30.4547 37.9281 97.8612 0.0000 0.0000 0.0000
# 4 0.0000 0.0000 0.0000 -4.6976 0.0000 0.0000
# 5 0.0000 0.0000 0.0000 0.0000 21.5624 0.0000
# 6 0.0000 0.0000 0.0000 0.0000 0.0000 19.6312
#
#
#
# Elastic Compliance Matrix: (Units=1/GPa)
#
#
# Indices 1 2 3 4 5 6 
#
# 1 0.029775 -0.011398 -0.004849 0.000000 0.000000 0.000000
# 2 -0.011398 0.020662 -0.004461 0.000000 0.000000 0.000000
# 3 -0.004849 -0.004461 0.013456 0.000000 0.000000 0.000000
# 4 0.000000 0.000000 0.000000 -0.212875 0.000000 0.000000
# 5 0.000000 0.000000 0.000000 0.000000 0.046377 0.000000
# 6 0.000000 0.000000 0.000000 0.000000 0.000000 0.050939
#
#
# Mechanical properties :
#
#
# Convention : Reuss Voigt Hill
#
# Bulk Modulus (GPa) = 44.48612 48.14543 46.31577
# Shear Modulus (GPa) = -1813.80752 15.45216 -899.17768
#
# Velocity S-wave (km/s) = -34.12839 3.15003 -24.02940
# Velocity P-wave (km/s) = 39.04394 6.64433 27.20553
#
# Compressibility (1/GPa) = 0.02247892
#
# Stress axis : x y z
#
# Youngs Moduli (GPa) = 33.58484 48.39745 74.31369
#
# Poissons Ratio (x) = 0.55162 0.36033
# Poissons Ratio (y) = 0.38279 0.33152
# Poissons Ratio (z) = 0.16284 0.21590
#
# Static dielectric constant tensor:
#      x y z
#    x 1.527810 0.000000 0.000000 
#    y 0.000000 1.536860 0.000000 
#    z 0.000000 0.000000 1.513500 
# 
# From -- ./inp_files/34712.got.cif
#   From: 2010.05.17/outbox.cif.g08.bks.cpg/sg51_18_cif.got.tgz:34712.got - 2010.06.03 11:52:47.
