data_PCOD9400239
_publ_section_title
;
Structure prediction by ZEFSAII (Michael W. Deem and Ramdas Pophale) SiO2 
 PCOD9400239
Probable space group: P M M A
;
_chemical_formula_sum "Si O2"
_cell_formula_units_Z 48
_cell_length_a 7.286028
_cell_length_b 12.946312
_cell_length_c 22.559402
_cell_angle_alpha 90.000000
_cell_angle_beta 90.000000
_cell_angle_gamma 90.000000
_cell_volume 2127.965038
_symmetry_space_group_name_H-M "P M M A"
_symmetry_group_IT_number 51
_symmetry_cell_setting 'orthorhombic'
loop_
_space_group_symop_operation_xyz
x,y,z
1/2-x,-y,z
1/2+x,-y,-z
-x,y,-z
-x,-y,-z
1/2+x,y,-z
1/2-x,y,z
x,-y,z
loop_
_atom_site_type_symbol
_atom_site_label
_atom_site_fract_x
_atom_site_fract_y
_atom_site_fract_z
Si Si1 0.025552 0.000000 0.841829
Si Si2 0.972413 0.386216 0.234179
Si Si3 0.531804 0.167163 0.064832
Si Si4 0.468600 0.384017 0.569441
Si Si5 0.474087 0.225117 0.667966
Si Si6 0.026946 0.612070 0.904137
Si Si7 0.526121 0.000000 0.295502
O O1 0.965110 0.098541 0.880510
O O2 0.250000 0.000000 0.841193
O O3 0.969080 0.000000 0.773614
O O4 0.750000 0.385317 0.235566
O O5 0.029489 0.500000 0.256440
O O6 0.031864 0.291870 0.274746
O O7 0.022897 0.378557 0.165374
O O8 0.750000 0.173137 0.072911
O O9 0.459208 0.284027 0.065578
O O10 0.500000 0.120935 0.000000
O O11 0.500000 0.364281 0.500000
O O12 0.250000 0.388661 0.578844
O O13 0.539453 0.500000 0.582916
O O14 0.535455 0.292170 0.611459
O O15 0.250000 0.223066 0.667562
O O16 0.532986 0.106598 0.673715
O O17 0.250000 0.610606 0.907087
O O18 0.963331 0.500000 0.926160
O O19 0.750000 0.000000 0.295547
#
# Coordination Sequence:
#
# PCOD9400239 Si02
#       7
#     4   8   8   8   8   8   4
#     4   9  17  29  44  63  87 111 136 173 218 258
#     4   8  12  19  34  56  80 104 131 170 219 259
#     4  10  19  30  44  62  84 110 141 174 208 250
#     4   9  17  29  45  66  92 120 148 177 208 243
#     4   9  15  23  37  60  88 113 140 176 215 253
#     4   8  14  24  38  58  84 110 135 168 213 260
#     4   9  16  25  40  63  89 113 136 171 222 264
#
# _framework density 22.556761999999999
#
# number of rings (size 3 to 8) (size 9 to 14) (size 15 to 20)
#    0.000    3.167    0.000    2.750    0.000    6.333 
#    0.000    0.417    0.000    0.000    0.000    5.833 
#    0.000    1.333    0.000    0.000    0.000    0.000 
#
# Total GULP energy -268027.945058 kJ/mol
# GULP energy per Si atom -5583.915522 kJ/mol
# Density = 2.250542 g / cm^3
# Si number density = 22.556762 Si / 1000 Ang^3
#
#
#
# Elastic Constant Matrix: (Units=GPa)
#
#
# Indices 1 2 3 4 5 6 
#
# 1 97.2462 7.9642 -3.2995 0.0000 0.0000 0.0000
# 2 7.9642 221.4479 99.2327 0.0000 0.0000 0.0000
# 3 -3.2995 99.2327 122.5578 0.0000 0.0000 0.0000
# 4 0.0000 0.0000 0.0000 25.1516 0.0000 0.0000
# 5 0.0000 0.0000 0.0000 0.0000 6.7878 0.0000
# 6 0.0000 0.0000 0.0000 0.0000 0.0000 -21.5313
#
#
#
# Elastic Compliance Matrix: (Units=1/GPa)
#
#
# Indices 1 2 3 4 5 6 
#
# 1 0.010378 -0.000782 0.000913 0.000000 0.000000 0.000000
# 2 -0.000782 0.007146 -0.005807 0.000000 0.000000 0.000000
# 3 0.000913 -0.005807 0.012886 0.000000 0.000000 0.000000
# 4 0.000000 0.000000 0.000000 0.039759 0.000000 0.000000
# 5 0.000000 0.000000 0.000000 0.000000 0.147324 0.000000
# 6 0.000000 0.000000 0.000000 0.000000 0.000000 -0.046444
#
#
# Mechanical properties :
#
#
# Convention : Reuss Voigt Hill
#
# Bulk Modulus (GPa) = 52.47412 72.11630 62.29521
# Shear Modulus (GPa) = 26.48942 24.57190 25.53066
#
# Velocity S-wave (km/s) = 3.43059 3.30409 3.36793
# Velocity P-wave (km/s) = 6.24544 6.82616 6.54225
#
# Compressibility (1/GPa) = 0.01905701
#
# Stress axis : x y z
#
# Youngs Moduli (GPa) = 96.35567 139.93681 77.60423
#
# Poissons Ratio (x) = 0.10947 -0.07084
# Poissons Ratio (y) = 0.07538 0.45066
# Poissons Ratio (z) = -0.08795 0.81263
#
# Static dielectric constant tensor:
#      x y z
#    x 1.903190 0.000000 0.000000 
#    y 0.000000 1.841310 0.000000 
#    z 0.000000 0.000000 1.778350 
# 
# From -- ./inp_files/32958.got.cif
#   From: 2010.05.17/outbox.cif.g08.bks.cpg/sg51_17_cif.got.tgz:32958.got - 2010.06.03 11:52:47.
