data_PCOD9400942
_publ_section_title
;
Structure prediction by ZEFSAII (Michael W. Deem and Ramdas Pophale) SiO2 
 PCOD9400942
Probable space group: P M M A
;
_chemical_formula_sum "Si O2"
_cell_formula_units_Z 48
_cell_length_a 17.613132
_cell_length_b 11.965467
_cell_length_c 13.961719
_cell_angle_alpha 90.000000
_cell_angle_beta 90.000000
_cell_angle_gamma 90.000000
_cell_volume 2942.423200
_symmetry_space_group_name_H-M "P M M A"
_symmetry_group_IT_number 51
_symmetry_cell_setting 'orthorhombic'
loop_
_space_group_symop_operation_xyz
x,y,z
1/2-x,-y,z
1/2+x,-y,-z
-x,y,-z
-x,-y,-z
1/2+x,y,-z
1/2-x,y,z
x,-y,z
loop_
_atom_site_type_symbol
_atom_site_label
_atom_site_fract_x
_atom_site_fract_y
_atom_site_fract_z
Si Si1 0.887664 0.132350 0.387339
Si Si2 0.052375 0.869157 0.299740
Si Si3 0.662764 0.262509 0.201082
Si Si4 0.534810 0.131029 0.104349
Si Si5 0.090862 0.500000 0.497661
Si Si6 0.659569 0.730448 0.574872
Si Si7 0.341143 0.500000 0.710411
O O1 0.845857 0.187041 0.296582
O O2 0.860684 0.193038 0.482813
O O3 0.977500 0.149081 0.366039
O O4 0.873957 0.000000 0.392066
O O5 0.024342 0.848670 0.191233
O O6 0.118619 0.789604 0.335893
O O7 0.073427 0.000000 0.308729
O O8 0.750000 0.263526 0.169967
O O9 0.606475 0.209024 0.124578
O O10 0.639791 0.387517 0.232262
O O11 0.557097 0.000000 0.113444
O O12 0.500000 0.148143 0.000000
O O13 0.123358 0.390053 0.446395
O O14 0.120064 0.500000 0.607125
O O15 0.000000 0.500000 0.500000
O O16 0.750000 0.722452 0.585072
O O17 0.250000 0.500000 0.694796
#
# Coordination Sequence:
#
# PCOD9400942 Si02
#       7
#     8   8   8   8   4   8   4
#     4  10  19  31  50  76 107 141 177 218 262 315
#     4   9  19  35  53  75 105 139 179 218 262 318
#     4  10  19  32  54  80 109 138 175 226 276 322
#     4   9  19  37  59  81 107 137 174 226 278 328
#     4  12  24  36  54  74 103 150 194 221 256 309
#     4  12  23  34  49  74 110 145 180 217 258 313
#     4  10  20  36  53  78 112 142 175 227 278 308
#
# _framework density 16.313085999999998
#
# number of rings (size 3 to 8) (size 9 to 14) (size 15 to 20)
#    0.000    1.833    1.667    4.750    2.333    4.667 
#    0.000    1.250    0.000    3.000    0.000    2.333 
#    0.000    0.000    0.000    0.000    0.000    0.000 
#
# Total GULP energy -268016.438217 kJ/mol
# GULP energy per Si atom -5583.675796 kJ/mol
# Density = 1.627596 g / cm^3
# Si number density = 16.313086 Si / 1000 Ang^3
#
#
#
# Elastic Constant Matrix: (Units=GPa)
#
#
# Indices 1 2 3 4 5 6 
#
# 1 110.0059 78.4778 54.1246 0.0000 0.0000 0.0000
# 2 78.4778 126.4570 51.1928 0.0000 0.0000 0.0000
# 3 54.1246 51.1928 74.2848 0.0000 0.0000 0.0000
# 4 0.0000 0.0000 0.0000 -11.2762 0.0000 0.0000
# 5 0.0000 0.0000 0.0000 0.0000 15.4588 0.0000
# 6 0.0000 0.0000 0.0000 0.0000 0.0000 -512.5485
#
#
#
# Elastic Compliance Matrix: (Units=1/GPa)
#
#
# Indices 1 2 3 4 5 6 
#
# 1 0.019241 -0.008690 -0.008031 0.000000 0.000000 0.000000
# 2 -0.008690 0.014892 -0.003931 0.000000 0.000000 0.000000
# 3 -0.008031 -0.003931 0.022022 0.000000 0.000000 0.000000
# 4 0.000000 0.000000 0.000000 -0.088683 0.000000 0.000000
# 5 0.000000 0.000000 0.000000 0.000000 0.064688 0.000000
# 6 0.000000 0.000000 0.000000 0.000000 0.000000 -0.001951
#
#
# Mechanical properties :
#
#
# Convention : Reuss Voigt Hill
#
# Bulk Modulus (GPa) = 67.33230 75.37090 71.35160
# Shear Modulus (GPa) = 65.39097 -93.20967 -13.90935
#
# Velocity S-wave (km/s) = 6.33814 -7.56717 -2.92318
# Velocity P-wave (km/s) = 9.74306 5.48145 5.69565
#
# Compressibility (1/GPa) = 0.01485171
#
# Stress axis : x y z
#
# Youngs Moduli (GPa) = 51.97308 67.15006 45.40887
#
# Poissons Ratio (x) = 0.58351 0.36466
# Poissons Ratio (y) = 0.45163 0.17852
# Poissons Ratio (z) = 0.41737 0.26399
#
# Static dielectric constant tensor:
#      x y z
#    x 1.549640 0.000000 0.000000 
#    y 0.000000 1.549570 0.000000 
#    z 0.000000 0.000000 1.528550 
# 
# From -- ./inp_files/24072.got.cif
#   From: 2010.05.17/outbox.cif.g08.bks.cpg/sg51_13_cif.got.tgz:24072.got - 2010.06.03 11:52:47.
