data_PCOD9400242
_publ_section_title
;
Structure prediction by ZEFSAII (Michael W. Deem and Ramdas Pophale) SiO2 
 PCOD9400242
Probable space group: P M M A
;
_chemical_formula_sum "Si O2"
_cell_formula_units_Z 56
_cell_length_a 19.007627
_cell_length_b 7.477349
_cell_length_c 19.766378
_cell_angle_alpha 90.000000
_cell_angle_beta 90.000000
_cell_angle_gamma 90.000000
_cell_volume 2809.329300
_symmetry_space_group_name_H-M "P M M A"
_symmetry_group_IT_number 51
_symmetry_cell_setting 'orthorhombic'
loop_
_space_group_symop_operation_xyz
x,y,z
1/2-x,-y,z
1/2+x,-y,-z
-x,y,-z
-x,-y,-z
1/2+x,y,-z
1/2-x,y,z
x,-y,z
loop_
_atom_site_type_symbol
_atom_site_label
_atom_site_fract_x
_atom_site_fract_y
_atom_site_fract_z
Si Si1 0.574762 0.787164 0.577854
Si Si2 0.586253 0.783667 0.428330
Si Si3 0.671597 0.710339 0.295530
Si Si4 0.527081 0.281882 0.927368
Si Si5 0.459125 0.281365 0.788396
Si Si6 0.395493 0.286611 0.276104
Si Si7 0.327634 0.718453 0.138813
O O1 0.602847 0.724029 0.505128
O O2 0.494026 0.721265 0.586169
O O3 0.618117 0.752209 0.645670
O O4 0.569127 0.000000 0.571641
O O5 0.639230 0.724371 0.370533
O O6 0.586492 0.000000 0.426454
O O7 0.750000 0.786896 0.291579
O O8 0.676804 0.500000 0.280016
O O9 0.613010 0.784464 0.244195
O O10 0.527734 0.500000 0.928455
O O11 0.476454 0.229461 0.865234
O O12 0.606142 0.225532 0.906859
O O13 0.500000 0.220455 0.000000
O O14 0.458670 0.500000 0.786454
O O15 0.526145 0.221893 0.743762
O O16 0.396766 0.500000 0.270165
O O17 0.344335 0.224463 0.216193
O O18 0.250000 0.777665 0.117900
O O19 0.327602 0.500000 0.137851
#
# Coordination Sequence:
#
# PCOD9400242 Si02
#       7
#     8   8   8   8   8   8   8
#     4   9  17  29  45  65  86 108 141 187 228 260
#     4   9  18  31  45  62  86 114 144 182 227 269
#     4  10  19  30  44  62  87 118 150 186 223 257
#     4   8  13  22  38  59  85 118 149 175 209 259
#     4   8  14  25  39  58  84 111 144 179 212 252
#     4   9  15  25  44  64  83 114 148 177 215 262
#     4   8  14  24  38  59  86 113 144 183 221 257
#
# _framework density 19.933584
#
# number of rings (size 3 to 8) (size 9 to 14) (size 15 to 20)
#    0.000    3.286    1.429    2.571    0.000    0.857 
#    0.000    2.857    0.000    7.286    0.000    0.000 
#    0.000   14.286    0.000    1.143    0.000    0.571 
#
# Total GULP energy -312083.518792 kJ/mol
# GULP energy per Si atom -5572.919978 kJ/mol
# Density = 1.988821 g / cm^3
# Si number density = 19.933584 Si / 1000 Ang^3
#
#
#
# Elastic Constant Matrix: (Units=GPa)
#
#
# Indices 1 2 3 4 5 6 
#
# 1 136.9730 4.5451 77.2252 0.0000 0.0000 0.0000
# 2 4.5451 53.2726 -4.7047 0.0000 0.0000 0.0000
# 3 77.2252 -4.7047 163.9992 0.0000 0.0000 0.0000
# 4 0.0000 0.0000 0.0000 42.2929 0.0000 0.0000
# 5 0.0000 0.0000 0.0000 0.0000 18.5861 0.0000
# 6 0.0000 0.0000 0.0000 0.0000 0.0000 0.5578
#
#
#
# Elastic Compliance Matrix: (Units=1/GPa)
#
#
# Indices 1 2 3 4 5 6 
#
# 1 0.010025 -0.001275 -0.004757 0.000000 0.000000 0.000000
# 2 -0.001275 0.018981 0.001145 0.000000 0.000000 0.000000
# 3 -0.004757 0.001145 0.008371 0.000000 0.000000 0.000000
# 4 0.000000 0.000000 0.000000 0.023645 0.000000 0.000000
# 5 0.000000 0.000000 0.000000 0.000000 0.053804 0.000000
# 6 0.000000 0.000000 0.000000 0.000000 0.000000 1.792691
#
#
# Mechanical properties :
#
#
# Convention : Reuss Voigt Hill
#
# Bulk Modulus (GPa) = 36.22951 56.48621 46.35786
# Shear Modulus (GPa) = 2.59539 30.76597 16.68068
#
# Velocity S-wave (km/s) = 1.14230 3.93291 2.89591
# Velocity P-wave (km/s) = 4.46703 7.00160 5.87268
#
# Compressibility (1/GPa) = 0.02760181
#
# Stress axis : x y z
#
# Youngs Moduli (GPa) = 99.74857 52.68332 119.46558
#
# Poissons Ratio (x) = 0.06720 0.56834
# Poissons Ratio (y) = 0.12723 -0.13680
# Poissons Ratio (z) = 0.47454 -0.06033
#
# Static dielectric constant tensor:
#      x y z
#    x 1.696910 0.000000 0.000000 
#    y 0.000000 1.762270 0.000000 
#    z 0.000000 0.000000 1.707300 
# 
# From -- ./inp_files/33661.got.cif
#   From: 2010.05.17/outbox.cif.g08.bks.cpg/sg51_17_cif.got.tgz:33661.got - 2010.06.03 11:52:47.
