data_PCOD9400671
_publ_section_title
;
Structure prediction by ZEFSAII (Michael W. Deem and Ramdas Pophale) SiO2 
 PCOD9400671
Probable space group: P M M A
;
_chemical_formula_sum "Si O2"
_cell_formula_units_Z 36
_cell_length_a 9.952554
_cell_length_b 17.209652
_cell_length_c 13.844354
_cell_angle_alpha 90.000000
_cell_angle_beta 90.000000
_cell_angle_gamma 90.000000
_cell_volume 2371.260826
_symmetry_space_group_name_H-M "P M M A"
_symmetry_group_IT_number 51
_symmetry_cell_setting 'orthorhombic'
loop_
_space_group_symop_operation_xyz
x,y,z
1/2-x,-y,z
1/2+x,-y,-z
-x,y,-z
-x,-y,-z
1/2+x,y,-z
1/2-x,y,z
x,-y,z
loop_
_atom_site_type_symbol
_atom_site_label
_atom_site_fract_x
_atom_site_fract_y
_atom_site_fract_z
Si Si1 0.409995 0.906554 0.404521
Si Si2 0.910870 0.849755 0.227287
Si Si3 0.503801 0.305208 0.116459
Si Si4 0.250000 0.409732 0.125915
Si Si5 0.096556 0.000000 0.909039
Si Si6 0.750000 0.586614 0.107495
O O1 0.500000 0.891426 0.500000
O O2 0.250000 0.885136 0.412084
O O3 0.492025 0.866220 0.317873
O O4 0.412666 0.000000 0.388743
O O5 0.750000 0.841811 0.251145
O O6 0.964836 0.774355 0.170928
O O7 0.922263 0.924130 0.156966
O O8 0.375344 0.354621 0.148922
O O9 0.622939 0.364493 0.136494
O O10 0.500000 0.290949 0.000000
O O11 0.250000 0.500000 0.161998
O O12 0.250000 0.417522 0.009207
O O13 0.250000 0.000000 0.944296
O O14 0.000000 0.000000 0.000000
O O15 0.750000 0.500000 0.146010
#
# Coordination Sequence:
#
# PCOD9400671 Si02
#       6
#     8   8   8   4   4   4
#     4  10  21  37  58  80 100 128 167 215 268 314
#     4  11  21  35  51  73 104 140 179 215 258 302
#     4  10  19  31  47  72 104 140 178 217 256 301
#     4   9  18  30  48  71  98 135 176 219 264 305
#     4  10  22  36  49  68 101 146 185 216 246 292
#     4   9  16  30  48  67  96 135 176 215 260 309
#
# _framework density 15.181797
#
# number of rings (size 3 to 8) (size 9 to 14) (size 15 to 20)
#    0.000    2.000    2.222    2.000    1.556    4.444 
#    0.000    0.000    0.000    0.000    0.000    0.000 
#    0.000    5.333    0.000    0.000    0.000    0.000 
#
# Total GULP energy -200475.855777 kJ/mol
# GULP energy per Si atom -5568.773772 kJ/mol
# Density = 1.514724 g / cm^3
# Si number density = 15.181797 Si / 1000 Ang^3
#
#
#
# Elastic Constant Matrix: (Units=GPa)
#
#
# Indices 1 2 3 4 5 6 
#
# 1 178.3475 83.0785 69.1235 0.0000 0.0000 0.0000
# 2 83.0785 142.2319 53.8760 0.0000 0.0000 0.0000
# 3 69.1235 53.8760 77.8434 0.0000 0.0000 0.0000
# 4 0.0000 0.0000 0.0000 1.0787 0.0000 0.0000
# 5 0.0000 0.0000 0.0000 0.0000 26.0391 0.0000
# 6 0.0000 0.0000 0.0000 0.0000 0.0000 37.0808
#
#
#
# Elastic Compliance Matrix: (Units=1/GPa)
#
#
# Indices 1 2 3 4 5 6 
#
# 1 0.009512 -0.003194 -0.006236 0.000000 0.000000 0.000000
# 2 -0.003194 0.010601 -0.004501 0.000000 0.000000 0.000000
# 3 -0.006236 -0.004501 0.021499 0.000000 0.000000 0.000000
# 4 0.000000 0.000000 0.000000 0.927082 0.000000 0.000000
# 5 0.000000 0.000000 0.000000 0.000000 0.038404 0.000000
# 6 0.000000 0.000000 0.000000 0.000000 0.000000 0.026968
#
#
# Mechanical properties :
#
#
# Convention : Reuss Voigt Hill
#
# Bulk Modulus (GPa) = 72.72551 90.06432 81.39491
# Shear Modulus (GPa) = 4.68819 25.66269 15.17544
#
# Velocity S-wave (km/s) = 1.75919 4.11586 3.16505
# Velocity P-wave (km/s) = 7.22035 9.05758 8.19064
#
# Compressibility (1/GPa) = 0.01375033
#
# Stress axis : x y z
#
# Youngs Moduli (GPa) = 105.13519 94.32816 46.51414
#
# Poissons Ratio (x) = 0.30126 0.29005
# Poissons Ratio (y) = 0.33577 0.20937
# Poissons Ratio (z) = 0.65559 0.42459
#
# Static dielectric constant tensor:
#      x y z
#    x 1.425100 0.000000 0.000000 
#    y 0.000000 1.485390 0.000000 
#    z 0.000000 0.000000 1.481170 
# 
# From -- ./inp_files/20383.got.cif
#   From: 2010.05.17/outbox.cif.g08.bks.cpg/sg51_11_cif.got.tgz:20383.got - 2010.06.03 11:52:47.
