data_PCOD9400983
_publ_section_title
;
Structure prediction by ZEFSAII (Michael W. Deem and Ramdas Pophale) SiO2 
 PCOD9400983
Probable space group: P M M A
;
_chemical_formula_sum "Si O2"
_cell_formula_units_Z 64
_cell_length_a 14.402360
_cell_length_b 34.404012
_cell_length_c 5.277098
_cell_angle_alpha 90.000000
_cell_angle_beta 90.000000
_cell_angle_gamma 90.000000
_cell_volume 2614.796604
_symmetry_space_group_name_H-M "P M M A"
_symmetry_group_IT_number 51
_symmetry_cell_setting 'orthorhombic'
loop_
_space_group_symop_operation_xyz
x,y,z
1/2-x,-y,z
1/2+x,-y,-z
-x,y,-z
-x,-y,-z
1/2+x,y,-z
1/2-x,y,z
x,-y,z
loop_
_atom_site_type_symbol
_atom_site_label
_atom_site_fract_x
_atom_site_fract_y
_atom_site_fract_z
Si Si1 0.895560 0.208739 0.929329
Si Si2 0.137358 0.909379 0.660305
Si Si3 0.862130 0.704163 0.811328
Si Si4 0.137563 0.658442 0.688162
Si Si5 0.110476 0.543738 0.440143
Si Si6 0.395272 0.178934 0.567544
Si Si7 0.104248 0.576236 0.937364
Si Si8 0.363602 0.955367 0.159556
O O1 0.895633 0.251661 0.810768
O O2 0.851800 0.181989 0.712501
O O3 0.852625 0.205349 0.210270
O O4 0.000000 0.196149 0.000000
O O5 0.250000 0.908064 0.661933
O O6 0.104607 0.865090 0.662174
O O7 0.107354 0.933795 0.903840
O O8 0.107792 0.930995 0.404541
O O9 0.750000 0.705309 0.793646
O O10 0.893403 0.675822 0.582550
O O11 0.886807 0.688052 0.087498
O O12 0.250000 0.654322 0.679010
O O13 0.100391 0.617680 0.796387
O O14 0.127134 0.500000 0.348476
O O15 0.149665 0.550084 0.721174
O O16 0.000000 0.548302 0.500000
O O17 0.144298 0.573382 0.221955
O O18 0.500000 0.191779 0.500000
O O19 0.000000 0.562622 0.000000
O O20 0.250000 0.956122 0.159444
O O21 0.394719 0.000000 0.170242
#
# Coordination Sequence:
#
# PCOD9400983 Si02
#       8
#     8   8   8   8   8   8   8   8
#     4  10  21  37  55  77 103 135 172 211 260 312
#     4  10  19  31  51  77 100 130 173 212 250 301
#     4  10  21  37  57  79 104 138 177 215 261 318
#     4  10  21  37  55  77 108 142 173 213 269 322
#     4   9  17  30  50  76 105 136 173 220 267 307
#     4  10  21  36  53  74 105 138 166 205 261 314
#     4  10  19  32  52  78 104 135 178 219 259 312
#     4   9  17  30  49  74 103 132 166 212 259 299
#
# _framework density 24.476091
#
# number of rings (size 3 to 8) (size 9 to 14) (size 15 to 20)
#    0.000    2.250    0.000    3.000    0.000    4.500 
#    0.000    1.250    0.000    4.500    0.000    0.000 
#    0.000    0.000    0.000    0.000    0.000    0.000 
#
# Total GULP energy -357497.016295 kJ/mol
# GULP energy per Si atom -5585.890880 kJ/mol
# Density = 2.442038 g / cm^3
# Si number density = 24.476091 Si / 1000 Ang^3
#
#
#
# Elastic Constant Matrix: (Units=GPa)
#
#
# Indices 1 2 3 4 5 6 
#
# 1 76.7032 -16.6013 3.3905 0.0000 0.0000 0.0000
# 2 -16.6013 122.9796 56.7312 0.0000 0.0000 0.0000
# 3 3.3905 56.7312 208.4325 0.0000 0.0000 0.0000
# 4 0.0000 0.0000 0.0000 49.1238 0.0000 0.0000
# 5 0.0000 0.0000 0.0000 0.0000 -19.6601 0.0000
# 6 0.0000 0.0000 0.0000 0.0000 0.0000 61.6093
#
#
#
# Elastic Compliance Matrix: (Units=1/GPa)
#
#
# Indices 1 2 3 4 5 6 
#
# 1 0.013552 0.002208 -0.000821 0.000000 0.000000 0.000000
# 2 0.002208 0.009659 -0.002665 0.000000 0.000000 0.000000
# 3 -0.000821 -0.002665 0.005536 0.000000 0.000000 0.000000
# 4 0.000000 0.000000 0.000000 0.020357 0.000000 0.000000
# 5 0.000000 0.000000 0.000000 0.000000 -0.050864 0.000000
# 6 0.000000 0.000000 0.000000 0.000000 0.000000 0.016231
#
#
# Mechanical properties :
#
#
# Convention : Reuss Voigt Hill
#
# Bulk Modulus (GPa) = 38.18154 55.01735 46.59945
# Shear Modulus (GPa) = 194.12303 42.52091 118.32197
#
# Velocity S-wave (km/s) = 8.91535 4.17255 6.96037
# Velocity P-wave (km/s) = 11.02775 6.76316 9.14745
#
# Compressibility (1/GPa) = 0.02619067
#
# Stress axis : x y z
#
# Youngs Moduli (GPa) = 73.79243 103.53198 180.62268
#
# Poissons Ratio (x) = -0.22863 0.14838
# Poissons Ratio (y) = -0.16296 0.48134
# Poissons Ratio (z) = 0.06062 0.27590
#
# Static dielectric constant tensor:
#      x y z
#    x 1.994350 0.000000 0.000000 
#    y 0.000000 1.897430 0.000000 
#    z 0.000000 0.000000 2.007390 
# 
# From -- ./inp_files/2115.got.cif
#   From: 2010.05.17/outbox.cif.g08.bks.cpg/sg51_2_cif.got.tgz:2115.got - 2010.06.03 11:52:47.
