data_PCOD9400136
_publ_section_title
;
Structure prediction by ZEFSAII (Michael W. Deem and Ramdas Pophale) SiO2 
 PCOD9400136
Probable space group: P M M A
;
_chemical_formula_sum "Si O2"
_cell_formula_units_Z 64
_cell_length_a 9.413781
_cell_length_b 14.757154
_cell_length_c 21.730050
_cell_angle_alpha 90.000000
_cell_angle_beta 90.000000
_cell_angle_gamma 90.000000
_cell_volume 3018.751930
_symmetry_space_group_name_H-M "P M M A"
_symmetry_group_IT_number 51
_symmetry_cell_setting 'orthorhombic'
loop_
_space_group_symop_operation_xyz
x,y,z
1/2-x,-y,z
1/2+x,-y,-z
-x,y,-z
-x,-y,-z
1/2+x,y,-z
1/2-x,y,z
x,-y,z
loop_
_atom_site_type_symbol
_atom_site_label
_atom_site_fract_x
_atom_site_fract_y
_atom_site_fract_z
Si Si1 0.415477 0.610385 0.560128
Si Si2 0.584615 0.110551 0.558742
Si Si3 0.912569 0.140396 0.059914
Si Si4 0.089118 0.642138 0.179709
Si Si5 0.586004 0.361909 0.061053
Si Si6 0.413355 0.108691 0.309148
Si Si7 0.413319 0.609154 0.697118
Si Si8 0.088285 0.856573 0.176062
O O1 0.500000 0.641982 0.500000
O O2 0.250000 0.635100 0.554699
O O3 0.422698 0.500000 0.559638
O O4 0.464369 0.638843 0.628848
O O5 0.500000 0.143812 0.500000
O O6 0.750000 0.135987 0.555375
O O7 0.524663 0.138840 0.625483
O O8 0.580690 0.000000 0.557188
O O9 0.750000 0.111077 0.057248
O O10 0.911888 0.251199 0.060952
O O11 0.992349 0.108382 0.121101
O O12 0.000000 0.112852 0.000000
O O13 0.250000 0.605702 0.180564
O O14 0.100614 0.749218 0.167559
O O15 0.993597 0.607157 0.123184
O O16 0.012702 0.632302 0.245504
O O17 0.750000 0.391071 0.059531
O O18 0.500000 0.389293 0.000000
O O19 0.250000 0.143326 0.306840
O O20 0.478876 0.131033 0.243608
O O21 0.406368 0.000000 0.311793
O O22 0.250000 0.641276 0.706424
O O23 0.407450 0.500000 0.695176
O O24 0.250000 0.893898 0.175343
#
# Coordination Sequence:
#
# PCOD9400136 Si02
#       8
#     8   8   8   8   8   8   8   8
#     4   8  14  25  42  64  87 110 140 180 222 260
#     4   8  13  22  38  60  83 107 139 179 219 257
#     4   9  16  26  42  64  88 114 145 182 221 259
#     4  10  19  29  44  68  94 119 148 182 221 264
#     4   9  16  27  44  65  89 116 147 184 222 260
#     4   8  14  26  45  66  87 115 149 181 217 263
#     4   9  18  32  48  66  90 120 151 183 221 264
#     4   9  17  29  45  66  91 117 146 182 221 261
#
# _framework density 21.200814999999999
#
# number of rings (size 3 to 8) (size 9 to 14) (size 15 to 20)
#    0.000    3.250    0.000    2.625    0.000    4.250 
#    0.000    1.875    0.000    2.625    0.000    3.500 
#    0.000    0.000    0.000    0.000    0.000    0.000 
#
# Total GULP energy -356820.052781 kJ/mol
# GULP energy per Si atom -5575.313325 kJ/mol
# Density = 2.115256 g / cm^3
# Si number density = 21.200815 Si / 1000 Ang^3
#
#
#
# Elastic Constant Matrix: (Units=GPa)
#
#
# Indices 1 2 3 4 5 6 
#
# 1 134.1718 5.8884 127.0651 0.0000 0.0000 0.0000
# 2 5.8884 53.8939 1.8332 0.0000 0.0000 0.0000
# 3 127.0651 1.8332 262.1017 0.0000 0.0000 0.0000
# 4 0.0000 0.0000 0.0000 17.1860 0.0000 0.0000
# 5 0.0000 0.0000 0.0000 0.0000 37.6346 0.0000
# 6 0.0000 0.0000 0.0000 0.0000 0.0000 -2.3023
#
#
#
# Elastic Compliance Matrix: (Units=1/GPa)
#
#
# Indices 1 2 3 4 5 6 
#
# 1 0.013868 -0.001287 -0.006714 0.000000 0.000000 0.000000
# 2 -0.001287 0.018679 0.000493 0.000000 0.000000 0.000000
# 3 -0.006714 0.000493 0.007067 0.000000 0.000000 0.000000
# 4 0.000000 0.000000 0.000000 0.058187 0.000000 0.000000
# 5 0.000000 0.000000 0.000000 0.000000 0.026571 0.000000
# 6 0.000000 0.000000 0.000000 0.000000 0.000000 -0.434353
#
#
# Mechanical properties :
#
#
# Convention : Reuss Voigt Hill
#
# Bulk Modulus (GPa) = 40.65340 79.97118 60.31229
# Shear Modulus (GPa) = -17.43581 31.52904 7.04662
#
# Velocity S-wave (km/s) = -2.87088 3.86056 1.82509
# Velocity P-wave (km/s) = 2.86840 7.59438 5.74031
#
# Compressibility (1/GPa) = 0.02459819
#
# Stress axis : x y z
#
# Youngs Moduli (GPa) = 72.10762 53.53659 141.50566
#
# Poissons Ratio (x) = 0.06889 0.95010
# Poissons Ratio (y) = 0.09279 -0.06979
# Poissons Ratio (z) = 0.48414 -0.02640
#
# Static dielectric constant tensor:
#      x y z
#    x 1.739520 0.000000 0.000000 
#    y 0.000000 1.827880 0.000000 
#    z 0.000000 0.000000 1.774730 
# 
# From -- ./inp_files/32564.got.cif
#   From: 2010.05.17/outbox.cif.g08.bks.cpg/sg51_17_cif.got.tgz:32564.got - 2010.06.03 11:52:47.
