data_PCOD9400720
_publ_section_title
;
Structure prediction by ZEFSAII (Michael W. Deem and Ramdas Pophale) SiO2 
 PCOD9400720
Probable space group: P M M A
;
_chemical_formula_sum "Si O2"
_cell_formula_units_Z 52
_cell_length_a 8.940570
_cell_length_b 18.632764
_cell_length_c 17.773765
_cell_angle_alpha 90.000000
_cell_angle_beta 90.000000
_cell_angle_gamma 90.000000
_cell_volume 2960.887625
_symmetry_space_group_name_H-M "P M M A"
_symmetry_group_IT_number 51
_symmetry_cell_setting 'orthorhombic'
loop_
_space_group_symop_operation_xyz
x,y,z
1/2-x,-y,z
1/2+x,-y,-z
-x,y,-z
-x,-y,-z
1/2+x,y,-z
1/2-x,y,z
x,-y,z
loop_
_atom_site_type_symbol
_atom_site_label
_atom_site_fract_x
_atom_site_fract_y
_atom_site_fract_z
Si Si1 0.076236 0.717015 0.693652
Si Si2 0.923255 0.220089 0.138641
Si Si3 0.429941 0.419597 0.240616
Si Si4 0.928121 0.080537 0.917191
Si Si5 0.068507 0.842295 0.583307
Si Si6 0.928848 0.639906 0.922886
Si Si7 0.069961 0.000000 0.583376
O O1 0.250000 0.702161 0.676335
O O2 0.070365 0.754665 0.775222
O O3 0.018291 0.775085 0.633703
O O4 0.991921 0.642121 0.705159
O O5 0.750000 0.218559 0.114507
O O6 0.997180 0.142927 0.130376
O O7 0.012011 0.279226 0.090471
O O8 0.250000 0.417216 0.242823
O O9 0.479919 0.500000 0.259728
O O10 0.472928 0.401635 0.153800
O O11 0.750000 0.090535 0.922381
O O12 0.957282 0.000000 0.888159
O O13 0.000000 0.085132 0.000000
O O14 0.250000 0.839788 0.579233
O O15 0.000000 0.837465 0.500000
O O16 0.027897 0.921705 0.616189
O O17 0.750000 0.639068 0.928861
O O18 0.000000 0.611514 0.000000
O O19 0.000000 0.000000 0.500000
O O20 0.250000 0.000000 0.577818
#
# Coordination Sequence:
#
# PCOD9400720 Si02
#       7
#     8   8   8   8   8   8   4
#     4   9  19  34  51  75 102 129 164 202 242 294
#     4  10  19  32  48  67  93 125 162 201 243 294
#     4   9  19  35  53  73  98 130 166 203 248 300
#     4  10  20  33  48  65  88 120 161 207 251 293
#     4   9  17  31  51  77 105 134 167 201 239 287
#     4  10  19  31  48  70  96 126 159 201 247 294
#     4   8  14  26  46  70 100 132 159 190 229 274
#
# _framework density 17.562301000000001
#
# number of rings (size 3 to 8) (size 9 to 14) (size 15 to 20)
#    0.000    2.615    0.000    1.846    0.000    3.385 
#    1.385    0.000    0.000    0.462    0.000    0.000 
#    0.000    0.000    0.000    0.000    0.000    0.000 
#
# Total GULP energy -289798.913657 kJ/mol
# GULP energy per Si atom -5573.056032 kJ/mol
# Density = 1.752233 g / cm^3
# Si number density = 17.562301 Si / 1000 Ang^3
#
#
#
# Elastic Constant Matrix: (Units=GPa)
#
#
# Indices 1 2 3 4 5 6 
#
# 1 34.6498 40.8158 12.2822 0.0000 0.0000 0.0000
# 2 40.8158 165.1250 44.6969 0.0000 0.0000 0.0000
# 3 12.2822 44.6969 45.8283 0.0000 0.0000 0.0000
# 4 0.0000 0.0000 0.0000 11.4433 0.0000 0.0000
# 5 0.0000 0.0000 0.0000 0.0000 21.3838 0.0000
# 6 0.0000 0.0000 0.0000 0.0000 0.0000 25.4975
#
#
#
# Elastic Compliance Matrix: (Units=1/GPa)
#
#
# Indices 1 2 3 4 5 6 
#
# 1 0.040790 -0.009679 -0.001492 0.000000 0.000000 0.000000
# 2 -0.009679 0.010525 -0.007671 0.000000 0.000000 0.000000
# 3 -0.001492 -0.007671 0.029702 0.000000 0.000000 0.000000
# 4 0.000000 0.000000 0.000000 0.087387 0.000000 0.000000
# 5 0.000000 0.000000 0.000000 0.000000 0.046764 0.000000
# 6 0.000000 0.000000 0.000000 0.000000 0.000000 0.039220
#
#
# Mechanical properties :
#
#
# Convention : Reuss Voigt Hill
#
# Bulk Modulus (GPa) = 23.07696 49.02143 36.04920
# Shear Modulus (GPa) = 16.31231 21.51879 18.91555
#
# Velocity S-wave (km/s) = 3.05097 3.50420 3.28541
# Velocity P-wave (km/s) = 5.05765 6.65928 5.91295
#
# Compressibility (1/GPa) = 0.04333326
#
# Stress axis : x y z
#
# Youngs Moduli (GPa) = 24.51571 95.01326 33.66751
#
# Poissons Ratio (x) = 0.91960 0.05024
# Poissons Ratio (y) = 0.23728 0.25827
# Poissons Ratio (z) = 0.03658 0.72886
#
# Static dielectric constant tensor:
#      x y z
#    x 1.592020 0.000000 0.000000 
#    y 0.000000 1.625000 0.000000 
#    z 0.000000 0.000000 1.589030 
# 
# From -- ./inp_files/27947.got.cif
#   From: 2010.05.17/outbox.cif.g08.bks.cpg/sg51_14_cif.got.tgz:27947.got - 2010.06.03 11:52:47.
