data_PCOD9400926
_publ_section_title
;
Structure prediction by ZEFSAII (Michael W. Deem and Ramdas Pophale) SiO2 
 PCOD9400926
Probable space group: P M M A
;
_chemical_formula_sum "Si O2"
_cell_formula_units_Z 64
_cell_length_a 18.592253
_cell_length_b 8.376734
_cell_length_c 22.330088
_cell_angle_alpha 90.000000
_cell_angle_beta 90.000000
_cell_angle_gamma 90.000000
_cell_volume 3477.740556
_symmetry_space_group_name_H-M "P M M A"
_symmetry_group_IT_number 51
_symmetry_cell_setting 'orthorhombic'
loop_
_space_group_symop_operation_xyz
x,y,z
1/2-x,-y,z
1/2+x,-y,-z
-x,y,-z
-x,-y,-z
1/2+x,y,-z
1/2-x,y,z
x,-y,z
loop_
_atom_site_type_symbol
_atom_site_label
_atom_site_fract_x
_atom_site_fract_y
_atom_site_fract_z
Si Si1 0.832774 0.804864 0.504100
Si Si2 0.953151 0.189694 0.185208
Si Si3 0.332474 0.308815 0.731526
Si Si4 0.403246 0.690761 0.248159
Si Si5 0.976370 0.306674 0.934285
Si Si6 0.416720 0.192379 0.377794
Si Si7 0.417602 0.193265 0.614754
Si Si8 0.670184 0.305381 0.873548
O O1 0.750000 0.753294 0.500068
O O2 0.870365 0.751915 0.565584
O O3 0.878418 0.754598 0.446226
O O4 0.832983 0.000000 0.504245
O O5 0.878337 0.249938 0.211898
O O6 0.017302 0.254887 0.227554
O O7 0.971501 0.248654 0.118590
O O8 0.955344 0.000000 0.187305
O O9 0.250000 0.252099 0.732132
O O10 0.332565 0.500000 0.731320
O O11 0.373198 0.249651 0.672144
O O12 0.402307 0.500000 0.250282
O O13 0.386617 0.756551 0.313534
O O14 0.350697 0.742506 0.194268
O O15 0.977133 0.500000 0.933511
O O16 0.895711 0.254206 0.915776
O O17 0.000000 0.252718 0.000000
O O18 0.499602 0.248135 0.382676
O O19 0.417889 0.000000 0.379671
O O20 0.418451 0.000000 0.615355
O O21 0.750000 0.250192 0.889868
O O22 0.670549 0.500000 0.874606
#
# Coordination Sequence:
#
# PCOD9400926 Si02
#       8
#     8   8   8   8   8   8   8   8
#     4   9  18  32  49  71 102 139 179 223 270 323
#     4  11  21  35  56  80 108 141 178 219 263 318
#     4  11  23  37  55  80 109 139 174 222 276 325
#     4  10  19  32  52  76 104 137 174 219 269 323
#     4   9  18  34  57  83 112 148 187 224 265 314
#     4  10  19  31  50  76 102 134 177 221 268 322
#     4  10  19  33  54  76 100 136 181 224 266 323
#     4   8  15  29  50  76 105 139 179 219 259 307
#
# _framework density 18.402754000000002
#
# number of rings (size 3 to 8) (size 9 to 14) (size 15 to 20)
#    0.000    2.250    1.250    3.375    0.000    3.750 
#    0.000    1.250    0.000   13.500    0.000    0.000 
#    0.000    0.000    0.000    0.000    0.000    0.000 
#
# Total GULP energy -357194.276721 kJ/mol
# GULP energy per Si atom -5581.160574 kJ/mol
# Density = 1.836087 g / cm^3
# Si number density = 18.402754 Si / 1000 Ang^3
#
#
#
# Elastic Constant Matrix: (Units=GPa)
#
#
# Indices 1 2 3 4 5 6 
#
# 1 98.9519 13.5132 64.5109 0.0000 0.0000 0.0000
# 2 13.5132 -17.5608 17.5518 0.0000 0.0000 0.0000
# 3 64.5109 17.5518 154.0512 0.0000 0.0000 0.0000
# 4 0.0000 0.0000 0.0000 27.1039 0.0000 0.0000
# 5 0.0000 0.0000 0.0000 0.0000 -12.6485 0.0000
# 6 0.0000 0.0000 0.0000 0.0000 0.0000 3.3997
#
#
#
# Elastic Compliance Matrix: (Units=1/GPa)
#
#
# Indices 1 2 3 4 5 6 
#
# 1 0.013536 0.004265 -0.006154 0.000000 0.000000 0.000000
# 2 0.004265 -0.049779 0.003886 0.000000 0.000000 0.000000
# 3 -0.006154 0.003886 0.008626 0.000000 0.000000 0.000000
# 4 0.000000 0.000000 0.000000 0.036895 0.000000 0.000000
# 5 0.000000 0.000000 0.000000 0.000000 -0.079061 0.000000
# 6 0.000000 0.000000 0.000000 0.000000 0.000000 0.294144
#
#
# Mechanical properties :
#
#
# Convention : Reuss Voigt Hill
#
# Bulk Modulus (GPa) = -42.32757 47.39934 2.53588
# Shear Modulus (GPa) = 23.53020 12.89543 18.21282
#
# Velocity S-wave (km/s) = 3.57966 2.65001 3.14933
# Velocity P-wave (km/s) = 2.44239 5.93093 3.82169
#
# Compressibility (1/GPa) = -0.02362526
#
# Stress axis : x y z
#
# Youngs Moduli (GPa) = 73.87905 -20.08864 115.93185
#
# Poissons Ratio (x) = 0.08567 0.71346
# Poissons Ratio (y) = -0.31508 -0.45047
# Poissons Ratio (z) = 0.45466 0.07806
#
# Static dielectric constant tensor:
#      x y z
#    x 1.632430 0.000000 0.000000 
#    y 0.000000 1.637720 0.000000 
#    z 0.000000 0.000000 1.614630 
# 
# From -- ./inp_files/33960.got.cif
#   From: 2010.05.17/outbox.cif.g08.bks.cpg/sg51_17_cif.got.tgz:33960.got - 2010.06.03 11:52:47.
