data_PCOD9400322
_publ_section_title
;
Structure prediction by ZEFSAII (Michael W. Deem and Ramdas Pophale) SiO2 
 PCOD9400322
Probable space group: P M M A
;
_chemical_formula_sum "Si O2"
_cell_formula_units_Z 40
_cell_length_a 30.517248
_cell_length_b 7.982504
_cell_length_c 7.353050
_cell_angle_alpha 90.000000
_cell_angle_beta 90.000000
_cell_angle_gamma 90.000000
_cell_volume 1791.232791
_symmetry_space_group_name_H-M "P M M A"
_symmetry_group_IT_number 51
_symmetry_cell_setting 'orthorhombic'
loop_
_space_group_symop_operation_xyz
x,y,z
1/2-x,-y,z
1/2+x,-y,-z
-x,y,-z
-x,-y,-z
1/2+x,y,-z
1/2-x,y,z
x,-y,z
loop_
_atom_site_type_symbol
_atom_site_label
_atom_site_fract_x
_atom_site_fract_y
_atom_site_fract_z
Si Si1 0.141856 0.684462 0.042809
Si Si2 0.640981 0.688820 0.511997
Si Si3 0.800326 0.000000 0.510152
Si Si4 0.547456 0.301838 0.582541
Si Si5 0.451643 0.810464 0.025613
Si Si6 0.800348 0.000000 0.954094
O O1 0.157157 0.500000 0.989541
O O2 0.140717 0.687816 0.265150
O O3 0.092406 0.714571 0.971786
O O4 0.173209 0.835385 0.987232
O O5 0.652686 0.500000 0.455054
O O6 0.590401 0.725307 0.460650
O O7 0.673597 0.833796 0.452861
O O8 0.800448 0.000000 0.732186
O O9 0.750000 0.000000 0.451734
O O10 0.500000 0.272557 0.500000
O O11 0.549389 0.500000 0.636211
O O12 0.552112 0.186479 0.756841
O O13 0.451769 0.000000 0.950954
O O14 0.500000 0.732775 0.000000
O O15 0.750000 0.000000 0.012241
#
# Coordination Sequence:
#
# PCOD9400322 Si02
#       6
#     8   8   4   8   8   4
#     4   9  16  27  42  59  84 118 150 183 228 273
#     4   8  15  26  39  57  83 112 142 179 220 264
#     4   9  16  24  37  56  79 111 147 179 216 265
#     4   9  18  31  46  66  92 122 156 190 226 272
#     4  10  19  30  45  67  95 125 158 192 228 275
#     4   9  16  26  39  58  85 113 147 189 226 271
#
# _framework density 22.330988000000001
#
# number of rings (size 3 to 8) (size 9 to 14) (size 15 to 20)
#    0.000    3.000    1.000    1.800    4.200    2.800 
#    0.000    4.000    0.000    0.000    0.000    0.000 
#    0.000    3.200    0.000    5.200    0.000    7.400 
#
# Total GULP energy -223200.459636 kJ/mol
# GULP energy per Si atom -5580.011491 kJ/mol
# Density = 2.228016 g / cm^3
# Si number density = 22.330988 Si / 1000 Ang^3
#
#
#
# Elastic Constant Matrix: (Units=GPa)
#
#
# Indices 1 2 3 4 5 6 
#
# 1 206.0328 121.4293 0.4385 0.0000 0.0000 0.0000
# 2 121.4293 158.2942 4.3538 0.0000 0.0000 0.0000
# 3 0.4385 4.3538 60.7303 0.0000 0.0000 0.0000
# 4 0.0000 0.0000 0.0000 -9.2768 0.0000 0.0000
# 5 0.0000 0.0000 0.0000 0.0000 9.2878 0.0000
# 6 0.0000 0.0000 0.0000 0.0000 0.0000 27.3391
#
#
#
# Elastic Compliance Matrix: (Units=1/GPa)
#
#
# Indices 1 2 3 4 5 6 
#
# 1 0.008870 -0.006816 0.000425 0.000000 0.000000 0.000000
# 2 -0.006816 0.011567 -0.000780 0.000000 0.000000 0.000000
# 3 0.000425 -0.000780 0.016519 0.000000 0.000000 0.000000
# 4 0.000000 0.000000 0.000000 -0.107795 0.000000 0.000000
# 5 0.000000 0.000000 0.000000 0.000000 0.107668 0.000000
# 6 0.000000 0.000000 0.000000 0.000000 0.000000 0.036578
#
#
# Mechanical properties :
#
#
# Convention : Reuss Voigt Hill
#
# Bulk Modulus (GPa) = 44.22111 75.27785 59.74948
# Shear Modulus (GPa) = 52.47341 25.39239 38.93290
#
# Velocity S-wave (km/s) = 4.85273 3.37574 4.17999
# Velocity P-wave (km/s) = 7.15851 6.99838 7.07890
#
# Compressibility (1/GPa) = 0.02261363
#
# Stress axis : x y z
#
# Youngs Moduli (GPa) = 112.74408 86.45137 60.53597
#
# Poissons Ratio (x) = 0.58923 -0.02570
# Poissons Ratio (y) = 0.76843 0.04722
# Poissons Ratio (z) = -0.04787 0.06744
#
# Static dielectric constant tensor:
#      x y z
#    x 1.823030 0.000000 0.000000 
#    y 0.000000 1.787460 0.000000 
#    z 0.000000 0.000000 1.948200 
# 
# From -- ./inp_files/12140.got.cif
#   From: 2010.05.17/outbox.cif.g08.bks.cpg/sg51_7_cif.got.tgz:12140.got - 2010.06.03 11:52:47.
