data_PCOD9400203
_publ_section_title
;
Structure prediction by ZEFSAII (Michael W. Deem and Ramdas Pophale) SiO2 
 PCOD9400203
Probable space group: P M M A
;
_chemical_formula_sum "Si O2"
_cell_formula_units_Z 64
_cell_length_a 30.012826
_cell_length_b 7.490940
_cell_length_c 16.064465
_cell_angle_alpha 90.000000
_cell_angle_beta 90.000000
_cell_angle_gamma 90.000000
_cell_volume 3611.681758
_symmetry_space_group_name_H-M "P M M A"
_symmetry_group_IT_number 51
_symmetry_cell_setting 'orthorhombic'
loop_
_space_group_symop_operation_xyz
x,y,z
1/2-x,-y,z
1/2+x,-y,-z
-x,y,-z
-x,-y,-z
1/2+x,y,-z
1/2-x,y,z
x,-y,z
loop_
_atom_site_type_symbol
_atom_site_label
_atom_site_fract_x
_atom_site_fract_y
_atom_site_fract_z
Si Si1 0.700612 0.289468 0.892438
Si Si2 0.048173 0.784396 0.314668
Si Si3 0.554456 0.781165 0.322092
Si Si4 0.945922 0.793594 0.504074
Si Si5 0.109383 0.218802 0.837316
Si Si6 0.450922 0.207333 0.989121
Si Si7 0.895079 0.289283 0.848710
Si Si8 0.799271 0.784157 0.088075
O O1 0.750000 0.214121 0.872935
O O2 0.702739 0.500000 0.873267
O O3 0.655625 0.217373 0.850250
O O4 0.693951 0.269270 0.991838
O O5 0.064833 0.716822 0.405080
O O6 0.079241 0.737447 0.237600
O O7 0.996668 0.726642 0.303081
O O8 0.046810 0.000000 0.319843
O O9 0.567776 0.717576 0.414653
O O10 0.587425 0.725340 0.249169
O O11 0.554115 0.000000 0.324473
O O12 0.000000 0.794369 0.500000
O O13 0.930928 0.000000 0.504898
O O14 0.159625 0.277386 0.856234
O O15 0.109796 0.000000 0.837692
O O16 0.078602 0.281267 0.914009
O O17 0.423746 0.213299 0.074920
O O18 0.457947 0.000000 0.966015
O O19 0.500000 0.287919 0.000000
O O20 0.892356 0.500000 0.865150
O O21 0.750000 0.722758 0.113589
O O22 0.799296 0.000000 0.089135
#
# Coordination Sequence:
#
# PCOD9400203 Si02
#       8
#     8   8   8   8   8   8   8   8
#     4   9  18  32  46  58  76 106 143 179 214 251
#     4   9  16  27  44  63  84 110 141 174 207 247
#     4   8  13  23  41  64  85 106 138 175 205 239
#     4   7  11  21  39  62  82 102 135 177 208 233
#     4   9  15  23  37  59  83 106 132 165 204 243
#     4  10  19  30  43  59  83 116 148 170 195 240
#     4  11  21  30  42  62  86 112 141 176 216 253
#     4   9  16  26  41  60  80 102 133 174 212 244
#
# _framework density 17.720278
#
# number of rings (size 3 to 8) (size 9 to 14) (size 15 to 20)
#    0.000    3.000    1.250    2.625    0.000    2.750 
#    0.000    0.000    0.000    3.375    0.000    0.875 
#    0.000    3.000    0.000    0.000    0.000    0.000 
#
# Total GULP energy -356596.305938 kJ/mol
# GULP energy per Si atom -5571.817280 kJ/mol
# Density = 1.767995 g / cm^3
# Si number density = 17.720278 Si / 1000 Ang^3
#
#
#
# Elastic Constant Matrix: (Units=GPa)
#
#
# Indices 1 2 3 4 5 6 
#
# 1 110.6849 -2.1289 47.4995 0.0000 0.0000 0.0000
# 2 -2.1289 46.2493 -13.6182 0.0000 0.0000 0.0000
# 3 47.4995 -13.6182 102.7989 0.0000 0.0000 0.0000
# 4 0.0000 0.0000 0.0000-3017.0690 0.0000 0.0000
# 5 0.0000 0.0000 0.0000 0.0000 7.4361 0.0000
# 6 0.0000 0.0000 0.0000 0.0000 0.0000 1.1070
#
#
#
# Elastic Compliance Matrix: (Units=1/GPa)
#
#
# Indices 1 2 3 4 5 6 
#
# 1 0.011319 -0.001060 -0.005371 0.000000 0.000000 0.000000
# 2 -0.001060 0.022599 0.003484 0.000000 0.000000 0.000000
# 3 -0.005371 0.003484 0.012671 0.000000 0.000000 0.000000
# 4 0.000000 0.000000 0.000000 -0.000331 0.000000 0.000000
# 5 0.000000 0.000000 0.000000 0.000000 0.134478 0.000000
# 6 0.000000 0.000000 0.000000 0.000000 0.000000 0.903370
#
#
# Mechanical properties :
#
#
# Convention : Reuss Voigt Hill
#
# Bulk Modulus (GPa) = 24.57347 35.91534 30.24441
# Shear Modulus (GPa) = 4.53077 -586.50646 -290.98784
#
# Velocity S-wave (km/s) = 1.60074 -18.21260 -12.82842
# Velocity P-wave (km/s) = 4.16101 20.54150 14.22391
#
# Compressibility (1/GPa) = 0.04069429
#
# Stress axis : x y z
#
# Youngs Moduli (GPa) = 88.34718 44.24992 78.92193
#
# Poissons Ratio (x) = 0.04692 0.42385
# Poissons Ratio (y) = 0.09368 -0.27494
# Poissons Ratio (z) = 0.47447 -0.15415
#
# Static dielectric constant tensor:
#      x y z
#    x 1.617160 0.000000 0.000000 
#    y 0.000000 1.667040 0.000000 
#    z 0.000000 0.000000 1.599120 
# 
# From -- ./inp_files/26566.got.cif
#   From: 2010.05.17/outbox.cif.g08.bks.cpg/sg51_14_cif.got.tgz:26566.got - 2010.06.03 11:52:47.
