data_PCOD9400129
_publ_section_title
;
Structure prediction by ZEFSAII (Michael W. Deem and Ramdas Pophale) SiO2 
 PCOD9400129
Probable space group: P M M A
;
_chemical_formula_sum "Si O2"
_cell_formula_units_Z 56
_cell_length_a 8.010737
_cell_length_b 19.254409
_cell_length_c 19.797519
_cell_angle_alpha 90.000000
_cell_angle_beta 90.000000
_cell_angle_gamma 90.000000
_cell_volume 3053.609056
_symmetry_space_group_name_H-M "P M M A"
_symmetry_group_IT_number 51
_symmetry_cell_setting 'orthorhombic'
loop_
_space_group_symop_operation_xyz
x,y,z
1/2-x,-y,z
1/2+x,-y,-z
-x,y,-z
-x,-y,-z
1/2+x,y,-z
1/2-x,y,z
x,-y,z
loop_
_atom_site_type_symbol
_atom_site_label
_atom_site_fract_x
_atom_site_fract_y
_atom_site_fract_z
Si Si1 0.045881 0.922821 0.850571
Si Si2 0.052338 0.815158 0.426505
Si Si3 0.950674 0.215941 0.076075
Si Si4 0.949785 0.343889 0.574508
Si Si5 0.454211 0.292193 0.791445
Si Si6 0.950210 0.847441 0.283308
Si Si7 0.449900 0.422102 0.708635
O O1 0.250000 0.923094 0.851716
O O2 0.990687 0.860563 0.899657
O O3 0.994728 0.901370 0.774360
O O4 0.988578 0.000000 0.868396
O O5 0.250000 0.809943 0.426703
O O6 0.984273 0.735794 0.419474
O O7 0.000000 0.842167 0.500000
O O8 0.001422 0.857558 0.360364
O O9 0.750000 0.214710 0.079372
O O10 0.007322 0.270470 0.133285
O O11 0.000000 0.231525 0.000000
O O12 0.750000 0.342585 0.579299
O O13 0.000000 0.368863 0.500000
O O14 0.016889 0.390992 0.634596
O O15 0.250000 0.292915 0.790599
O O16 0.507062 0.228774 0.742516
O O17 0.514274 0.365117 0.762065
O O18 0.750000 0.847080 0.281291
O O19 0.250000 0.425500 0.717338
O O20 0.517516 0.500000 0.715715
#
# Coordination Sequence:
#
# PCOD9400129 Si02
#       7
#     8   8   8   8   8   8   8
#     4   8  15  28  47  72  99 127 156 182 219 274
#     4  10  19  29  44  67  92 119 154 196 238 276
#     4   9  17  30  49  72  97 126 154 186 223 264
#     4  10  20  32  46  65  92 125 156 192 236 281
#     4   8  15  29  47  66  90 118 152 188 227 275
#     4   9  15  27  49  68  87 119 154 193 232 269
#     4  10  19  31  49  69  89 118 156 198 238 276
#
# _framework density 18.338954999999999
#
# number of rings (size 3 to 8) (size 9 to 14) (size 15 to 20)
#    0.000    2.857    1.429    2.571    0.000    2.000 
#    0.000    3.571    0.000    2.143    0.000    0.000 
#    0.000    0.000    0.000    0.000    0.000    0.000 
#
# Total GULP energy -312112.254785 kJ/mol
# GULP energy per Si atom -5573.433121 kJ/mol
# Density = 1.829721 g / cm^3
# Si number density = 18.338955 Si / 1000 Ang^3
#
#
#
# Elastic Constant Matrix: (Units=GPa)
#
#
# Indices 1 2 3 4 5 6 
#
# 1 11.0842 1.2049 -2.6782 0.0000 0.0000 0.0000
# 2 1.2049 54.6504 34.5797 0.0000 0.0000 0.0000
# 3 -2.6782 34.5797 139.7803 0.0000 0.0000 0.0000
# 4 0.0000 0.0000 0.0000 15.8563 0.0000 0.0000
# 5 0.0000 0.0000 0.0000 0.0000 25.6416 0.0000
# 6 0.0000 0.0000 0.0000 0.0000 0.0000 5.6246
#
#
#
# Elastic Compliance Matrix: (Units=1/GPa)
#
#
# Indices 1 2 3 4 5 6 
#
# 1 0.091264 -0.003697 0.002663 0.000000 0.000000 0.000000
# 2 -0.003697 0.021844 -0.005475 0.000000 0.000000 0.000000
# 3 0.002663 -0.005475 0.008559 0.000000 0.000000 0.000000
# 4 0.000000 0.000000 0.000000 0.063066 0.000000 0.000000
# 5 0.000000 0.000000 0.000000 0.000000 0.038999 0.000000
# 6 0.000000 0.000000 0.000000 0.000000 0.000000 0.177790
#
#
# Mechanical properties :
#
#
# Convention : Reuss Voigt Hill
#
# Bulk Modulus (GPa) = 9.20389 30.19195 19.69792
# Shear Modulus (GPa) = 11.09246 20.91842 16.00544
#
# Velocity S-wave (km/s) = 2.46205 3.38102 2.95745
# Velocity P-wave (km/s) = 3.62104 5.63390 4.73565
#
# Compressibility (1/GPa) = 0.10864974
#
# Stress axis : x y z
#
# Youngs Moduli (GPa) = 10.95722 45.77980 116.82966
#
# Poissons Ratio (x) = 0.16927 -0.31116
# Poissons Ratio (y) = 0.04051 0.63960
# Poissons Ratio (z) = -0.02918 0.25063
#
# Static dielectric constant tensor:
#      x y z
#    x 1.655150 0.000000 0.000000 
#    y 0.000000 1.642260 0.000000 
#    z 0.000000 0.000000 1.643730 
# 
# From -- ./inp_files/28199.got.cif
#   From: 2010.05.17/outbox.cif.g08.bks.cpg/sg51_15_cif.got.tgz:28199.got - 2010.06.03 11:52:47.
