data_PCOD9400621
_publ_section_title
;
Structure prediction by ZEFSAII (Michael W. Deem and Ramdas Pophale) SiO2 
 PCOD9400621
Probable space group: P M M A
;
_chemical_formula_sum "Si O2"
_cell_formula_units_Z 64
_cell_length_a 9.414308
_cell_length_b 15.052327
_cell_length_c 22.139015
_cell_angle_alpha 90.000000
_cell_angle_beta 90.000000
_cell_angle_gamma 90.000000
_cell_volume 3137.258767
_symmetry_space_group_name_H-M "P M M A"
_symmetry_group_IT_number 51
_symmetry_cell_setting 'orthorhombic'
loop_
_space_group_symop_operation_xyz
x,y,z
1/2-x,-y,z
1/2+x,-y,-z
-x,y,-z
-x,-y,-z
1/2+x,y,-z
1/2-x,y,z
x,-y,z
loop_
_atom_site_type_symbol
_atom_site_label
_atom_site_fract_x
_atom_site_fract_y
_atom_site_fract_z
Si Si1 0.409919 0.359939 0.827968
Si Si2 0.908257 0.605817 0.945410
Si Si3 0.081097 0.181631 0.693388
Si Si4 0.414394 0.400662 0.418917
Si Si5 0.090658 0.854589 0.822925
Si Si6 0.581178 0.217038 0.441672
Si Si7 0.910981 0.893741 0.941936
Si Si8 0.411160 0.641136 0.281616
O O1 0.250000 0.391700 0.836640
O O2 0.507686 0.380871 0.884190
O O3 0.405913 0.252923 0.821849
O O4 0.482725 0.396613 0.767860
O O5 0.750000 0.642771 0.943012
O O6 0.896436 0.500000 0.955069
O O7 0.000000 0.643959 0.000000
O O8 0.250000 0.208382 0.697776
O O9 0.059174 0.119399 0.752643
O O10 0.060607 0.163256 0.621735
O O11 0.970320 0.260687 0.704721
O O12 0.250000 0.383401 0.438309
O O13 0.456102 0.500000 0.439062
O O14 0.515362 0.317148 0.434080
O O15 0.412579 0.404048 0.346276
O O16 0.250000 0.886554 0.837757
O O17 0.985824 0.878354 0.877208
O O18 0.500000 0.178763 0.500000
O O19 0.750000 0.222694 0.452038
O O20 0.750000 0.858788 0.942104
O O21 0.903129 0.000000 0.948996
O O22 0.000000 0.860096 0.000000
O O23 0.250000 0.642419 0.258125
#
# Coordination Sequence:
#
# PCOD9400621 Si02
#       8
#     8   8   8   8   8   8   8   8
#     4  10  20  33  49  70  94 120 154 195 240 293
#     4  10  21  36  51  65  83 110 146 190 242 297
#     4   8  16  31  48  67  93 123 156 196 241 289
#     4   9  18  31  44  59  82 113 151 195 242 295
#     4   9  18  33  53  76 102 133 168 206 246 288
#     4  10  19  31  47  66  90 121 157 199 248 302
#     4  10  21  36  54  78 109 144 178 208 240 283
#     4   9  16  27  44  64  85 110 142 185 237 286
#
# _framework density 20.399975999999999
#
# number of rings (size 3 to 8) (size 9 to 14) (size 15 to 20)
#    0.000    2.625    0.000    2.625    0.000    6.500 
#    0.000    1.250    0.000    0.000    0.000    0.000 
#    0.000    0.500    0.000    1.125    0.000    2.000 
#
# Total GULP energy -356544.196504 kJ/mol
# GULP energy per Si atom -5571.003070 kJ/mol
# Density = 2.035354 g / cm^3
# Si number density = 20.399976 Si / 1000 Ang^3
#
#
#
# Elastic Constant Matrix: (Units=GPa)
#
#
# Indices 1 2 3 4 5 6 
#
# 1 149.4693 6.5515 93.0399 0.0000 0.0000 0.0000
# 2 6.5515 29.6735 2.3379 0.0000 0.0000 0.0000
# 3 93.0399 2.3379 178.0439 0.0000 0.0000 0.0000
# 4 0.0000 0.0000 0.0000 27.3968 0.0000 0.0000
# 5 0.0000 0.0000 0.0000 0.0000 37.7544 0.0000
# 6 0.0000 0.0000 0.0000 0.0000 0.0000 11.7498
#
#
#
# Elastic Compliance Matrix: (Units=1/GPa)
#
#
# Indices 1 2 3 4 5 6 
#
# 1 0.010011 -0.001800 -0.005208 0.000000 0.000000 0.000000
# 2 -0.001800 0.034059 0.000493 0.000000 0.000000 0.000000
# 3 -0.005208 0.000493 0.008331 0.000000 0.000000 0.000000
# 4 0.000000 0.000000 0.000000 0.036501 0.000000 0.000000
# 5 0.000000 0.000000 0.000000 0.000000 0.026487 0.000000
# 6 0.000000 0.000000 0.000000 0.000000 0.000000 0.085108
#
#
# Mechanical properties :
#
#
# Convention : Reuss Voigt Hill
#
# Bulk Modulus (GPa) = 25.39847 62.33836 43.86842
# Shear Modulus (GPa) = 22.06054 32.39737 27.22896
#
# Velocity S-wave (km/s) = 3.29203 3.98943 3.65739
# Velocity P-wave (km/s) = 5.18915 7.20036 6.27584
#
# Compressibility (1/GPa) = 0.03937245
#
# Stress axis : x y z
#
# Youngs Moduli (GPa) = 99.89144 29.36109 120.02647
#
# Poissons Ratio (x) = 0.05285 0.62506
# Poissons Ratio (y) = 0.17980 -0.05922
# Poissons Ratio (z) = 0.52021 -0.01449
#
# Static dielectric constant tensor:
#      x y z
#    x 1.719980 0.000000 0.000000 
#    y 0.000000 1.755950 0.000000 
#    z 0.000000 0.000000 1.774790 
# 
# From -- ./inp_files/32300.got.cif
#   From: 2010.05.17/outbox.cif.g08.bks.cpg/sg51_17_cif.got.tgz:32300.got - 2010.06.03 11:52:47.
