data_PCOD9400276
_publ_section_title
;
Structure prediction by ZEFSAII (Michael W. Deem and Ramdas Pophale) SiO2 
 PCOD9400276
Probable space group: P M M A
;
_chemical_formula_sum "Si O2"
_cell_formula_units_Z 64
_cell_length_a 14.303428
_cell_length_b 9.138742
_cell_length_c 32.651290
_cell_angle_alpha 90.000000
_cell_angle_beta 90.000000
_cell_angle_gamma 90.000000
_cell_volume 4268.024415
_symmetry_space_group_name_H-M "P M M A"
_symmetry_group_IT_number 51
_symmetry_cell_setting 'orthorhombic'
loop_
_space_group_symop_operation_xyz
x,y,z
1/2-x,-y,z
1/2+x,-y,-z
-x,y,-z
-x,-y,-z
1/2+x,y,-z
1/2-x,y,z
x,-y,z
loop_
_atom_site_type_symbol
_atom_site_label
_atom_site_fract_x
_atom_site_fract_y
_atom_site_fract_z
Si Si1 0.539537 0.675838 0.897419
Si Si2 0.144507 0.322374 0.519336
Si Si3 0.862609 0.169428 0.973549
Si Si4 0.140688 0.675808 0.185127
Si Si5 0.040894 0.676818 0.435305
Si Si6 0.857350 0.674950 0.058341
Si Si7 0.359801 0.176935 0.359300
Si Si8 0.363514 0.168644 0.268069
O O1 0.551691 0.500000 0.899609
O O2 0.594903 0.747765 0.934885
O O3 0.580356 0.724796 0.853871
O O4 0.430777 0.708706 0.905952
O O5 0.250000 0.269445 0.526520
O O6 0.146280 0.500000 0.520349
O O7 0.107004 0.283688 0.474036
O O8 0.064202 0.278395 0.551483
O O9 0.750000 0.176381 0.970691
O O10 0.891138 0.000000 0.973598
O O11 0.887573 0.245259 0.016582
O O12 0.250000 0.717182 0.178843
O O13 0.137042 0.500000 0.187331
O O14 0.107755 0.740790 0.228359
O O15 0.043131 0.500000 0.431288
O O16 0.079262 0.751160 0.394662
O O17 0.750000 0.715385 0.067496
O O18 0.860230 0.500000 0.051100
O O19 0.250000 0.216489 0.364677
O O20 0.390965 0.221914 0.313379
O O21 0.365010 0.000000 0.360954
O O22 0.250000 0.170243 0.268757
O O23 0.392770 0.000000 0.263458
#
# Coordination Sequence:
#
# PCOD9400276 Si02
#       8
#     8   8   8   8   8   8   8   8
#     4  10  19  30  45  64  85 110 138 167 202 243
#     4   8  14  25  39  57  85 115 140 172 213 249
#     4  10  20  31  43  62  87 112 138 169 202 236
#     4   9  17  28  42  62  86 107 129 162 201 240
#     4   9  16  25  41  63  81 106 146 180 205 241
#     4   9  18  32  47  61  80 109 142 172 203 239
#     4   9  17  28  41  59  85 113 137 167 209 248
#     4   8  15  28  43  58  80 110 136 157 193 248
#
# _framework density 14.995227999999999
#
# number of rings (size 3 to 8) (size 9 to 14) (size 15 to 20)
#    0.000    3.000    0.000    3.000    0.000    5.000 
#    0.000    3.750    0.000    1.125    0.000    0.875 
#    0.000    5.000    0.000    0.000    0.000    0.000 
#
# Total GULP energy -356442.643293 kJ/mol
# GULP energy per Si atom -5569.416301 kJ/mol
# Density = 1.496110 g / cm^3
# Si number density = 14.995228 Si / 1000 Ang^3
#
#
#
# Elastic Constant Matrix: (Units=GPa)
#
#
# Indices 1 2 3 4 5 6 
#
# 1 85.5230 25.8312 72.6120 0.0000 0.0000 0.0000
# 2 25.8312 14.1658 37.5418 0.0000 0.0000 0.0000
# 3 72.6120 37.5418 151.2627 0.0000 0.0000 0.0000
# 4 0.0000 0.0000 0.0000 139.3172 0.0000 0.0000
# 5 0.0000 0.0000 0.0000 0.0000 24.5562 0.0000
# 6 0.0000 0.0000 0.0000 0.0000 0.0000 13.4946
#
#
#
# Elastic Compliance Matrix: (Units=1/GPa)
#
#
# Indices 1 2 3 4 5 6 
#
# 1 0.026256 -0.042293 -0.002107 0.000000 0.000000 0.000000
# 2 -0.042293 0.274379 -0.047796 0.000000 0.000000 0.000000
# 3 -0.002107 -0.047796 0.019485 0.000000 0.000000 0.000000
# 4 0.000000 0.000000 0.000000 0.007178 0.000000 0.000000
# 5 0.000000 0.000000 0.000000 0.000000 0.040723 0.000000
# 6 0.000000 0.000000 0.000000 0.000000 0.000000 0.074104
#
#
# Mechanical properties :
#
#
# Convention : Reuss Voigt Hill
#
# Bulk Modulus (GPa) = 7.36764 58.10240 32.73502
# Shear Modulus (GPa) = 7.44314 43.13804 25.29059
#
# Velocity S-wave (km/s) = 2.23035 5.36939 4.11125
# Velocity P-wave (km/s) = 3.39950 8.79044 6.66440
#
# Compressibility (1/GPa) = 0.13572869
#
# Stress axis : x y z
#
# Youngs Moduli (GPa) = 38.08660 3.64459 51.32155
#
# Poissons Ratio (x) = 0.15414 0.10815
# Poissons Ratio (y) = 1.61079 2.45295
# Poissons Ratio (z) = 0.08026 0.17420
#
# Static dielectric constant tensor:
#      x y z
#    x 1.510130 0.000000 0.000000 
#    y 0.000000 1.499940 0.000000 
#    z 0.000000 0.000000 1.481860 
# 
# From -- ./inp_files/37817.got.cif
#   From: 2010.05.17/outbox.cif.g08.bks.cpg/sg51_19_cif.got.tgz:37817.got - 2010.06.03 11:52:47.
