data_PCOD9400404
_publ_section_title
;
Structure prediction by ZEFSAII (Michael W. Deem and Ramdas Pophale) SiO2 
 PCOD9400404
Probable space group: P M M A
;
_chemical_formula_sum "Si O2"
_cell_formula_units_Z 48
_cell_length_a 18.249279
_cell_length_b 7.428541
_cell_length_c 15.824943
_cell_angle_alpha 90.000000
_cell_angle_beta 90.000000
_cell_angle_gamma 90.000000
_cell_volume 2145.316584
_symmetry_space_group_name_H-M "P M M A"
_symmetry_group_IT_number 51
_symmetry_cell_setting 'orthorhombic'
loop_
_space_group_symop_operation_xyz
x,y,z
1/2-x,-y,z
1/2+x,-y,-z
-x,y,-z
-x,-y,-z
1/2+x,y,-z
1/2-x,y,z
x,-y,z
loop_
_atom_site_type_symbol
_atom_site_label
_atom_site_fract_x
_atom_site_fract_y
_atom_site_fract_z
Si Si1 0.330897 0.280404 0.016499
Si Si2 0.664355 0.283605 0.455431
Si Si3 0.164164 0.280367 0.360624
Si Si4 0.665917 0.209459 0.269471
Si Si5 0.095387 0.280145 0.186812
Si Si6 0.559427 0.704287 0.122256
O O1 0.250000 0.220562 0.989595
O O2 0.331157 0.500000 0.011114
O O3 0.395683 0.214506 0.955685
O O4 0.347366 0.233461 0.113274
O O5 0.750000 0.228230 0.455294
O O6 0.661829 0.500000 0.454573
O O7 0.635141 0.223452 0.546764
O O8 0.634878 0.224228 0.364811
O O9 0.250000 0.229702 0.353135
O O10 0.163104 0.500000 0.360493
O O11 0.119611 0.217992 0.279241
O O12 0.750000 0.279137 0.269191
O O13 0.615206 0.300586 0.200661
O O14 0.668470 0.000000 0.247234
O O15 0.092960 0.500000 0.191310
O O16 0.016249 0.214992 0.155175
O O17 0.540758 0.500000 0.096136
#
# Coordination Sequence:
#
# PCOD9400404 Si02
#       6
#     8   8   8   8   8   8
#     4   9  16  26  43  68  96 125 157 193 231 270
#     4   8  14  26  46  70  92 115 149 195 239 274
#     4   8  13  23  42  68  95 122 154 193 235 275
#     4  10  20  33  49  68  90 120 158 195 231 275
#     4   9  16  26  42  67  98 127 154 188 231 277
#     4  10  19  30  46  70  99 127 154 188 231 276
#
# _framework density 22.374320000000001
#
# number of rings (size 3 to 8) (size 9 to 14) (size 15 to 20)
#    0.000    3.000    0.000    3.000    0.000    5.667 
#    0.000    0.833    0.000    8.000    0.000    0.000 
#    0.000    6.667    0.000    0.000    0.000    0.000 
#
# Total GULP energy -267823.370557 kJ/mol
# GULP energy per Si atom -5579.653553 kJ/mol
# Density = 2.232339 g / cm^3
# Si number density = 22.374320 Si / 1000 Ang^3
#
#
#
# Elastic Constant Matrix: (Units=GPa)
#
#
# Indices 1 2 3 4 5 6 
#
# 1 52.4364 -2.6198 10.7299 0.0000 0.0000 0.0000
# 2 -2.6198 70.4584 -1.4760 0.0000 0.0000 0.0000
# 3 10.7299 -1.4760 115.0886 0.0000 0.0000 0.0000
# 4 0.0000 0.0000 0.0000 -82.0889 0.0000 0.0000
# 5 0.0000 0.0000 0.0000 0.0000 -23.8127 0.0000
# 6 0.0000 0.0000 0.0000 0.0000 0.0000 -9.9935
#
#
#
# Elastic Compliance Matrix: (Units=1/GPa)
#
#
# Indices 1 2 3 4 5 6 
#
# 1 0.019475 0.000686 -0.001807 0.000000 0.000000 0.000000
# 2 0.000686 0.014221 0.000118 0.000000 0.000000 0.000000
# 3 -0.001807 0.000118 0.008859 0.000000 0.000000 0.000000
# 4 0.000000 0.000000 0.000000 -0.012182 0.000000 0.000000
# 5 0.000000 0.000000 0.000000 0.000000 -0.041994 0.000000
# 6 0.000000 0.000000 0.000000 0.000000 0.000000 -0.100065
#
#
# Mechanical properties :
#
#
# Convention : Reuss Voigt Hill
#
# Bulk Modulus (GPa) = 24.66088 27.91685 26.28887
# Shear Modulus (GPa) = -51.99373 -7.75572 -29.87473
#
# Velocity S-wave (km/s) = -4.82582 -1.86383 -3.65804
# Velocity P-wave (km/s) = 4.47276 2.80579 2.46304
#
# Compressibility (1/GPa) = 0.04055005
#
# Stress axis : x y z
#
# Youngs Moduli (GPa) = 51.34857 70.31970 112.88042
#
# Poissons Ratio (x) = -0.04826 0.20396
# Poissons Ratio (y) = -0.03524 -0.01336
# Poissons Ratio (z) = 0.09278 -0.00833
#
# Static dielectric constant tensor:
#      x y z
#    x 1.799830 0.000000 0.000000 
#    y 0.000000 1.935220 0.000000 
#    z 0.000000 0.000000 1.824660 
# 
# From -- ./inp_files/24796.got.cif
#   From: 2010.05.17/outbox.cif.g08.bks.cpg/sg51_13_cif.got.tgz:24796.got - 2010.06.03 11:52:47.
