data_PCOD9400198
_publ_section_title
;
Structure prediction by ZEFSAII (Michael W. Deem and Ramdas Pophale) SiO2 
 PCOD9400198
Probable space group: P M M A
;
_chemical_formula_sum "Si O2"
_cell_formula_units_Z 64
_cell_length_a 9.332210
_cell_length_b 23.535191
_cell_length_c 14.458033
_cell_angle_alpha 90.000000
_cell_angle_beta 90.000000
_cell_angle_gamma 90.000000
_cell_volume 3175.495063
_symmetry_space_group_name_H-M "P M M A"
_symmetry_group_IT_number 51
_symmetry_cell_setting 'orthorhombic'
loop_
_space_group_symop_operation_xyz
x,y,z
1/2-x,-y,z
1/2+x,-y,-z
-x,y,-z
-x,-y,-z
1/2+x,y,-z
1/2-x,y,z
x,-y,z
loop_
_atom_site_type_symbol
_atom_site_label
_atom_site_fract_x
_atom_site_fract_y
_atom_site_fract_z
Si Si1 0.083372 0.289995 0.145167
Si Si2 0.578077 0.562964 0.282666
Si Si3 0.085192 0.830840 0.155993
Si Si4 0.580663 0.316069 0.332826
Si Si5 0.909229 0.212325 0.630396
Si Si6 0.916345 0.415526 0.910414
Si Si7 0.917732 0.083442 0.589673
Si Si8 0.580250 0.064219 0.216489
O O1 0.250000 0.286027 0.178552
O O2 0.049827 0.227960 0.103682
O O3 0.081089 0.346626 0.085271
O O4 0.976323 0.302979 0.229281
O O5 0.750000 0.567307 0.265143
O O6 0.549864 0.500000 0.321600
O O7 0.538101 0.617694 0.345375
O O8 0.494766 0.567956 0.185083
O O9 0.250000 0.847356 0.137419
O O10 0.077012 0.808202 0.262378
O O11 0.984478 0.885659 0.152953
O O12 0.750000 0.312273 0.338344
O O13 0.514876 0.263909 0.389867
O O14 0.750000 0.234773 0.615383
O O15 0.921933 0.151969 0.581778
O O16 0.750000 0.432774 0.908849
O O17 0.000000 0.436852 0.000000
O O18 0.750000 0.067266 0.593732
O O19 0.000000 0.061109 0.500000
O O20 0.998283 0.067700 0.684716
O O21 0.750000 0.073537 0.230793
O O22 0.559951 0.000000 0.180218
#
# Coordination Sequence:
#
# PCOD9400198 Si02
#       8
#     8   8   8   8   8   8   8   8
#     4   8  15  27  41  57  78 102 127 162 207 247
#     4   9  18  31  43  57  81 111 142 174 204 236
#     4   8  14  26  43  60  77 100 131 165 203 243
#     4   9  15  23  40  62  78  98 130 166 203 241
#     4   8  15  27  41  58  80 103 126 159 205 248
#     4  10  19  30  43  59  81 109 141 173 204 241
#     4  10  20  32  45  60  80 109 142 172 202 236
#     4  10  20  31  42  59  84 112 140 169 200 235
#
# _framework density 20.154337999999999
#
# number of rings (size 3 to 8) (size 9 to 14) (size 15 to 20)
#    0.000    3.000    0.000    3.000    0.000    7.750 
#    0.000    0.000    0.000    0.000    0.000    0.000 
#    0.000    1.000    0.000    2.250    0.000    4.500 
#
# Total GULP energy -356299.538064 kJ/mol
# GULP energy per Si atom -5567.180282 kJ/mol
# Density = 2.010847 g / cm^3
# Si number density = 20.154338 Si / 1000 Ang^3
#
#
#
# Elastic Constant Matrix: (Units=GPa)
#
#
# Indices 1 2 3 4 5 6 
#
# 1 75.7737 68.2097 6.1531 0.0000 0.0000 0.0000
# 2 68.2097 191.6478 4.8156 0.0000 0.0000 0.0000
# 3 6.1531 4.8156 13.5749 0.0000 0.0000 0.0000
# 4 0.0000 0.0000 0.0000 -3.8986 0.0000 0.0000
# 5 0.0000 0.0000 0.0000 0.0000 8.8090 0.0000
# 6 0.0000 0.0000 0.0000 0.0000 0.0000 -35.8071
#
#
#
# Elastic Compliance Matrix: (Units=1/GPa)
#
#
# Indices 1 2 3 4 5 6 
#
# 1 0.019987 -0.006948 -0.006595 0.000000 0.000000 0.000000
# 2 -0.006948 0.007680 0.000425 0.000000 0.000000 0.000000
# 3 -0.006595 0.000425 0.076504 0.000000 0.000000 0.000000
# 4 0.000000 0.000000 0.000000 -0.256505 0.000000 0.000000
# 5 0.000000 0.000000 0.000000 0.000000 0.113520 0.000000
# 6 0.000000 0.000000 0.000000 0.000000 0.000000 -0.027927
#
#
# Mechanical properties :
#
#
# Convention : Reuss Voigt Hill
#
# Bulk Modulus (GPa) = 12.83116 48.81702 30.82409
# Shear Modulus (GPa) = -344.19386 7.27520 -168.45933
#
# Velocity S-wave (km/s) = -13.08242 1.90199 -9.15238
# Velocity P-wave (km/s) = 14.89360 5.39422 9.81636
#
# Compressibility (1/GPa) = 0.07793531
#
# Stress axis : x y z
#
# Youngs Moduli (GPa) = 50.03236 130.20701 13.07122
#
# Poissons Ratio (x) = 0.90467 0.08620
# Poissons Ratio (y) = 0.34762 -0.00555
# Poissons Ratio (z) = 0.32995 -0.05531
#
# Static dielectric constant tensor:
#      x y z
#    x 1.689500 0.000000 0.000000 
#    y 0.000000 1.801790 0.000000 
#    z 0.000000 0.000000 1.710160 
# 
# From -- ./inp_files/28646.got.cif
#   From: 2010.05.17/outbox.cif.g08.bks.cpg/sg51_15_cif.got.tgz:28646.got - 2010.06.03 11:52:47.
