data_PCOD9400483
_publ_section_title
;
Structure prediction by ZEFSAII (Michael W. Deem and Ramdas Pophale) SiO2 
 PCOD9400483
Probable space group: P M M A
;
_chemical_formula_sum "Si O2"
_cell_formula_units_Z 48
_cell_length_a 8.597824
_cell_length_b 14.193474
_cell_length_c 24.557542
_cell_angle_alpha 90.000000
_cell_angle_beta 90.000000
_cell_angle_gamma 90.000000
_cell_volume 2996.830312
_symmetry_space_group_name_H-M "P M M A"
_symmetry_group_IT_number 51
_symmetry_cell_setting 'orthorhombic'
loop_
_space_group_symop_operation_xyz
x,y,z
1/2-x,-y,z
1/2+x,-y,-z
-x,y,-z
-x,-y,-z
1/2+x,y,-z
1/2-x,y,z
x,-y,z
loop_
_atom_site_type_symbol
_atom_site_label
_atom_site_fract_x
_atom_site_fract_y
_atom_site_fract_z
Si Si1 0.060875 0.894040 0.724788
Si Si2 0.438114 0.783348 0.833413
Si Si3 0.436462 0.607730 0.227753
Si Si4 0.436177 0.609486 0.440888
Si Si5 0.936727 0.708194 0.334784
Si Si6 0.562276 0.890897 0.059064
O O1 0.250000 0.896724 0.723917
O O2 0.017099 0.854462 0.784383
O O3 0.013083 0.814317 0.681578
O O4 0.004061 0.000000 0.715514
O O5 0.250000 0.777966 0.833250
O O6 0.503865 0.681911 0.816899
O O7 0.489437 0.825342 0.891111
O O8 0.250000 0.611988 0.230468
O O9 0.483342 0.500000 0.216963
O O10 0.503612 0.642187 0.285692
O O11 0.500000 0.637941 0.500000
O O12 0.250000 0.612964 0.441493
O O13 0.483806 0.500000 0.431875
O O14 0.499574 0.672126 0.391890
O O15 0.750000 0.705258 0.335174
O O16 0.750000 0.889338 0.057959
O O17 0.514591 0.000000 0.068543
O O18 0.500000 0.862079 0.000000
#
# Coordination Sequence:
#
# PCOD9400483 Si02
#       6
#     8   8   8   8   8   8
#     4   8  14  26  45  68  92 118 149 184 222 264
#     4   9  17  29  47  69  91 119 154 190 227 268
#     4  10  20  32  46  66  93 123 152 186 230 275
#     4  10  20  33  49  69  94 123 153 188 230 273
#     4  10  19  30  48  72  95 122 154 187 224 268
#     4   9  17  29  46  69  96 124 153 186 227 275
#
# _framework density 16.016922000000001
#
# number of rings (size 3 to 8) (size 9 to 14) (size 15 to 20)
#    0.000    2.667    0.000    3.500    0.000    7.000 
#    0.000    0.000    0.000   17.500    0.000    0.000 
#    0.000    0.000    0.000    0.000    0.000    0.000 
#
# Total GULP energy -267600.879298 kJ/mol
# GULP energy per Si atom -5575.018319 kJ/mol
# Density = 1.598047 g / cm^3
# Si number density = 16.016922 Si / 1000 Ang^3
#
#
#
# Elastic Constant Matrix: (Units=GPa)
#
#
# Indices 1 2 3 4 5 6 
#
# 1 25.5012 29.9142 32.8201 0.0000 0.0000 0.0000
# 2 29.9142 143.5056 98.0108 0.0000 0.0000 0.0000
# 3 32.8201 98.0108 158.0441 0.0000 0.0000 0.0000
# 4 0.0000 0.0000 0.0000 23.1921 0.0000 0.0000
# 5 0.0000 0.0000 0.0000 0.0000 28.4561 0.0000
# 6 0.0000 0.0000 0.0000 0.0000 0.0000 13.2975
#
#
#
# Elastic Compliance Matrix: (Units=1/GPa)
#
#
# Indices 1 2 3 4 5 6 
#
# 1 0.056881 -0.006574 -0.007735 0.000000 0.000000 0.000000
# 2 -0.006574 0.012848 -0.006603 0.000000 0.000000 0.000000
# 3 -0.007735 -0.006603 0.012028 0.000000 0.000000 0.000000
# 4 0.000000 0.000000 0.000000 0.043118 0.000000 0.000000
# 5 0.000000 0.000000 0.000000 0.000000 0.035142 0.000000
# 6 0.000000 0.000000 0.000000 0.000000 0.000000 0.075202
#
#
# Mechanical properties :
#
#
# Convention : Reuss Voigt Hill
#
# Bulk Modulus (GPa) = 25.04163 72.06013 48.55088
# Shear Modulus (GPa) = 17.22037 24.07619 20.64828
#
# Velocity S-wave (km/s) = 3.28248 3.88128 3.59437
# Velocity P-wave (km/s) = 5.48039 8.07301 6.89957
#
# Compressibility (1/GPa) = 0.03993350
#
# Stress axis : x y z
#
# Youngs Moduli (GPa) = 17.58066 77.83235 83.13744
#
# Poissons Ratio (x) = 0.51166 0.64309
# Poissons Ratio (y) = 0.11557 0.54892
# Poissons Ratio (z) = 0.13599 0.51389
#
# Static dielectric constant tensor:
#      x y z
#    x 1.546010 0.000000 0.000000 
#    y 0.000000 1.538170 0.000000 
#    z 0.000000 0.000000 1.512250 
# 
# From -- ./inp_files/31585.got.cif
#   From: 2010.05.17/outbox.cif.g08.bks.cpg/sg51_16_cif.got.tgz:31585.got - 2010.06.03 11:52:47.
