data_PCOD9400996
_publ_section_title
;
Structure prediction by ZEFSAII (Michael W. Deem and Ramdas Pophale) SiO2 
 PCOD9400996
Probable space group: P M M A
;
_chemical_formula_sum "Si O2"
_cell_formula_units_Z 44
_cell_length_a 9.167299
_cell_length_b 17.427942
_cell_length_c 15.657499
_cell_angle_alpha 90.000000
_cell_angle_beta 90.000000
_cell_angle_gamma 90.000000
_cell_volume 2501.554074
_symmetry_space_group_name_H-M "P M M A"
_symmetry_group_IT_number 51
_symmetry_cell_setting 'orthorhombic'
loop_
_space_group_symop_operation_xyz
x,y,z
1/2-x,-y,z
1/2+x,-y,-z
-x,y,-z
-x,-y,-z
1/2+x,y,-z
1/2-x,y,z
x,-y,z
loop_
_atom_site_type_symbol
_atom_site_label
_atom_site_fract_x
_atom_site_fract_y
_atom_site_fract_z
Si Si1 0.074758 0.704985 0.760178
Si Si2 0.416470 0.115011 0.415722
Si Si3 0.575065 0.000000 0.908080
Si Si4 0.072927 0.869688 0.227777
Si Si5 0.918600 0.698164 0.585496
Si Si6 0.575391 0.588478 0.088439
O O1 0.250000 0.711813 0.752604
O O2 0.038360 0.645218 0.834775
O O3 0.004447 0.787724 0.780619
O O4 0.006112 0.677574 0.670738
O O5 0.500000 0.089098 0.500000
O O6 0.250000 0.089877 0.422335
O O7 0.471066 0.095601 0.320528
O O8 0.418534 0.208382 0.416643
O O9 0.537766 0.073846 0.849873
O O10 0.750000 0.000000 0.919343
O O11 0.500000 0.000000 0.000000
O O12 0.250000 0.859728 0.231324
O O13 0.750000 0.673765 0.588310
O O14 0.000000 0.671655 0.500000
O O15 0.750000 0.590789 0.077308
O O16 0.533960 0.500000 0.107045
O O17 0.500000 0.611288 0.000000
#
# Coordination Sequence:
#
# PCOD9400996 Si02
#       6
#     8   8   4   8   8   8
#     4  10  19  31  51  78 104 131 166 208 250 296
#     4   8  14  25  43  67  94 123 153 188 232 281
#     4  10  22  40  57  70  92 130 171 212 258 302
#     4   9  19  35  52  71  98 132 168 205 248 299
#     4   9  16  27  45  71 103 136 169 205 245 291
#     4   9  19  35  53  74 101 132 165 204 253 306
#
# _framework density 17.589065000000002
#
# number of rings (size 3 to 8) (size 9 to 14) (size 15 to 20)
#    0.000    2.909    0.000    2.182    0.000    7.273 
#    0.000    4.091    0.000    0.545    0.000    0.000 
#    0.000    0.000    0.000    0.000    0.000    0.000 
#
# Total GULP energy -245274.954946 kJ/mol
# GULP energy per Si atom -5574.430794 kJ/mol
# Density = 1.754903 g / cm^3
# Si number density = 17.589065 Si / 1000 Ang^3
#
#
#
# Elastic Constant Matrix: (Units=GPa)
#
#
# Indices 1 2 3 4 5 6 
#
# 1 62.5622 41.3702 80.8634 0.0000 0.0000 0.0000
# 2 41.3702 62.4854 81.1807 0.0000 0.0000 0.0000
# 3 80.8634 81.1807 216.0530 0.0000 0.0000 0.0000
# 4 0.0000 0.0000 0.0000 2026.8927 0.0000 0.0000
# 5 0.0000 0.0000 0.0000 0.0000 38.2218 0.0000
# 6 0.0000 0.0000 0.0000 0.0000 0.0000 5.0876
#
#
#
# Elastic Compliance Matrix: (Units=1/GPa)
#
#
# Indices 1 2 3 4 5 6 
#
# 1 0.035059 -0.012043 -0.008597 0.000000 0.000000 0.000000
# 2 -0.012043 0.035404 -0.008795 0.000000 0.000000 0.000000
# 3 -0.008597 -0.008795 0.011151 0.000000 0.000000 0.000000
# 4 0.000000 0.000000 0.000000 0.000493 0.000000 0.000000
# 5 0.000000 0.000000 0.000000 0.000000 0.026163 0.000000
# 6 0.000000 0.000000 0.000000 0.000000 0.000000 0.196557
#
#
# Mechanical properties :
#
#
# Convention : Reuss Voigt Hill
#
# Bulk Modulus (GPa) = 43.96814 83.10323 63.53568
# Shear Modulus (GPa) = 13.46693 423.21950 218.34321
#
# Velocity S-wave (km/s) = 2.77003 15.52860 11.15371
# Velocity P-wave (km/s) = 5.93990 19.20589 14.21529
#
# Compressibility (1/GPa) = 0.02274374
#
# Stress axis : x y z
#
# Youngs Moduli (GPa) = 28.52312 28.24514 89.67904
#
# Poissons Ratio (x) = 0.34016 0.77094
# Poissons Ratio (y) = 0.34351 0.78877
# Poissons Ratio (z) = 0.24520 0.24843
#
# Static dielectric constant tensor:
#      x y z
#    x 1.600960 0.000000 0.000000 
#    y 0.000000 1.600220 0.000000 
#    z 0.000000 0.000000 1.595170 
# 
# From -- ./inp_files/20916.got.cif
#   From: 2010.05.17/outbox.cif.g08.bks.cpg/sg51_11_cif.got.tgz:20916.got - 2010.06.03 11:52:47.
