data_PCOD9400681
_publ_section_title
;
Structure prediction by ZEFSAII (Michael W. Deem and Ramdas Pophale) SiO2 
 PCOD9400681
Probable space group: P M M A
;
_chemical_formula_sum "Si O2"
_cell_formula_units_Z 52
_cell_length_a 9.144798
_cell_length_b 15.613594
_cell_length_c 23.230947
_cell_angle_alpha 90.000000
_cell_angle_beta 90.000000
_cell_angle_gamma 90.000000
_cell_volume 3316.988096
_symmetry_space_group_name_H-M "P M M A"
_symmetry_group_IT_number 51
_symmetry_cell_setting 'orthorhombic'
loop_
_space_group_symop_operation_xyz
x,y,z
1/2-x,-y,z
1/2+x,-y,-z
-x,y,-z
-x,-y,-z
1/2+x,y,-z
1/2-x,y,z
x,-y,z
loop_
_atom_site_type_symbol
_atom_site_label
_atom_site_fract_x
_atom_site_fract_y
_atom_site_fract_z
Si Si1 0.425451 0.500000 0.061236
Si Si2 0.919025 0.685488 0.900323
Si Si3 0.425396 0.097046 0.812327
Si Si4 0.080783 0.260843 0.232681
Si Si5 0.072414 0.399636 0.686114
Si Si6 0.424068 0.849604 0.942072
Si Si7 0.583327 0.396109 0.443485
O O1 0.250000 0.500000 0.056051
O O2 0.466554 0.412017 0.091841
O O3 0.500000 0.500000 0.000000
O O4 0.750000 0.696060 0.920418
O O5 0.921906 0.706086 0.833017
O O6 0.021498 0.751969 0.933386
O O7 0.250000 0.109672 0.809255
O O8 0.503373 0.168482 0.773523
O O9 0.464838 0.108094 0.880417
O O10 0.460178 0.000000 0.795081
O O11 0.250000 0.252900 0.250700
O O12 0.997907 0.330704 0.271384
O O13 0.250000 0.395449 0.688244
O O14 0.033246 0.500000 0.697940
O O15 0.025335 0.377510 0.620473
O O16 0.250000 0.855026 0.948451
O O17 0.500000 0.884025 0.000000
O O18 0.500000 0.365053 0.500000
O O19 0.750000 0.366073 0.446266
O O20 0.585439 0.500000 0.446078
#
# Coordination Sequence:
#
# PCOD9400681 Si02
#       7
#     4   8   8   8   8   8   8
#     4  10  20  32  44  58  78 106 143 184 221 266
#     4   9  19  33  46  60  83 114 146 184 230 271
#     4   9  19  36  54  69  89 119 151 185 232 289
#     4  10  20  32  49  71  94 120 153 196 240 277
#     4   9  18  31  46  67  98 135 169 199 230 271
#     4  10  19  31  48  68  89 110 139 177 224 281
#     4   8  14  25  41  62  91 127 165 201 234 265
#
# _framework density 15.676871999999999
#
# number of rings (size 3 to 8) (size 9 to 14) (size 15 to 20)
#    0.000    2.769    0.000    2.308    1.077    4.615 
#    0.000    1.538    0.000    0.000    0.000    0.000 
#    0.000    0.615    0.000    2.000    0.000    2.462 
#
# Total GULP energy -289631.764175 kJ/mol
# GULP energy per Si atom -5569.841619 kJ/mol
# Density = 1.564119 g / cm^3
# Si number density = 15.676872 Si / 1000 Ang^3
#
#
#
# Elastic Constant Matrix: (Units=GPa)
#
#
# Indices 1 2 3 4 5 6 
#
# 1 41.3743 34.9559 34.8275 0.0000 0.0000 0.0000
# 2 34.9559 102.1109 36.0585 0.0000 0.0000 0.0000
# 3 34.8275 36.0585 71.4657 0.0000 0.0000 0.0000
# 4 0.0000 0.0000 0.0000 8.3351 0.0000 0.0000
# 5 0.0000 0.0000 0.0000 0.0000 26.6514 0.0000
# 6 0.0000 0.0000 0.0000 0.0000 0.0000 17.6723
#
#
#
# Elastic Compliance Matrix: (Units=1/GPa)
#
#
# Indices 1 2 3 4 5 6 
#
# 1 0.048075 -0.009959 -0.018404 0.000000 0.000000 0.000000
# 2 -0.009959 0.013979 -0.002200 0.000000 0.000000 0.000000
# 3 -0.018404 -0.002200 0.024072 0.000000 0.000000 0.000000
# 4 0.000000 0.000000 0.000000 0.119975 0.000000 0.000000
# 5 0.000000 0.000000 0.000000 0.000000 0.037521 0.000000
# 6 0.000000 0.000000 0.000000 0.000000 0.000000 0.056586
#
#
# Mechanical properties :
#
#
# Convention : Reuss Voigt Hill
#
# Bulk Modulus (GPa) = 39.99888 47.40386 43.70137
# Shear Modulus (GPa) = 13.52568 17.80570 15.66569
#
# Velocity S-wave (km/s) = 2.94050 3.37381 3.16458
# Velocity P-wave (km/s) = 6.09087 6.74393 6.42570
#
# Compressibility (1/GPa) = 0.02500070
#
# Stress axis : x y z
#
# Youngs Moduli (GPa) = 20.80077 71.53361 41.54277
#
# Poissons Ratio (x) = 0.71239 0.76454
# Poissons Ratio (y) = 0.20715 0.09140
# Poissons Ratio (z) = 0.38281 0.15739
#
# Static dielectric constant tensor:
#      x y z
#    x 1.539870 0.000000 0.000000 
#    y 0.000000 1.494900 0.000000 
#    z 0.000000 0.000000 1.520600 
# 
# From -- ./inp_files/34683.got.cif
#   From: 2010.05.17/outbox.cif.g08.bks.cpg/sg51_18_cif.got.tgz:34683.got - 2010.06.03 11:52:47.
