data_PCOD9400036
_publ_section_title
;
Structure prediction by ZEFSAII (Michael W. Deem and Ramdas Pophale) SiO2 
 PCOD9400036
Probable space group: P M M A
;
_chemical_formula_sum "Si O2"
_cell_formula_units_Z 64
_cell_length_a 8.048788
_cell_length_b 14.334669
_cell_length_c 24.308547
_cell_angle_alpha 90.000000
_cell_angle_beta 90.000000
_cell_angle_gamma 90.000000
_cell_volume 2804.640222
_symmetry_space_group_name_H-M "P M M A"
_symmetry_group_IT_number 51
_symmetry_cell_setting 'orthorhombic'
loop_
_space_group_symop_operation_xyz
x,y,z
1/2-x,-y,z
1/2+x,-y,-z
-x,y,-z
-x,-y,-z
1/2+x,y,-z
1/2-x,y,z
x,-y,z
loop_
_atom_site_type_symbol
_atom_site_label
_atom_site_fract_x
_atom_site_fract_y
_atom_site_fract_z
Si Si1 0.559920 0.806682 0.063377
Si Si2 0.435993 0.358530 0.325986
Si Si3 0.949802 0.601057 0.936627
Si Si4 0.051582 0.694764 0.559517
Si Si5 0.951921 0.193644 0.180754
Si Si6 0.441600 0.400279 0.787269
Si Si7 0.561910 0.860739 0.702630
Si Si8 0.056124 0.901253 0.585792
O O1 0.750000 0.835815 0.061288
O O2 0.542341 0.696298 0.077563
O O3 0.487323 0.845354 0.121320
O O4 0.500000 0.820526 0.000000
O O5 0.250000 0.393933 0.317439
O O6 0.487003 0.365021 0.389186
O O7 0.553360 0.397384 0.278918
O O8 0.435855 0.248685 0.312293
O O9 0.750000 0.613127 0.931133
O O10 0.998026 0.500000 0.912855
O O11 0.000000 0.593619 0.000000
O O12 0.250000 0.698670 0.564194
O O13 0.984563 0.802200 0.565519
O O14 0.000000 0.659133 0.500000
O O15 0.750000 0.197344 0.179371
O O16 0.014484 0.301135 0.192038
O O17 0.000162 0.134533 0.234657
O O18 0.250000 0.401541 0.805587
O O19 0.522765 0.500000 0.801611
O O20 0.750000 0.895403 0.698965
O O21 0.456799 0.900625 0.652294
O O22 0.250000 0.901096 0.570441
O O23 0.980230 0.000000 0.566722
#
# Coordination Sequence:
#
# PCOD9400036 Si02
#       8
#     8   8   8   8   8   8   8   8
#     4  10  19  29  42  59  81 111 146 184 226 271
#     4   9  17  30  47  67  91 119 153 192 235 280
#     4   9  16  25  36  49  67  95 131 169 210 257
#     4  10  19  31  48  70  97 130 166 196 223 261
#     4   9  18  31  46  64  87 118 153 188 229 281
#     4   9  17  30  48  68  88 112 147 193 242 287
#     4   9  17  29  47  69  91 118 152 192 233 269
#     4   9  18  32  49  70  99 133 162 188 221 262
#
# _framework density 22.819324000000002
#
# number of rings (size 3 to 8) (size 9 to 14) (size 15 to 20)
#    0.000    2.750    0.000    2.625    0.000    6.500 
#    0.000    1.250    0.000    0.375    0.000    0.000 
#    0.000    0.500    0.000    1.625    0.000    2.000 
#
# Total GULP energy -356346.730646 kJ/mol
# GULP energy per Si atom -5567.917666 kJ/mol
# Density = 2.276739 g / cm^3
# Si number density = 22.819324 Si / 1000 Ang^3
#
#
#
# Elastic Constant Matrix: (Units=GPa)
#
#
# Indices 1 2 3 4 5 6 
#
# 1 37.9537 -5.0091 -0.0690 0.0000 0.0000 0.0000
# 2 -5.0091 24.6087 -10.2051 0.0000 0.0000 0.0000
# 3 -0.0690 -10.2051 182.4045 0.0000 0.0000 0.0000
# 4 0.0000 0.0000 0.0000 -14.8799 0.0000 0.0000
# 5 0.0000 0.0000 0.0000 0.0000 16.1649 0.0000
# 6 0.0000 0.0000 0.0000 0.0000 0.0000 -9.9816
#
#
#
# Elastic Compliance Matrix: (Units=1/GPa)
#
#
# Indices 1 2 3 4 5 6 
#
# 1 0.027094 0.005650 0.000326 0.000000 0.000000 0.000000
# 2 0.005650 0.042780 0.002396 0.000000 0.000000 0.000000
# 3 0.000326 0.002396 0.005616 0.000000 0.000000 0.000000
# 4 0.000000 0.000000 0.000000 -0.067205 0.000000 0.000000
# 5 0.000000 0.000000 0.000000 0.000000 0.061863 0.000000
# 6 0.000000 0.000000 0.000000 0.000000 0.000000 -0.100184
#
#
# Mechanical properties :
#
#
# Convention : Reuss Voigt Hill
#
# Bulk Modulus (GPa) = 10.84189 23.82229 17.33209
# Shear Modulus (GPa) = -311.81247 15.61065 -148.10091
#
# Velocity S-wave (km/s) = -11.70217 2.61836 -8.06489
# Velocity P-wave (km/s) = 13.33514 4.42756 8.89446
#
# Compressibility (1/GPa) = 0.09223484
#
# Stress axis : x y z
#
# Youngs Moduli (GPa) = 36.90822 23.37561 178.04776
#
# Poissons Ratio (x) = -0.13208 -0.05811
# Poissons Ratio (y) = -0.20854 -0.42652
# Poissons Ratio (z) = -0.01205 -0.05600
#
# Static dielectric constant tensor:
#      x y z
#    x 1.812180 0.000000 0.000000 
#    y 0.000000 1.942450 0.000000 
#    z 0.000000 0.000000 1.818990 
# 
# From -- ./inp_files/35147.got.cif
#   From: 2010.05.17/outbox.cif.g08.bks.cpg/sg51_18_cif.got.tgz:35147.got - 2010.06.03 11:52:47.
