data_PCOD9400157
_publ_section_title
;
Structure prediction by ZEFSAII (Michael W. Deem and Ramdas Pophale) SiO2 
 PCOD9400157
Probable space group: P M M A
;
_chemical_formula_sum "Si O2"
_cell_formula_units_Z 64
_cell_length_a 18.146210
_cell_length_b 11.225667
_cell_length_c 17.876370
_cell_angle_alpha 90.000000
_cell_angle_beta 90.000000
_cell_angle_gamma 90.000000
_cell_volume 3641.475754
_symmetry_space_group_name_H-M "P M M A"
_symmetry_group_IT_number 51
_symmetry_cell_setting 'orthorhombic'
loop_
_space_group_symop_operation_xyz
x,y,z
1/2-x,-y,z
1/2+x,-y,-z
-x,y,-z
-x,-y,-z
1/2+x,y,-z
1/2-x,y,z
x,-y,z
loop_
_atom_site_type_symbol
_atom_site_label
_atom_site_fract_x
_atom_site_fract_y
_atom_site_fract_z
Si Si1 0.035095 0.360551 0.670304
Si Si2 0.331653 0.359640 0.943434
Si Si3 0.129175 0.635909 0.115133
Si Si4 0.018185 0.768490 0.915493
Si Si5 0.372014 0.638031 0.392244
Si Si6 0.167733 0.355961 0.558832
Si Si7 0.830312 0.798047 0.746160
Si Si8 0.006165 0.127401 0.238100
O O1 0.042102 0.500000 0.697957
O O2 0.104830 0.329282 0.618833
O O3 0.024751 0.252412 0.728924
O O4 0.960038 0.359113 0.621579
O O5 0.250000 0.323776 0.917418
O O6 0.342008 0.500000 0.926667
O O7 0.399972 0.284896 0.913153
O O8 0.335009 0.348577 0.033713
O O9 0.137484 0.500000 0.139109
O O10 0.162029 0.719603 0.178511
O O11 0.043149 0.667588 0.102740
O O12 0.006740 0.863634 0.850652
O O13 0.000000 0.809619 0.000000
O O14 0.348668 0.500000 0.386533
O O15 0.352416 0.683649 0.474824
O O16 0.335955 0.713194 0.326192
O O17 0.250000 0.314876 0.579006
O O18 0.168903 0.500000 0.555498
O O19 0.750000 0.857121 0.746305
O O20 0.906232 0.870669 0.745835
O O21 0.976192 0.000000 0.266412
#
# Coordination Sequence:
#
# PCOD9400157 Si02
#       8
#     8   8   8   8   8   8   8   8
#     4   9  18  33  53  75 101 134 171 209 248 293
#     4   9  16  26  43  69 100 132 165 204 250 296
#     4   9  16  26  42  68 104 140 168 196 238 295
#     4   9  18  32  50  70  94 127 168 209 248 295
#     4   9  16  26  44  74 109 139 167 202 245 293
#     4   9  16  27  47  76 106 134 168 212 256 293
#     4  10  19  29  45  71 102 134 165 198 239 292
#     4  10  22  38  55  74  97 130 169 205 247 302
#
# _framework density 17.575292000000001
#
# number of rings (size 3 to 8) (size 9 to 14) (size 15 to 20)
#    0.000    2.750    0.000    1.875    0.000    9.000 
#    0.000    0.625    0.000    9.000    0.000    0.000 
#    0.000    0.000    0.000    0.000    0.000    0.000 
#
# Total GULP energy -356400.863186 kJ/mol
# GULP energy per Si atom -5568.763487 kJ/mol
# Density = 1.753529 g / cm^3
# Si number density = 17.575292 Si / 1000 Ang^3
#
#
#
# Elastic Constant Matrix: (Units=GPa)
#
#
# Indices 1 2 3 4 5 6 
#
# 1 118.2737 27.0540 37.2519 0.0000 0.0000 0.0000
# 2 27.0540 75.0172 35.7757 0.0000 0.0000 0.0000
# 3 37.2519 35.7757 67.7024 0.0000 0.0000 0.0000
# 4 0.0000 0.0000 0.0000 -10.3448 0.0000 0.0000
# 5 0.0000 0.0000 0.0000 0.0000 7.9312 0.0000
# 6 0.0000 0.0000 0.0000 0.0000 0.0000 -7.4832
#
#
#
# Elastic Compliance Matrix: (Units=1/GPa)
#
#
# Indices 1 2 3 4 5 6 
#
# 1 0.010330 -0.001357 -0.004967 0.000000 0.000000 0.000000
# 2 -0.001357 0.018000 -0.008765 0.000000 0.000000 0.000000
# 3 -0.004967 -0.008765 0.022135 0.000000 0.000000 0.000000
# 4 0.000000 0.000000 0.000000 -0.096667 0.000000 0.000000
# 5 0.000000 0.000000 0.000000 0.000000 0.126084 0.000000
# 6 0.000000 0.000000 0.000000 0.000000 0.000000 -0.133632
#
#
# Mechanical properties :
#
#
# Convention : Reuss Voigt Hill
#
# Bulk Modulus (GPa) = 49.29156 51.23963 50.26559
# Shear Modulus (GPa) = -297.42575 8.74807 -144.33884
#
# Velocity S-wave (km/s) = -13.02294 2.23345 -9.07217
# Velocity P-wave (km/s) = 14.07204 5.98905 9.00427
#
# Compressibility (1/GPa) = 0.02028745
#
# Stress axis : x y z
#
# Youngs Moduli (GPa) = 96.80878 55.55694 45.17709
#
# Poissons Ratio (x) = 0.07537 0.22439
# Poissons Ratio (y) = 0.13133 0.39598
# Poissons Ratio (z) = 0.48083 0.48696
#
# Static dielectric constant tensor:
#      x y z
#    x 1.624440 0.000000 0.000000 
#    y 0.000000 1.601230 0.000000 
#    z 0.000000 0.000000 1.595870 
# 
# From -- ./inp_files/30282.got.cif
#   From: 2010.05.17/outbox.cif.g08.bks.cpg/sg51_16_cif.got.tgz:30282.got - 2010.06.03 11:52:47.
