data_PCOD9400303
_publ_section_title
;
Structure prediction by ZEFSAII (Michael W. Deem and Ramdas Pophale) SiO2 
 PCOD9400303
Probable space group: P M M A
;
_chemical_formula_sum "Si O2"
_cell_formula_units_Z 48
_cell_length_a 9.025140
_cell_length_b 13.818207
_cell_length_c 24.375731
_cell_angle_alpha 90.000000
_cell_angle_beta 90.000000
_cell_angle_gamma 90.000000
_cell_volume 3039.927949
_symmetry_space_group_name_H-M "P M M A"
_symmetry_group_IT_number 51
_symmetry_cell_setting 'orthorhombic'
loop_
_space_group_symop_operation_xyz
x,y,z
1/2-x,-y,z
1/2+x,-y,-z
-x,y,-z
-x,-y,-z
1/2+x,y,-z
1/2-x,y,z
x,-y,z
loop_
_atom_site_type_symbol
_atom_site_label
_atom_site_fract_x
_atom_site_fract_y
_atom_site_fract_z
Si Si1 0.927736 0.110999 0.673669
Si Si2 0.573078 0.703116 0.276962
Si Si3 0.924594 0.383538 0.830415
Si Si4 0.926645 0.802860 0.556675
Si Si5 0.420977 0.617749 0.944048
Si Si6 0.428232 0.609590 0.382829
O O1 0.750000 0.126995 0.679239
O O2 0.964835 0.133083 0.609887
O O3 0.013635 0.189473 0.709526
O O4 0.960367 0.000000 0.687108
O O5 0.750000 0.699715 0.277765
O O6 0.509832 0.666012 0.219459
O O7 0.506820 0.636768 0.325836
O O8 0.750000 0.361821 0.827866
O O9 0.941582 0.500000 0.825496
O O10 0.991855 0.353971 0.889157
O O11 0.750000 0.806223 0.550161
O O12 0.969202 0.692819 0.573726
O O13 0.000000 0.832349 0.500000
O O14 0.250000 0.648614 0.942091
O O15 0.421765 0.500000 0.945088
O O16 0.500000 0.650254 0.000000
O O17 0.250000 0.616435 0.374527
O O18 0.463703 0.500000 0.399490
#
# Coordination Sequence:
#
# PCOD9400303 Si02
#       6
#     8   8   8   8   8   8
#     4   9  19  37  56  69  86 116 149 181 224 279
#     4  11  21  31  46  70  96 117 145 190 236 277
#     4  10  19  30  45  65  92 129 167 197 227 267
#     4   9  18  31  47  69  93 116 145 181 222 269
#     4   9  16  26  40  60  89 125 164 202 236 269
#     4   9  18  33  49  63  86 123 159 187 219 264
#
# _framework density 15.789847999999999
#
# number of rings (size 3 to 8) (size 9 to 14) (size 15 to 20)
#    0.000    2.500    0.000    4.000    0.000    9.000 
#    0.000    0.000    0.000    0.000    0.000    0.000 
#    0.000    0.667    0.000    2.500    0.000    3.833 
#
# Total GULP energy -267695.546322 kJ/mol
# GULP energy per Si atom -5576.990548 kJ/mol
# Density = 1.575391 g / cm^3
# Si number density = 15.789848 Si / 1000 Ang^3
#
#
#
# Elastic Constant Matrix: (Units=GPa)
#
#
# Indices 1 2 3 4 5 6 
#
# 1 62.6694 16.5468 33.9631 0.0000 0.0000 0.0000
# 2 16.5468 35.2782 -3.4027 0.0000 0.0000 0.0000
# 3 33.9631 -3.4027 82.7663 0.0000 0.0000 0.0000
# 4 0.0000 0.0000 0.0000 9.5144 0.0000 0.0000
# 5 0.0000 0.0000 0.0000 0.0000 30.8325 0.0000
# 6 0.0000 0.0000 0.0000 0.0000 0.0000 12.3863
#
#
#
# Elastic Compliance Matrix: (Units=1/GPa)
#
#
# Indices 1 2 3 4 5 6 
#
# 1 0.025272 -0.012905 -0.010901 0.000000 0.000000 0.000000
# 2 -0.012905 0.035049 0.006736 0.000000 0.000000 0.000000
# 3 -0.010901 0.006736 0.016832 0.000000 0.000000 0.000000
# 4 0.000000 0.000000 0.000000 0.105104 0.000000 0.000000
# 5 0.000000 0.000000 0.000000 0.000000 0.032433 0.000000
# 6 0.000000 0.000000 0.000000 0.000000 0.000000 0.080734
#
#
# Mechanical properties :
#
#
# Convention : Reuss Voigt Hill
#
# Bulk Modulus (GPa) = 23.24807 30.54760 26.89783
# Shear Modulus (GPa) = 14.53909 19.45374 16.99642
#
# Velocity S-wave (km/s) = 3.03774 3.51385 3.28443
# Velocity P-wave (km/s) = 5.20185 5.98759 5.60850
#
# Compressibility (1/GPa) = 0.04301433
#
# Stress axis : x y z
#
# Youngs Moduli (GPa) = 39.57008 28.53176 59.40966
#
# Poissons Ratio (x) = 0.36820 0.64761
# Poissons Ratio (y) = 0.51064 -0.40021
# Poissons Ratio (z) = 0.43134 -0.19220
#
# Static dielectric constant tensor:
#      x y z
#    x 1.525500 0.000000 0.000000 
#    y 0.000000 1.521120 0.000000 
#    z 0.000000 0.000000 1.508080 
# 
# From -- ./inp_files/31568.got.cif
#   From: 2010.05.17/outbox.cif.g08.bks.cpg/sg51_16_cif.got.tgz:31568.got - 2010.06.03 11:52:47.
