data_PCOD9400280
_publ_section_title
;
Structure prediction by ZEFSAII (Michael W. Deem and Ramdas Pophale) SiO2 
 PCOD9400280
Probable space group: P M M A
;
_chemical_formula_sum "Si O2"
_cell_formula_units_Z 48
_cell_length_a 8.366751
_cell_length_b 25.242626
_cell_length_c 13.967234
_cell_angle_alpha 90.000000
_cell_angle_beta 90.000000
_cell_angle_gamma 90.000000
_cell_volume 2949.862590
_symmetry_space_group_name_H-M "P M M A"
_symmetry_group_IT_number 51
_symmetry_cell_setting 'orthorhombic'
loop_
_space_group_symop_operation_xyz
x,y,z
1/2-x,-y,z
1/2+x,-y,-z
-x,y,-z
-x,-y,-z
1/2+x,y,-z
1/2-x,y,z
x,-y,z
loop_
_atom_site_type_symbol
_atom_site_label
_atom_site_fract_x
_atom_site_fract_y
_atom_site_fract_z
Si Si1 0.056843 0.056964 0.110307
Si Si2 0.556417 0.172504 0.890198
Si Si3 0.940546 0.335782 0.604032
Si Si4 0.056718 0.718919 0.202241
Si Si5 0.943203 0.440502 0.300030
Si Si6 0.440882 0.385766 0.895970
O O1 0.250000 0.056861 0.111976
O O2 0.004143 0.114502 0.148410
O O3 0.002929 0.000000 0.152264
O O4 0.000000 0.056916 0.000000
O O5 0.750000 0.173161 0.890394
O O6 0.500329 0.223341 0.830718
O O7 0.500000 0.177512 0.000000
O O8 0.750000 0.334569 0.604566
O O9 0.998954 0.299420 0.692413
O O10 0.000000 0.319488 0.500000
O O11 0.995616 0.395367 0.628928
O O12 0.250000 0.719229 0.202584
O O13 0.002209 0.673114 0.129400
O O14 0.750000 0.439826 0.302446
O O15 0.997817 0.500000 0.321536
O O16 0.993439 0.422756 0.192704
O O17 0.250000 0.384991 0.896512
O O18 0.500000 0.402719 0.000000
#
# Coordination Sequence:
#
# PCOD9400280 Si02
#       6
#     8   8   8   8   8   8
#     4   8  13  21  33  50  75 108 142 172 200 230
#     4   9  16  25  38  58  84 113 143 172 201 235
#     4  10  20  34  51  68  85 106 132 166 211 257
#     4   9  18  31  45  62  84 109 139 174 209 247
#     4   9  19  35  51  67  87 110 138 170 202 241
#     4  10  19  30  45  64  87 115 143 171 203 239
#
# _framework density 16.271944000000001
#
# number of rings (size 3 to 8) (size 9 to 14) (size 15 to 20)
#    0.000    2.833    0.000    1.500    0.000    4.333 
#    0.000    0.000    0.000    0.000    0.000    0.000 
#    0.000    0.667    0.000    0.500    0.000    1.333 
#
# Total GULP energy -267326.685202 kJ/mol
# GULP energy per Si atom -5569.305942 kJ/mol
# Density = 1.623491 g / cm^3
# Si number density = 16.271944 Si / 1000 Ang^3
#
#
#
# Elastic Constant Matrix: (Units=GPa)
#
#
# Indices 1 2 3 4 5 6 
#
# 1 6.8401 11.4877 6.8175 0.0000 0.0000 0.0000
# 2 11.4877 122.1881 18.5179 0.0000 0.0000 0.0000
# 3 6.8175 18.5179 57.6077 0.0000 0.0000 0.0000
# 4 0.0000 0.0000 0.0000 10.7890 0.0000 0.0000
# 5 0.0000 0.0000 0.0000 0.0000 21.5536 0.0000
# 6 0.0000 0.0000 0.0000 0.0000 0.0000 12.8909
#
#
#
# Elastic Compliance Matrix: (Units=1/GPa)
#
#
# Indices 1 2 3 4 5 6 
#
# 1 0.189042 -0.015119 -0.017512 0.000000 0.000000 0.000000
# 2 -0.015119 0.009812 -0.001365 0.000000 0.000000 0.000000
# 3 -0.017512 -0.001365 0.019870 0.000000 0.000000 0.000000
# 4 0.000000 0.000000 0.000000 0.092687 0.000000 0.000000
# 5 0.000000 0.000000 0.000000 0.000000 0.046396 0.000000
# 6 0.000000 0.000000 0.000000 0.000000 0.000000 0.077574
#
#
# Mechanical properties :
#
#
# Convention : Reuss Voigt Hill
#
# Bulk Modulus (GPa) = 6.63428 28.92025 17.77726
# Shear Modulus (GPa) = 9.03149 19.03421 14.03285
#
# Velocity S-wave (km/s) = 2.35847 3.42388 2.93984
# Velocity P-wave (km/s) = 3.39153 5.78293 4.74051
#
# Compressibility (1/GPa) = 0.15073223
#
# Stress axis : x y z
#
# Youngs Moduli (GPa) = 5.28983 101.91173 50.32715
#
# Poissons Ratio (x) = 1.54082 0.88133
# Poissons Ratio (y) = 0.07998 0.06869
# Poissons Ratio (z) = 0.09264 0.13910
#
# Static dielectric constant tensor:
#      x y z
#    x 1.554530 0.000000 0.000000 
#    y 0.000000 1.590080 0.000000 
#    z 0.000000 0.000000 1.527140 
# 
# From -- ./inp_files/14450.got.cif
#   From: 2010.05.17/outbox.cif.g08.bks.cpg/sg51_8_cif.got.tgz:14450.got - 2010.06.03 11:52:47.
