data_PCOD9400587
_publ_section_title
;
Structure prediction by ZEFSAII (Michael W. Deem and Ramdas Pophale) SiO2 
 PCOD9400587
Probable space group: P M M A
;
_chemical_formula_sum "Si O2"
_cell_formula_units_Z 56
_cell_length_a 8.273566
_cell_length_b 19.121489
_cell_length_c 19.826996
_cell_angle_alpha 90.000000
_cell_angle_beta 90.000000
_cell_angle_gamma 90.000000
_cell_volume 3136.688290
_symmetry_space_group_name_H-M "P M M A"
_symmetry_group_IT_number 51
_symmetry_cell_setting 'orthorhombic'
loop_
_space_group_symop_operation_xyz
x,y,z
1/2-x,-y,z
1/2+x,-y,-z
-x,y,-z
-x,-y,-z
1/2+x,y,-z
1/2-x,y,z
x,-y,z
loop_
_atom_site_type_symbol
_atom_site_label
_atom_site_fract_x
_atom_site_fract_y
_atom_site_fract_z
Si Si1 0.445987 0.290459 0.708574
Si Si2 0.055234 0.817189 0.072855
Si Si3 0.555414 0.848372 0.782695
Si Si4 0.443511 0.654501 0.073292
Si Si5 0.554440 0.921981 0.648025
Si Si6 0.944683 0.421218 0.207641
Si Si7 0.557384 0.784099 0.425246
O O1 0.250000 0.289079 0.710014
O O2 0.508016 0.228930 0.757330
O O3 0.501781 0.364860 0.737015
O O4 0.499939 0.268941 0.633426
O O5 0.250000 0.817107 0.073010
O O6 0.998122 0.856679 0.140366
O O7 0.001460 0.735776 0.078984
O O8 0.000000 0.843856 0.000000
O O9 0.750000 0.852965 0.783757
O O10 0.498675 0.900302 0.723628
O O11 0.250000 0.653930 0.076215
O O12 0.510338 0.609385 0.134647
O O13 0.500000 0.628867 0.000000
O O14 0.750000 0.921680 0.648069
O O15 0.498600 0.861183 0.597989
O O16 0.499108 0.000000 0.630614
O O17 0.750000 0.423402 0.211897
O O18 0.006626 0.500000 0.216512
O O19 0.500000 0.767401 0.500000
O O20 0.750000 0.783421 0.424620
#
# Coordination Sequence:
#
# PCOD9400587 Si02
#       7
#     8   8   8   8   8   8   8
#     4   9  18  32  50  71  94 120 156 195 233 279
#     4   9  17  27  42  65  90 119 156 199 242 279
#     4   9  16  29  48  69  93 122 159 199 238 278
#     4  10  19  31  46  66  93 126 162 201 244 289
#     4   9  18  32  51  75 102 131 159 189 229 278
#     4  10  20  33  49  69  94 125 159 198 244 290
#     4  10  20  34  53  77 101 128 157 189 228 273
#
# _framework density 17.853224000000001
#
# number of rings (size 3 to 8) (size 9 to 14) (size 15 to 20)
#    0.000    2.571    1.429    0.857    0.000    2.857 
#    0.000    0.000    0.000    0.857    0.000    0.000 
#    0.000    0.000    0.000    0.000    0.000    0.429 
#
# Total GULP energy -312171.370563 kJ/mol
# GULP energy per Si atom -5574.488760 kJ/mol
# Density = 1.781259 g / cm^3
# Si number density = 17.853224 Si / 1000 Ang^3
#
#
#
# Elastic Constant Matrix: (Units=GPa)
#
#
# Indices 1 2 3 4 5 6 
#
# 1 3.2900 5.9345 6.0377 0.0000 0.0000 0.0000
# 2 5.9345 49.6098 29.2789 0.0000 0.0000 0.0000
# 3 6.0377 29.2789 137.9882 0.0000 0.0000 0.0000
# 4 0.0000 0.0000 0.0000 14.5548 0.0000 0.0000
# 5 0.0000 0.0000 0.0000 0.0000 22.3826 0.0000
# 6 0.0000 0.0000 0.0000 0.0000 0.0000 11.4220
#
#
#
# Elastic Compliance Matrix: (Units=1/GPa)
#
#
# Indices 1 2 3 4 5 6 
#
# 1 0.395752 -0.042436 -0.008312 0.000000 0.000000 0.000000
# 2 -0.042436 0.027593 -0.003998 0.000000 0.000000 0.000000
# 3 -0.008312 -0.003998 0.008459 0.000000 0.000000 0.000000
# 4 0.000000 0.000000 0.000000 0.068706 0.000000 0.000000
# 5 0.000000 0.000000 0.000000 0.000000 0.044678 0.000000
# 6 0.000000 0.000000 0.000000 0.000000 0.000000 0.087550
#
#
# Mechanical properties :
#
#
# Convention : Reuss Voigt Hill
#
# Bulk Modulus (GPa) = 3.10258 30.37668 16.73963
# Shear Modulus (GPa) = 5.88466 19.64767 12.76617
#
# Velocity S-wave (km/s) = 1.81749 3.32099 2.67697
# Velocity P-wave (km/s) = 2.47911 5.63533 4.35333
#
# Compressibility (1/GPa) = 0.32231248
#
# Stress axis : x y z
#
# Youngs Moduli (GPa) = 2.52684 36.24077 118.21723
#
# Poissons Ratio (x) = 1.53791 0.98260
# Poissons Ratio (y) = 0.10723 0.47264
# Poissons Ratio (z) = 0.02100 0.14489
#
# Static dielectric constant tensor:
#      x y z
#    x 1.615800 0.000000 0.000000 
#    y 0.000000 1.606570 0.000000 
#    z 0.000000 0.000000 1.628750 
# 
# From -- ./inp_files/32259.got.cif
#   From: 2010.05.17/outbox.cif.g08.bks.cpg/sg51_17_cif.got.tgz:32259.got - 2010.06.03 11:52:47.
