data_PCOD9400376
_publ_section_title
;
Structure prediction by ZEFSAII (Michael W. Deem and Ramdas Pophale) SiO2 
 PCOD9400376
Probable space group: P M M A
;
_chemical_formula_sum "Si O2"
_cell_formula_units_Z 48
_cell_length_a 9.368977
_cell_length_b 13.832842
_cell_length_c 24.331746
_cell_angle_alpha 90.000000
_cell_angle_beta 90.000000
_cell_angle_gamma 90.000000
_cell_volume 3153.384027
_symmetry_space_group_name_H-M "P M M A"
_symmetry_group_IT_number 51
_symmetry_cell_setting 'orthorhombic'
loop_
_space_group_symop_operation_xyz
x,y,z
1/2-x,-y,z
1/2+x,-y,-z
-x,y,-z
-x,-y,-z
1/2+x,y,-z
1/2-x,y,z
x,-y,z
loop_
_atom_site_type_symbol
_atom_site_label
_atom_site_fract_x
_atom_site_fract_y
_atom_site_fract_z
Si Si1 0.419128 0.286558 0.223521
Si Si2 0.418936 0.387431 0.107067
Si Si3 0.418767 0.112300 0.829962
Si Si4 0.921426 0.615082 0.324079
Si Si5 0.418746 0.212161 0.946124
Si Si6 0.915033 0.617568 0.446744
O O1 0.250000 0.278487 0.232223
O O2 0.441764 0.356590 0.170649
O O3 0.487746 0.184521 0.206337
O O4 0.496778 0.329552 0.276471
O O5 0.250000 0.372756 0.095327
O O6 0.452843 0.500000 0.099039
O O7 0.513171 0.315292 0.070838
O O8 0.250000 0.127182 0.818350
O O9 0.440762 0.143229 0.893477
O O10 0.452736 0.000000 0.821974
O O11 0.750000 0.628836 0.319824
O O12 0.947857 0.500000 0.318787
O O13 0.966277 0.646048 0.385835
O O14 0.250000 0.221067 0.956001
O O15 0.500000 0.176406 0.000000
O O16 0.750000 0.645557 0.451825
O O17 0.919659 0.500000 0.446901
O O18 0.000000 0.651966 0.500000
#
# Coordination Sequence:
#
# PCOD9400376 Si02
#       6
#     8   8   8   8   8   8
#     4  10  19  30  46  69  93 115 145 186 227 266
#     4   9  18  32  47  63  87 118 148 179 215 254
#     4   9  19  36  54  69  87 113 143 176 219 271
#     4   9  17  28  42  62  91 127 161 189 220 261
#     4  10  20  33  49  69  90 112 141 176 214 259
#     4   8  14  24  37  55  82 118 158 194 224 254
#
# _framework density 15.221743
#
# number of rings (size 3 to 8) (size 9 to 14) (size 15 to 20)
#    0.000    2.833    0.000    2.500    0.000    4.333 
#    0.000    1.667    0.000    0.000    0.000    0.000 
#    0.000    0.667    0.000    2.167    0.000    2.667 
#
# Total GULP energy -267517.597249 kJ/mol
# GULP energy per Si atom -5573.283276 kJ/mol
# Density = 1.518710 g / cm^3
# Si number density = 15.221743 Si / 1000 Ang^3
#
#
#
# Elastic Constant Matrix: (Units=GPa)
#
#
# Indices 1 2 3 4 5 6 
#
# 1 58.4277 30.4272 59.1129 0.0000 0.0000 0.0000
# 2 30.4272 53.3391 22.6000 0.0000 0.0000 0.0000
# 3 59.1129 22.6000 105.7853 0.0000 0.0000 0.0000
# 4 0.0000 0.0000 0.0000 9.5087 0.0000 0.0000
# 5 0.0000 0.0000 0.0000 0.0000 31.6792 0.0000
# 6 0.0000 0.0000 0.0000 0.0000 0.0000 18.6873
#
#
#
# Elastic Compliance Matrix: (Units=1/GPa)
#
#
# Indices 1 2 3 4 5 6 
#
# 1 0.053007 -0.019448 -0.025466 0.000000 0.000000 0.000000
# 2 -0.019448 0.027749 0.004939 0.000000 0.000000 0.000000
# 3 -0.025466 0.004939 0.022628 0.000000 0.000000 0.000000
# 4 0.000000 0.000000 0.000000 0.105167 0.000000 0.000000
# 5 0.000000 0.000000 0.000000 0.000000 0.031566 0.000000
# 6 0.000000 0.000000 0.000000 0.000000 0.000000 0.053512
#
#
# Mechanical properties :
#
#
# Convention : Reuss Voigt Hill
#
# Bulk Modulus (GPa) = 42.66976 49.09248 45.88112
# Shear Modulus (GPa) = 13.10987 19.00251 16.05619
#
# Velocity S-wave (km/s) = 2.93791 3.53707 3.25132
# Velocity P-wave (km/s) = 6.29296 7.00020 6.65598
#
# Compressibility (1/GPa) = 0.02343580
#
# Stress axis : x y z
#
# Youngs Moduli (GPa) = 18.86527 36.03687 44.19278
#
# Poissons Ratio (x) = 0.70085 1.12540
# Poissons Ratio (y) = 0.36689 -0.21828
# Poissons Ratio (z) = 0.48042 -0.17799
#
# Static dielectric constant tensor:
#      x y z
#    x 1.504140 0.000000 0.000000 
#    y 0.000000 1.476080 0.000000 
#    z 0.000000 0.000000 1.509280 
# 
# From -- ./inp_files/34550.got.cif
#   From: 2010.05.17/outbox.cif.g08.bks.cpg/sg51_18_cif.got.tgz:34550.got - 2010.06.03 11:52:47.
