data_PCOD9400844
_publ_section_title
;
Structure prediction by ZEFSAII (Michael W. Deem and Ramdas Pophale) SiO2 
 PCOD9400844
Probable space group: P M M A
;
_chemical_formula_sum "Si O2"
_cell_formula_units_Z 64
_cell_length_a 24.348683
_cell_length_b 9.087803
_cell_length_c 16.716091
_cell_angle_alpha 90.000000
_cell_angle_beta 90.000000
_cell_angle_gamma 90.000000
_cell_volume 3698.870327
_symmetry_space_group_name_H-M "P M M A"
_symmetry_group_IT_number 51
_symmetry_cell_setting 'orthorhombic'
loop_
_space_group_symop_operation_xyz
x,y,z
1/2-x,-y,z
1/2+x,-y,-z
-x,y,-z
-x,-y,-z
1/2+x,y,-z
1/2-x,y,z
x,-y,z
loop_
_atom_site_type_symbol
_atom_site_label
_atom_site_fract_x
_atom_site_fract_y
_atom_site_fract_z
Si Si1 0.687347 0.823292 0.271635
Si Si2 0.185646 0.173362 0.380846
Si Si3 0.314648 0.322032 0.070571
Si Si4 0.080837 0.176128 0.633913
Si Si5 0.378375 0.825434 0.215464
Si Si6 0.089807 0.327437 0.467915
Si Si7 0.816570 0.668136 0.108028
Si Si8 0.976840 0.325777 0.696930
O O1 0.750000 0.771577 0.287852
O O2 0.641845 0.780684 0.336483
O O3 0.669276 0.764175 0.184790
O O4 0.688770 0.000000 0.269094
O O5 0.250000 0.205648 0.384527
O O6 0.162448 0.196512 0.291330
O O7 0.149410 0.271230 0.439778
O O8 0.177365 0.000000 0.400132
O O9 0.250000 0.283472 0.080735
O O10 0.318258 0.500000 0.075729
O O11 0.350776 0.246537 0.138205
O O12 0.333013 0.279725 0.980506
O O13 0.071894 0.236323 0.544842
O O14 0.035494 0.248115 0.691327
O O15 0.076021 0.000000 0.635408
O O16 0.435270 0.748519 0.240557
O O17 0.385891 0.000000 0.205234
O O18 0.089622 0.500000 0.487378
O O19 0.051182 0.305031 0.390654
O O20 0.750000 0.664783 0.104927
O O21 0.835464 0.500000 0.119394
O O22 0.981525 0.500000 0.711207
#
# Coordination Sequence:
#
# PCOD9400844 Si02
#       8
#     8   8   8   8   8   8   8   8
#     4   9  19  35  53  75 103 131 159 196 245 297
#     4   9  18  32  48  68  99 136 168 201 245 294
#     4   9  17  29  47  74 107 139 169 202 243 291
#     4  11  22  35  54  77  99 127 164 205 250 300
#     4  10  19  31  49  74 102 133 171 210 247 292
#     4  10  21  35  51  73  98 127 167 211 251 293
#     4   8  15  29  49  73 101 133 167 201 239 287
#     4  10  21  37  54  72  98 131 167 209 254 296
#
# _framework density 17.302579000000001
#
# number of rings (size 3 to 8) (size 9 to 14) (size 15 to 20)
#    0.000    2.500    0.000    3.000    0.000    6.500 
#    0.000    2.500    0.000    0.750    0.000    5.250 
#    0.000    0.000    0.000    0.000    0.000    0.000 
#
# Total GULP energy -356949.481713 kJ/mol
# GULP energy per Si atom -5577.335652 kJ/mol
# Density = 1.726320 g / cm^3
# Si number density = 17.302579 Si / 1000 Ang^3
#
#
#
# Elastic Constant Matrix: (Units=GPa)
#
#
# Indices 1 2 3 4 5 6 
#
# 1 68.0581 31.1753 5.5982 0.0000 0.0000 0.0000
# 2 31.1753 40.3865 22.4619 0.0000 0.0000 0.0000
# 3 5.5982 22.4619 37.0600 0.0000 0.0000 0.0000
# 4 0.0000 0.0000 0.0000 28.9288 0.0000 0.0000
# 5 0.0000 0.0000 0.0000 0.0000 13.8293 0.0000
# 6 0.0000 0.0000 0.0000 0.0000 0.0000 25.1446
#
#
#
# Elastic Compliance Matrix: (Units=1/GPa)
#
#
# Indices 1 2 3 4 5 6 
#
# 1 0.026054 -0.027036 0.012451 0.000000 0.000000 0.000000
# 2 -0.027036 0.065408 -0.035559 0.000000 0.000000 0.000000
# 3 0.012451 -0.035559 0.046655 0.000000 0.000000 0.000000
# 4 0.000000 0.000000 0.000000 0.034568 0.000000 0.000000
# 5 0.000000 0.000000 0.000000 0.000000 0.072310 0.000000
# 6 0.000000 0.000000 0.000000 0.000000 0.000000 0.039770
#
#
# Mechanical properties :
#
#
# Convention : Reuss Voigt Hill
#
# Bulk Modulus (GPa) = 26.43619 29.33060 27.88339
# Shear Modulus (GPa) = 12.57348 19.33182 15.95265
#
# Velocity S-wave (km/s) = 2.69863 3.34620 3.03971
# Velocity P-wave (km/s) = 5.00221 5.64958 5.33572
#
# Compressibility (1/GPa) = 0.03782694
#
# Stress axis : x y z
#
# Youngs Moduli (GPa) = 38.38242 15.28871 21.43402
#
# Poissons Ratio (x) = 0.41335 -0.26687
# Poissons Ratio (y) = 1.03772 0.76218
# Poissons Ratio (z) = -0.47790 0.54366
#
# Static dielectric constant tensor:
#      x y z
#    x 1.586910 0.000000 0.000000 
#    y 0.000000 1.577920 0.000000 
#    z 0.000000 0.000000 1.576100 
# 
# From -- ./inp_files/26169.got.cif
#   From: 2010.05.17/outbox.cif.g08.bks.cpg/sg51_14_cif.got.tgz:26169.got - 2010.06.03 11:52:47.
