data_PCOD9400455
_publ_section_title
;
Structure prediction by ZEFSAII (Michael W. Deem and Ramdas Pophale) SiO2 
 PCOD9400455
Probable space group: P M M A
;
_chemical_formula_sum "Si O2"
_cell_formula_units_Z 48
_cell_length_a 8.674859
_cell_length_b 32.369693
_cell_length_c 9.774285
_cell_angle_alpha 90.000000
_cell_angle_beta 90.000000
_cell_angle_gamma 90.000000
_cell_volume 2744.643885
_symmetry_space_group_name_H-M "P M M A"
_symmetry_group_IT_number 51
_symmetry_cell_setting 'orthorhombic'
loop_
_space_group_symop_operation_xyz
x,y,z
1/2-x,-y,z
1/2+x,-y,-z
-x,y,-z
-x,-y,-z
1/2+x,y,-z
1/2-x,y,z
x,-y,z
loop_
_atom_site_type_symbol
_atom_site_label
_atom_site_fract_x
_atom_site_fract_y
_atom_site_fract_z
Si Si1 0.564924 0.621176 0.653746
Si Si2 0.065065 0.203305 0.654950
Si Si3 0.565392 0.047645 0.152064
Si Si4 0.935982 0.546624 0.848403
Si Si5 0.934817 0.293529 0.345024
Si Si6 0.433669 0.882067 0.346078
O O1 0.500000 0.617353 0.500000
O O2 0.750000 0.622388 0.647182
O O3 0.514487 0.582208 0.744208
O O4 0.505192 0.664658 0.715369
O O5 0.250000 0.199543 0.650278
O O6 0.026506 0.248422 0.716768
O O7 0.000000 0.204390 0.500000
O O8 0.993964 0.161585 0.715149
O O9 0.750000 0.052222 0.150781
O O10 0.492303 0.080014 0.255992
O O11 0.529153 0.000000 0.189630
O O12 0.500000 0.054610 0.000000
O O13 0.750000 0.547465 0.853996
O O14 0.983004 0.500000 0.806850
O O15 0.000000 0.554103 0.000000
O O16 0.750000 0.297063 0.350161
O O17 0.000000 0.292619 0.500000
O O18 0.500000 0.885712 0.500000
O O19 0.250000 0.881226 0.352897
#
# Coordination Sequence:
#
# PCOD9400455 Si02
#       6
#     8   8   8   8   8   8
#     4  10  19  30  47  72 100 127 158 199 242 287
#     4   9  16  27  44  68  98 130 164 202 244 292
#     4  10  21  38  58  78 102 134 171 209 251 303
#     4   9  19  35  52  70  93 124 162 200 240 289
#     4   9  16  26  43  67  96 129 162 198 240 288
#     4  11  21  33  52  78 107 137 170 211 255 297
#
# _framework density 17.488607999999999
#
# number of rings (size 3 to 8) (size 9 to 14) (size 15 to 20)
#    0.000    2.333    0.000    5.500    0.000    5.000 
#    0.000    0.000    0.000    1.000    0.000    2.333 
#    0.000    0.000    0.000    0.000    0.000    0.000 
#
# Total GULP energy -267525.529556 kJ/mol
# GULP energy per Si atom -5573.448532 kJ/mol
# Density = 1.744880 g / cm^3
# Si number density = 17.488608 Si / 1000 Ang^3
#
#
#
# Elastic Constant Matrix: (Units=GPa)
#
#
# Indices 1 2 3 4 5 6 
#
# 1 83.1205 69.6766 28.3821 0.0000 0.0000 0.0000
# 2 69.6766 202.9786 77.9425 0.0000 0.0000 0.0000
# 3 28.3821 77.9425 45.1934 0.0000 0.0000 0.0000
# 4 0.0000 0.0000 0.0000 -8.8160 0.0000 0.0000
# 5 0.0000 0.0000 0.0000 0.0000 22.4588 0.0000
# 6 0.0000 0.0000 0.0000 0.0000 0.0000 49.4951
#
#
#
# Elastic Compliance Matrix: (Units=1/GPa)
#
#
# Indices 1 2 3 4 5 6 
#
# 1 0.016941 -0.005122 -0.001805 0.000000 0.000000 0.000000
# 2 -0.005122 0.016135 -0.024611 0.000000 0.000000 0.000000
# 3 -0.001805 -0.024611 0.065706 0.000000 0.000000 0.000000
# 4 0.000000 0.000000 0.000000 -0.113431 0.000000 0.000000
# 5 0.000000 0.000000 0.000000 0.000000 0.044526 0.000000
# 6 0.000000 0.000000 0.000000 0.000000 0.000000 0.020204
#
#
# Mechanical properties :
#
#
# Convention : Reuss Voigt Hill
#
# Bulk Modulus (GPa) = 28.00696 75.92167 51.96431
# Shear Modulus (GPa) = 39.98072 22.98035 31.48054
#
# Velocity S-wave (km/s) = 4.78651 3.62887 4.24731
# Velocity P-wave (km/s) = 6.82618 7.81438 7.33694
#
# Compressibility (1/GPa) = 0.03570541
#
# Stress axis : x y z
#
# Youngs Moduli (GPa) = 59.02921 61.97578 15.21927
#
# Poissons Ratio (x) = 0.31744 0.02748
# Poissons Ratio (y) = 0.30235 0.37456
# Poissons Ratio (z) = 0.10657 1.52529
#
# Static dielectric constant tensor:
#      x y z
#    x 1.583190 0.000000 0.000000 
#    y 0.000000 1.654820 0.000000 
#    z 0.000000 0.000000 1.553850 
# 
# From -- ./inp_files/6022.got.cif
#   From: 2010.05.17/outbox.cif.g08.bks.cpg/sg51_4_cif.got.tgz:6022.got - 2010.06.03 11:52:47.
