data_PCOD9400478
_publ_section_title
;
Structure prediction by ZEFSAII (Michael W. Deem and Ramdas Pophale) SiO2 
 PCOD9400478
Probable space group: P M M A
;
_chemical_formula_sum "Si O2"
_cell_formula_units_Z 64
_cell_length_a 14.399988
_cell_length_b 7.640309
_cell_length_c 30.333329
_cell_angle_alpha 90.000000
_cell_angle_beta 90.000000
_cell_angle_gamma 90.000000
_cell_volume 3337.283713
_symmetry_space_group_name_H-M "P M M A"
_symmetry_group_IT_number 51
_symmetry_cell_setting 'orthorhombic'
loop_
_space_group_symop_operation_xyz
x,y,z
1/2-x,-y,z
1/2+x,-y,-z
-x,y,-z
-x,-y,-z
1/2+x,y,-z
1/2-x,y,z
x,-y,z
loop_
_atom_site_type_symbol
_atom_site_label
_atom_site_fract_x
_atom_site_fract_y
_atom_site_fract_z
Si Si1 0.356355 0.790917 0.424085
Si Si2 0.857667 0.786550 0.746998
Si Si3 0.536488 0.208146 0.661611
Si Si4 0.536557 0.709169 0.932871
Si Si5 0.144865 0.790059 0.154351
Si Si6 0.643845 0.711133 0.383712
Si Si7 0.359240 0.290404 0.519917
Si Si8 0.354715 0.714213 0.980675
O O1 0.250000 0.722605 0.423637
O O2 0.411858 0.720292 0.382079
O O3 0.399598 0.758779 0.472459
O O4 0.351250 0.000000 0.419693
O O5 0.750000 0.740473 0.738576
O O6 0.921676 0.722440 0.707163
O O7 0.881801 0.727262 0.796568
O O8 0.861840 0.000000 0.747357
O O9 0.427945 0.235788 0.653546
O O10 0.553297 0.000000 0.662109
O O11 0.533833 0.500000 0.937012
O O12 0.574943 0.748685 0.884792
O O13 0.433391 0.771516 0.945866
O O14 0.607203 0.770024 0.971238
O O15 0.250000 0.725943 0.144462
O O16 0.150063 0.000000 0.156862
O O17 0.750000 0.770270 0.377444
O O18 0.645661 0.500000 0.385177
O O19 0.608922 0.774954 0.432121
O O20 0.250000 0.238075 0.518109
O O21 0.363582 0.500000 0.521385
O O22 0.250000 0.774493 0.972718
O O23 0.352720 0.500000 0.980390
#
# Coordination Sequence:
#
# PCOD9400478 Si02
#       8
#     8   8   8   8   8   8   8   8
#     4   9  17  28  43  66  94 117 137 170 216 259
#     4   8  15  30  50  69  91 119 146 172 213 273
#     4  10  19  30  48  71  89 110 144 182 217 257
#     4   9  16  26  44  68  90 118 157 195 226 258
#     4   9  17  29  46  67  91 120 150 181 221 266
#     4   9  19  35  50  63  84 115 147 179 217 259
#     4   8  15  29  46  61  81 114 150 175 202 252
#     4   8  14  25  41  63  93 126 156 186 224 270
#
# _framework density 19.177271999999999
#
# number of rings (size 3 to 8) (size 9 to 14) (size 15 to 20)
#    0.000    3.250    0.000    3.000    0.000    4.000 
#    0.000    5.625    0.000    3.750    0.000    3.500 
#    0.000    0.000    0.000    0.000    0.000    0.000 
#
# Total GULP energy -356719.300282 kJ/mol
# GULP energy per Si atom -5573.739067 kJ/mol
# Density = 1.913362 g / cm^3
# Si number density = 19.177272 Si / 1000 Ang^3
#
#
#
# Elastic Constant Matrix: (Units=GPa)
#
#
# Indices 1 2 3 4 5 6 
#
# 1 127.1295 0.4982 107.1588 0.0000 0.0000 0.0000
# 2 0.4982 30.5771 6.2045 0.0000 0.0000 0.0000
# 3 107.1588 6.2045 175.5803 0.0000 0.0000 0.0000
# 4 0.0000 0.0000 0.0000 20.8291 0.0000 0.0000
# 5 0.0000 0.0000 0.0000 0.0000 32.9443 0.0000
# 6 0.0000 0.0000 0.0000 0.0000 0.0000 8.0879
#
#
#
# Elastic Compliance Matrix: (Units=1/GPa)
#
#
# Indices 1 2 3 4 5 6 
#
# 1 0.016294 0.001765 -0.010007 0.000000 0.000000 0.000000
# 2 0.001765 0.033132 -0.002248 0.000000 0.000000 0.000000
# 3 -0.010007 -0.002248 0.011882 0.000000 0.000000 0.000000
# 4 0.000000 0.000000 0.000000 0.048010 0.000000 0.000000
# 5 0.000000 0.000000 0.000000 0.000000 0.030354 0.000000
# 6 0.000000 0.000000 0.000000 0.000000 0.000000 0.123642
#
#
# Mechanical properties :
#
#
# Convention : Reuss Voigt Hill
#
# Bulk Modulus (GPa) = 24.79654 62.33443 43.56549
# Shear Modulus (GPa) = 16.79342 27.00061 21.89701
#
# Velocity S-wave (km/s) = 2.96242 3.75633 3.38275
# Velocity P-wave (km/s) = 4.96583 7.16856 6.16635
#
# Compressibility (1/GPa) = 0.04032820
#
# Stress axis : x y z
#
# Youngs Moduli (GPa) = 61.37293 30.18263 84.16060
#
# Poissons Ratio (x) = -0.05327 0.84217
# Poissons Ratio (y) = -0.10833 0.18919
# Poissons Ratio (z) = 0.61414 0.06785
#
# Static dielectric constant tensor:
#      x y z
#    x 1.690290 0.000000 0.000000 
#    y 0.000000 1.720600 0.000000 
#    z 0.000000 0.000000 1.676610 
# 
# From -- ./inp_files/37824.got.cif
#   From: 2010.05.17/outbox.cif.g08.bks.cpg/sg51_19_cif.got.tgz:37824.got - 2010.06.03 11:52:47.
