data_PCOD9400506
_publ_section_title
;
Structure prediction by ZEFSAII (Michael W. Deem and Ramdas Pophale) SiO2 
 PCOD9400506
Probable space group: P M M A
;
_chemical_formula_sum "Si O2"
_cell_formula_units_Z 64
_cell_length_a 8.953675
_cell_length_b 25.265006
_cell_length_c 15.743871
_cell_angle_alpha 90.000000
_cell_angle_beta 90.000000
_cell_angle_gamma 90.000000
_cell_volume 3561.494309
_symmetry_space_group_name_H-M "P M M A"
_symmetry_group_IT_number 51
_symmetry_cell_setting 'orthorhombic'
loop_
_space_group_symop_operation_xyz
x,y,z
1/2-x,-y,z
1/2+x,-y,-z
-x,y,-z
-x,-y,-z
1/2+x,y,-z
1/2-x,y,z
x,-y,z
loop_
_atom_site_type_symbol
_atom_site_label
_atom_site_fract_x
_atom_site_fract_y
_atom_site_fract_z
Si Si1 0.070156 0.561657 0.589924
Si Si2 0.431885 0.940965 0.270833
Si Si3 0.927130 0.095088 0.914018
Si Si4 0.424828 0.211709 0.146363
Si Si5 0.570083 0.644778 0.267314
Si Si6 0.426368 0.237320 0.679834
Si Si7 0.571351 0.144124 0.588574
Si Si8 0.926160 0.669339 0.911582
O O1 0.250000 0.565082 0.583155
O O2 0.029954 0.500000 0.603431
O O3 0.024184 0.597851 0.669405
O O4 0.000000 0.578653 0.500000
O O5 0.250000 0.939166 0.268981
O O6 0.482085 0.929478 0.174620
O O7 0.478349 0.895812 0.336616
O O8 0.476723 0.000000 0.297099
O O9 0.750000 0.086216 0.918827
O O10 0.952539 0.158351 0.905173
O O11 0.000000 0.074927 0.000000
O O12 0.250000 0.209807 0.174460
O O13 0.529142 0.213755 0.228443
O O14 0.446657 0.266880 0.097649
O O15 0.750000 0.643387 0.256739
O O16 0.532736 0.700838 0.312218
O O17 0.497136 0.644991 0.173995
O O18 0.250000 0.232992 0.664700
O O19 0.515085 0.202714 0.612201
O O20 0.500000 0.127458 0.500000
O O21 0.750000 0.143353 0.583762
O O22 0.750000 0.658818 0.913149
O O23 0.000000 0.652050 0.000000
#
# Coordination Sequence:
#
# PCOD9400506 Si02
#       8
#     8   8   8   8   8   8   8   8
#     4   9  18  34  56  80 107 140 178 222 269 315
#     4   9  19  37  58  75  98 134 170 210 261 313
#     4  10  19  32  51  76 103 133 168 205 251 304
#     4   9  17  31  49  72 102 139 175 208 253 306
#     4   9  19  34  52  78 111 144 180 219 261 312
#     4  10  19  32  52  78 108 139 171 208 255 306
#     4  11  22  38  58  79 104 133 170 212 260 317
#     4  10  19  30  48  74 108 145 183 221 264 312
#
# _framework density 17.969984
#
# number of rings (size 3 to 8) (size 9 to 14) (size 15 to 20)
#    0.000    2.375    1.250    1.500    0.000    3.000 
#    0.000    1.250    0.000    3.000    0.000    0.000 
#    0.000    0.000    0.000    0.000    0.000    0.000 
#
# Total GULP energy -356972.172633 kJ/mol
# GULP energy per Si atom -5577.690197 kJ/mol
# Density = 1.792908 g / cm^3
# Si number density = 17.969984 Si / 1000 Ang^3
#
#
#
# Elastic Constant Matrix: (Units=GPa)
#
#
# Indices 1 2 3 4 5 6 
#
# 1 26.3144 30.5224 43.5471 0.0000 0.0000 0.0000
# 2 30.5224 72.4390 62.9524 0.0000 0.0000 0.0000
# 3 43.5471 62.9524 134.8991 0.0000 0.0000 0.0000
# 4 0.0000 0.0000 0.0000 7.0609 0.0000 0.0000
# 5 0.0000 0.0000 0.0000 0.0000 35.2930 0.0000
# 6 0.0000 0.0000 0.0000 0.0000 0.0000 13.1405
#
#
#
# Elastic Compliance Matrix: (Units=1/GPa)
#
#
# Indices 1 2 3 4 5 6 
#
# 1 0.101621 -0.024072 -0.021571 0.000000 0.000000 0.000000
# 2 -0.024072 0.028925 -0.005727 0.000000 0.000000 0.000000
# 3 -0.021571 -0.005727 0.017049 0.000000 0.000000 0.000000
# 4 0.000000 0.000000 0.000000 0.141625 0.000000 0.000000
# 5 0.000000 0.000000 0.000000 0.000000 0.028334 0.000000
# 6 0.000000 0.000000 0.000000 0.000000 0.000000 0.076101
#
#
# Mechanical properties :
#
#
# Convention : Reuss Voigt Hill
#
# Bulk Modulus (GPa) = 22.29465 56.41072 39.35269
# Shear Modulus (GPa) = 9.77808 17.54090 13.65949
#
# Velocity S-wave (km/s) = 2.33520 3.12769 2.76003
# Velocity P-wave (km/s) = 4.43897 6.67106 5.66601
#
# Compressibility (1/GPa) = 0.04485380
#
# Stress axis : x y z
#
# Youngs Moduli (GPa) = 9.84048 34.57208 58.65431
#
# Poissons Ratio (x) = 0.83224 1.26522
# Poissons Ratio (y) = 0.23688 0.33593
# Poissons Ratio (z) = 0.21227 0.19801
#
# Static dielectric constant tensor:
#      x y z
#    x 1.605900 0.000000 0.000000 
#    y 0.000000 1.619480 0.000000 
#    z 0.000000 0.000000 1.608280 
# 
# From -- ./inp_files/22207.got.cif
#   From: 2010.05.17/outbox.cif.g08.bks.cpg/sg51_12_cif.got.tgz:22207.got - 2010.06.03 11:52:47.
