data_PCOD9400577
_publ_section_title
;
Structure prediction by ZEFSAII (Michael W. Deem and Ramdas Pophale) SiO2 
 PCOD9400577
Probable space group: P M M A
;
_chemical_formula_sum "Si O2"
_cell_formula_units_Z 56
_cell_length_a 14.228595
_cell_length_b 15.872390
_cell_length_c 14.323719
_cell_angle_alpha 90.000000
_cell_angle_beta 90.000000
_cell_angle_gamma 90.000000
_cell_volume 3234.894610
_symmetry_space_group_name_H-M "P M M A"
_symmetry_group_IT_number 51
_symmetry_cell_setting 'orthorhombic'
loop_
_space_group_symop_operation_xyz
x,y,z
1/2-x,-y,z
1/2+x,-y,-z
-x,y,-z
-x,-y,-z
1/2+x,y,-z
1/2-x,y,z
x,-y,z
loop_
_atom_site_type_symbol
_atom_site_label
_atom_site_fract_x
_atom_site_fract_y
_atom_site_fract_z
Si Si1 0.142007 0.897868 0.156444
Si Si2 0.635378 0.096829 0.045386
Si Si3 0.536212 0.902121 0.651464
Si Si4 0.645642 0.674741 0.347646
Si Si5 0.142200 0.846712 0.750238
Si Si6 0.035837 0.592041 0.392604
Si Si7 0.359226 0.245971 0.445436
O O1 0.250000 0.869825 0.167533
O O2 0.086054 0.878715 0.249957
O O3 0.143001 0.000000 0.149318
O O4 0.104010 0.868400 0.055433
O O5 0.750000 0.096896 0.039638
O O6 0.611059 0.138401 0.143430
O O7 0.604103 0.000000 0.053657
O O8 0.426842 0.890717 0.676580
O O9 0.577804 0.834990 0.578803
O O10 0.556008 0.000000 0.628094
O O11 0.750000 0.636141 0.349185
O O12 0.641105 0.747901 0.271685
O O13 0.559640 0.611622 0.337137
O O14 0.633840 0.724094 0.446804
O O15 0.250000 0.876947 0.740384
O O16 0.076289 0.500000 0.370114
O O17 0.000000 0.588744 0.500000
O O18 0.103704 0.672670 0.387840
O O19 0.250000 0.227903 0.425945
#
# Coordination Sequence:
#
# PCOD9400577 Si02
#       7
#     8   8   8   8   8   8   8
#     4   8  15  28  44  63  88 117 154 199 240 276
#     4   8  14  26  43  62  87 118 153 198 242 276
#     4  11  21  31  47  67  91 130 170 200 232 274
#     4   9  18  33  51  69  97 128 153 191 236 277
#     4  10  19  31  46  64  90 124 161 198 239 282
#     4   9  17  31  53  76  96 119 151 190 237 290
#     4  10  20  34  50  69  98 128 158 198 236 273
#
# _framework density 17.311229999999998
#
# number of rings (size 3 to 8) (size 9 to 14) (size 15 to 20)
#    0.000    2.714    1.429    1.714    0.000    2.857 
#    0.000    7.143    0.000    5.143    0.000    0.000 
#    0.000    2.286    0.000    7.286    0.000    0.286 
#
# Total GULP energy -312033.782693 kJ/mol
# GULP energy per Si atom -5572.031834 kJ/mol
# Density = 1.727183 g / cm^3
# Si number density = 17.311230 Si / 1000 Ang^3
#
#
#
# Elastic Constant Matrix: (Units=GPa)
#
#
# Indices 1 2 3 4 5 6 
#
# 1 72.3869 22.8111 18.0440 0.0000 0.0000 0.0000
# 2 22.8111 65.9888 10.9958 0.0000 0.0000 0.0000
# 3 18.0440 10.9958 33.9587 0.0000 0.0000 0.0000
# 4 0.0000 0.0000 0.0000 -2.4516 0.0000 0.0000
# 5 0.0000 0.0000 0.0000 0.0000 22.5204 0.0000
# 6 0.0000 0.0000 0.0000 0.0000 0.0000 12.1983
#
#
#
# Elastic Compliance Matrix: (Units=1/GPa)
#
#
# Indices 1 2 3 4 5 6 
#
# 1 0.017186 -0.004671 -0.007619 0.000000 0.000000 0.000000
# 2 -0.004671 0.017288 -0.003116 0.000000 0.000000 0.000000
# 3 -0.007619 -0.003116 0.034505 0.000000 0.000000 0.000000
# 4 0.000000 0.000000 0.000000 -0.407900 0.000000 0.000000
# 5 0.000000 0.000000 0.000000 0.000000 0.044404 0.000000
# 6 0.000000 0.000000 0.000000 0.000000 0.000000 0.081979
#
#
# Mechanical properties :
#
#
# Convention : Reuss Voigt Hill
#
# Bulk Modulus (GPa) = 26.20106 30.67069 28.43587
# Shear Modulus (GPa) = -29.58526 14.48566 -7.54980
#
# Velocity S-wave (km/s) = -4.13852 2.89585 -2.09062
# Velocity P-wave (km/s) = 2.76916 5.37931 3.26103
#
# Compressibility (1/GPa) = 0.03816639
#
# Stress axis : x y z
#
# Youngs Moduli (GPa) = 58.18707 57.84349 28.98140
#
# Poissons Ratio (x) = 0.27020 0.22082
# Poissons Ratio (y) = 0.27181 0.09030
# Poissons Ratio (z) = 0.44334 0.18023
#
# Static dielectric constant tensor:
#      x y z
#    x 1.665820 0.000000 0.000000 
#    y 0.000000 1.578280 0.000000 
#    z 0.000000 0.000000 1.620550 
# 
# From -- ./inp_files/24260.got.cif
#   From: 2010.05.17/outbox.cif.g08.bks.cpg/sg51_13_cif.got.tgz:24260.got - 2010.06.03 11:52:47.
