data_PCOD9400193
_publ_section_title
;
Structure prediction by ZEFSAII (Michael W. Deem and Ramdas Pophale) SiO2 
 PCOD9400193
Probable space group: P M M A
;
_chemical_formula_sum "Si O2"
_cell_formula_units_Z 56
_cell_length_a 9.068650
_cell_length_b 15.940343
_cell_length_c 30.715441
_cell_angle_alpha 90.000000
_cell_angle_beta 90.000000
_cell_angle_gamma 90.000000
_cell_volume 4440.144031
_symmetry_space_group_name_H-M "P M M A"
_symmetry_group_IT_number 51
_symmetry_cell_setting 'orthorhombic'
loop_
_space_group_symop_operation_xyz
x,y,z
1/2-x,-y,z
1/2+x,-y,-z
-x,y,-z
-x,-y,-z
1/2+x,y,-z
1/2-x,y,z
x,-y,z
loop_
_atom_site_type_symbol
_atom_site_label
_atom_site_fract_x
_atom_site_fract_y
_atom_site_fract_z
Si Si1 0.427434 0.665637 0.102379
Si Si2 0.420306 0.602265 0.633045
Si Si3 0.571982 0.185329 0.048290
Si Si4 0.425443 0.600416 0.811408
Si Si5 0.580382 0.398024 0.721390
Si Si6 0.073981 0.500000 0.046863
Si Si7 0.425632 0.000000 0.952930
Si Si8 0.579790 0.397777 0.544329
O O1 0.250000 0.674018 0.103520
O O2 0.502056 0.744589 0.079003
O O3 0.491666 0.648744 0.150203
O O4 0.465192 0.583000 0.073934
O O5 0.250000 0.627857 0.634364
O O6 0.422859 0.500000 0.633100
O O7 0.505960 0.629983 0.676339
O O8 0.497416 0.629273 0.588259
O O9 0.750000 0.194910 0.045042
O O10 0.537712 0.091279 0.066311
O O11 0.500000 0.192476 0.000000
O O12 0.250000 0.613557 0.813523
O O13 0.452682 0.500000 0.816806
O O14 0.488552 0.625256 0.764216
O O15 0.750000 0.370702 0.724525
O O16 0.580657 0.500000 0.720256
O O17 0.250000 0.500000 0.041232
O O18 0.000000 0.500000 0.000000
O O19 0.250000 0.000000 0.958735
O O20 0.500000 0.000000 0.000000
O O21 0.500000 0.370576 0.500000
O O22 0.750000 0.372050 0.544761
O O23 0.577216 0.500000 0.544285
#
# Coordination Sequence:
#
# PCOD9400193 Si02
#       8
#     8   8   8   8   8   4   4   8
#     4  11  21  33  45  60  80 105 129 155 184 218
#     4   9  15  22  31  43  58  75  99 131 165 205
#     4  10  19  32  48  67  85 104 126 151 181 217
#     4  10  19  30  43  57  72  94 122 152 183 217
#     4   9  16  25  37  50  64  83 107 139 175 211
#     4  10  22  34  44  56  76 102 128 152 179 210
#     4   8  16  30  48  66  86 104 122 148 180 214
#     4   9  15  21  28  38  53  73  96 123 160 206
#
# _framework density 12.612204
#
# number of rings (size 3 to 8) (size 9 to 14) (size 15 to 20)
#    0.000    2.429    0.714    3.000    0.000    8.571 
#    0.000    0.000    0.000    0.000    0.000    0.000 
#    0.000    0.000    0.000    0.000    0.000    0.000 
#
# Total GULP energy -311971.366521 kJ/mol
# GULP energy per Si atom -5570.917259 kJ/mol
# Density = 1.258350 g / cm^3
# Si number density = 12.612204 Si / 1000 Ang^3
#
#
#
# Elastic Constant Matrix: (Units=GPa)
#
#
# Indices 1 2 3 4 5 6 
#
# 1 82.4957 32.9010 56.2798 0.0000 0.0000 0.0000
# 2 32.9010 58.7202 34.9244 0.0000 0.0000 0.0000
# 3 56.2798 34.9244 116.8913 0.0000 0.0000 0.0000
# 4 0.0000 0.0000 0.0000 1.1449 0.0000 0.0000
# 5 0.0000 0.0000 0.0000 0.0000 27.0831 0.0000
# 6 0.0000 0.0000 0.0000 0.0000 0.0000 10.3058
#
#
#
# Elastic Compliance Matrix: (Units=1/GPa)
#
#
# Indices 1 2 3 4 5 6 
#
# 1 0.019984 -0.006658 -0.007633 0.000000 0.000000 0.000000
# 2 -0.006658 0.022928 -0.003645 0.000000 0.000000 0.000000
# 3 -0.007633 -0.003645 0.013319 0.000000 0.000000 0.000000
# 4 0.000000 0.000000 0.000000 0.873459 0.000000 0.000000
# 5 0.000000 0.000000 0.000000 0.000000 0.036923 0.000000
# 6 0.000000 0.000000 0.000000 0.000000 0.000000 0.097033
#
#
# Mechanical properties :
#
#
# Convention : Reuss Voigt Hill
#
# Bulk Modulus (GPa) = 49.11413 56.25751 52.68582
# Shear Modulus (GPa) = 4.51955 16.64022 10.57989
#
# Velocity S-wave (km/s) = 1.89506 3.63626 2.89945
# Velocity P-wave (km/s) = 6.61926 7.89508 7.28515
#
# Compressibility (1/GPa) = 0.02036074
#
# Stress axis : x y z
#
# Youngs Moduli (GPa) = 50.03967 43.61475 75.08135
#
# Poissons Ratio (x) = 0.29037 0.57307
# Poissons Ratio (y) = 0.33314 0.27367
# Poissons Ratio (z) = 0.38194 0.15897
#
# Static dielectric constant tensor:
#      x y z
#    x 1.420090 0.000000 0.000000 
#    y 0.000000 1.392420 0.000000 
#    z 0.000000 0.000000 1.402740 
# 
# From -- ./inp_files/37516.got.cif
#   From: 2010.05.17/outbox.cif.g08.bks.cpg/sg51_19_cif.got.tgz:37516.got - 2010.06.03 11:52:47.
