data_PCOD9400700
_publ_section_title
;
Structure prediction by ZEFSAII (Michael W. Deem and Ramdas Pophale) SiO2 
 PCOD9400700
Probable space group: P M M A
;
_chemical_formula_sum "Si O2"
_cell_formula_units_Z 64
_cell_length_a 23.903440
_cell_length_b 7.510079
_cell_length_c 18.934455
_cell_angle_alpha 90.000000
_cell_angle_beta 90.000000
_cell_angle_gamma 90.000000
_cell_volume 3399.051309
_symmetry_space_group_name_H-M "P M M A"
_symmetry_group_IT_number 51
_symmetry_cell_setting 'orthorhombic'
loop_
_space_group_symop_operation_xyz
x,y,z
1/2-x,-y,z
1/2+x,-y,-z
-x,y,-z
-x,-y,-z
1/2+x,y,-z
1/2-x,y,z
x,-y,z
loop_
_atom_site_type_symbol
_atom_site_label
_atom_site_fract_x
_atom_site_fract_y
_atom_site_fract_z
Si Si1 0.185344 0.714765 0.589983
Si Si2 0.817833 0.288920 0.561540
Si Si3 0.686045 0.788729 0.254519
Si Si4 0.186851 0.715279 0.999953
Si Si5 0.184797 0.281944 0.284167
Si Si6 0.011172 0.705528 0.077353
Si Si7 0.107499 0.792377 0.869159
Si Si8 0.625724 0.717555 0.857673
O O1 0.250000 0.776884 0.592711
O O2 0.185947 0.500000 0.586794
O O3 0.161587 0.780129 0.514696
O O4 0.162135 0.763786 0.666501
O O5 0.750000 0.272260 0.560167
O O6 0.830183 0.500000 0.562163
O O7 0.835170 0.218934 0.638281
O O8 0.750000 0.716451 0.250994
O O9 0.645251 0.716542 0.194256
O O10 0.690479 0.000000 0.242182
O O11 0.250000 0.776469 0.985365
O O12 0.186724 0.500000 0.998365
O O13 0.143568 0.775850 0.940591
O O14 0.166194 0.768854 0.077652
O O15 0.250000 0.232022 0.274828
O O16 0.184011 0.500000 0.285631
O O17 0.148501 0.221535 0.217817
O O18 0.027415 0.500000 0.063461
O O19 0.953114 0.709355 0.118939
O O20 0.063687 0.779278 0.120520
O O21 0.000000 0.787861 0.000000
O O22 0.097295 0.000000 0.854969
O O23 0.626205 0.500000 0.854219
#
# Coordination Sequence:
#
# PCOD9400700 Si02
#       8
#     8   8   8   8   8   8   8   8
#     4   8  13  22  38  61  88 116 143 170 205 255
#     4   7  10  17  31  56  90 119 139 166 207 254
#     4   9  18  31  44  61  88 117 143 178 222 264
#     4  10  19  31  48  69  93 120 149 180 220 271
#     4   8  12  19  35  62  94 121 143 171 213 266
#     4  10  19  34  51  65  87 115 149 196 236 264
#     4  11  22  34  48  65  88 117 153 191 228 269
#     4   9  16  27  43  64  89 118 149 183 222 262
#
# _framework density 18.828783000000001
#
# number of rings (size 3 to 8) (size 9 to 14) (size 15 to 20)
#    0.000    3.000    1.250    2.625    0.000    3.500 
#    0.000    1.250    0.000    0.000    0.000    2.625 
#    0.000   11.000    0.000    0.000    0.000    0.000 
#
# Total GULP energy -356549.585465 kJ/mol
# GULP energy per Si atom -5571.087273 kJ/mol
# Density = 1.878593 g / cm^3
# Si number density = 18.828783 Si / 1000 Ang^3
#
#
#
# Elastic Constant Matrix: (Units=GPa)
#
#
# Indices 1 2 3 4 5 6 
#
# 1 63.1682 -4.2010 28.2961 0.0000 0.0000 0.0000
# 2 -4.2010 46.3656 -3.9547 0.0000 0.0000 0.0000
# 3 28.2961 -3.9547 150.0810 0.0000 0.0000 0.0000
# 4 0.0000 0.0000 0.0000 20.5270 0.0000 0.0000
# 5 0.0000 0.0000 0.0000 0.0000 4.7790 0.0000
# 6 0.0000 0.0000 0.0000 0.0000 0.0000 32.3574
#
#
#
# Elastic Compliance Matrix: (Units=1/GPa)
#
#
# Indices 1 2 3 4 5 6 
#
# 1 0.017369 0.001297 -0.003240 0.000000 0.000000 0.000000
# 2 0.001297 0.021713 0.000328 0.000000 0.000000 0.000000
# 3 -0.003240 0.000328 0.007283 0.000000 0.000000 0.000000
# 4 0.000000 0.000000 0.000000 0.048716 0.000000 0.000000
# 5 0.000000 0.000000 0.000000 0.000000 0.209248 0.000000
# 6 0.000000 0.000000 0.000000 0.000000 0.000000 0.030905
#
#
# Mechanical properties :
#
#
# Convention : Reuss Voigt Hill
#
# Bulk Modulus (GPa) = 23.18397 33.32173 28.25285
# Shear Modulus (GPa) = 14.17064 27.49765 20.83415
#
# Velocity S-wave (km/s) = 2.74634 3.82567 3.33003
# Velocity P-wave (km/s) = 4.73247 6.10328 5.46106
#
# Compressibility (1/GPa) = 0.04313324
#
# Stress axis : x y z
#
# Youngs Moduli (GPa) = 57.57520 46.05496 137.31250
#
# Poissons Ratio (x) = -0.05975 0.44496
# Poissons Ratio (y) = -0.07469 -0.04498
# Poissons Ratio (z) = 0.18657 -0.01509
#
# Static dielectric constant tensor:
#      x y z
#    x 1.618910 0.000000 0.000000 
#    y 0.000000 1.603620 0.000000 
#    z 0.000000 0.000000 1.697240 
# 
# From -- ./inp_files/30879.got.cif
#   From: 2010.05.17/outbox.cif.g08.bks.cpg/sg51_16_cif.got.tgz:30879.got - 2010.06.03 11:52:47.
