data_PCOD9400510
_publ_section_title
;
Structure prediction by ZEFSAII (Michael W. Deem and Ramdas Pophale) SiO2 
 PCOD9400510
Probable space group: P M M A
;
_chemical_formula_sum "Si O2"
_cell_formula_units_Z 64
_cell_length_a 20.394948
_cell_length_b 14.163599
_cell_length_c 14.784361
_cell_angle_alpha 90.000000
_cell_angle_beta 90.000000
_cell_angle_gamma 90.000000
_cell_volume 4270.697230
_symmetry_space_group_name_H-M "P M M A"
_symmetry_group_IT_number 51
_symmetry_cell_setting 'orthorhombic'
loop_
_space_group_symop_operation_xyz
x,y,z
1/2-x,-y,z
1/2+x,-y,-z
-x,y,-z
-x,-y,-z
1/2+x,y,-z
1/2-x,y,z
x,-y,z
loop_
_atom_site_type_symbol
_atom_site_label
_atom_site_fract_x
_atom_site_fract_y
_atom_site_fract_z
Si Si1 0.867370 0.206811 0.757335
Si Si2 0.076482 0.395980 0.970375
Si Si3 0.563493 0.806969 0.066050
Si Si4 0.438641 0.114101 0.560634
Si Si5 0.674243 0.888856 0.572844
Si Si6 0.323018 0.887664 0.058783
Si Si7 0.491194 0.887827 0.754260
Si Si8 0.827791 0.390164 0.855711
O O1 0.838858 0.171902 0.662341
O O2 0.834353 0.151948 0.840975
O O3 0.853680 0.315827 0.781693
O O4 0.943108 0.174755 0.757852
O O5 0.092713 0.500000 0.932356
O O6 0.079448 0.302065 0.910463
O O7 0.125353 0.379576 0.055889
O O8 0.000000 0.400254 0.000000
O O9 0.548096 0.867041 0.154462
O O10 0.500000 0.808561 0.000000
O O11 0.622860 0.847398 0.007968
O O12 0.500000 0.146517 0.500000
O O13 0.372867 0.142361 0.508689
O O14 0.450668 0.139539 0.664596
O O15 0.439161 0.000000 0.559493
O O16 0.750000 0.882975 0.547234
O O17 0.659484 0.000000 0.593840
O O18 0.250000 0.861603 0.028481
O O19 0.328682 0.000000 0.061984
O O20 0.507946 0.000000 0.748811
O O21 0.750000 0.371959 0.874489
O O22 0.833224 0.500000 0.827929
#
# Coordination Sequence:
#
# PCOD9400510 Si02
#       8
#     8   8   8   8   8   8   8   8
#     4  12  19  30  50  74 100 126 159 202 246 296
#     4   9  17  31  48  66  90 124 167 208 243 278
#     4  11  20  32  48  69  96 131 167 202 236 289
#     4   9  17  32  49  67  95 130 167 206 242 286
#     4  10  19  30  48  75 102 127 159 203 251 294
#     4  11  22  32  43  65 101 136 162 194 236 283
#     4  11  21  32  50  74  99 131 171 204 239 291
#     4  10  20  33  49  70  99 132 163 200 249 301
#
# _framework density 14.985842999999999
#
# number of rings (size 3 to 8) (size 9 to 14) (size 15 to 20)
#    0.000    1.625    3.750    3.375    0.000    1.500 
#    0.000    0.625    0.000    2.250    0.000    2.625 
#    0.000    0.000    0.000    0.000    0.000    0.000 
#
# Total GULP energy -356691.742054 kJ/mol
# GULP energy per Si atom -5573.308470 kJ/mol
# Density = 1.495173 g / cm^3
# Si number density = 14.985843 Si / 1000 Ang^3
#
#
#
# Elastic Constant Matrix: (Units=GPa)
#
#
# Indices 1 2 3 4 5 6 
#
# 1 104.4634 40.8235 48.1440 0.0000 0.0000 0.0000
# 2 40.8235 68.0054 26.0723 0.0000 0.0000 0.0000
# 3 48.1440 26.0723 78.1585 0.0000 0.0000 0.0000
# 4 0.0000 0.0000 0.0000 7.5788 0.0000 0.0000
# 5 0.0000 0.0000 0.0000 0.0000-1079.6064 0.0000
# 6 0.0000 0.0000 0.0000 0.0000 0.0000 34.6045
#
#
#
# Elastic Compliance Matrix: (Units=1/GPa)
#
#
# Indices 1 2 3 4 5 6 
#
# 1 0.015512 -0.006477 -0.007394 0.000000 0.000000 0.000000
# 2 -0.006477 0.019565 -0.002537 0.000000 0.000000 0.000000
# 3 -0.007394 -0.002537 0.018196 0.000000 0.000000 0.000000
# 4 0.000000 0.000000 0.000000 0.131947 0.000000 0.000000
# 5 0.000000 0.000000 0.000000 0.000000 -0.000926 0.000000
# 6 0.000000 0.000000 0.000000 0.000000 0.000000 0.028898
#
#
# Mechanical properties :
#
#
# Convention : Reuss Voigt Hill
#
# Bulk Modulus (GPa) = 48.88482 53.41188 51.14835
# Shear Modulus (GPa) = 19.77643 -198.44545 -89.33451
#
# Velocity S-wave (km/s) = 3.63667 -11.51996 -7.72930
# Velocity P-wave (km/s) = 7.09404 11.88390 6.74172
#
# Compressibility (1/GPa) = 0.02045625
#
# Stress axis : x y z
#
# Youngs Moduli (GPa) = 64.46797 51.11067 54.95843
#
# Poissons Ratio (x) = 0.33103 0.40638
# Poissons Ratio (y) = 0.41754 0.13944
# Poissons Ratio (z) = 0.47669 0.12968
#
# Static dielectric constant tensor:
#      x y z
#    x 1.512750 0.000000 0.000000 
#    y 0.000000 1.518840 0.000000 
#    z 0.000000 0.000000 1.469000 
# 
# From -- ./inp_files/25391.got.cif
#   From: 2010.05.17/outbox.cif.g08.bks.cpg/sg51_13_cif.got.tgz:25391.got - 2010.06.03 11:52:47.
