data_PCOD9400340
_publ_section_title
;
Structure prediction by ZEFSAII (Michael W. Deem and Ramdas Pophale) SiO2 
 PCOD9400340
Probable space group: P M M A
;
_chemical_formula_sum "Si O2"
_cell_formula_units_Z 64
_cell_length_a 21.450174
_cell_length_b 7.371289
_cell_length_c 18.907705
_cell_angle_alpha 90.000000
_cell_angle_beta 90.000000
_cell_angle_gamma 90.000000
_cell_volume 2989.599938
_symmetry_space_group_name_H-M "P M M A"
_symmetry_group_IT_number 51
_symmetry_cell_setting 'orthorhombic'
loop_
_space_group_symop_operation_xyz
x,y,z
1/2-x,-y,z
1/2+x,-y,-z
-x,y,-z
-x,-y,-z
1/2+x,y,-z
1/2-x,y,z
x,-y,z
loop_
_atom_site_type_symbol
_atom_site_label
_atom_site_fract_x
_atom_site_fract_y
_atom_site_fract_z
Si Si1 0.820082 0.217479 0.704263
Si Si2 0.439677 0.284211 0.541030
Si Si3 0.320001 0.220804 0.954302
Si Si4 0.559469 0.782459 0.292860
Si Si5 0.819587 0.284096 0.539270
Si Si6 0.319889 0.778978 0.790704
Si Si7 0.938984 0.221509 0.956527
Si Si8 0.561694 0.222048 0.793487
O O1 0.750000 0.285935 0.719301
O O2 0.834289 0.256224 0.622101
O O3 0.875140 0.283006 0.754721
O O4 0.818097 0.000000 0.711700
O O5 0.500000 0.211230 0.500000
O O6 0.438516 0.500000 0.527815
O O7 0.444802 0.257578 0.624472
O O8 0.375090 0.211087 0.509019
O O9 0.250000 0.277882 0.975055
O O10 0.330517 0.273521 0.872533
O O11 0.320227 0.000000 0.955367
O O12 0.375830 0.281036 0.004440
O O13 0.624001 0.715634 0.258589
O O14 0.498991 0.717776 0.250044
O O15 0.560009 0.000000 0.285339
O O16 0.750000 0.210309 0.526005
O O17 0.816140 0.500000 0.527710
O O18 0.250000 0.721202 0.769844
O O19 0.319784 0.000000 0.789497
O O20 0.941306 0.278010 0.875028
O O21 0.938847 0.000000 0.956963
O O22 0.000000 0.278442 0.000000
O O23 0.561852 0.000000 0.792682
#
# Coordination Sequence:
#
# PCOD9400340 Si02
#       8
#     8   8   8   8   8   8   8   8
#     4   9  17  29  45  65  90 118 144 174 216 262
#     4  10  21  35  49  66  89 115 143 179 221 260
#     4   8  13  21  34  53  80 115 148 174 206 252
#     4  10  19  30  46  66  88 116 147 179 217 260
#     4   9  18  33  51  68  87 113 144 178 216 258
#     4   8  14  25  40  60  88 118 146 178 216 256
#     4   9  15  22  34  53  80 115 149 177 209 252
#     4   9  17  27  39  59  88 118 147 181 219 256
#
# _framework density 21.407547999999998
#
# number of rings (size 3 to 8) (size 9 to 14) (size 15 to 20)
#    0.000    3.000    0.000    2.250    0.000    4.750 
#    0.000    2.500    0.000    0.000    0.000    0.000 
#    0.000    9.000    0.000    2.250    0.000    1.000 
#
# Total GULP energy -357392.086135 kJ/mol
# GULP energy per Si atom -5584.251346 kJ/mol
# Density = 2.135882 g / cm^3
# Si number density = 21.407548 Si / 1000 Ang^3
#
#
#
# Elastic Constant Matrix: (Units=GPa)
#
#
# Indices 1 2 3 4 5 6 
#
# 1 226.2900 7.1564 160.0921 0.0000 0.0000 0.0000
# 2 7.1564 77.0909 -4.4242 0.0000 0.0000 0.0000
# 3 160.0921 -4.4242 176.1351 0.0000 0.0000 0.0000
# 4 0.0000 0.0000 0.0000 -7.6370 0.0000 0.0000
# 5 0.0000 0.0000 0.0000 0.0000 65.9324 0.0000
# 6 0.0000 0.0000 0.0000 0.0000 0.0000 -20.7206
#
#
#
# Elastic Compliance Matrix: (Units=1/GPa)
#
#
# Indices 1 2 3 4 5 6 
#
# 1 0.012633 -0.001834 -0.011529 0.000000 0.000000 0.000000
# 2 -0.001834 0.013257 0.002000 0.000000 0.000000 0.000000
# 3 -0.011529 0.002000 0.016206 0.000000 0.000000 0.000000
# 4 0.000000 0.000000 0.000000 -0.130942 0.000000 0.000000
# 5 0.000000 0.000000 0.000000 0.000000 0.015167 0.000000
# 6 0.000000 0.000000 0.000000 0.000000 0.000000 -0.048261
#
#
# Mechanical properties :
#
#
# Convention : Reuss Voigt Hill
#
# Bulk Modulus (GPa) = 51.62402 89.46273 70.54338
# Shear Modulus (GPa) = -53.90383 28.62775 -12.63804
#
# Velocity S-wave (km/s) = -5.02339 3.66084 -2.43236
# Velocity P-wave (km/s) = 3.07876 7.72981 5.01354
#
# Compressibility (1/GPa) = 0.01937083
#
# Stress axis : x y z
#
# Youngs Moduli (GPa) = 79.15662 75.43313 61.70469
#
# Poissons Ratio (x) = 0.13837 0.71137
# Poissons Ratio (y) = 0.14520 -0.12343
# Poissons Ratio (z) = 0.91256 -0.15089
#
# Static dielectric constant tensor:
#      x y z
#    x 1.769240 0.000000 0.000000 
#    y 0.000000 1.808810 0.000000 
#    z 0.000000 0.000000 1.701650 
# 
# From -- ./inp_files/30700.got.cif
#   From: 2010.05.17/outbox.cif.g08.bks.cpg/sg51_16_cif.got.tgz:30700.got - 2010.06.03 11:52:47.
