data_PCOD9400773
_publ_section_title
;
Structure prediction by ZEFSAII (Michael W. Deem and Ramdas Pophale) SiO2 
 PCOD9400773
Probable space group: P M M A
;
_chemical_formula_sum "Si O2"
_cell_formula_units_Z 32
_cell_length_a 7.541739
_cell_length_b 14.568056
_cell_length_c 14.343849
_cell_angle_alpha 90.000000
_cell_angle_beta 90.000000
_cell_angle_gamma 90.000000
_cell_volume 1575.936831
_symmetry_space_group_name_H-M "P M M A"
_symmetry_group_IT_number 51
_symmetry_cell_setting 'orthorhombic'
loop_
_space_group_symop_operation_xyz
x,y,z
1/2-x,-y,z
1/2+x,-y,-z
-x,y,-z
-x,-y,-z
1/2+x,y,-z
1/2-x,y,z
x,-y,z
loop_
_atom_site_type_symbol
_atom_site_label
_atom_site_fract_x
_atom_site_fract_y
_atom_site_fract_z
Si Si1 0.051138 0.251827 0.750849
Si Si2 0.037018 0.897466 0.890341
Si Si3 0.460444 0.103609 0.391834
Si Si4 0.963223 0.394721 0.395105
O O1 0.250000 0.279848 0.781136
O O2 0.967265 0.191124 0.833922
O O3 0.967764 0.336352 0.693098
O O4 0.060260 0.175904 0.670017
O O5 0.250000 0.898059 0.876402
O O6 0.971333 0.000000 0.861618
O O7 0.000000 0.888615 0.000000
O O8 0.500000 0.117278 0.500000
O O9 0.250000 0.113283 0.376455
O O10 0.513709 0.000000 0.367980
O O11 0.750000 0.394821 0.386745
O O12 0.027217 0.500000 0.392851
O O13 0.000000 0.357876 0.500000
#
# Coordination Sequence:
#
# PCOD9400773 Si02
#       4
#     8   8   8   8
#     4  10  19  31  49  70  92 121 157 196 237 279
#     4   9  18  32  49  69  93 121 154 193 236 282
#     4  10  20  31  43  63  93 126 156 187 226 275
#     4   9  18  32  49  70  96 125 157 193 234 280
#
# _framework density 20.305381000000001
#
# number of rings (size 3 to 8) (size 9 to 14) (size 15 to 20)
#    0.000    2.500    0.000    2.250    0.000    6.500 
#    0.000    2.500    0.000    0.750    0.000    0.000 
#    0.000    0.000    0.000    0.000    0.000    0.000 
#
# Total GULP energy -178387.843560 kJ/mol
# GULP energy per Si atom -5574.620111 kJ/mol
# Density = 2.025917 g / cm^3
# Si number density = 20.305381 Si / 1000 Ang^3
#
#
#
# Elastic Constant Matrix: (Units=GPa)
#
#
# Indices 1 2 3 4 5 6 
#
# 1 57.2208 4.6811 -8.7231 0.0000 0.0000 0.0000
# 2 4.6811 92.1915 60.1620 0.0000 0.0000 0.0000
# 3 -8.7231 60.1620 103.9314 0.0000 0.0000 0.0000
# 4 0.0000 0.0000 0.0000 43.1364 0.0000 0.0000
# 5 0.0000 0.0000 0.0000 0.0000 19.7715 0.0000
# 6 0.0000 0.0000 0.0000 0.0000 0.0000 -2.9134
#
#
#
# Elastic Compliance Matrix: (Units=1/GPa)
#
#
# Indices 1 2 3 4 5 6 
#
# 1 0.018235 -0.003093 0.003321 0.000000 0.000000 0.000000
# 2 -0.003093 0.017957 -0.010654 0.000000 0.000000 0.000000
# 3 0.003321 -0.010654 0.016068 0.000000 0.000000 0.000000
# 4 0.000000 0.000000 0.000000 0.023182 0.000000 0.000000
# 5 0.000000 0.000000 0.000000 0.000000 0.050578 0.000000
# 6 0.000000 0.000000 0.000000 0.000000 0.000000 -0.343241
#
#
# Mechanical properties :
#
#
# Convention : Reuss Voigt Hill
#
# Bulk Modulus (GPa) = 31.83952 40.62042 36.22997
# Shear Modulus (GPa) = -26.89625 25.14715 -0.87455
#
# Velocity S-wave (km/s) = -3.64344 3.52298 -0.65699
# Velocity P-wave (km/s) = 1.40895 6.04952 4.16002
#
# Compressibility (1/GPa) = 0.03140751
#
# Stress axis : x y z
#
# Youngs Moduli (GPa) = 54.83811 55.68975 62.23663
#
# Poissons Ratio (x) = 0.17226 -0.20669
# Poissons Ratio (y) = 0.16962 0.66307
# Poissons Ratio (z) = -0.18212 0.59332
#
# Static dielectric constant tensor:
#      x y z
#    x 1.812910 0.000000 0.000000 
#    y 0.000000 1.764470 0.000000 
#    z 0.000000 0.000000 1.727780 
# 
# From -- ./inp_files/13688.got.cif
#   From: 2010.05.17/outbox.cif.g08.bks.cpg/sg51_7_cif.got.tgz:13688.got - 2010.06.03 11:52:47.
