data_PCOD9400689
_publ_section_title
;
Structure prediction by ZEFSAII (Michael W. Deem and Ramdas Pophale) SiO2 
 PCOD9400689
Probable space group: P M M A
;
_chemical_formula_sum "Si O2"
_cell_formula_units_Z 64
_cell_length_a 14.680389
_cell_length_b 9.555286
_cell_length_c 21.251904
_cell_angle_alpha 90.000000
_cell_angle_beta 90.000000
_cell_angle_gamma 90.000000
_cell_volume 2981.117538
_symmetry_space_group_name_H-M "P M M A"
_symmetry_group_IT_number 51
_symmetry_cell_setting 'orthorhombic'
loop_
_space_group_symop_operation_xyz
x,y,z
1/2-x,-y,z
1/2+x,-y,-z
-x,y,-z
-x,-y,-z
1/2+x,y,-z
1/2-x,y,z
x,-y,z
loop_
_atom_site_type_symbol
_atom_site_label
_atom_site_fract_x
_atom_site_fract_y
_atom_site_fract_z
Si Si1 0.888979 0.838617 0.429478
Si Si2 0.141298 0.841057 0.049491
Si Si3 0.608856 0.840960 0.808677
Si Si4 0.140957 0.342145 0.933714
Si Si5 0.110677 0.839091 0.428897
Si Si6 0.611658 0.338813 0.309939
Si Si7 0.388883 0.660303 0.309525
Si Si8 0.108882 0.840366 0.809571
O O1 0.860558 0.799777 0.500353
O O2 0.859233 0.735275 0.374578
O O3 0.999816 0.837584 0.429034
O O4 0.861936 0.000000 0.417411
O O5 0.250000 0.851620 0.040469
O O6 0.126972 0.789317 0.120618
O O7 0.103498 0.000000 0.045019
O O8 0.106191 0.738874 0.995426
O O9 0.641618 0.743272 0.752500
O O10 0.500023 0.849127 0.802195
O O11 0.644532 0.000000 0.803821
O O12 0.250000 0.354398 0.940653
O O13 0.103872 0.500000 0.926635
O O14 0.125785 0.246562 0.872759
O O15 0.140499 0.739464 0.372786
O O16 0.137803 0.000000 0.417339
O O17 0.640326 0.500000 0.305237
O O18 0.500332 0.338797 0.309544
O O19 0.642415 0.246383 0.250664
O O20 0.359996 0.500000 0.308635
O O21 0.143204 0.000000 0.813000
#
# Coordination Sequence:
#
# PCOD9400689 Si02
#       8
#     8   8   8   8   8   8   8   8
#     4   8  13  21  33  50  74 109 150 185 221 266
#     4   9  18  34  54  72  91 118 152 187 223 267
#     4   9  18  31  47  68  93 121 152 187 227 268
#     4  10  21  36  52  70  93 119 147 183 227 271
#     4   8  13  21  33  49  74 110 149 186 222 264
#     4   9  16  25  37  56  84 115 147 185 227 267
#     4   9  16  24  36  56  83 115 149 185 225 268
#     4  10  19  31  48  68  92 122 154 187 223 268
#
# _framework density 21.46846
#
# number of rings (size 3 to 8) (size 9 to 14) (size 15 to 20)
#    0.000    3.000    0.000    2.250    0.000    5.750 
#    0.000    5.000    0.000    0.000    0.000    0.000 
#    0.000    1.000    0.000    8.250    0.000   12.625 
#
# Total GULP energy -357377.899682 kJ/mol
# GULP energy per Si atom -5584.029683 kJ/mol
# Density = 2.141960 g / cm^3
# Si number density = 21.468460 Si / 1000 Ang^3
#
#
#
# Elastic Constant Matrix: (Units=GPa)
#
#
# Indices 1 2 3 4 5 6 
#
# 1 71.2380 5.4147 1.0892 0.0000 0.0000 0.0000
# 2 5.4147 192.2749 163.8656 0.0000 0.0000 0.0000
# 3 1.0892 163.8656 238.1969 0.0000 0.0000 0.0000
# 4 0.0000 0.0000 0.0000 95.0929 0.0000 0.0000
# 5 0.0000 0.0000 0.0000 0.0000 61.5697 0.0000
# 6 0.0000 0.0000 0.0000 0.0000 0.0000 -22.5767
#
#
#
# Elastic Compliance Matrix: (Units=1/GPa)
#
#
# Indices 1 2 3 4 5 6 
#
# 1 0.014093 -0.000827 0.000504 0.000000 0.000000 0.000000
# 2 -0.000827 0.012620 -0.008678 0.000000 0.000000 0.000000
# 3 0.000504 -0.008678 0.010166 0.000000 0.000000 0.000000
# 4 0.000000 0.000000 0.000000 0.010516 0.000000 0.000000
# 5 0.000000 0.000000 0.000000 0.000000 0.016242 0.000000
# 6 0.000000 0.000000 0.000000 0.000000 0.000000 -0.044293
#
#
# Mechanical properties :
#
#
# Convention : Reuss Voigt Hill
#
# Bulk Modulus (GPa) = 52.97277 93.60544 73.28910
# Shear Modulus (GPa) = 114.58390 48.90654 81.74522
#
# Velocity S-wave (km/s) = 7.31362 4.77809 6.17734
# Velocity P-wave (km/s) = 9.80035 8.61024 9.22451
#
# Compressibility (1/GPa) = 0.01887762
#
# Stress axis : x y z
#
# Youngs Moduli (GPa) = 70.95939 79.23936 98.36819
#
# Poissons Ratio (x) = 0.06550 -0.04960
# Poissons Ratio (y) = 0.05865 0.85364
# Poissons Ratio (z) = -0.03578 0.68764
#
# Static dielectric constant tensor:
#      x y z
#    x 1.832980 0.000000 0.000000 
#    y 0.000000 1.757050 0.000000 
#    z 0.000000 0.000000 1.737700 
# 
# From -- ./inp_files/34133.got.cif
#   From: 2010.05.17/outbox.cif.g08.bks.cpg/sg51_18_cif.got.tgz:34133.got - 2010.06.03 11:52:47.
