data_PCOD9400186
_publ_section_title
;
Structure prediction by ZEFSAII (Michael W. Deem and Ramdas Pophale) SiO2 
 PCOD9400186
Probable space group: P M M A
;
_chemical_formula_sum "Si O2"
_cell_formula_units_Z 56
_cell_length_a 8.522082
_cell_length_b 23.793909
_cell_length_c 14.928753
_cell_angle_alpha 90.000000
_cell_angle_beta 90.000000
_cell_angle_gamma 90.000000
_cell_volume 3027.157640
_symmetry_space_group_name_H-M "P M M A"
_symmetry_group_IT_number 51
_symmetry_cell_setting 'orthorhombic'
loop_
_space_group_symop_operation_xyz
x,y,z
1/2-x,-y,z
1/2+x,-y,-z
-x,y,-z
-x,-y,-z
1/2+x,y,-z
1/2-x,y,z
x,-y,z
loop_
_atom_site_type_symbol
_atom_site_label
_atom_site_fract_x
_atom_site_fract_y
_atom_site_fract_z
Si Si1 0.438810 0.295125 0.407357
Si Si2 0.434606 0.786350 0.827328
Si Si3 0.062481 0.563924 0.099062
Si Si4 0.566464 0.096975 0.094298
Si Si5 0.431895 0.175976 0.355319
Si Si6 0.560168 0.937788 0.712011
Si Si7 0.063813 0.663922 0.782873
O O1 0.500000 0.320801 0.500000
O O2 0.250000 0.293995 0.406742
O O3 0.502334 0.230355 0.403642
O O4 0.495987 0.324413 0.316213
O O5 0.250000 0.790063 0.797596
O O6 0.452589 0.834918 0.900381
O O7 0.549941 0.804982 0.747944
O O8 0.466355 0.720630 0.841944
O O9 0.250000 0.564287 0.096532
O O10 0.009614 0.500000 0.120138
O O11 0.005594 0.609641 0.169712
O O12 0.000000 0.577837 0.000000
O O13 0.750000 0.084185 0.098861
O O14 0.489226 0.073156 0.184877
O O15 0.500000 0.076381 0.000000
O O16 0.250000 0.171972 0.382069
O O17 0.500332 0.113095 0.351153
O O18 0.750000 0.935652 0.709268
O O19 0.508079 0.000000 0.685185
O O20 0.250000 0.657733 0.775382
#
# Coordination Sequence:
#
# PCOD9400186 Si02
#       7
#     8   8   8   8   8   8   8
#     4  10  19  32  52  79 109 139 172 210 257 313
#     4   8  16  29  44  64  89 118 152 193 242 295
#     4  10  21  37  56  79 109 146 187 226 261 299
#     4  10  19  30  42  58  84 116 151 193 243 298
#     4   8  15  28  46  67  90 118 152 192 239 291
#     4   9  17  30  47  64  82 110 152 199 246 297
#     4  10  19  33  54  80 109 139 174 216 263 312
#
# _framework density 18.499200999999999
#
# number of rings (size 3 to 8) (size 9 to 14) (size 15 to 20)
#    0.000    2.714    0.000    1.714    0.000    3.714 
#    0.000    1.429    0.000    0.857    0.000    0.000 
#    0.000    0.000    0.000    0.000    0.000    0.714 
#
# Total GULP energy -311768.440793 kJ/mol
# GULP energy per Si atom -5567.293586 kJ/mol
# Density = 1.845710 g / cm^3
# Si number density = 18.499201 Si / 1000 Ang^3
#
#
#
# Elastic Constant Matrix: (Units=GPa)
#
#
# Indices 1 2 3 4 5 6 
#
# 1 29.5192 25.4676 15.1133 0.0000 0.0000 0.0000
# 2 25.4676 123.0884 50.2479 0.0000 0.0000 0.0000
# 3 15.1133 50.2479 59.5182 0.0000 0.0000 0.0000
# 4 0.0000 0.0000 0.0000 14.0679 0.0000 0.0000
# 5 0.0000 0.0000 0.0000 0.0000 17.6487 0.0000
# 6 0.0000 0.0000 0.0000 0.0000 0.0000 15.3481
#
#
#
# Elastic Compliance Matrix: (Units=1/GPa)
#
#
# Indices 1 2 3 4 5 6 
#
# 1 0.042231 -0.006653 -0.005107 0.000000 0.000000 0.000000
# 2 -0.006653 0.013445 -0.009661 0.000000 0.000000 0.000000
# 3 -0.005107 -0.009661 0.026255 0.000000 0.000000 0.000000
# 4 0.000000 0.000000 0.000000 0.071084 0.000000 0.000000
# 5 0.000000 0.000000 0.000000 0.000000 0.056662 0.000000
# 6 0.000000 0.000000 0.000000 0.000000 0.000000 0.065155
#
#
# Mechanical properties :
#
#
# Convention : Reuss Voigt Hill
#
# Bulk Modulus (GPa) = 25.58319 43.75369 34.66844
# Shear Modulus (GPa) = 15.11935 17.49939 16.30937
#
# Velocity S-wave (km/s) = 2.86194 3.07897 2.97244
# Velocity P-wave (km/s) = 4.97798 6.02852 5.52827
#
# Compressibility (1/GPa) = 0.03908817
#
# Stress axis : x y z
#
# Youngs Moduli (GPa) = 23.67947 74.37834 38.08825
#
# Poissons Ratio (x) = 0.49484 0.19451
# Poissons Ratio (y) = 0.15754 0.36798
# Poissons Ratio (z) = 0.12092 0.71859
#
# Static dielectric constant tensor:
#      x y z
#    x 1.627760 0.000000 0.000000 
#    y 0.000000 1.692760 0.000000 
#    z 0.000000 0.000000 1.615680 
# 
# From -- ./inp_files/21847.got.cif
#   From: 2010.05.17/outbox.cif.g08.bks.cpg/sg51_11_cif.got.tgz:21847.got - 2010.06.03 11:52:47.
