data_PCOD9400960
_publ_section_title
;
Structure prediction by ZEFSAII (Michael W. Deem and Ramdas Pophale) SiO2 
 PCOD9400960
Probable space group: P M M A
;
_chemical_formula_sum "Si O2"
_cell_formula_units_Z 48
_cell_length_a 15.167621
_cell_length_b 8.153877
_cell_length_c 20.318616
_cell_angle_alpha 90.000000
_cell_angle_beta 90.000000
_cell_angle_gamma 90.000000
_cell_volume 2512.903127
_symmetry_space_group_name_H-M "P M M A"
_symmetry_group_IT_number 51
_symmetry_cell_setting 'orthorhombic'
loop_
_space_group_symop_operation_xyz
x,y,z
1/2-x,-y,z
1/2+x,-y,-z
-x,y,-z
-x,-y,-z
1/2+x,y,-z
1/2-x,y,z
x,-y,z
loop_
_atom_site_type_symbol
_atom_site_label
_atom_site_fract_x
_atom_site_fract_y
_atom_site_fract_z
Si Si1 0.485517 0.301424 0.828687
Si Si2 0.149473 0.700168 0.089276
Si Si3 0.750000 0.195295 0.524105
Si Si4 0.062165 0.195642 0.682301
Si Si5 0.351508 0.699828 0.941046
Si Si6 0.557528 0.695333 0.562025
Si Si7 0.250000 0.799305 0.627585
O O1 0.484786 0.500000 0.829050
O O2 0.580269 0.245860 0.856160
O O3 0.463282 0.245815 0.755729
O O4 0.414052 0.243810 0.882557
O O5 0.250000 0.753463 0.100392
O O6 0.149729 0.500000 0.089352
O O7 0.121961 0.749683 0.015115
O O8 0.841322 0.248544 0.557432
O O9 0.750000 0.256137 0.448351
O O10 0.750000 0.000000 0.521719
O O11 0.160091 0.256409 0.662499
O O12 0.991932 0.256172 0.628692
O O13 0.064173 0.000000 0.678434
O O14 0.250000 0.748952 0.930832
O O15 0.353808 0.500000 0.940731
O O16 0.500000 0.761579 0.500000
O O17 0.557849 0.500000 0.557265
O O18 0.250000 0.000000 0.627910
#
# Coordination Sequence:
#
# PCOD9400960 Si02
#       7
#     8   8   4   8   8   8   4
#     4  10  19  31  50  78 108 140 179 228 283 331
#     4   8  14  27  48  73 102 138 180 226 277 332
#     4  11  21  39  67  91 113 150 193 232 279 339
#     4  11  23  40  58  80 113 153 191 227 277 347
#     4   8  14  25  45  75 106 135 174 225 279 335
#     4  11  23  40  62  91 120 146 186 240 288 329
#     4   9  20  37  59  83 109 146 187 224 271 339
#
# _framework density 19.101413999999998
#
# number of rings (size 3 to 8) (size 9 to 14) (size 15 to 20)
#    0.000    2.333    1.667    2.750    1.167    2.667 
#    1.500    1.250    0.000    2.000    0.000    2.333 
#    0.000    0.000    0.000    0.000    0.000    0.000 
#
# Total GULP energy -267892.602612 kJ/mol
# GULP energy per Si atom -5581.095888 kJ/mol
# Density = 1.905794 g / cm^3
# Si number density = 19.101414 Si / 1000 Ang^3
#
#
#
# Elastic Constant Matrix: (Units=GPa)
#
#
# Indices 1 2 3 4 5 6 
#
# 1 184.9606 23.6602 123.8225 0.0000 0.0000 0.0000
# 2 23.6602 22.9352 15.4168 0.0000 0.0000 0.0000
# 3 123.8225 15.4168 156.1408 0.0000 0.0000 0.0000
# 4 0.0000 0.0000 0.0000 3.5797 0.0000 0.0000
# 5 0.0000 0.0000 0.0000 0.0000 16.4411 0.0000
# 6 0.0000 0.0000 0.0000 0.0000 0.0000 13.9660
#
#
#
# Elastic Compliance Matrix: (Units=1/GPa)
#
#
# Indices 1 2 3 4 5 6 
#
# 1 0.012398 -0.006620 -0.009178 0.000000 0.000000 0.000000
# 2 -0.006620 0.050236 0.000290 0.000000 0.000000 0.000000
# 3 -0.009178 0.000290 0.013654 0.000000 0.000000 0.000000
# 4 0.000000 0.000000 0.000000 0.279354 0.000000 0.000000
# 5 0.000000 0.000000 0.000000 0.000000 0.060823 0.000000
# 6 0.000000 0.000000 0.000000 0.000000 0.000000 0.071602
#
#
# Mechanical properties :
#
#
# Convention : Reuss Voigt Hill
#
# Bulk Modulus (GPa) = 22.08926 76.64840 49.36883
# Shear Modulus (GPa) = 9.36025 20.20649 14.78337
#
# Velocity S-wave (km/s) = 2.21606 3.25599 2.78500
# Velocity P-wave (km/s) = 4.25878 7.37221 6.02025
#
# Compressibility (1/GPa) = 0.04527087
#
# Stress axis : x y z
#
# Youngs Moduli (GPa) = 80.66116 19.90619 73.23836
#
# Poissons Ratio (x) = 0.13178 0.67217
# Poissons Ratio (y) = 0.53399 -0.02123
# Poissons Ratio (z) = 0.74029 -0.00577
#
# Static dielectric constant tensor:
#      x y z
#    x 1.675720 0.000000 0.000000 
#    y 0.000000 1.680160 0.000000 
#    z 0.000000 0.000000 1.637070 
# 
# From -- ./inp_files/29542.got.cif
#   From: 2010.05.17/outbox.cif.g08.bks.cpg/sg51_15_cif.got.tgz:29542.got - 2010.06.03 11:52:47.
