data_PCOD9400145
_publ_section_title
;
Structure prediction by ZEFSAII (Michael W. Deem and Ramdas Pophale) SiO2 
 PCOD9400145
Probable space group: P M M A
;
_chemical_formula_sum "Si O2"
_cell_formula_units_Z 30
_cell_length_a 7.358763
_cell_length_b 21.083326
_cell_length_c 9.106802
_cell_angle_alpha 90.000000
_cell_angle_beta 90.000000
_cell_angle_gamma 90.000000
_cell_volume 1412.894825
_symmetry_space_group_name_H-M "P M M A"
_symmetry_group_IT_number 51
_symmetry_cell_setting 'orthorhombic'
loop_
_space_group_symop_operation_xyz
x,y,z
1/2-x,-y,z
1/2+x,-y,-z
-x,y,-z
-x,-y,-z
1/2+x,y,-z
1/2-x,y,z
x,-y,z
loop_
_atom_site_type_symbol
_atom_site_label
_atom_site_fract_x
_atom_site_fract_y
_atom_site_fract_z
Si Si1 0.032939 0.103526 0.325092
Si Si2 0.033983 0.752139 0.328518
Si Si3 0.467086 0.373000 0.172104
Si Si4 0.750000 0.000000 0.223646
Si Si5 0.033020 0.500000 0.327333
O O1 0.250000 0.096636 0.298805
O O2 0.972512 0.176218 0.296609
O O3 0.000000 0.091301 0.500000
O O4 0.909691 0.055113 0.236683
O O5 0.250000 0.754742 0.306622
O O6 0.960689 0.693614 0.234669
O O7 0.000000 0.739172 0.500000
O O8 0.250000 0.371691 0.196901
O O9 0.538269 0.435392 0.254517
O O10 0.500000 0.378484 0.000000
O O11 0.250000 0.500000 0.302745
O O12 0.000000 0.500000 0.500000
#
# Coordination Sequence:
#
# PCOD9400145 Si02
#       5
#     8   8   8   2   4
#     4  10  19  29  44  71 107 145 180 231 284 346
#     4   9  19  34  51  74 110 143 185 231 284 334
#     4  10  21  37  55  82 113 148 190 236 275 327
#     4  12  20  28  46  74 110 142 186 220 298 342
#     4  10  21  36  58  86 118 150 187 228 282 334
#
# _framework density 21.233003
#
# number of rings (size 3 to 8) (size 9 to 14) (size 15 to 20)
#    0.000    2.133    1.333    2.000    1.867    2.133 
#    0.000    0.000    0.000    0.000    0.000    0.933 
#    0.000    0.000    0.000    0.000    0.000    0.000 
#
# Total GULP energy -167029.233075 kJ/mol
# GULP energy per Si atom -5567.641102 kJ/mol
# Density = 2.118468 g / cm^3
# Si number density = 21.233003 Si / 1000 Ang^3
#
#
#
# Elastic Constant Matrix: (Units=GPa)
#
#
# Indices 1 2 3 4 5 6 
#
# 1 119.6537 31.7091 -2.4349 0.0000 0.0000 0.0000
# 2 31.7091 178.9419 82.9062 0.0000 0.0000 0.0000
# 3 -2.4349 82.9062 78.6826 0.0000 0.0000 0.0000
# 4 0.0000 0.0000 0.0000 -6.7867 0.0000 0.0000
# 5 0.0000 0.0000 0.0000 0.0000 16.1978 0.0000
# 6 0.0000 0.0000 0.0000 0.0000 0.0000 81.9065
#
#
#
# Elastic Compliance Matrix: (Units=1/GPa)
#
#
# Indices 1 2 3 4 5 6 
#
# 1 0.009368 -0.003506 0.003984 0.000000 0.000000 0.000000
# 2 -0.003506 0.012231 -0.012996 0.000000 0.000000 0.000000
# 3 0.003984 -0.012996 0.026526 0.000000 0.000000 0.000000
# 4 0.000000 0.000000 0.000000 -0.147346 0.000000 0.000000
# 5 0.000000 0.000000 0.000000 0.000000 0.061737 0.000000
# 6 0.000000 0.000000 0.000000 0.000000 0.000000 0.012209
#
#
# Mechanical properties :
#
#
# Convention : Reuss Voigt Hill
#
# Bulk Modulus (GPa) = 43.31093 66.84877 55.07985
# Shear Modulus (GPa) = 670.62863 35.93670 353.28267
#
# Velocity S-wave (km/s) = 17.79124 4.11845 12.91298
# Velocity P-wave (km/s) = 21.03521 7.35985 15.75829
#
# Compressibility (1/GPa) = 0.02308886
#
# Stress axis : x y z
#
# Youngs Moduli (GPa) = 106.75146 81.76109 37.69890
#
# Poissons Ratio (x) = 0.28663 -0.15018
# Poissons Ratio (y) = 0.37424 0.48993
# Poissons Ratio (z) = -0.42527 1.06255
#
# Static dielectric constant tensor:
#      x y z
#    x 1.778700 0.000000 0.000000 
#    y 0.000000 1.782610 0.000000 
#    z 0.000000 0.000000 1.695220 
# 
# From -- ./inp_files/4896.got.cif
#   From: 2010.05.17/outbox.cif.g08.bks.cpg/sg51_3_cif.got.tgz:4896.got - 2010.06.03 11:52:47.
