data_PCOD9400614
_publ_section_title
;
Structure prediction by ZEFSAII (Michael W. Deem and Ramdas Pophale) SiO2 
 PCOD9400614
Probable space group: P M M A
;
_chemical_formula_sum "Si O2"
_cell_formula_units_Z 64
_cell_length_a 29.411955
_cell_length_b 8.829823
_cell_length_c 15.973148
_cell_angle_alpha 90.000000
_cell_angle_beta 90.000000
_cell_angle_gamma 90.000000
_cell_volume 4148.264180
_symmetry_space_group_name_H-M "P M M A"
_symmetry_group_IT_number 51
_symmetry_cell_setting 'orthorhombic'
loop_
_space_group_symop_operation_xyz
x,y,z
1/2-x,-y,z
1/2+x,-y,-z
-x,y,-z
-x,-y,-z
1/2+x,y,-z
1/2-x,y,z
x,-y,z
loop_
_atom_site_type_symbol
_atom_site_label
_atom_site_fract_x
_atom_site_fract_y
_atom_site_fract_z
Si Si1 0.303587 0.819189 0.316113
Si Si2 0.355215 0.184646 0.833303
Si Si3 0.949700 0.816322 0.096802
Si Si4 0.194820 0.674428 0.491669
Si Si5 0.303562 0.817678 0.003393
Si Si6 0.356952 0.680209 0.160706
Si Si7 0.696642 0.182631 0.332920
Si Si8 0.948163 0.183051 0.900564
O O1 0.250000 0.779341 0.305584
O O2 0.318568 0.763180 0.407927
O O3 0.332556 0.743528 0.243182
O O4 0.307241 0.000000 0.310867
O O5 0.406929 0.236157 0.849003
O O6 0.332271 0.234679 0.747033
O O7 0.355316 0.000000 0.831458
O O8 0.325646 0.227137 0.914690
O O9 0.000448 0.769068 0.122507
O O10 0.949975 0.000000 0.099095
O O11 0.942151 0.777260 0.999080
O O12 0.250000 0.678811 0.493096
O O13 0.180604 0.500000 0.486483
O O14 0.180430 0.748397 0.579243
O O15 0.250000 0.783876 0.004819
O O16 0.329358 0.740666 0.080062
O O17 0.309010 0.000000 0.011777
O O18 0.356700 0.500000 0.161473
O O19 0.408115 0.742101 0.151417
O O20 0.750000 0.221634 0.320433
O O21 0.694225 0.000000 0.338294
O O22 0.944920 0.000000 0.894349
#
# Coordination Sequence:
#
# PCOD9400614 Si02
#       8
#     8   8   8   8   8   8   8   8
#     4  10  20  34  52  71  91 119 157 197 232 272
#     4   9  15  26  46  71  94 119 158 200 233 268
#     4   8  14  26  49  72  88 114 156 206 246 271
#     4   9  17  30  47  67  93 123 153 189 232 274
#     4  10  19  31  47  65  90 127 166 198 227 265
#     4  12  23  32  44  66  96 128 156 189 235 284
#     4   9  16  26  43  68  96 125 157 191 225 267
#     4   9  16  30  50  68  87 117 159 202 241 280
#
# _framework density 15.428140000000001
#
# number of rings (size 3 to 8) (size 9 to 14) (size 15 to 20)
#    0.000    2.500    1.250    3.375    0.000    5.500 
#    0.000    1.875    0.000    1.500    0.000    0.875 
#    0.000    7.000    0.000    0.000    0.000    0.000 
#
# Total GULP energy -356787.149154 kJ/mol
# GULP energy per Si atom -5574.799206 kJ/mol
# Density = 1.539302 g / cm^3
# Si number density = 15.428140 Si / 1000 Ang^3
#
#
#
# Elastic Constant Matrix: (Units=GPa)
#
#
# Indices 1 2 3 4 5 6 
#
# 1 110.5858 38.8729 73.4318 0.0000 0.0000 0.0000
# 2 38.8729 33.6232 38.4058 0.0000 0.0000 0.0000
# 3 73.4318 38.4058 132.5747 0.0000 0.0000 0.0000
# 4 0.0000 0.0000 0.0000 -17.3862 0.0000 0.0000
# 5 0.0000 0.0000 0.0000 0.0000 8.0201 0.0000
# 6 0.0000 0.0000 0.0000 0.0000 0.0000 6.6296
#
#
#
# Elastic Compliance Matrix: (Units=1/GPa)
#
#
# Indices 1 2 3 4 5 6 
#
# 1 0.017812 -0.013934 -0.005829 0.000000 0.000000 0.000000
# 2 -0.013934 0.055351 -0.008317 0.000000 0.000000 0.000000
# 3 -0.005829 -0.008317 0.013181 0.000000 0.000000 0.000000
# 4 0.000000 0.000000 0.000000 -0.057517 0.000000 0.000000
# 5 0.000000 0.000000 0.000000 0.000000 0.124686 0.000000
# 6 0.000000 0.000000 0.000000 0.000000 0.000000 0.150839
#
#
# Mechanical properties :
#
#
# Convention : Reuss Voigt Hill
#
# Bulk Modulus (GPa) = 33.13086 64.24499 48.68793
# Shear Modulus (GPa) = 13.49261 7.85757 10.67509
#
# Velocity S-wave (km/s) = 2.96048 2.25922 2.63330
# Velocity P-wave (km/s) = 5.76254 6.96687 6.39313
#
# Compressibility (1/GPa) = 0.03018334
#
# Stress axis : x y z
#
# Youngs Moduli (GPa) = 56.14338 18.06651 75.86819
#
# Poissons Ratio (x) = 0.25175 0.44223
# Poissons Ratio (y) = 0.78233 0.63096
# Poissons Ratio (z) = 0.32726 0.15025
#
# Static dielectric constant tensor:
#      x y z
#    x 1.514680 0.000000 0.000000 
#    y 0.000000 1.512630 0.000000 
#    z 0.000000 0.000000 1.495190 
# 
# From -- ./inp_files/26590.got.cif
#   From: 2010.05.17/outbox.cif.g08.bks.cpg/sg51_14_cif.got.tgz:26590.got - 2010.06.03 11:52:47.
