data_PCOD9400968
_publ_section_title
;
Structure prediction by ZEFSAII (Michael W. Deem and Ramdas Pophale) SiO2 
 PCOD9400968
Probable space group: P M M A
;
_chemical_formula_sum "Si O2"
_cell_formula_units_Z 52
_cell_length_a 8.621835
_cell_length_b 13.548297
_cell_length_c 22.594013
_cell_angle_alpha 90.000000
_cell_angle_beta 90.000000
_cell_angle_gamma 90.000000
_cell_volume 2639.233348
_symmetry_space_group_name_H-M "P M M A"
_symmetry_group_IT_number 51
_symmetry_cell_setting 'orthorhombic'
loop_
_space_group_symop_operation_xyz
x,y,z
1/2-x,-y,z
1/2+x,-y,-z
-x,y,-z
-x,-y,-z
1/2+x,y,-z
1/2-x,y,z
x,-y,z
loop_
_atom_site_type_symbol
_atom_site_label
_atom_site_fract_x
_atom_site_fract_y
_atom_site_fract_z
Si Si1 0.435098 0.700935 0.438966
Si Si2 0.070625 0.617900 0.314326
Si Si3 0.927286 0.881574 0.743255
Si Si4 0.431511 0.814461 0.862338
Si Si5 0.434119 0.000000 0.066019
Si Si6 0.064725 0.884143 0.615669
Si Si7 0.062931 0.386435 0.814460
O O1 0.500000 0.658098 0.500000
O O2 0.250000 0.693267 0.439949
O O3 0.494306 0.653437 0.377429
O O4 0.489605 0.813944 0.432786
O O5 0.250000 0.650645 0.310693
O O6 0.069231 0.500000 0.316899
O O7 0.989045 0.642397 0.252229
O O8 0.750000 0.848476 0.754073
O O9 0.040434 0.847698 0.794804
O O10 0.987611 0.854435 0.678384
O O11 0.925403 0.000000 0.744748
O O12 0.250000 0.814936 0.877328
O O13 0.488375 0.699971 0.859968
O O14 0.511665 0.899451 0.901127
O O15 0.250000 0.000000 0.065363
O O16 0.500000 0.000000 0.000000
O O17 0.250000 0.870676 0.618421
O O18 0.033444 0.000000 0.605932
O O19 0.250000 0.386797 0.815481
O O20 0.010248 0.500000 0.825995
#
# Coordination Sequence:
#
# PCOD9400968 Si02
#       7
#     8   8   8   8   4   8   8
#     4  11  23  37  53  72  97 132 177 228 282 345
#     4   9  19  36  56  79 108 141 179 227 283 340
#     4  10  19  31  50  79 113 146 182 229 285 344
#     4  11  21  35  59  88 122 161 201 244 287 339
#     4  12  26  44  64  90 126 166 207 248 289 338
#     4  10  21  36  53  73 100 135 175 224 280 340
#     4   9  19  35  57  88 122 155 191 235 290 347
#
# _framework density 19.702691999999999
#
# number of rings (size 3 to 8) (size 9 to 14) (size 15 to 20)
#    0.000    1.846    0.769    3.462    0.000    7.077 
#    0.000    0.000    0.000    0.462    0.000    0.000 
#    0.000    0.000    0.000    0.000    0.000    0.000 
#
# Total GULP energy -290165.406283 kJ/mol
# GULP energy per Si atom -5580.103967 kJ/mol
# Density = 1.965785 g / cm^3
# Si number density = 19.702692 Si / 1000 Ang^3
#
#
#
# Elastic Constant Matrix: (Units=GPa)
#
#
# Indices 1 2 3 4 5 6 
#
# 1 48.2783 29.2369 18.6649 0.0000 0.0000 0.0000
# 2 29.2369 111.3459 69.0995 0.0000 0.0000 0.0000
# 3 18.6649 69.0995 87.0367 0.0000 0.0000 0.0000
# 4 0.0000 0.0000 0.0000 20.1731 0.0000 0.0000
# 5 0.0000 0.0000 0.0000 0.0000 28.9849 0.0000
# 6 0.0000 0.0000 0.0000 0.0000 0.0000 16.4779
#
#
#
# Elastic Compliance Matrix: (Units=1/GPa)
#
#
# Indices 1 2 3 4 5 6 
#
# 1 0.024633 -0.006288 -0.000291 0.000000 0.000000 0.000000
# 2 -0.006288 0.019308 -0.013981 0.000000 0.000000 0.000000
# 3 -0.000291 -0.013981 0.022651 0.000000 0.000000 0.000000
# 4 0.000000 0.000000 0.000000 0.049571 0.000000 0.000000
# 5 0.000000 0.000000 0.000000 0.000000 0.034501 0.000000
# 6 0.000000 0.000000 0.000000 0.000000 0.000000 0.060687
#
#
# Mechanical properties :
#
#
# Convention : Reuss Voigt Hill
#
# Bulk Modulus (GPa) = 39.25473 53.40707 46.33090
# Shear Modulus (GPa) = 19.15992 21.77116 20.46554
#
# Velocity S-wave (km/s) = 3.12180 3.32774 3.22641
# Velocity P-wave (km/s) = 5.74116 6.47537 6.11929
#
# Compressibility (1/GPa) = 0.02547464
#
# Stress axis : x y z
#
# Youngs Moduli (GPa) = 40.59523 51.79147 44.14798
#
# Poissons Ratio (x) = 0.32566 0.01283
# Poissons Ratio (y) = 0.25526 0.61722
# Poissons Ratio (z) = 0.01180 0.72408
#
# Static dielectric constant tensor:
#      x y z
#    x 1.672050 0.000000 0.000000 
#    y 0.000000 1.777300 0.000000 
#    z 0.000000 0.000000 1.658770 
# 
# From -- ./inp_files/31736.got.cif
#   From: 2010.05.17/outbox.cif.g08.bks.cpg/sg51_16_cif.got.tgz:31736.got - 2010.06.03 11:52:47.
