data_PCOD9400762
_publ_section_title
;
Structure prediction by ZEFSAII (Michael W. Deem and Ramdas Pophale) SiO2 
 PCOD9400762
Probable space group: P M M A
;
_chemical_formula_sum "Si O2"
_cell_formula_units_Z 48
_cell_length_a 15.122513
_cell_length_b 29.167485
_cell_length_c 5.141194
_cell_angle_alpha 90.000000
_cell_angle_beta 90.000000
_cell_angle_gamma 90.000000
_cell_volume 2267.707006
_symmetry_space_group_name_H-M "P M M A"
_symmetry_group_IT_number 51
_symmetry_cell_setting 'orthorhombic'
loop_
_space_group_symop_operation_xyz
x,y,z
1/2-x,-y,z
1/2+x,-y,-z
-x,y,-z
-x,-y,-z
1/2+x,y,-z
1/2-x,y,z
x,-y,z
loop_
_atom_site_type_symbol
_atom_site_label
_atom_site_fract_x
_atom_site_fract_y
_atom_site_fract_z
Si Si1 0.598818 0.551988 0.612122
Si Si2 0.649556 0.394205 0.118617
Si Si3 0.064186 0.950776 0.250056
Si Si4 0.063026 0.148448 0.250614
Si Si5 0.855684 0.245427 0.831448
Si Si6 0.358645 0.297188 0.669299
O O1 0.500000 0.550850 0.500000
O O2 0.626994 0.500000 0.674778
O O3 0.603654 0.582342 0.872031
O O4 0.651448 0.573105 0.370141
O O5 0.750000 0.384994 0.028605
O O6 0.611102 0.346412 0.225484
O O7 0.111341 0.901296 0.251488
O O8 0.000000 0.950760 0.500000
O O9 0.113277 0.000000 0.249900
O O10 0.000000 0.950764 0.000000
O O11 0.121413 0.193721 0.241927
O O12 0.000000 0.150464 0.500000
O O13 0.000000 0.149586 0.000000
O O14 0.750000 0.249865 0.835219
O O15 0.889316 0.281042 0.613599
O O16 0.886604 0.259629 0.117793
O O17 0.250000 0.299156 0.659021
#
# Coordination Sequence:
#
# PCOD9400762 Si02
#       6
#     8   8   8   8   8   8
#     4  11  24  41  59  83 118 150 172 208 271 332
#     4  11  22  39  63  86 107 138 187 232 258 299
#     4   8  14  25  42  64  91 125 162 201 249 301
#     4  10  19  31  48  73 102 128 165 216 257 292
#     4  10  19  34  53  72 100 138 172 201 252 317
#     4   9  19  35  55  77 102 135 172 211 253 301
#
# _framework density 21.166754999999998
#
# number of rings (size 3 to 8) (size 9 to 14) (size 15 to 20)
#    0.000    2.167    0.000    3.500    0.000    6.000 
#    0.000    8.333    0.000    0.500    0.000    0.000 
#    0.000   17.333    0.000    0.000    0.000    2.667 
#
# Total GULP energy -267865.549315 kJ/mol
# GULP energy per Si atom -5580.532277 kJ/mol
# Density = 2.111858 g / cm^3
# Si number density = 21.166755 Si / 1000 Ang^3
#
#
#
# Elastic Constant Matrix: (Units=GPa)
#
#
# Indices 1 2 3 4 5 6 
#
# 1 16.1589 -0.2073 2.6969 0.0000 0.0000 0.0000
# 2 -0.2073 113.0114 7.3551 0.0000 0.0000 0.0000
# 3 2.6969 7.3551 129.0672 0.0000 0.0000 0.0000
# 4 0.0000 0.0000 0.0000 33.3559 0.0000 0.0000
# 5 0.0000 0.0000 0.0000 0.0000 16.8079 0.0000
# 6 0.0000 0.0000 0.0000 0.0000 0.0000 34.4063
#
#
#
# Elastic Compliance Matrix: (Units=1/GPa)
#
#
# Indices 1 2 3 4 5 6 
#
# 1 0.062106 0.000199 -0.001309 0.000000 0.000000 0.000000
# 2 0.000199 0.008882 -0.000510 0.000000 0.000000 0.000000
# 3 -0.001309 -0.000510 0.007804 0.000000 0.000000 0.000000
# 4 0.000000 0.000000 0.000000 0.029980 0.000000 0.000000
# 5 0.000000 0.000000 0.000000 0.000000 0.059496 0.000000
# 6 0.000000 0.000000 0.000000 0.000000 0.000000 0.029064
#
#
# Mechanical properties :
#
#
# Convention : Reuss Voigt Hill
#
# Bulk Modulus (GPa) = 13.23585 30.88079 22.05832
# Shear Modulus (GPa) = 22.14763 33.47353 27.81058
#
# Velocity S-wave (km/s) = 3.23823 3.98102 3.62868
# Velocity P-wave (km/s) = 4.49980 5.97933 5.29153
#
# Compressibility (1/GPa) = 0.07555237
#
# Stress axis : x y z
#
# Youngs Moduli (GPa) = 16.10141 112.58420 128.13389
#
# Poissons Ratio (x) = -0.02242 0.16774
# Poissons Ratio (y) = -0.00321 0.06539
# Poissons Ratio (z) = 0.02108 0.05746
#
# Static dielectric constant tensor:
#      x y z
#    x 1.784030 0.000000 0.000000 
#    y 0.000000 1.821350 0.000000 
#    z 0.000000 0.000000 1.741390 
# 
# From -- ./inp_files/1445.got.cif
#   From: 2010.05.17/outbox.cif.g08.bks.cpg/sg51_1_cif.got.tgz:1445.got - 2010.06.03 11:52:47.
