data_PCOD9400941
_publ_section_title
;
Structure prediction by ZEFSAII (Michael W. Deem and Ramdas Pophale) SiO2 
 PCOD9400941
Probable space group: P M M A
;
_chemical_formula_sum "Si O2"
_cell_formula_units_Z 52
_cell_length_a 8.706566
_cell_length_b 23.604453
_cell_length_c 14.663412
_cell_angle_alpha 90.000000
_cell_angle_beta 90.000000
_cell_angle_gamma 90.000000
_cell_volume 3013.532464
_symmetry_space_group_name_H-M "P M M A"
_symmetry_group_IT_number 51
_symmetry_cell_setting 'orthorhombic'
loop_
_space_group_symop_operation_xyz
x,y,z
1/2-x,-y,z
1/2+x,-y,-z
-x,y,-z
-x,-y,-z
1/2+x,y,-z
1/2-x,y,z
x,-y,z
loop_
_atom_site_type_symbol
_atom_site_label
_atom_site_fract_x
_atom_site_fract_y
_atom_site_fract_z
Si Si1 0.065998 0.777928 0.601370
Si Si2 0.435507 0.435507 0.399813
Si Si3 0.934496 0.850290 0.096610
Si Si4 0.435453 0.327676 0.286954
Si Si5 0.065120 0.107033 0.708302
Si Si6 0.565557 0.276621 0.903599
Si Si7 0.932350 0.000000 0.601898
O O1 0.250000 0.774570 0.597799
O O2 0.024035 0.834006 0.658654
O O3 0.000000 0.782071 0.500000
O O4 0.001520 0.722608 0.651290
O O5 0.500000 0.421642 0.500000
O O6 0.250000 0.434621 0.404425
O O7 0.483138 0.500000 0.377361
O O8 0.484842 0.388028 0.327712
O O9 0.750000 0.846929 0.091647
O O10 0.976886 0.886945 0.185150
O O11 0.999341 0.786720 0.110389
O O12 0.000000 0.871102 0.000000
O O13 0.250000 0.325184 0.291666
O O14 0.479128 0.314878 0.182609
O O15 0.250000 0.100726 0.702935
O O16 0.988656 0.055130 0.656556
O O17 0.750000 0.273013 0.908588
O O18 0.500000 0.297308 0.000000
O O19 0.000000 0.000000 0.500000
O O20 0.750000 0.000000 0.595382
#
# Coordination Sequence:
#
# PCOD9400941 Si02
#       7
#     8   8   8   8   8   8   4
#     4  11  22  35  52  77 108 140 173 215 267 317
#     4   9  18  33  51  72 101 138 179 219 262 314
#     4  10  19  34  56  83 111 141 175 215 265 317
#     4  10  20  33  51  77 105 137 176 219 267 317
#     4  10  22  40  59  80 109 143 180 219 264 316
#     4  10  19  31  50  76 107 139 174 215 263 320
#     4  12  26  42  63  84 107 142 185 224 266 316
#
# _framework density 17.255496999999998
#
# number of rings (size 3 to 8) (size 9 to 14) (size 15 to 20)
#    0.000    1.846    1.538    3.923    0.000    6.154 
#    0.000    0.385    0.000    0.462    0.000    0.000 
#    0.000    0.000    0.000    0.000    0.000    0.615 
#
# Total GULP energy -290337.438516 kJ/mol
# GULP energy per Si atom -5583.412279 kJ/mol
# Density = 1.721622 g / cm^3
# Si number density = 17.255497 Si / 1000 Ang^3
#
#
#
# Elastic Constant Matrix: (Units=GPa)
#
#
# Indices 1 2 3 4 5 6 
#
# 1 36.2807 35.7428 51.4599 0.0000 0.0000 0.0000
# 2 35.7428 109.2362 90.4374 0.0000 0.0000 0.0000
# 3 51.4599 90.4374 188.8938 0.0000 0.0000 0.0000
# 4 0.0000 0.0000 0.0000 27.6974 0.0000 0.0000
# 5 0.0000 0.0000 0.0000 0.0000 28.8562 0.0000
# 6 0.0000 0.0000 0.0000 0.0000 0.0000 20.7784
#
#
#
# Elastic Compliance Matrix: (Units=1/GPa)
#
#
# Indices 1 2 3 4 5 6 
#
# 1 0.049041 -0.008259 -0.009406 0.000000 0.000000 0.000000
# 2 -0.008259 0.016557 -0.005677 0.000000 0.000000 0.000000
# 3 -0.009406 -0.005677 0.010574 0.000000 0.000000 0.000000
# 4 0.000000 0.000000 0.000000 0.036104 0.000000 0.000000
# 5 0.000000 0.000000 0.000000 0.000000 0.034655 0.000000
# 6 0.000000 0.000000 0.000000 0.000000 0.000000 0.048127
#
#
# Mechanical properties :
#
#
# Convention : Reuss Voigt Hill
#
# Bulk Modulus (GPa) = 33.91217 76.63232 55.27224
# Shear Modulus (GPa) = 19.87509 25.91778 22.89643
#
# Velocity S-wave (km/s) = 3.39752 3.87977 3.64662
# Velocity P-wave (km/s) = 5.92338 8.03598 7.05916
#
# Compressibility (1/GPa) = 0.02948794
#
# Stress axis : x y z
#
# Youngs Moduli (GPa) = 20.39125 60.39737 94.56877
#
# Poissons Ratio (x) = 0.49885 0.88948
# Poissons Ratio (y) = 0.16842 0.53686
# Poissons Ratio (z) = 0.19179 0.34287
#
# Static dielectric constant tensor:
#      x y z
#    x 1.583210 0.000000 0.000000 
#    y 0.000000 1.565950 0.000000 
#    z 0.000000 0.000000 1.584970 
# 
# From -- ./inp_files/21540.got.cif
#   From: 2010.05.17/outbox.cif.g08.bks.cpg/sg51_11_cif.got.tgz:21540.got - 2010.06.03 11:52:47.
