data_PCOD9400184
_publ_section_title
;
Structure prediction by ZEFSAII (Michael W. Deem and Ramdas Pophale) SiO2 
 PCOD9400184
Probable space group: P M M A
;
_chemical_formula_sum "Si O2"
_cell_formula_units_Z 48
_cell_length_a 8.795269
_cell_length_b 21.838425
_cell_length_c 20.037430
_cell_angle_alpha 90.000000
_cell_angle_beta 90.000000
_cell_angle_gamma 90.000000
_cell_volume 3848.685809
_symmetry_space_group_name_H-M "P M M A"
_symmetry_group_IT_number 51
_symmetry_cell_setting 'orthorhombic'
loop_
_space_group_symop_operation_xyz
x,y,z
1/2-x,-y,z
1/2+x,-y,-z
-x,y,-z
-x,-y,-z
1/2+x,y,-z
1/2-x,y,z
x,-y,z
loop_
_atom_site_type_symbol
_atom_site_label
_atom_site_fract_x
_atom_site_fract_y
_atom_site_fract_z
Si Si1 0.066111 0.500000 0.075236
Si Si2 0.566911 0.233157 0.924993
Si Si3 0.932483 0.120812 0.156600
Si Si4 0.931503 0.072151 0.709643
Si Si5 0.066858 0.631751 0.074636
Si Si6 0.574715 0.074451 0.430855
Si Si7 0.433016 0.000000 0.926222
O O1 0.250000 0.500000 0.071563
O O2 0.020277 0.566017 0.105845
O O3 0.000000 0.500000 0.000000
O O4 0.750000 0.228752 0.928666
O O5 0.501742 0.180184 0.878542
O O6 0.524154 0.301312 0.898110
O O7 0.500000 0.226874 0.000000
O O8 0.750000 0.124307 0.156224
O O9 0.979297 0.060771 0.113943
O O10 0.991669 0.109907 0.231253
O O11 0.750000 0.076445 0.713970
O O12 0.986710 0.092018 0.636325
O O13 0.973923 0.000000 0.717857
O O14 0.250000 0.631631 0.070854
O O15 0.000000 0.631311 0.000000
O O16 0.500000 0.095777 0.500000
O O17 0.750000 0.093264 0.427033
O O18 0.571151 0.000000 0.432616
O O19 0.250000 0.000000 0.930400
O O20 0.500000 0.000000 0.000000
#
# Coordination Sequence:
#
# PCOD9400184 Si02
#       7
#     4   8   8   8   8   8   4
#     4   8  12  20  34  52  70  90 110 134 169 210
#     4  10  19  30  41  55  72  93 120 153 190 229
#     4  11  21  33  44  55  70  93 121 155 193 232
#     4  10  19  30  44  60  76  95 118 148 186 227
#     4   8  14  23  36  52  71  90 112 140 174 215
#     4   9  16  26  41  60  81 101 119 142 172 213
#     4  10  22  34  44  54  65  82 113 154 196 234
#
# _framework density 12.47179
#
# number of rings (size 3 to 8) (size 9 to 14) (size 15 to 20)
#    0.000    2.500    0.833    2.500    0.000    6.000 
#    0.000    0.000    0.000    0.000    0.000    0.000 
#    0.000    0.000    0.000    0.000    0.000    0.000 
#
# Total GULP energy -267215.859536 kJ/mol
# GULP energy per Si atom -5566.997074 kJ/mol
# Density = 1.244340 g / cm^3
# Si number density = 12.471790 Si / 1000 Ang^3
#
#
#
# Elastic Constant Matrix: (Units=GPa)
#
#
# Indices 1 2 3 4 5 6 
#
# 1 35.1537 28.7139 25.1249 0.0000 0.0000 0.0000
# 2 28.7139 109.9911 43.1085 0.0000 0.0000 0.0000
# 3 25.1249 43.1085 77.9105 0.0000 0.0000 0.0000
# 4 0.0000 0.0000 0.0000 1.4740 0.0000 0.0000
# 5 0.0000 0.0000 0.0000 0.0000 21.1207 0.0000
# 6 0.0000 0.0000 0.0000 0.0000 0.0000 10.0973
#
#
#
# Elastic Compliance Matrix: (Units=1/GPa)
#
#
# Indices 1 2 3 4 5 6 
#
# 1 0.040809 -0.007017 -0.009277 0.000000 0.000000 0.000000
# 2 -0.007017 0.012816 -0.004828 0.000000 0.000000 0.000000
# 3 -0.009277 -0.004828 0.018499 0.000000 0.000000 0.000000
# 4 0.000000 0.000000 0.000000 0.678413 0.000000 0.000000
# 5 0.000000 0.000000 0.000000 0.000000 0.047347 0.000000
# 6 0.000000 0.000000 0.000000 0.000000 0.000000 0.099037
#
#
# Mechanical properties :
#
#
# Convention : Reuss Voigt Hill
#
# Bulk Modulus (GPa) = 33.47004 46.32778 39.89891
# Shear Modulus (GPa) = 5.26801 14.94561 10.10681
#
# Velocity S-wave (km/s) = 2.05745 3.46548 2.84979
# Velocity P-wave (km/s) = 5.70430 7.29653 6.54899
#
# Compressibility (1/GPa) = 0.02987747
#
# Stress axis : x y z
#
# Youngs Moduli (GPa) = 24.50434 78.02835 54.05841
#
# Poissons Ratio (x) = 0.54756 0.50153
# Poissons Ratio (y) = 0.17196 0.26100
# Poissons Ratio (z) = 0.22734 0.37673
#
# Static dielectric constant tensor:
#      x y z
#    x 1.417380 0.000000 0.000000 
#    y 0.000000 1.435560 0.000000 
#    z 0.000000 0.000000 1.374840 
# 
# From -- ./inp_files/28130.got.cif
#   From: 2010.05.17/outbox.cif.g08.bks.cpg/sg51_15_cif.got.tgz:28130.got - 2010.06.03 11:52:47.
