data_PCOD9400329
_publ_section_title
;
Structure prediction by ZEFSAII (Michael W. Deem and Ramdas Pophale) SiO2 
 PCOD9400329
Probable space group: P M M A
;
_chemical_formula_sum "Si O2"
_cell_formula_units_Z 56
_cell_length_a 8.811175
_cell_length_b 20.868251
_cell_length_c 15.707017
_cell_angle_alpha 90.000000
_cell_angle_beta 90.000000
_cell_angle_gamma 90.000000
_cell_volume 2888.109083
_symmetry_space_group_name_H-M "P M M A"
_symmetry_group_IT_number 51
_symmetry_cell_setting 'orthorhombic'
loop_
_space_group_symop_operation_xyz
x,y,z
1/2-x,-y,z
1/2+x,-y,-z
-x,y,-z
-x,-y,-z
1/2+x,y,-z
1/2-x,y,z
x,-y,z
loop_
_atom_site_type_symbol
_atom_site_label
_atom_site_fract_x
_atom_site_fract_y
_atom_site_fract_z
Si Si1 0.573677 0.203109 0.672533
Si Si2 0.931612 0.675507 0.409437
Si Si3 0.427679 0.239002 0.128885
Si Si4 0.432977 0.929294 0.722371
Si Si5 0.930582 0.895878 0.085952
Si Si6 0.932072 0.623694 0.087811
Si Si7 0.934646 0.571365 0.270632
O O1 0.750000 0.201446 0.648333
O O2 0.484732 0.253025 0.614268
O O3 0.562684 0.230661 0.768966
O O4 0.506955 0.131465 0.676442
O O5 0.750000 0.673558 0.412734
O O6 0.984980 0.626433 0.335704
O O7 0.000000 0.656758 0.500000
O O8 0.250000 0.238691 0.104573
O O9 0.512428 0.177268 0.092318
O O10 0.506479 0.304144 0.100178
O O11 0.250000 0.923011 0.718272
O O12 0.475430 0.925529 0.822896
O O13 0.475341 0.000000 0.690022
O O14 0.750000 0.898721 0.079969
O O15 0.000000 0.924284 0.000000
O O16 0.750000 0.624167 0.082854
O O17 0.979014 0.586616 0.173525
O O18 0.000000 0.597553 0.000000
O O19 0.750000 0.572294 0.271825
O O20 0.984489 0.500000 0.295349
#
# Coordination Sequence:
#
# PCOD9400329 Si02
#       7
#     8   8   8   8   8   8   8
#     4  10  20  35  58  86 116 148 189 240 290 342
#     4  11  22  39  65  94 122 153 191 236 290 351
#     4  10  19  32  51  75 106 143 189 242 292 341
#     4   9  19  35  54  77 108 150 195 236 287 351
#     4  10  19  30  45  68 102 142 189 240 292 344
#     4  11  21  34  54  80 112 153 199 244 292 343
#     4   9  20  39  61  85 118 159 198 238 290 350
#
# _framework density 19.389849000000002
#
# number of rings (size 3 to 8) (size 9 to 14) (size 15 to 20)
#    0.000    2.000    1.429    2.571    0.000    2.857 
#    0.000    0.000    0.000    6.429    0.000    0.000 
#    0.000    0.000    0.000    0.000    0.000    0.000 
#
# Total GULP energy -312727.829064 kJ/mol
# GULP energy per Si atom -5584.425519 kJ/mol
# Density = 1.934572 g / cm^3
# Si number density = 19.389849 Si / 1000 Ang^3
#
#
#
# Elastic Constant Matrix: (Units=GPa)
#
#
# Indices 1 2 3 4 5 6 
#
# 1 47.6358 27.9028 27.8318 0.0000 0.0000 0.0000
# 2 27.9028 118.9570 46.8354 0.0000 0.0000 0.0000
# 3 27.8318 46.8354 86.0751 0.0000 0.0000 0.0000
# 4 0.0000 0.0000 0.0000 -66.7285 0.0000 0.0000
# 5 0.0000 0.0000 0.0000 0.0000 29.4915 0.0000
# 6 0.0000 0.0000 0.0000 0.0000 0.0000 8.1226
#
#
#
# Elastic Compliance Matrix: (Units=1/GPa)
#
#
# Indices 1 2 3 4 5 6 
#
# 1 0.027104 -0.003700 -0.006751 0.000000 0.000000 0.000000
# 2 -0.003700 0.011203 -0.004900 0.000000 0.000000 0.000000
# 3 -0.006751 -0.004900 0.016467 0.000000 0.000000 0.000000
# 4 0.000000 0.000000 0.000000 -0.014986 0.000000 0.000000
# 5 0.000000 0.000000 0.000000 0.000000 0.033908 0.000000
# 6 0.000000 0.000000 0.000000 0.000000 0.000000 0.123113
#
#
# Mechanical properties :
#
#
# Convention : Reuss Voigt Hill
#
# Bulk Modulus (GPa) = 41.53938 50.86752 46.20345
# Shear Modulus (GPa) = 21.22839 4.18366 12.70603
#
# Velocity S-wave (km/s) = 3.31240 1.47049 2.56265
# Velocity P-wave (km/s) = 6.00825 5.40131 5.71285
#
# Compressibility (1/GPa) = 0.02407354
#
# Stress axis : x y z
#
# Youngs Moduli (GPa) = 36.89500 89.25950 60.72891
#
# Poissons Ratio (x) = 0.33023 0.40997
# Poissons Ratio (y) = 0.13650 0.29755
# Poissons Ratio (z) = 0.24907 0.43734
#
# Static dielectric constant tensor:
#      x y z
#    x 1.648970 0.000000 0.000000 
#    y 0.000000 1.667820 0.000000 
#    z 0.000000 0.000000 1.694510 
# 
# From -- ./inp_files/21780.got.cif
#   From: 2010.05.17/outbox.cif.g08.bks.cpg/sg51_11_cif.got.tgz:21780.got - 2010.06.03 11:52:47.
