data_PCOD9400647
_publ_section_title
;
Structure prediction by ZEFSAII (Michael W. Deem and Ramdas Pophale) SiO2 
 PCOD9400647
Probable space group: P M M A
;
_chemical_formula_sum "Si O2"
_cell_formula_units_Z 64
_cell_length_a 8.875770
_cell_length_b 18.923900
_cell_length_c 23.204164
_cell_angle_alpha 90.000000
_cell_angle_beta 90.000000
_cell_angle_gamma 90.000000
_cell_volume 3897.468469
_symmetry_space_group_name_H-M "P M M A"
_symmetry_group_IT_number 51
_symmetry_cell_setting 'orthorhombic'
loop_
_space_group_symop_operation_xyz
x,y,z
1/2-x,-y,z
1/2+x,-y,-z
-x,y,-z
-x,-y,-z
1/2+x,y,-z
1/2-x,y,z
x,-y,z
loop_
_atom_site_type_symbol
_atom_site_label
_atom_site_fract_x
_atom_site_fract_y
_atom_site_fract_z
Si Si1 0.424782 0.703519 0.757074
Si Si2 0.573933 0.229008 0.555619
Si Si3 0.930119 0.384170 0.439591
Si Si4 0.432853 0.919778 0.063913
Si Si5 0.072847 0.580503 0.317000
Si Si6 0.924006 0.193330 0.843644
Si Si7 0.919321 0.920887 0.741886
Si Si8 0.919251 0.172450 0.338749
O O1 0.250000 0.685995 0.766288
O O2 0.508830 0.636704 0.728817
O O3 0.492082 0.739818 0.814818
O O4 0.432002 0.763867 0.707406
O O5 0.500000 0.193428 0.500000
O O6 0.750000 0.243531 0.547561
O O7 0.483610 0.302560 0.562736
O O8 0.540656 0.184969 0.612206
O O9 0.750000 0.389986 0.441804
O O10 0.000000 0.412459 0.500000
O O11 0.991652 0.414659 0.379403
O O12 0.250000 0.917263 0.062843
O O13 0.483991 0.852524 0.102252
O O14 0.472547 0.000000 0.085215
O O15 0.500000 0.914001 0.000000
O O16 0.250000 0.595347 0.326413
O O17 0.056142 0.500000 0.296040
O O18 0.750000 0.213423 0.854972
O O19 0.924640 0.133987 0.793797
O O20 0.750000 0.915589 0.716830
O O21 0.042135 0.897982 0.695783
O O22 0.940740 0.000000 0.763009
O O23 0.750000 0.173307 0.362346
#
# Coordination Sequence:
#
# PCOD9400647 Si02
#       8
#     8   8   8   8   8   8   8   8
#     4  10  20  33  50  71  96 124 160 203 246 291
#     4  11  20  31  49  69  90 115 148 190 234 284
#     4  11  21  34  51  71  95 124 157 196 241 293
#     4   9  17  29  46  71 105 145 183 216 250 289
#     4  11  23  37  53  72  96 128 163 200 246 300
#     4   9  17  30  49  70  97 133 171 209 245 283
#     4   9  17  29  46  68  92 121 158 197 237 283
#     4  10  19  31  47  68  92 118 149 189 237 287
#
# _framework density 16.420915999999998
#
# number of rings (size 3 to 8) (size 9 to 14) (size 15 to 20)
#    0.000    2.000    1.250    4.500    0.000    4.500 
#    0.000    0.000    0.000    2.625    0.000    0.000 
#    0.000    0.500    0.000    1.625    0.000    2.000 
#
# Total GULP energy -356625.267132 kJ/mol
# GULP energy per Si atom -5572.269799 kJ/mol
# Density = 1.638354 g / cm^3
# Si number density = 16.420916 Si / 1000 Ang^3
#
#
#
# Elastic Constant Matrix: (Units=GPa)
#
#
# Indices 1 2 3 4 5 6 
#
# 1 99.0251 39.1044 36.0375 0.0000 0.0000 0.0000
# 2 39.1044 63.7260 33.4490 0.0000 0.0000 0.0000
# 3 36.0375 33.4490 69.0072 0.0000 0.0000 0.0000
# 4 0.0000 0.0000 0.0000 17.6886 0.0000 0.0000
# 5 0.0000 0.0000 0.0000 0.0000 24.0651 0.0000
# 6 0.0000 0.0000 0.0000 0.0000 0.0000 15.1294
#
#
#
# Elastic Compliance Matrix: (Units=1/GPa)
#
#
# Indices 1 2 3 4 5 6 
#
# 1 0.014214 -0.006473 -0.004286 0.000000 0.000000 0.000000
# 2 -0.006473 0.023995 -0.008250 0.000000 0.000000 0.000000
# 3 -0.004286 -0.008250 0.020728 0.000000 0.000000 0.000000
# 4 0.000000 0.000000 0.000000 0.056534 0.000000 0.000000
# 5 0.000000 0.000000 0.000000 0.000000 0.041554 0.000000
# 6 0.000000 0.000000 0.000000 0.000000 0.000000 0.066097
#
#
# Mechanical properties :
#
#
# Convention : Reuss Voigt Hill
#
# Bulk Modulus (GPa) = 47.80176 49.88224 48.84200
# Shear Modulus (GPa) = 18.64893 19.58778 19.11835
#
# Velocity S-wave (km/s) = 3.37364 3.45752 3.41584
# Velocity P-wave (km/s) = 6.65949 6.81047 6.73540
#
# Compressibility (1/GPa) = 0.02091973
#
# Stress axis : x y z
#
# Youngs Moduli (GPa) = 70.35254 41.67598 48.24314
#
# Poissons Ratio (x) = 0.26976 0.20675
# Poissons Ratio (y) = 0.45538 0.39802
# Poissons Ratio (z) = 0.30150 0.34384
#
# Static dielectric constant tensor:
#      x y z
#    x 1.569550 0.000000 0.000000 
#    y 0.000000 1.556670 0.000000 
#    z 0.000000 0.000000 1.565260 
# 
# From -- ./inp_files/35163.got.cif
#   From: 2010.05.17/outbox.cif.g08.bks.cpg/sg51_18_cif.got.tgz:35163.got - 2010.06.03 11:52:47.
