data_PCOD9400006
_publ_section_title
;
Structure prediction by ZEFSAII (Michael W. Deem and Ramdas Pophale) SiO2 
 PCOD9400006
Probable space group: P M M A
;
_chemical_formula_sum "Si O2"
_cell_formula_units_Z 56
_cell_length_a 7.698854
_cell_length_b 19.897342
_cell_length_c 19.402733
_cell_angle_alpha 90.000000
_cell_angle_beta 90.000000
_cell_angle_gamma 90.000000
_cell_volume 2972.241242
_symmetry_space_group_name_H-M "P M M A"
_symmetry_group_IT_number 51
_symmetry_cell_setting 'orthorhombic'
loop_
_space_group_symop_operation_xyz
x,y,z
1/2-x,-y,z
1/2+x,-y,-z
-x,y,-z
-x,-y,-z
1/2+x,y,-z
1/2-x,y,z
x,-y,z
loop_
_atom_site_type_symbol
_atom_site_label
_atom_site_fract_x
_atom_site_fract_y
_atom_site_fract_z
Si Si1 0.541315 0.286855 0.657206
Si Si2 0.040966 0.714073 0.077826
Si Si3 0.538160 0.795958 0.791964
Si Si4 0.453224 0.574429 0.133908
Si Si5 0.537473 0.076169 0.710267
Si Si6 0.955110 0.425634 0.291447
Si Si7 0.458126 0.840411 0.422016
O O1 0.750000 0.285830 0.656224
O O2 0.485471 0.254232 0.730204
O O3 0.489323 0.364283 0.657408
O O4 0.478653 0.234440 0.599288
O O5 0.250000 0.711229 0.085099
O O6 0.977666 0.766351 0.135579
O O7 0.971852 0.639160 0.095345
O O8 0.000000 0.732909 0.000000
O O9 0.750000 0.796339 0.792396
O O10 0.483497 0.870374 0.768634
O O11 0.250000 0.570780 0.115401
O O12 0.529802 0.500000 0.120882
O O13 0.462649 0.587130 0.216210
O O14 0.750000 0.075278 0.710106
O O15 0.481416 0.107771 0.636815
O O16 0.478052 0.000000 0.719552
O O17 0.750000 0.427924 0.279429
O O18 0.012914 0.500000 0.314781
O O19 0.500000 0.858207 0.500000
O O20 0.250000 0.839263 0.416287
#
# Coordination Sequence:
#
# PCOD9400006 Si02
#       7
#     8   8   8   8   8   8   8
#     4   9  16  30  49  65  85 121 161 192 221 265
#     4  10  19  30  44  63  88 119 154 194 235 274
#     4   8  14  27  45  64  87 115 153 195 225 261
#     4   9  17  30  46  61  83 120 157 186 226 281
#     4   8  14  26  47  73  96 121 154 188 220 260
#     4  10  19  28  42  68  95 115 144 194 244 275
#     4   9  18  30  47  72 101 127 153 184 220 265
#
# _framework density 18.841000000000001
#
# number of rings (size 3 to 8) (size 9 to 14) (size 15 to 20)
#    0.000    3.000    1.429    2.143    0.000    2.571 
#    0.000    0.000    0.000    0.857    0.000    0.000 
#    0.000    0.000    0.000    0.000    0.000    0.000 
#
# Total GULP energy -312050.856699 kJ/mol
# GULP energy per Si atom -5572.336727 kJ/mol
# Density = 1.879812 g / cm^3
# Si number density = 18.841000 Si / 1000 Ang^3
#
#
#
# Elastic Constant Matrix: (Units=GPa)
#
#
# Indices 1 2 3 4 5 6 
#
# 1 28.5424 6.2872 4.5371 0.0000 0.0000 0.0000
# 2 6.2872 155.5576 64.5170 0.0000 0.0000 0.0000
# 3 4.5371 64.5170 85.9089 0.0000 0.0000 0.0000
# 4 0.0000 0.0000 0.0000 18.9679 0.0000 0.0000
# 5 0.0000 0.0000 0.0000 0.0000 7.3354 0.0000
# 6 0.0000 0.0000 0.0000 0.0000 0.0000 -7.0621
#
#
#
# Elastic Compliance Matrix: (Units=1/GPa)
#
#
# Indices 1 2 3 4 5 6 
#
# 1 0.035429 -0.000953 -0.001156 0.000000 0.000000 0.000000
# 2 -0.000953 0.009362 -0.006981 0.000000 0.000000 0.000000
# 3 -0.001156 -0.006981 0.016944 0.000000 0.000000 0.000000
# 4 0.000000 0.000000 0.000000 0.052721 0.000000 0.000000
# 5 0.000000 0.000000 0.000000 0.000000 0.136324 0.000000
# 6 0.000000 0.000000 0.000000 0.000000 0.000000 -0.141601
#
#
# Mechanical properties :
#
#
# Convention : Reuss Voigt Hill
#
# Bulk Modulus (GPa) = 22.95835 46.74350 34.85093
# Shear Modulus (GPa) = 35.24205 16.82608 26.03407
#
# Velocity S-wave (km/s) = 4.32962 2.99165 3.72126
# Velocity P-wave (km/s) = 6.09966 6.06602 6.08286
#
# Compressibility (1/GPa) = 0.04355714
#
# Stress axis : x y z
#
# Youngs Moduli (GPa) = 28.22531 106.81278 59.01908
#
# Poissons Ratio (x) = 0.10175 0.06821
# Poissons Ratio (y) = 0.02689 0.41199
# Poissons Ratio (z) = 0.03262 0.74562
#
# Static dielectric constant tensor:
#      x y z
#    x 1.702360 0.000000 0.000000 
#    y 0.000000 1.685350 0.000000 
#    z 0.000000 0.000000 1.630100 
# 
# From -- ./inp_files/32268.got.cif
#   From: 2010.05.17/outbox.cif.g08.bks.cpg/sg51_17_cif.got.tgz:32268.got - 2010.06.03 11:52:47.
