data_PCOD9400196
_publ_section_title
;
Structure prediction by ZEFSAII (Michael W. Deem and Ramdas Pophale) SiO2 
 PCOD9400196
Probable space group: P M M A
;
_chemical_formula_sum "Si O2"
_cell_formula_units_Z 56
_cell_length_a 9.961354
_cell_length_b 13.832387
_cell_length_c 29.574446
_cell_angle_alpha 90.000000
_cell_angle_beta 90.000000
_cell_angle_gamma 90.000000
_cell_volume 4075.042318
_symmetry_space_group_name_H-M "P M M A"
_symmetry_group_IT_number 51
_symmetry_cell_setting 'orthorhombic'
loop_
_space_group_symop_operation_xyz
x,y,z
1/2-x,-y,z
1/2+x,-y,-z
-x,y,-z
-x,-y,-z
1/2+x,y,-z
1/2-x,y,z
x,-y,z
loop_
_atom_site_type_symbol
_atom_site_label
_atom_site_fract_x
_atom_site_fract_y
_atom_site_fract_z
Si Si1 0.406125 0.117776 0.957733
Si Si2 0.595099 0.882411 0.875856
Si Si3 0.250000 0.883989 0.428689
Si Si4 0.403496 0.117293 0.226807
Si Si5 0.472564 0.792254 0.598219
Si Si6 0.904953 0.886745 0.307821
Si Si7 0.409052 0.614433 0.543716
Si Si8 0.250000 0.114397 0.535629
O O1 0.250000 0.149206 0.960395
O O2 0.485324 0.148801 0.912460
O O3 0.402930 0.000000 0.957791
O O4 0.500000 0.146552 0.000000
O O5 0.750000 0.854127 0.886582
O O6 0.563181 0.851707 0.824427
O O7 0.594901 0.000000 0.876365
O O8 0.380108 0.834643 0.407811
O O9 0.250000 0.865567 0.482514
O O10 0.250000 0.000000 0.421567
O O11 0.250000 0.145780 0.236359
O O12 0.502043 0.147235 0.266697
O O13 0.407491 0.000000 0.226208
O O14 0.422809 0.823077 0.647497
O O15 0.458037 0.680026 0.585287
O O16 0.379015 0.843241 0.560670
O O17 0.750000 0.884571 0.293706
O O18 0.937619 0.000000 0.318749
O O19 0.500000 0.639296 0.500000
O O20 0.250000 0.633102 0.535384
O O21 0.424280 0.500000 0.552003
O O22 0.250000 0.000000 0.541867
#
# Coordination Sequence:
#
# PCOD9400196 Si02
#       8
#     8   8   4   8   8   8   8   4
#     4   9  15  20  27  40  58  81 110 147 191 237
#     4   8  13  22  33  44  60  83 112 148 189 230
#     4  11  24  34  47  69  91 117 144 166 194 242
#     4   8  15  26  39  53  70  94 124 157 191 232
#     4  12  22  34  49  68  89 114 139 170 206 243
#     4  10  19  30  43  59  81 107 132 160 197 242
#     4  10  21  37  56  74  90 110 138 172 208 247
#     4  11  20  34  49  63  89 115 138 162 196 244
#
# _framework density 13.742189
#
# number of rings (size 3 to 8) (size 9 to 14) (size 15 to 20)
#    0.000    2.286    1.429    3.857    2.000    3.429 
#    0.000    2.857    0.000    0.000    0.000    0.000 
#    0.000    0.000    0.000    0.000    0.000    0.000 
#
# Total GULP energy -312001.361694 kJ/mol
# GULP energy per Si atom -5571.452887 kJ/mol
# Density = 1.371091 g / cm^3
# Si number density = 13.742189 Si / 1000 Ang^3
#
#
#
# Elastic Constant Matrix: (Units=GPa)
#
#
# Indices 1 2 3 4 5 6 
#
# 1 102.1928 21.8749 54.0778 0.0000 0.0000 0.0000
# 2 21.8749 26.7943 27.5317 0.0000 0.0000 0.0000
# 3 54.0778 27.5317 88.2571 0.0000 0.0000 0.0000
# 4 0.0000 0.0000 0.0000 2.7293 0.0000 0.0000
# 5 0.0000 0.0000 0.0000 0.0000 26.6620 0.0000
# 6 0.0000 0.0000 0.0000 0.0000 0.0000 13.4350
#
#
#
# Elastic Compliance Matrix: (Units=1/GPa)
#
#
# Indices 1 2 3 4 5 6 
#
# 1 0.014775 -0.004062 -0.007786 0.000000 0.000000 0.000000
# 2 -0.004062 0.056044 -0.014994 0.000000 0.000000 0.000000
# 3 -0.007786 -0.014994 0.020779 0.000000 0.000000 0.000000
# 4 0.000000 0.000000 0.000000 0.366390 0.000000 0.000000
# 5 0.000000 0.000000 0.000000 0.000000 0.037506 0.000000
# 6 0.000000 0.000000 0.000000 0.000000 0.000000 0.074432
#
#
# Mechanical properties :
#
#
# Convention : Reuss Voigt Hill
#
# Bulk Modulus (GPa) = 26.37559 47.13477 36.75518
# Shear Modulus (GPa) = 7.85856 16.14927 12.00392
#
# Velocity S-wave (km/s) = 2.39395 3.43178 2.95872
# Velocity P-wave (km/s) = 5.18422 7.07648 6.20293
#
# Compressibility (1/GPa) = 0.03791385
#
# Stress axis : x y z
#
# Youngs Moduli (GPa) = 67.68159 17.84299 48.12649
#
# Poissons Ratio (x) = 0.07248 0.37471
# Poissons Ratio (y) = 0.27493 0.72161
# Poissons Ratio (z) = 0.52696 0.26754
#
# Static dielectric constant tensor:
#      x y z
#    x 1.469410 0.000000 0.000000 
#    y 0.000000 1.430060 0.000000 
#    z 0.000000 0.000000 1.452630 
# 
# From -- ./inp_files/37509.got.cif
#   From: 2010.05.17/outbox.cif.g08.bks.cpg/sg51_19_cif.got.tgz:37509.got - 2010.06.03 11:52:47.
