data_PCOD9400788
_publ_section_title
;
Structure prediction by ZEFSAII (Michael W. Deem and Ramdas Pophale) SiO2 
 PCOD9400788
Probable space group: P M M A
;
_chemical_formula_sum "Si O2"
_cell_formula_units_Z 48
_cell_length_a 21.481834
_cell_length_b 7.547760
_cell_length_c 15.494979
_cell_angle_alpha 90.000000
_cell_angle_beta 90.000000
_cell_angle_gamma 90.000000
_cell_volume 2512.351671
_symmetry_space_group_name_H-M "P M M A"
_symmetry_group_IT_number 51
_symmetry_cell_setting 'orthorhombic'
loop_
_space_group_symop_operation_xyz
x,y,z
1/2-x,-y,z
1/2+x,-y,-z
-x,y,-z
-x,-y,-z
1/2+x,y,-z
1/2-x,y,z
x,-y,z
loop_
_atom_site_type_symbol
_atom_site_label
_atom_site_fract_x
_atom_site_fract_y
_atom_site_fract_z
Si Si1 0.451988 0.294501 0.431595
Si Si2 0.682667 0.713949 0.997124
Si Si3 0.991284 0.796727 0.757630
Si Si4 0.548362 0.790244 0.072532
Si Si5 0.817334 0.283645 0.617479
Si Si6 0.145969 0.714813 0.191925
O O1 0.500000 0.214034 0.500000
O O2 0.443505 0.500000 0.456467
O O3 0.481347 0.289815 0.335631
O O4 0.381822 0.219077 0.424827
O O5 0.750000 0.773972 0.031693
O O6 0.682666 0.500000 0.998215
O O7 0.619422 0.769549 0.043731
O O8 0.677040 0.770097 0.897010
O O9 0.035992 0.718029 0.831140
O O10 0.923711 0.787536 0.802760
O O11 0.008474 0.000000 0.739662
O O12 0.534722 0.000000 0.079130
O O13 0.500000 0.718671 0.000000
O O14 0.750000 0.226877 0.582543
O O15 0.818713 0.500000 0.614642
O O16 0.821557 0.234459 0.718681
O O17 0.142548 0.500000 0.191683
#
# Coordination Sequence:
#
# PCOD9400788 Si02
#       6
#     8   8   8   8   8   8
#     4   9  18  32  50  72  96 122 155 196 244 297
#     4  10  20  31  46  71 100 130 168 212 253 292
#     4  10  19  31  49  71  95 125 164 204 240 284
#     4  10  20  34  49  68  97 133 172 206 240 290
#     4   8  13  23  42  66  91 118 146 179 225 285
#     4   9  16  27  44  67  96 126 154 189 240 295
#
# _framework density 19.105606000000002
#
# number of rings (size 3 to 8) (size 9 to 14) (size 15 to 20)
#    0.000    2.667    1.667    2.000    0.000    4.333 
#    0.000    0.000    0.000   13.000    0.000    2.333 
#    0.000    0.000    0.000    0.000    0.000    0.000 
#
# Total GULP energy -267476.005108 kJ/mol
# GULP energy per Si atom -5572.416773 kJ/mol
# Density = 1.906212 g / cm^3
# Si number density = 19.105606 Si / 1000 Ang^3
#
#
#
# Elastic Constant Matrix: (Units=GPa)
#
#
# Indices 1 2 3 4 5 6 
#
# 1 164.8799 -1.8619 76.4667 0.0000 0.0000 0.0000
# 2 -1.8619 41.7487 -1.8114 0.0000 0.0000 0.0000
# 3 76.4667 -1.8114 74.1583 0.0000 0.0000 0.0000
# 4 0.0000 0.0000 0.0000 -15.1978 0.0000 0.0000
# 5 0.0000 0.0000 0.0000 0.0000 23.1999 0.0000
# 6 0.0000 0.0000 0.0000 0.0000 0.0000 16.6211
#
#
#
# Elastic Compliance Matrix: (Units=1/GPa)
#
#
# Indices 1 2 3 4 5 6 
#
# 1 0.011623 -0.000002 -0.011985 0.000000 0.000000 0.000000
# 2 -0.000002 0.023978 0.000587 0.000000 0.000000 0.000000
# 3 -0.011985 0.000587 0.025857 0.000000 0.000000 0.000000
# 4 0.000000 0.000000 0.000000 -0.065799 0.000000 0.000000
# 5 0.000000 0.000000 0.000000 0.000000 0.043104 0.000000
# 6 0.000000 0.000000 0.000000 0.000000 0.000000 0.060165
#
#
# Mechanical properties :
#
#
# Convention : Reuss Voigt Hill
#
# Bulk Modulus (GPa) = 25.86655 47.37486 36.62071
# Shear Modulus (GPa) = 37.14317 18.79086 27.96701
#
# Velocity S-wave (km/s) = 4.41398 3.13952 3.83013
# Velocity P-wave (km/s) = 6.28854 6.16379 6.22648
#
# Compressibility (1/GPa) = 0.03865997
#
# Stress axis : x y z
#
# Youngs Moduli (GPa) = 86.03285 41.70446 38.67359
#
# Poissons Ratio (x) = 0.00007 0.46352
# Poissons Ratio (y) = 0.00014 -0.02272
# Poissons Ratio (z) = 1.03113 -0.02450
#
# Static dielectric constant tensor:
#      x y z
#    x 1.698810 0.000000 0.000000 
#    y 0.000000 1.732580 0.000000 
#    z 0.000000 0.000000 1.659540 
# 
# From -- ./inp_files/25445.got.cif
#   From: 2010.05.17/outbox.cif.g08.bks.cpg/sg51_13_cif.got.tgz:25445.got - 2010.06.03 11:52:47.
