data_PCOD9400365
_publ_section_title
;
Structure prediction by ZEFSAII (Michael W. Deem and Ramdas Pophale) SiO2 
 PCOD9400365
Probable space group: P M M A
;
_chemical_formula_sum "Si O2"
_cell_formula_units_Z 40
_cell_length_a 8.898933
_cell_length_b 19.359069
_cell_length_c 13.898553
_cell_angle_alpha 90.000000
_cell_angle_beta 90.000000
_cell_angle_gamma 90.000000
_cell_volume 2394.374024
_symmetry_space_group_name_H-M "P M M A"
_symmetry_group_IT_number 51
_symmetry_cell_setting 'orthorhombic'
loop_
_space_group_symop_operation_xyz
x,y,z
1/2-x,-y,z
1/2+x,-y,-z
-x,y,-z
-x,-y,-z
1/2+x,y,-z
1/2-x,y,z
x,-y,z
loop_
_atom_site_type_symbol
_atom_site_label
_atom_site_fract_x
_atom_site_fract_y
_atom_site_fract_z
Si Si1 0.070816 0.349176 0.899225
Si Si2 0.070696 0.709775 0.399093
Si Si3 0.431137 0.218406 0.201371
Si Si4 0.930516 0.421042 0.301017
Si Si5 0.068879 0.922763 0.105700
O O1 0.250000 0.345222 0.908495
O O2 0.034970 0.399146 0.809227
O O3 0.005936 0.274424 0.869002
O O4 0.000000 0.371436 0.000000
O O5 0.250000 0.708052 0.406724
O O6 0.028756 0.759500 0.309895
O O7 0.000000 0.730983 0.500000
O O8 0.010270 0.634254 0.369067
O O9 0.250000 0.224452 0.192173
O O10 0.476118 0.141025 0.172856
O O11 0.750000 0.414977 0.312843
O O12 0.974357 0.500000 0.319122
O O13 0.250000 0.921322 0.097888
O O14 0.025432 0.000000 0.139175
O O15 0.000000 0.912655 0.000000
#
# Coordination Sequence:
#
# PCOD9400365 Si02
#       5
#     8   8   8   8   8
#     4  10  19  30  46  68  94 125 158 191 228 271
#     4  10  20  34  52  72  92 117 152 193 237 282
#     4   9  18  32  49  69  93 122 157 194 230 272
#     4   9  19  35  51  68  92 121 154 192 233 277
#     4   9  17  29  46  70  99 128 156 186 222 265
#
# _framework density 16.705826999999999
#
# number of rings (size 3 to 8) (size 9 to 14) (size 15 to 20)
#    0.000    2.600    0.000    1.800    0.000    5.200 
#    0.000    0.000    0.000    0.600    0.000    0.000 
#    0.000    0.000    0.000    0.000    0.000    0.600 
#
# Total GULP energy -223082.784303 kJ/mol
# GULP energy per Si atom -5577.069608 kJ/mol
# Density = 1.666780 g / cm^3
# Si number density = 16.705827 Si / 1000 Ang^3
#
#
#
# Elastic Constant Matrix: (Units=GPa)
#
#
# Indices 1 2 3 4 5 6 
#
# 1 16.1500 17.9569 19.3988 0.0000 0.0000 0.0000
# 2 17.9569 111.4421 24.0445 0.0000 0.0000 0.0000
# 3 19.3988 24.0445 63.0604 0.0000 0.0000 0.0000
# 4 0.0000 0.0000 0.0000 9.4362 0.0000 0.0000
# 5 0.0000 0.0000 0.0000 0.0000 30.6535 0.0000
# 6 0.0000 0.0000 0.0000 0.0000 0.0000 19.7542
#
#
#
# Elastic Compliance Matrix: (Units=1/GPa)
#
#
# Indices 1 2 3 4 5 6 
#
# 1 0.109986 -0.011357 -0.029504 0.000000 0.000000 0.000000
# 2 -0.011357 0.010950 -0.000682 0.000000 0.000000 0.000000
# 3 -0.029504 -0.000682 0.025194 0.000000 0.000000 0.000000
# 4 0.000000 0.000000 0.000000 0.105975 0.000000 0.000000
# 5 0.000000 0.000000 0.000000 0.000000 0.032623 0.000000
# 6 0.000000 0.000000 0.000000 0.000000 0.000000 0.050622
#
#
# Mechanical properties :
#
#
# Convention : Reuss Voigt Hill
#
# Bulk Modulus (GPa) = 15.86157 34.82812 25.34484
# Shear Modulus (GPa) = 11.37787 20.58559 15.98173
#
# Velocity S-wave (km/s) = 2.61257 3.51414 3.09634
# Velocity P-wave (km/s) = 4.31462 6.11217 5.29030
#
# Compressibility (1/GPa) = 0.06304547
#
# Stress axis : x y z
#
# Youngs Moduli (GPa) = 9.09206 91.32195 39.69221
#
# Poissons Ratio (x) = 1.03711 1.17108
# Poissons Ratio (y) = 0.10325 0.02706
# Poissons Ratio (z) = 0.26825 0.06225
#
# Static dielectric constant tensor:
#      x y z
#    x 1.556620 0.000000 0.000000 
#    y 0.000000 1.561790 0.000000 
#    z 0.000000 0.000000 1.550150 
# 
# From -- ./inp_files/14007.got.cif
#   From: 2010.05.17/outbox.cif.g08.bks.cpg/sg51_8_cif.got.tgz:14007.got - 2010.06.03 11:52:47.
