data_PCOD9400202
_publ_section_title
;
Structure prediction by ZEFSAII (Michael W. Deem and Ramdas Pophale) SiO2 
 PCOD9400202
Probable space group: P M M A
;
_chemical_formula_sum "Si O2"
_cell_formula_units_Z 64
_cell_length_a 8.464590
_cell_length_b 20.441572
_cell_length_c 20.239907
_cell_angle_alpha 90.000000
_cell_angle_beta 90.000000
_cell_angle_gamma 90.000000
_cell_volume 3502.101513
_symmetry_space_group_name_H-M "P M M A"
_symmetry_group_IT_number 51
_symmetry_cell_setting 'orthorhombic'
loop_
_space_group_symop_operation_xyz
x,y,z
1/2-x,-y,z
1/2+x,-y,-z
-x,y,-z
-x,-y,-z
1/2+x,y,-z
1/2-x,y,z
x,-y,z
loop_
_atom_site_type_symbol
_atom_site_label
_atom_site_fract_x
_atom_site_fract_y
_atom_site_fract_z
Si Si1 0.932431 0.072581 0.685272
Si Si2 0.559355 0.574238 0.820561
Si Si3 0.061567 0.833907 0.434231
Si Si4 0.441299 0.782333 0.823521
Si Si5 0.060952 0.684866 0.283188
Si Si6 0.065406 0.927903 0.827065
Si Si7 0.561113 0.330464 0.074013
Si Si8 0.934608 0.688462 0.429278
O O1 0.750000 0.082737 0.708128
O O2 0.970646 0.125273 0.630821
O O3 0.044985 0.073609 0.747957
O O4 0.938756 0.000000 0.655486
O O5 0.750000 0.574234 0.820205
O O6 0.504463 0.500000 0.810869
O O7 0.507565 0.624509 0.763222
O O8 0.501852 0.605098 0.889155
O O9 0.250000 0.821619 0.438129
O O10 0.000000 0.869131 0.500000
O O11 0.968981 0.766026 0.431527
O O12 0.250000 0.784887 0.820363
O O13 0.498348 0.750843 0.753679
O O14 0.499263 0.855300 0.843411
O O15 0.489852 0.730592 0.879868
O O16 0.250000 0.689611 0.282354
O O17 0.009302 0.670794 0.358335
O O18 0.250000 0.928553 0.845560
O O19 0.998587 0.000000 0.848045
O O20 0.750000 0.331700 0.073858
O O21 0.500000 0.324657 0.000000
O O22 0.750000 0.674923 0.427197
O O23 0.000000 0.662365 0.500000
#
# Coordination Sequence:
#
# PCOD9400202 Si02
#       8
#     8   8   8   8   8   8   8   8
#     4   9  18  30  41  56  81 112 146 187 237 294
#     4   9  19  36  57  81 109 140 171 202 239 287
#     4  10  19  30  43  59  81 111 149 193 243 297
#     4   9  18  32  50  73 100 131 169 210 252 299
#     4  10  19  32  52  77 103 131 165 205 250 299
#     4   9  17  29  46  67  89 116 154 201 250 296
#     4  10  20  34  53  78 108 141 174 208 245 288
#     4  11  21  33  49  69  95 125 161 206 253 299
#
# _framework density 18.274742
#
# number of rings (size 3 to 8) (size 9 to 14) (size 15 to 20)
#    0.000    2.375    0.000    3.750    0.000    5.250 
#    0.000    0.000    0.000    0.750    0.000    0.000 
#    0.000    0.000    0.000    0.000    0.000    0.375 
#
# Total GULP energy -356461.230303 kJ/mol
# GULP energy per Si atom -5569.706723 kJ/mol
# Density = 1.823315 g / cm^3
# Si number density = 18.274742 Si / 1000 Ang^3
#
#
#
# Elastic Constant Matrix: (Units=GPa)
#
#
# Indices 1 2 3 4 5 6 
#
# 1 18.1712 8.8997 8.5758 0.0000 0.0000 0.0000
# 2 8.8997 103.5672 27.7798 0.0000 0.0000 0.0000
# 3 8.5758 27.7798 92.8189 0.0000 0.0000 0.0000
# 4 0.0000 0.0000 0.0000 21.3406 0.0000 0.0000
# 5 0.0000 0.0000 0.0000 0.0000 54.4112 0.0000
# 6 0.0000 0.0000 0.0000 0.0000 0.0000 18.0166
#
#
#
# Elastic Compliance Matrix: (Units=1/GPa)
#
#
# Indices 1 2 3 4 5 6 
#
# 1 0.058970 -0.003921 -0.004275 0.000000 0.000000 0.000000
# 2 -0.003921 0.010759 -0.002858 0.000000 0.000000 0.000000
# 3 -0.004275 -0.002858 0.012024 0.000000 0.000000 0.000000
# 4 0.000000 0.000000 0.000000 0.046859 0.000000 0.000000
# 5 0.000000 0.000000 0.000000 0.000000 0.018379 0.000000
# 6 0.000000 0.000000 0.000000 0.000000 0.000000 0.055504
#
#
# Mechanical properties :
#
#
# Convention : Reuss Voigt Hill
#
# Bulk Modulus (GPa) = 16.76560 33.89641 25.33101
# Shear Modulus (GPa) = 20.45125 30.04048 25.24587
#
# Velocity S-wave (km/s) = 3.34892 4.05881 3.72083
# Velocity P-wave (km/s) = 4.91404 6.36818 5.68778
#
# Compressibility (1/GPa) = 0.05964594
#
# Stress axis : x y z
#
# Youngs Moduli (GPa) = 16.95779 92.94508 83.16724
#
# Poissons Ratio (x) = 0.36441 0.35553
# Poissons Ratio (y) = 0.06649 0.23768
# Poissons Ratio (z) = 0.07249 0.26562
#
# Static dielectric constant tensor:
#      x y z
#    x 1.638270 0.000000 0.000000 
#    y 0.000000 1.668590 0.000000 
#    z 0.000000 0.000000 1.638070 
# 
# From -- ./inp_files/28316.got.cif
#   From: 2010.05.17/outbox.cif.g08.bks.cpg/sg51_15_cif.got.tgz:28316.got - 2010.06.03 11:52:47.
