data_PCOD9400235
_publ_section_title
;
Structure prediction by ZEFSAII (Michael W. Deem and Ramdas Pophale) SiO2 
 PCOD9400235
Probable space group: P M M A
;
_chemical_formula_sum "Si O2"
_cell_formula_units_Z 64
_cell_length_a 29.615451
_cell_length_b 7.634989
_cell_length_c 16.264009
_cell_angle_alpha 90.000000
_cell_angle_beta 90.000000
_cell_angle_gamma 90.000000
_cell_volume 3677.514319
_symmetry_space_group_name_H-M "P M M A"
_symmetry_group_IT_number 51
_symmetry_cell_setting 'orthorhombic'
loop_
_space_group_symop_operation_xyz
x,y,z
1/2-x,-y,z
1/2+x,-y,-z
-x,y,-z
-x,-y,-z
1/2+x,y,-z
1/2-x,y,z
x,-y,z
loop_
_atom_site_type_symbol
_atom_site_label
_atom_site_fract_x
_atom_site_fract_y
_atom_site_fract_z
Si Si1 0.648245 0.205317 0.655039
Si Si2 0.197111 0.213929 0.182400
Si Si3 0.947854 0.288677 0.592218
Si Si4 0.301665 0.708151 0.823067
Si Si5 0.141674 0.715184 0.667669
Si Si6 0.951486 0.713565 0.401837
Si Si7 0.802390 0.210569 0.997076
Si Si8 0.300768 0.293187 0.511568
O O1 0.668663 0.277788 0.739831
O O2 0.594847 0.230560 0.644581
O O3 0.673003 0.275895 0.574049
O O4 0.657992 0.000000 0.655048
O O5 0.250000 0.262425 0.191081
O O6 0.179927 0.270522 0.091909
O O7 0.195982 0.000000 0.182097
O O8 0.947618 0.500000 0.592182
O O9 0.942314 0.233902 0.496676
O O10 0.997711 0.229790 0.619923
O O11 0.250000 0.779337 0.819128
O O12 0.298060 0.500000 0.810881
O O13 0.333413 0.775188 0.750248
O O14 0.321202 0.735425 0.914615
O O15 0.141229 0.500000 0.667926
O O16 0.089921 0.771139 0.654589
O O17 0.170160 0.775175 0.588078
O O18 0.951836 0.500000 0.401697
O O19 0.750000 0.269150 0.998673
O O20 0.802776 0.000000 0.996185
O O21 0.250000 0.219743 0.506805
O O22 0.296682 0.500000 0.527239
#
# Coordination Sequence:
#
# PCOD9400235 Si02
#       8
#     8   8   8   8   8   8   8   8
#     4  11  20  29  43  64  89 116 142 176 220 259
#     4   8  15  28  44  60  81 113 148 173 201 253
#     4   9  16  29  47  64  81 107 147 187 216 249
#     4   9  16  25  40  64  90 111 134 170 212 250
#     4   9  15  26  44  64  85 113 146 172 204 255
#     4   8  14  26  47  65  79 108 148 184 212 246
#     4   8  14  27  45  60  77 107 144 176 205 244
#     4  10  19  30  44  61  85 119 154 179 199 239
#
# _framework density 17.403058000000001
#
# number of rings (size 3 to 8) (size 9 to 14) (size 15 to 20)
#    0.000    3.000    1.250    2.625    0.000    2.250 
#    0.000    3.125    0.000    4.500    0.000    0.875 
#    0.000    7.000    0.000    0.000    0.000    0.000 
#
# Total GULP energy -356533.695798 kJ/mol
# GULP energy per Si atom -5570.838997 kJ/mol
# Density = 1.736345 g / cm^3
# Si number density = 17.403058 Si / 1000 Ang^3
#
#
#
# Elastic Constant Matrix: (Units=GPa)
#
#
# Indices 1 2 3 4 5 6 
#
# 1 111.0178 -3.6526 74.3853 0.0000 0.0000 0.0000
# 2 -3.6526 27.2146 -3.2892 0.0000 0.0000 0.0000
# 3 74.3853 -3.2892 152.2097 0.0000 0.0000 0.0000
# 4 0.0000 0.0000 0.0000 14.2357 0.0000 0.0000
# 5 0.0000 0.0000 0.0000 0.0000 6.3652 0.0000
# 6 0.0000 0.0000 0.0000 0.0000 0.0000 2.6595
#
#
#
# Elastic Compliance Matrix: (Units=1/GPa)
#
#
# Indices 1 2 3 4 5 6 
#
# 1 0.013421 0.001011 -0.006537 0.000000 0.000000 0.000000
# 2 0.001011 0.036917 0.000304 0.000000 0.000000 0.000000
# 3 -0.006537 0.000304 0.009771 0.000000 0.000000 0.000000
# 4 0.000000 0.000000 0.000000 0.070246 0.000000 0.000000
# 5 0.000000 0.000000 0.000000 0.000000 0.157105 0.000000
# 6 0.000000 0.000000 0.000000 0.000000 0.000000 0.376006
#
#
# Mechanical properties :
#
#
# Convention : Reuss Voigt Hill
#
# Bulk Modulus (GPa) = 20.13494 47.25879 33.69687
# Shear Modulus (GPa) = 7.24149 19.51866 13.38008
#
# Velocity S-wave (km/s) = 2.04208 3.35261 2.77580
# Velocity P-wave (km/s) = 4.14186 6.49623 5.44775
#
# Compressibility (1/GPa) = 0.04966490
#
# Stress axis : x y z
#
# Youngs Moduli (GPa) = 74.51142 27.08754 102.34311
#
# Poissons Ratio (x) = -0.02739 0.66901
# Poissons Ratio (y) = -0.07534 -0.03107
# Poissons Ratio (z) = 0.48707 -0.00822
#
# Static dielectric constant tensor:
#      x y z
#    x 1.590350 0.000000 0.000000 
#    y 0.000000 1.652890 0.000000 
#    z 0.000000 0.000000 1.604940 
# 
# From -- ./inp_files/26612.got.cif
#   From: 2010.05.17/outbox.cif.g08.bks.cpg/sg51_14_cif.got.tgz:26612.got - 2010.06.03 11:52:47.
