data_PCOD9400421
_publ_section_title
;
Structure prediction by ZEFSAII (Michael W. Deem and Ramdas Pophale) SiO2 
 PCOD9400421
Probable space group: P M M A
;
_chemical_formula_sum "Si O2"
_cell_formula_units_Z 64
_cell_length_a 14.179422
_cell_length_b 8.947630
_cell_length_c 32.534538
_cell_angle_alpha 90.000000
_cell_angle_beta 90.000000
_cell_angle_gamma 90.000000
_cell_volume 4127.729117
_symmetry_space_group_name_H-M "P M M A"
_symmetry_group_IT_number 51
_symmetry_cell_setting 'orthorhombic'
loop_
_space_group_symop_operation_xyz
x,y,z
1/2-x,-y,z
1/2+x,-y,-z
-x,y,-z
-x,-y,-z
1/2+x,y,-z
1/2-x,y,z
x,-y,z
loop_
_atom_site_type_symbol
_atom_site_label
_atom_site_fract_x
_atom_site_fract_y
_atom_site_fract_z
Si Si1 0.359798 0.820647 0.643704
Si Si2 0.972307 0.180328 0.105080
Si Si3 0.639906 0.180064 0.185988
Si Si4 0.364514 0.327598 0.728870
Si Si5 0.534272 0.180391 0.439924
Si Si6 0.359924 0.677813 0.063319
Si Si7 0.360698 0.320335 0.482394
Si Si8 0.637539 0.175775 0.022942
O O1 0.250000 0.776014 0.636555
O O2 0.393780 0.749428 0.686363
O O3 0.423083 0.781335 0.604495
O O4 0.360715 0.000000 0.647969
O O5 0.921328 0.228512 0.146896
O O6 0.912013 0.225105 0.064842
O O7 0.074780 0.247497 0.097412
O O8 0.976325 0.000000 0.105362
O O9 0.750000 0.222357 0.179782
O O10 0.605859 0.246541 0.229228
O O11 0.636954 0.000000 0.188354
O O12 0.250000 0.320154 0.728839
O O13 0.392720 0.500000 0.729484
O O14 0.431383 0.249471 0.448837
O O15 0.602675 0.248786 0.474884
O O16 0.531419 0.000000 0.444185
O O17 0.250000 0.717805 0.068494
O O18 0.369070 0.500000 0.064386
O O19 0.389603 0.737502 0.018287
O O20 0.250000 0.288178 0.475976
O O21 0.372896 0.500000 0.483689
O O22 0.750000 0.191087 0.028222
O O23 0.616649 0.000000 0.016498
#
# Coordination Sequence:
#
# PCOD9400421 Si02
#       8
#     8   8   8   8   8   8   8   8
#     4   9  17  29  45  66  92 121 152 186 225 266
#     4  10  19  30  47  69  88 112 147 180 213 255
#     4   9  17  30  47  67  93 120 143 172 213 262
#     4   9  17  28  43  65  92 121 150 178 212 258
#     4  10  19  30  47  69  91 119 158 200 235 270
#     4  10  21  34  45  60  85 116 148 182 220 257
#     4  10  20  32  45  63  92 128 160 192 233 278
#     4   9  17  30  47  66  89 115 143 176 212 253
#
# _framework density 15.504894
#
# number of rings (size 3 to 8) (size 9 to 14) (size 15 to 20)
#    0.000    2.500    0.000    3.375    0.000    8.750 
#    0.000    1.250    0.000    3.750    0.000    0.875 
#    0.000    7.000    0.000    0.000    0.000    0.000 
#
# Total GULP energy -356855.780735 kJ/mol
# GULP energy per Si atom -5575.871574 kJ/mol
# Density = 1.546960 g / cm^3
# Si number density = 15.504894 Si / 1000 Ang^3
#
#
#
# Elastic Constant Matrix: (Units=GPa)
#
#
# Indices 1 2 3 4 5 6 
#
# 1 89.5700 38.0491 71.9911 0.0000 0.0000 0.0000
# 2 38.0491 38.4775 49.3762 0.0000 0.0000 0.0000
# 3 71.9911 49.3762 149.1155 0.0000 0.0000 0.0000
# 4 0.0000 0.0000 0.0000 -49.3818 0.0000 0.0000
# 5 0.0000 0.0000 0.0000 0.0000 25.8116 0.0000
# 6 0.0000 0.0000 0.0000 0.0000 0.0000 19.6514
#
#
#
# Elastic Compliance Matrix: (Units=1/GPa)
#
#
# Indices 1 2 3 4 5 6 
#
# 1 0.021888 -0.014057 -0.005913 0.000000 0.000000 0.000000
# 2 -0.014057 0.054220 -0.011167 0.000000 0.000000 0.000000
# 3 -0.005913 -0.011167 0.013259 0.000000 0.000000 0.000000
# 4 0.000000 0.000000 0.000000 -0.020250 0.000000 0.000000
# 5 0.000000 0.000000 0.000000 0.000000 0.038742 0.000000
# 6 0.000000 0.000000 0.000000 0.000000 0.000000 0.050887
#
#
# Mechanical properties :
#
#
# Convention : Reuss Voigt Hill
#
# Bulk Modulus (GPa) = 36.90994 66.22177 51.56586
# Shear Modulus (GPa) = 21.73439 7.06601 14.40020
#
# Velocity S-wave (km/s) = 3.74809 2.13709 3.05085
# Velocity P-wave (km/s) = 6.52594 6.99232 6.76315
#
# Compressibility (1/GPa) = 0.02709297
#
# Stress axis : x y z
#
# Youngs Moduli (GPa) = 45.68697 18.44334 75.42322
#
# Poissons Ratio (x) = 0.25926 0.44595
# Poissons Ratio (y) = 0.64222 0.84227
# Poissons Ratio (z) = 0.27013 0.20596
#
# Static dielectric constant tensor:
#      x y z
#    x 1.516610 0.000000 0.000000 
#    y 0.000000 1.519520 0.000000 
#    z 0.000000 0.000000 1.501310 
# 
# From -- ./inp_files/37814.got.cif
#   From: 2010.05.17/outbox.cif.g08.bks.cpg/sg51_19_cif.got.tgz:37814.got - 2010.06.03 11:52:47.
