data_PCOD9400723
_publ_section_title
;
Structure prediction by ZEFSAII (Michael W. Deem and Ramdas Pophale) SiO2 
 PCOD9400723
Probable space group: P M M A
;
_chemical_formula_sum "Si O2"
_cell_formula_units_Z 56
_cell_length_a 8.559528
_cell_length_b 19.703621
_cell_length_c 19.237695
_cell_angle_alpha 90.000000
_cell_angle_beta 90.000000
_cell_angle_gamma 90.000000
_cell_volume 3244.508358
_symmetry_space_group_name_H-M "P M M A"
_symmetry_group_IT_number 51
_symmetry_cell_setting 'orthorhombic'
loop_
_space_group_symop_operation_xyz
x,y,z
1/2-x,-y,z
1/2+x,-y,-z
-x,y,-z
-x,-y,-z
1/2+x,y,-z
1/2-x,y,z
x,-y,z
loop_
_atom_site_type_symbol
_atom_site_label
_atom_site_fract_x
_atom_site_fract_y
_atom_site_fract_z
Si Si1 0.562920 0.360369 0.784542
Si Si2 0.934625 0.925399 0.718515
Si Si3 0.424672 0.919229 0.569571
Si Si4 0.063103 0.420815 0.925448
Si Si5 0.561553 0.575199 0.353646
Si Si6 0.062796 0.714883 0.576318
Si Si7 0.939194 0.780050 0.714951
O O1 0.750000 0.364859 0.782886
O O2 0.502082 0.380573 0.859847
O O3 0.494840 0.408881 0.724453
O O4 0.516204 0.284103 0.762093
O O5 0.750000 0.928507 0.732361
O O6 0.994351 0.852664 0.745263
O O7 0.964764 0.916221 0.636189
O O8 0.001801 0.000000 0.737838
O O9 0.500000 0.889779 0.500000
O O10 0.250000 0.891998 0.583123
O O11 0.406598 0.000000 0.557632
O O12 0.250000 0.417898 0.925550
O O13 0.015148 0.500000 0.917954
O O14 0.000000 0.396771 0.000000
O O15 0.750000 0.575644 0.353802
O O16 0.508345 0.500000 0.375508
O O17 0.509421 0.638630 0.400882
O O18 0.250000 0.716269 0.575688
O O19 0.000000 0.730339 0.500000
O O20 0.003090 0.763870 0.637815
O O21 0.750000 0.781929 0.710587
#
# Coordination Sequence:
#
# PCOD9400723 Si02
#       7
#     8   8   8   8   8   8   8
#     4  10  19  31  48  70  97 127 157 188 223 267
#     4   9  17  30  47  64  82 106 139 181 226 270
#     4   9  16  25  37  54  76 101 130 167 215 271
#     4  10  20  33  50  74 104 135 164 192 220 252
#     4   9  18  32  48  66  88 116 152 192 233 276
#     4  10  20  33  48  64  84 113 149 191 239 286
#     4   9  19  34  49  66  89 118 152 189 230 278
#
# _framework density 17.259933
#
# number of rings (size 3 to 8) (size 9 to 14) (size 15 to 20)
#    0.000    2.571    0.000    2.143    0.000    7.143 
#    0.000    0.000    0.000    0.000    0.000    0.000 
#    0.000    0.571    0.000    1.000    0.000    1.429 
#
# Total GULP energy -312142.049951 kJ/mol
# GULP energy per Si atom -5573.965178 kJ/mol
# Density = 1.722065 g / cm^3
# Si number density = 17.259933 Si / 1000 Ang^3
#
#
#
# Elastic Constant Matrix: (Units=GPa)
#
#
# Indices 1 2 3 4 5 6 
#
# 1 10.7443 11.9632 6.4815 0.0000 0.0000 0.0000
# 2 11.9632 132.5424 29.0185 0.0000 0.0000 0.0000
# 3 6.4815 29.0185 73.4473 0.0000 0.0000 0.0000
# 4 0.0000 0.0000 0.0000 -0.2901 0.0000 0.0000
# 5 0.0000 0.0000 0.0000 0.0000 21.9407 0.0000
# 6 0.0000 0.0000 0.0000 0.0000 0.0000 12.8156
#
#
#
# Elastic Compliance Matrix: (Units=1/GPa)
#
#
# Indices 1 2 3 4 5 6 
#
# 1 0.105908 -0.008224 -0.006097 0.000000 0.000000 0.000000
# 2 -0.008224 0.008898 -0.002790 0.000000 0.000000 0.000000
# 3 -0.006097 -0.002790 0.015255 0.000000 0.000000 0.000000
# 4 0.000000 0.000000 0.000000 -3.446985 0.000000 0.000000
# 5 0.000000 0.000000 0.000000 0.000000 0.045577 0.000000
# 6 0.000000 0.000000 0.000000 0.000000 0.000000 0.078030
#
#
# Mechanical properties :
#
#
# Convention : Reuss Voigt Hill
#
# Bulk Modulus (GPa) = 10.43408 34.62894 22.53151
# Shear Modulus (GPa) = -1.59890 18.17795 8.28953
#
# Velocity S-wave (km/s) = -0.96352 3.24881 2.19390
# Velocity P-wave (km/s) = 2.19558 5.84634 4.41590
#
# Compressibility (1/GPa) = 0.09583975
#
# Stress axis : x y z
#
# Youngs Moduli (GPa) = 9.44216 112.38647 65.55058
#
# Poissons Ratio (x) = 0.92432 0.39963
# Poissons Ratio (y) = 0.07766 0.18287
# Poissons Ratio (z) = 0.05756 0.31353
#
# Static dielectric constant tensor:
#      x y z
#    x 1.618180 0.000000 0.000000 
#    y 0.000000 1.675070 0.000000 
#    z 0.000000 0.000000 1.538730 
# 
# From -- ./inp_files/28257.got.cif
#   From: 2010.05.17/outbox.cif.g08.bks.cpg/sg51_15_cif.got.tgz:28257.got - 2010.06.03 11:52:47.
