data_PCOD9400589
_publ_section_title
;
Structure prediction by ZEFSAII (Michael W. Deem and Ramdas Pophale) SiO2 
 PCOD9400589
Probable space group: P M M A
;
_chemical_formula_sum "Si O2"
_cell_formula_units_Z 36
_cell_length_a 8.619724
_cell_length_b 18.948097
_cell_length_c 14.544605
_cell_angle_alpha 90.000000
_cell_angle_beta 90.000000
_cell_angle_gamma 90.000000
_cell_volume 2375.532031
_symmetry_space_group_name_H-M "P M M A"
_symmetry_group_IT_number 51
_symmetry_cell_setting 'orthorhombic'
loop_
_space_group_symop_operation_xyz
x,y,z
1/2-x,-y,z
1/2+x,-y,-z
-x,y,-z
-x,-y,-z
1/2+x,y,-z
1/2-x,y,z
x,-y,z
loop_
_atom_site_type_symbol
_atom_site_label
_atom_site_fract_x
_atom_site_fract_y
_atom_site_fract_z
Si Si1 0.062988 0.731153 0.104441
Si Si2 0.435639 0.916744 0.399985
Si Si3 0.064447 0.000000 0.103225
Si Si4 0.937084 0.575769 0.895866
Si Si5 0.065125 0.135140 0.787918
O O1 0.250000 0.736041 0.102019
O O2 0.017180 0.652808 0.141131
O O3 0.995368 0.793254 0.166077
O O4 0.000000 0.737966 0.000000
O O5 0.500000 0.896719 0.500000
O O6 0.250000 0.910062 0.398140
O O7 0.509598 0.873627 0.316841
O O8 0.473921 0.000000 0.385922
O O9 0.005166 0.069223 0.155985
O O10 0.250000 0.000000 0.102150
O O11 0.000000 0.000000 0.000000
O O12 0.750000 0.575719 0.898479
O O13 0.986484 0.500000 0.853623
O O14 0.000000 0.575328 0.000000
O O15 0.250000 0.131921 0.793025
#
# Coordination Sequence:
#
# PCOD9400589 Si02
#       5
#     8   8   4   8   8
#     4  10  19  31  46  66  95 128 162 198 236 278
#     4  10  20  35  55  75  95 118 149 192 239 286
#     4  12  24  38  51  66  89 122 162 200 236 276
#     4   8  14  25  42  63  87 118 155 193 232 274
#     4  12  23  35  50  69  94 124 159 196 235 279
#
# _framework density 15.154500000000001
#
# number of rings (size 3 to 8) (size 9 to 14) (size 15 to 20)
#    0.000    1.778    1.111    5.000    0.000    1.778 
#    0.000    0.000    0.000    0.000    0.000    0.000 
#    0.000    0.889    0.000    2.444    0.000    4.000 
#
# Total GULP energy -200776.345836 kJ/mol
# GULP energy per Si atom -5577.120718 kJ/mol
# Density = 1.512001 g / cm^3
# Si number density = 15.154500 Si / 1000 Ang^3
#
#
#
# Elastic Constant Matrix: (Units=GPa)
#
#
# Indices 1 2 3 4 5 6 
#
# 1 84.4382 50.7110 41.6754 0.0000 0.0000 0.0000
# 2 50.7110 160.4804 67.8042 0.0000 0.0000 0.0000
# 3 41.6754 67.8042 96.5970 0.0000 0.0000 0.0000
# 4 0.0000 0.0000 0.0000 0.5029 0.0000 0.0000
# 5 0.0000 0.0000 0.0000 0.0000 25.2133 0.0000
# 6 0.0000 0.0000 0.0000 0.0000 0.0000 10.9446
#
#
#
# Elastic Compliance Matrix: (Units=1/GPa)
#
#
# Indices 1 2 3 4 5 6 
#
# 1 0.016031 -0.003047 -0.004777 0.000000 0.000000 0.000000
# 2 -0.003047 0.009438 -0.005310 0.000000 0.000000 0.000000
# 3 -0.004777 -0.005310 0.016141 0.000000 0.000000 0.000000
# 4 0.000000 0.000000 0.000000 1.988352 0.000000 0.000000
# 5 0.000000 0.000000 0.000000 0.000000 0.039662 0.000000
# 6 0.000000 0.000000 0.000000 0.000000 0.000000 0.091370
#
#
# Mechanical properties :
#
#
# Convention : Reuss Voigt Hill
#
# Bulk Modulus (GPa) = 65.18811 73.54407 69.36609
# Shear Modulus (GPa) = 2.28063 19.42049 10.85056
#
# Velocity S-wave (km/s) = 1.22808 3.58369 2.67871
# Velocity P-wave (km/s) = 6.71714 8.10917 7.44576
#
# Compressibility (1/GPa) = 0.01534022
#
# Stress axis : x y z
#
# Youngs Moduli (GPa) = 62.37916 105.95844 61.95558
#
# Poissons Ratio (x) = 0.32288 0.29599
# Poissons Ratio (y) = 0.19008 0.32898
# Poissons Ratio (z) = 0.29801 0.56263
#
# Static dielectric constant tensor:
#      x y z
#    x 1.503380 0.000000 0.000000 
#    y 0.000000 1.538100 0.000000 
#    z 0.000000 0.000000 1.467610 
# 
# From -- ./inp_files/14004.got.cif
#   From: 2010.05.17/outbox.cif.g08.bks.cpg/sg51_8_cif.got.tgz:14004.got - 2010.06.03 11:52:47.
