data_PCOD9400916
_publ_section_title
;
Structure prediction by ZEFSAII (Michael W. Deem and Ramdas Pophale) SiO2 
 PCOD9400916
Probable space group: P M M A
;
_chemical_formula_sum "Si O2"
_cell_formula_units_Z 64
_cell_length_a 16.213944
_cell_length_b 18.953032
_cell_length_c 12.269756
_cell_angle_alpha 90.000000
_cell_angle_beta 90.000000
_cell_angle_gamma 90.000000
_cell_volume 3770.537730
_symmetry_space_group_name_H-M "P M M A"
_symmetry_group_IT_number 51
_symmetry_cell_setting 'orthorhombic'
loop_
_space_group_symop_operation_xyz
x,y,z
1/2-x,-y,z
1/2+x,-y,-z
-x,y,-z
-x,-y,-z
1/2+x,y,-z
1/2-x,y,z
x,-y,z
loop_
_atom_site_type_symbol
_atom_site_label
_atom_site_fract_x
_atom_site_fract_y
_atom_site_fract_z
Si Si1 0.902711 0.818703 0.188961
Si Si2 0.343373 0.677155 0.136959
Si Si3 0.498935 0.580792 0.132335
Si Si4 0.843921 0.078526 0.361762
Si Si5 0.420913 0.081014 0.419834
Si Si6 0.593402 0.824386 0.792881
Si Si7 0.657596 0.328432 0.124726
Si Si8 0.600500 0.079997 0.993626
O O1 0.892954 0.861352 0.300226
O O2 0.854228 0.746153 0.183793
O O3 0.999672 0.803984 0.172833
O O4 0.873039 0.871250 0.093957
O O5 0.250000 0.650917 0.157266
O O6 0.417657 0.624236 0.167268
O O7 0.356144 0.752306 0.195583
O O8 0.351284 0.686796 0.005398
O O9 0.496641 0.500000 0.170499
O O10 0.583968 0.620302 0.161163
O O11 0.500000 0.579367 0.000000
O O12 0.750000 0.082100 0.324695
O O13 0.848432 0.085853 0.491530
O O14 0.877107 0.000000 0.334995
O O15 0.500000 0.091165 0.500000
O O16 0.410952 0.136753 0.323427
O O17 0.424894 0.000000 0.377429
O O18 0.623252 0.881280 0.881827
O O19 0.750000 0.356662 0.141974
O O20 0.630951 0.000000 0.000723
O O21 0.500000 0.077038 0.000000
#
# Coordination Sequence:
#
# PCOD9400916 Si02
#       8
#     8   8   8   8   8   8   8   8
#     4  11  18  30  51  72 100 135 171 212 259 311
#     4  10  20  33  50  74 105 139 173 208 255 307
#     4   9  18  32  51  74 103 139 175 206 241 295
#     4  10  21  35  50  70  97 130 172 224 273 311
#     4  10  20  34  51  70  93 130 181 229 272 315
#     4  11  19  31  52  71  99 134 174 219 261 310
#     4  10  19  31  50  75 106 139 171 209 256 306
#     4   9  18  27  43  72  98 128 170 214 260 306
#
# _framework density 16.973706
#
# number of rings (size 3 to 8) (size 9 to 14) (size 15 to 20)
#    0.000    2.000    3.750    1.125    0.000    2.000 
#    0.000    2.500    0.000    1.875    0.000    0.000 
#    0.000    4.500    0.000    5.000    0.000    0.500 
#
# Total GULP energy -356810.801065 kJ/mol
# GULP energy per Si atom -5575.168767 kJ/mol
# Density = 1.693507 g / cm^3
# Si number density = 16.973706 Si / 1000 Ang^3
#
#
#
# Elastic Constant Matrix: (Units=GPa)
#
#
# Indices 1 2 3 4 5 6 
#
# 1 92.3575 49.9549 13.0285 0.0000 0.0000 0.0000
# 2 49.9549 122.2935 32.0069 0.0000 0.0000 0.0000
# 3 13.0285 32.0069 47.7352 0.0000 0.0000 0.0000
# 4 0.0000 0.0000 0.0000 13.2647 0.0000 0.0000
# 5 0.0000 0.0000 0.0000 0.0000 13.3290 0.0000
# 6 0.0000 0.0000 0.0000 0.0000 0.0000 6.7991
#
#
#
# Elastic Compliance Matrix: (Units=1/GPa)
#
#
# Indices 1 2 3 4 5 6 
#
# 1 0.013898 -0.005681 0.000016 0.000000 0.000000 0.000000
# 2 -0.005681 0.012240 -0.006656 0.000000 0.000000 0.000000
# 3 0.000016 -0.006656 0.025408 0.000000 0.000000 0.000000
# 4 0.000000 0.000000 0.000000 0.075388 0.000000 0.000000
# 5 0.000000 0.000000 0.000000 0.000000 0.075025 0.000000
# 6 0.000000 0.000000 0.000000 0.000000 0.000000 0.147079
#
#
# Mechanical properties :
#
#
# Convention : Reuss Voigt Hill
#
# Bulk Modulus (GPa) = 37.17119 50.26299 43.71709
# Shear Modulus (GPa) = 13.06684 17.83827 15.45256
#
# Velocity S-wave (km/s) = 2.77759 3.24533 3.02053
# Velocity P-wave (km/s) = 5.67745 6.61207 6.16250
#
# Compressibility (1/GPa) = 0.02690255
#
# Stress axis : x y z
#
# Youngs Moduli (GPa) = 71.95166 81.69983 39.35832
#
# Poissons Ratio (x) = 0.46417 -0.00064
# Poissons Ratio (y) = 0.40879 0.26198
# Poissons Ratio (z) = -0.00116 0.54382
#
# Static dielectric constant tensor:
#      x y z
#    x 1.645710 0.000000 0.000000 
#    y 0.000000 1.557980 0.000000 
#    z 0.000000 0.000000 1.560850 
# 
# From -- ./inp_files/25366.got.cif
#   From: 2010.05.17/outbox.cif.g08.bks.cpg/sg51_13_cif.got.tgz:25366.got - 2010.06.03 11:52:47.
