data_PCOD9400393
_publ_section_title
;
Structure prediction by ZEFSAII (Michael W. Deem and Ramdas Pophale) SiO2 
 PCOD9400393
Probable space group: P M M A
;
_chemical_formula_sum "Si O2"
_cell_formula_units_Z 64
_cell_length_a 9.292667
_cell_length_b 20.339796
_cell_length_c 18.249417
_cell_angle_alpha 90.000000
_cell_angle_beta 90.000000
_cell_angle_gamma 90.000000
_cell_volume 3449.339664
_symmetry_space_group_name_H-M "P M M A"
_symmetry_group_IT_number 51
_symmetry_cell_setting 'orthorhombic'
loop_
_space_group_symop_operation_xyz
x,y,z
1/2-x,-y,z
1/2+x,-y,-z
-x,y,-z
-x,-y,-z
1/2+x,y,-z
1/2-x,y,z
x,-y,z
loop_
_atom_site_type_symbol
_atom_site_label
_atom_site_fract_x
_atom_site_fract_y
_atom_site_fract_z
Si Si1 0.415664 0.881411 0.572008
Si Si2 0.079556 0.393327 0.428206
Si Si3 0.911076 0.921571 0.714927
Si Si4 0.078337 0.704128 0.783094
Si Si5 0.077526 0.213289 0.927058
Si Si6 0.414356 0.732387 0.616770
Si Si7 0.922150 0.924529 0.136611
Si Si8 0.922764 0.427266 0.738049
O O1 0.500000 0.903290 0.500000
O O2 0.250000 0.903392 0.571245
O O3 0.497991 0.903890 0.644102
O O4 0.417272 0.802258 0.577852
O O5 0.250000 0.397521 0.438578
O O6 0.043245 0.424395 0.349175
O O7 0.000000 0.419973 0.500000
O O8 0.026108 0.318400 0.417220
O O9 0.750000 0.892581 0.713525
O O10 0.997410 0.906136 0.788511
O O11 0.897697 0.000000 0.715384
O O12 0.250000 0.694065 0.788814
O O13 0.034089 0.747536 0.853121
O O14 0.054026 0.739067 0.703986
O O15 0.000081 0.633860 0.776582
O O16 0.250000 0.219522 0.934213
O O17 0.044521 0.135574 0.917128
O O18 0.000000 0.238036 0.000000
O O19 0.250000 0.705774 0.610546
O O20 0.750000 0.923921 0.149125
O O21 0.961182 0.000000 0.115146
O O22 0.750000 0.419550 0.744168
O O23 0.962419 0.500000 0.765630
#
# Coordination Sequence:
#
# PCOD9400393 Si02
#       8
#     8   8   8   8   8   8   8   8
#     4  11  22  34  49  69  95 129 169 216 268 316
#     4  10  19  30  46  70 102 138 172 209 256 306
#     4  10  21  36  53  73  96 125 166 214 261 311
#     4   9  18  34  55  78 105 136 172 214 257 307
#     4  10  21  36  55  83 116 145 174 210 253 304
#     4   9  18  33  52  72  95 127 168 211 255 304
#     4   9  18  35  58  81 108 144 180 212 251 301
#     4   9  19  35  53  75 103 135 175 222 268 313
#
# _framework density 18.554276000000002
#
# number of rings (size 3 to 8) (size 9 to 14) (size 15 to 20)
#    0.000    2.375    0.000    2.250    0.000    7.250 
#    0.000    2.500    0.000    0.375    0.000    0.000 
#    0.000    0.000    0.000    0.000    0.000    0.000 
#
# Total GULP energy -357007.945299 kJ/mol
# GULP energy per Si atom -5578.249145 kJ/mol
# Density = 1.851205 g / cm^3
# Si number density = 18.554276 Si / 1000 Ang^3
#
#
#
# Elastic Constant Matrix: (Units=GPa)
#
#
# Indices 1 2 3 4 5 6 
#
# 1 38.5598 25.8402 40.9752 0.0000 0.0000 0.0000
# 2 25.8402 47.0557 46.0165 0.0000 0.0000 0.0000
# 3 40.9752 46.0165 95.3878 0.0000 0.0000 0.0000
# 4 0.0000 0.0000 0.0000 0.5846 0.0000 0.0000
# 5 0.0000 0.0000 0.0000 0.0000 31.2176 0.0000
# 6 0.0000 0.0000 0.0000 0.0000 0.0000 19.0858
#
#
#
# Elastic Compliance Matrix: (Units=1/GPa)
#
#
# Indices 1 2 3 4 5 6 
#
# 1 0.051349 -0.012546 -0.016005 0.000000 0.000000 0.000000
# 2 -0.012546 0.043296 -0.015497 0.000000 0.000000 0.000000
# 3 -0.016005 -0.015497 0.024835 0.000000 0.000000 0.000000
# 4 0.000000 0.000000 0.000000 1.710620 0.000000 0.000000
# 5 0.000000 0.000000 0.000000 0.000000 0.032033 0.000000
# 6 0.000000 0.000000 0.000000 0.000000 0.000000 0.052395
#
#
# Mechanical properties :
#
#
# Convention : Reuss Voigt Hill
#
# Bulk Modulus (GPa) = 31.86466 45.18523 38.52494
# Shear Modulus (GPa) = 2.48375 14.72236 8.60306
#
# Velocity S-wave (km/s) = 1.15825 2.81993 2.15564
# Velocity P-wave (km/s) = 4.35887 5.91680 5.19655
#
# Compressibility (1/GPa) = 0.03138273
#
# Stress axis : x y z
#
# Youngs Moduli (GPa) = 19.47452 23.09685 40.26583
#
# Poissons Ratio (x) = 0.28977 0.64447
# Poissons Ratio (y) = 0.24433 0.62401
# Poissons Ratio (z) = 0.31170 0.35794
#
# Static dielectric constant tensor:
#      x y z
#    x 1.641900 0.000000 0.000000 
#    y 0.000000 1.662660 0.000000 
#    z 0.000000 0.000000 1.621720 
# 
# From -- ./inp_files/28442.got.cif
#   From: 2010.05.17/outbox.cif.g08.bks.cpg/sg51_15_cif.got.tgz:28442.got - 2010.06.03 11:52:47.
