data_PCOD9400247
_publ_section_title
;
Structure prediction by ZEFSAII (Michael W. Deem and Ramdas Pophale) SiO2 
 PCOD9400247
Probable space group: P M M A
;
_chemical_formula_sum "Si O2"
_cell_formula_units_Z 64
_cell_length_a 7.482493
_cell_length_b 21.655217
_cell_length_c 17.902163
_cell_angle_alpha 90.000000
_cell_angle_beta 90.000000
_cell_angle_gamma 90.000000
_cell_volume 2900.777154
_symmetry_space_group_name_H-M "P M M A"
_symmetry_group_IT_number 51
_symmetry_cell_setting 'orthorhombic'
loop_
_space_group_symop_operation_xyz
x,y,z
1/2-x,-y,z
1/2+x,-y,-z
-x,y,-z
-x,-y,-z
1/2+x,y,-z
1/2-x,y,z
x,-y,z
loop_
_atom_site_type_symbol
_atom_site_label
_atom_site_fract_x
_atom_site_fract_y
_atom_site_fract_z
Si Si1 0.457192 0.066341 0.696148
Si Si2 0.032439 0.568445 0.799690
Si Si3 0.036545 0.299837 0.581946
Si Si4 0.462190 0.933848 0.128641
Si Si5 0.532408 0.432225 0.374697
Si Si6 0.536231 0.332797 0.081805
Si Si7 0.463677 0.201173 0.873446
Si Si8 0.969541 0.199945 0.299412
O O1 0.250000 0.065145 0.673336
O O2 0.461728 0.068603 0.786928
O O3 0.531038 0.132544 0.671989
O O4 0.538321 0.000000 0.674646
O O5 0.250000 0.569704 0.801029
O O6 0.977080 0.500000 0.825276
O O7 0.984020 0.574636 0.712819
O O8 0.967549 0.623105 0.852594
O O9 0.250000 0.303423 0.591858
O O10 0.966758 0.370090 0.586183
O O11 0.970509 0.255556 0.647961
O O12 0.000000 0.273854 0.500000
O O13 0.250000 0.936971 0.135712
O O14 0.498232 0.866805 0.094145
O O15 0.524086 0.000000 0.095240
O O16 0.750000 0.433294 0.378833
O O17 0.470388 0.500000 0.401021
O O18 0.750000 0.329959 0.091125
O O19 0.466386 0.262534 0.086650
O O20 0.500000 0.358768 0.000000
O O21 0.250000 0.204709 0.871860
O O22 0.525572 0.205423 0.786969
O O23 0.750000 0.199582 0.299169
#
# Coordination Sequence:
#
# PCOD9400247 Si02
#       8
#     8   8   8   8   8   8   8   8
#     4   8  13  23  41  64  87 111 143 183 223 263
#     4   8  14  27  49  74  95 117 151 192 227 262
#     4  10  19  30  44  63  89 118 147 182 223 265
#     4   9  16  25  40  66  96 119 141 179 233 282
#     4   8  14  26  46  69  88 110 146 188 222 254
#     4  10  20  32  47  69  96 124 153 187 226 268
#     4   9  17  30  48  67  87 117 158 195 223 259
#     4   8  14  26  45  65  83 109 147 186 218 251
#
# _framework density 22.063051999999999
#
# number of rings (size 3 to 8) (size 9 to 14) (size 15 to 20)
#    0.000    3.250    0.000    2.625    0.000    4.750 
#    0.000    2.500    0.000    3.000    0.000    1.750 
#    0.000    0.000    0.000    0.000    0.000    0.000 
#
# Total GULP energy -356744.289930 kJ/mol
# GULP energy per Si atom -5574.129530 kJ/mol
# Density = 2.201284 g / cm^3
# Si number density = 22.063052 Si / 1000 Ang^3
#
#
#
# Elastic Constant Matrix: (Units=GPa)
#
#
# Indices 1 2 3 4 5 6 
#
# 1 65.2267 3.6470 -5.6529 0.0000 0.0000 0.0000
# 2 3.6470 132.0088 35.9057 0.0000 0.0000 0.0000
# 3 -5.6529 35.9057 55.6775 0.0000 0.0000 0.0000
# 4 0.0000 0.0000 0.0000 -17.5386 0.0000 0.0000
# 5 0.0000 0.0000 0.0000 0.0000 2.4805 0.0000
# 6 0.0000 0.0000 0.0000 0.0000 0.0000 -54.1299
#
#
#
# Elastic Compliance Matrix: (Units=1/GPa)
#
#
# Indices 1 2 3 4 5 6 
#
# 1 0.015585 -0.001044 0.002256 0.000000 0.000000 0.000000
# 2 -0.001044 0.009257 -0.006075 0.000000 0.000000 0.000000
# 3 0.002256 -0.006075 0.022108 0.000000 0.000000 0.000000
# 4 0.000000 0.000000 0.000000 -0.057017 0.000000 0.000000
# 5 0.000000 0.000000 0.000000 0.000000 0.403146 0.000000
# 6 0.000000 0.000000 0.000000 0.000000 0.000000 -0.018474
#
#
# Mechanical properties :
#
#
# Convention : Reuss Voigt Hill
#
# Bulk Modulus (GPa) = 26.86624 35.63472 31.25048
# Shear Modulus (GPa) = 12.60273 0.76328 6.68300
#
# Velocity S-wave (km/s) = 2.39260 0.58882 1.74230
# Velocity P-wave (km/s) = 4.45378 4.08028 4.27111
#
# Compressibility (1/GPa) = 0.03722143
#
# Stress axis : x y z
#
# Youngs Moduli (GPa) = 64.16417 108.03116 45.23334
#
# Poissons Ratio (x) = 0.11280 -0.10203
# Poissons Ratio (y) = 0.06699 0.27481
# Poissons Ratio (z) = -0.14473 0.65634
#
# Static dielectric constant tensor:
#      x y z
#    x 1.840870 0.000000 0.000000 
#    y 0.000000 1.910920 0.000000 
#    z 0.000000 0.000000 1.739590 
# 
# From -- ./inp_files/28338.got.cif
#   From: 2010.05.17/outbox.cif.g08.bks.cpg/sg51_15_cif.got.tgz:28338.got - 2010.06.03 11:52:47.
