data_PCOD9400211
_publ_section_title
;
Structure prediction by ZEFSAII (Michael W. Deem and Ramdas Pophale) SiO2 
 PCOD9400211
Probable space group: P M M A
;
_chemical_formula_sum "Si O2"
_cell_formula_units_Z 64
_cell_length_a 27.054235
_cell_length_b 9.010189
_cell_length_c 18.584125
_cell_angle_alpha 90.000000
_cell_angle_beta 90.000000
_cell_angle_gamma 90.000000
_cell_volume 4530.136383
_symmetry_space_group_name_H-M "P M M A"
_symmetry_group_IT_number 51
_symmetry_cell_setting 'orthorhombic'
loop_
_space_group_symop_operation_xyz
x,y,z
1/2-x,-y,z
1/2+x,-y,-z
-x,y,-z
-x,-y,-z
1/2+x,y,-z
1/2-x,y,z
x,-y,z
loop_
_atom_site_type_symbol
_atom_site_label
_atom_site_fract_x
_atom_site_fract_y
_atom_site_fract_z
Si Si1 0.449910 0.829160 0.548018
Si Si2 0.899248 0.321097 0.914358
Si Si3 0.692150 0.177097 0.666023
Si Si4 0.048207 0.671053 0.947707
Si Si5 0.489769 0.176670 0.171844
Si Si6 0.105605 0.323093 0.422219
Si Si7 0.693190 0.677112 0.819685
Si Si8 0.992762 0.323028 0.672093
O O1 0.500000 0.829300 0.500000
O O2 0.409658 0.749379 0.498068
O O3 0.465081 0.741848 0.619715
O O4 0.436871 0.000000 0.562941
O O5 0.907317 0.500000 0.909577
O O6 0.940370 0.241689 0.865602
O O7 0.845839 0.287025 0.881766
O O8 0.908443 0.281184 0.997828
O O9 0.750000 0.211270 0.651606
O O10 0.654903 0.253779 0.610919
O O11 0.681042 0.237918 0.746052
O O12 0.685840 0.000000 0.664225
O O13 0.055503 0.500000 0.925064
O O14 0.034523 0.770600 0.879870
O O15 0.000000 0.673483 0.000000
O O16 0.494122 0.246073 0.250716
O O17 0.487322 0.000000 0.175190
O O18 0.109827 0.500000 0.429389
O O19 0.060012 0.293213 0.366998
O O20 0.750000 0.710445 0.839043
O O21 0.689621 0.500000 0.805502
O O22 0.997654 0.500000 0.679112
#
# Coordination Sequence:
#
# PCOD9400211 Si02
#       8
#     8   8   8   8   8   8   8   8
#     4   9  17  29  44  62  84 108 135 169 206 243
#     4   9  17  29  43  58  79 109 140 168 204 247
#     4  10  20  31  42  59  84 112 142 177 213 244
#     4   8  15  28  42  55  76 106 136 166 202 245
#     4  11  20  27  39  60  83 107 138 173 206 241
#     4  10  19  30  45  62  81 110 144 173 204 244
#     4   9  17  29  44  61  81 106 138 174 207 241
#     4  10  19  30  43  60  84 112 141 170 202 245
#
# _framework density 14.127610000000001
#
# number of rings (size 3 to 8) (size 9 to 14) (size 15 to 20)
#    0.000    2.500    0.000    4.125    0.000    9.500 
#    0.000    0.000    0.000    0.000    0.000    0.000 
#    0.000    1.000    0.000    5.000    0.000    3.375 
#
# Total GULP energy -356730.771465 kJ/mol
# GULP energy per Si atom -5573.918304 kJ/mol
# Density = 1.409545 g / cm^3
# Si number density = 14.127610 Si / 1000 Ang^3
#
#
#
# Elastic Constant Matrix: (Units=GPa)
#
#
# Indices 1 2 3 4 5 6 
#
# 1 65.7138 36.2695 39.8910 0.0000 0.0000 0.0000
# 2 36.2695 68.9176 53.4264 0.0000 0.0000 0.0000
# 3 39.8910 53.4264 89.4181 0.0000 0.0000 0.0000
# 4 0.0000 0.0000 0.0000 -2.0089 0.0000 0.0000
# 5 0.0000 0.0000 0.0000 0.0000 28.1241 0.0000
# 6 0.0000 0.0000 0.0000 0.0000 0.0000 16.5983
#
#
#
# Elastic Compliance Matrix: (Units=1/GPa)
#
#
# Indices 1 2 3 4 5 6 
#
# 1 0.022863 -0.007685 -0.005608 0.000000 0.000000 0.000000
# 2 -0.007685 0.029613 -0.014265 0.000000 0.000000 0.000000
# 3 -0.005608 -0.014265 0.022209 0.000000 0.000000 0.000000
# 4 0.000000 0.000000 0.000000 -0.497791 0.000000 0.000000
# 5 0.000000 0.000000 0.000000 0.000000 0.035557 0.000000
# 6 0.000000 0.000000 0.000000 0.000000 0.000000 0.060247
#
#
# Mechanical properties :
#
#
# Convention : Reuss Voigt Hill
#
# Bulk Modulus (GPa) = 51.10186 53.69147 52.39667
# Shear Modulus (GPa) = -18.82082 14.84021 -1.99030
#
# Velocity S-wave (km/s) = -3.65389 3.24457 -1.18822
# Velocity P-wave (km/s) = 4.29522 7.21966 5.94022
#
# Compressibility (1/GPa) = 0.01956876
#
# Stress axis : x y z
#
# Youngs Moduli (GPa) = 43.73797 33.76884 45.02757
#
# Poissons Ratio (x) = 0.25951 0.25252
# Poissons Ratio (y) = 0.33612 0.64233
# Poissons Ratio (z) = 0.24529 0.48172
#
# Static dielectric constant tensor:
#      x y z
#    x 1.461350 0.000000 0.000000 
#    y 0.000000 1.470360 0.000000 
#    z 0.000000 0.000000 1.453440 
# 
# From -- ./inp_files/30976.got.cif
#   From: 2010.05.17/outbox.cif.g08.bks.cpg/sg51_16_cif.got.tgz:30976.got - 2010.06.03 11:52:47.
