data_PCOD9400644
_publ_section_title
;
Structure prediction by ZEFSAII (Michael W. Deem and Ramdas Pophale) SiO2 
 PCOD9400644
Probable space group: P M M A
;
_chemical_formula_sum "Si O2"
_cell_formula_units_Z 64
_cell_length_a 9.150055
_cell_length_b 23.792877
_cell_length_c 17.831883
_cell_angle_alpha 90.000000
_cell_angle_beta 90.000000
_cell_angle_gamma 90.000000
_cell_volume 3882.110295
_symmetry_space_group_name_H-M "P M M A"
_symmetry_group_IT_number 51
_symmetry_cell_setting 'orthorhombic'
loop_
_space_group_symop_operation_xyz
x,y,z
1/2-x,-y,z
1/2+x,-y,-z
-x,y,-z
-x,-y,-z
1/2+x,y,-z
1/2-x,y,z
x,-y,z
loop_
_atom_site_type_symbol
_atom_site_label
_atom_site_fract_x
_atom_site_fract_y
_atom_site_fract_z
Si Si1 0.075316 0.820611 0.212461
Si Si2 0.575422 0.348338 0.579182
Si Si3 0.582681 0.351511 0.182151
Si Si4 0.574858 0.264730 0.920189
Si Si5 0.925351 0.063562 0.729766
Si Si6 0.917338 0.738093 0.319414
Si Si7 0.575753 0.434657 0.713531
Si Si8 0.583880 0.068168 0.426308
O O1 0.250000 0.814343 0.223087
O O2 0.038262 0.786142 0.137380
O O3 0.039379 0.886648 0.212505
O O4 0.994439 0.791602 0.282374
O O5 0.500000 0.359676 0.500000
O O6 0.750000 0.343629 0.571422
O O7 0.508437 0.291654 0.615086
O O8 0.543980 0.398266 0.638817
O O9 0.750000 0.360719 0.158436
O O10 0.488781 0.321115 0.118147
O O11 0.584366 0.307310 0.251455
O O12 0.509242 0.406587 0.217331
O O13 0.750000 0.268065 0.926901
O O14 0.500000 0.255977 0.000000
O O15 0.750000 0.062830 0.720137
O O16 0.997972 0.078788 0.650359
O O17 0.971220 0.000000 0.750516
O O18 0.750000 0.749137 0.341623
O O19 0.750000 0.429572 0.726730
O O20 0.539435 0.500000 0.703627
O O21 0.500000 0.089181 0.500000
O O22 0.750000 0.088989 0.423186
O O23 0.589965 0.000000 0.432532
#
# Coordination Sequence:
#
# PCOD9400644 Si02
#       8
#     8   8   8   8   8   8   8   8
#     4   9  18  32  50  72  97 124 155 193 236 284
#     4  10  19  31  47  67  95 130 167 209 252 290
#     4   9  17  30  49  73  98 124 157 196 237 282
#     4  10  19  32  52  77 102 126 154 192 238 286
#     4   9  17  30  48  69  94 126 162 197 235 283
#     4   9  17  30  48  68  90 119 156 198 244 290
#     4   9  18  32  49  70  98 134 172 205 240 284
#     4   9  16  26  41  61  85 114 149 189 230 269
#
# _framework density 16.485879000000001
#
# number of rings (size 3 to 8) (size 9 to 14) (size 15 to 20)
#    0.000    2.750    0.000    1.875    0.000    6.500 
#    0.000    0.625    0.000    3.750    0.000    0.000 
#    0.000    0.000    0.000    0.000    0.000    0.375 
#
# Total GULP energy -356585.516611 kJ/mol
# GULP energy per Si atom -5571.648697 kJ/mol
# Density = 1.644836 g / cm^3
# Si number density = 16.485879 Si / 1000 Ang^3
#
#
#
# Elastic Constant Matrix: (Units=GPa)
#
#
# Indices 1 2 3 4 5 6 
#
# 1 69.0099 49.4823 55.1590 0.0000 0.0000 0.0000
# 2 49.4823 100.5824 58.6036 0.0000 0.0000 0.0000
# 3 55.1590 58.6036 91.7094 0.0000 0.0000 0.0000
# 4 0.0000 0.0000 0.0000 15.5532 0.0000 0.0000
# 5 0.0000 0.0000 0.0000 0.0000 28.5387 0.0000
# 6 0.0000 0.0000 0.0000 0.0000 0.0000 15.3842
#
#
#
# Elastic Compliance Matrix: (Units=1/GPa)
#
#
# Indices 1 2 3 4 5 6 
#
# 1 0.030652 -0.006911 -0.014019 0.000000 0.000000 0.000000
# 2 -0.006911 0.017398 -0.006961 0.000000 0.000000 0.000000
# 3 -0.014019 -0.006961 0.023784 0.000000 0.000000 0.000000
# 4 0.000000 0.000000 0.000000 0.064295 0.000000 0.000000
# 5 0.000000 0.000000 0.000000 0.000000 0.035040 0.000000
# 6 0.000000 0.000000 0.000000 0.000000 0.000000 0.065002
#
#
# Mechanical properties :
#
#
# Convention : Reuss Voigt Hill
#
# Bulk Modulus (GPa) = 62.30073 65.31018 63.80546
# Shear Modulus (GPa) = 16.81786 18.43232 17.62509
#
# Velocity S-wave (km/s) = 3.19742 3.34738 3.27326
# Velocity P-wave (km/s) = 7.17661 7.39201 7.28511
#
# Compressibility (1/GPa) = 0.01605118
#
# Stress axis : x y z
#
# Youngs Moduli (GPa) = 32.62469 57.47909 42.04526
#
# Poissons Ratio (x) = 0.39724 0.58944
# Poissons Ratio (y) = 0.22547 0.29266
# Poissons Ratio (z) = 0.45737 0.40009
#
# Static dielectric constant tensor:
#      x y z
#    x 1.556580 0.000000 0.000000 
#    y 0.000000 1.564650 0.000000 
#    z 0.000000 0.000000 1.528100 
# 
# From -- ./inp_files/28586.got.cif
#   From: 2010.05.17/outbox.cif.g08.bks.cpg/sg51_15_cif.got.tgz:28586.got - 2010.06.03 11:52:47.
