data_PCOD9400469
_publ_section_title
;
Structure prediction by ZEFSAII (Michael W. Deem and Ramdas Pophale) SiO2 
 PCOD9400469
Probable space group: P M M A
;
_chemical_formula_sum "Si O2"
_cell_formula_units_Z 64
_cell_length_a 20.648381
_cell_length_b 7.583859
_cell_length_c 19.027609
_cell_angle_alpha 90.000000
_cell_angle_beta 90.000000
_cell_angle_gamma 90.000000
_cell_volume 2979.617207
_symmetry_space_group_name_H-M "P M M A"
_symmetry_group_IT_number 51
_symmetry_cell_setting 'orthorhombic'
loop_
_space_group_symop_operation_xyz
x,y,z
1/2-x,-y,z
1/2+x,-y,-z
-x,y,-z
-x,-y,-z
1/2+x,y,-z
1/2-x,y,z
x,-y,z
loop_
_atom_site_type_symbol
_atom_site_label
_atom_site_fract_x
_atom_site_fract_y
_atom_site_fract_z
Si Si1 0.820536 0.794825 0.484557
Si Si2 0.681283 0.212579 0.188184
Si Si3 0.868014 0.295131 0.333208
Si Si4 0.946713 0.214218 0.558187
Si Si5 0.325423 0.784993 0.048850
Si Si6 0.422183 0.784534 0.921661
Si Si7 0.442438 0.206833 0.135829
Si Si8 0.506164 0.706011 0.712104
O O1 0.750000 0.713194 0.492566
O O2 0.841349 0.790113 0.403281
O O3 0.878219 0.718471 0.530162
O O4 0.816378 0.000000 0.504622
O O5 0.750000 0.264588 0.154453
O O6 0.678730 0.277964 0.267366
O O7 0.618273 0.272773 0.146776
O O8 0.679386 0.000000 0.188575
O O9 0.878576 0.500000 0.350746
O O10 0.935468 0.215633 0.305329
O O11 0.958052 0.272342 0.637823
O O12 0.000000 0.270582 0.500000
O O13 0.948332 0.000000 0.557978
O O14 0.250000 0.723581 0.046716
O O15 0.370624 0.728419 0.115000
O O16 0.320761 0.000000 0.046813
O O17 0.374016 0.733372 0.984966
O O18 0.496316 0.722564 0.910407
O O19 0.425004 0.000000 0.924116
O O20 0.460246 0.221859 0.217941
O O21 0.440857 0.000000 0.118517
O O22 0.497448 0.500000 0.727175
#
# Coordination Sequence:
#
# PCOD9400469 Si02
#       8
#     8   8   8   8   8   8   8   8
#     4  10  21  37  57  82 110 138 171 215 267 320
#     4  10  19  30  47  73 106 144 179 213 258 313
#     4  11  22  34  50  74 108 145 179 216 260 313
#     4  10  20  36  60  84 106 137 177 219 263 314
#     4   9  17  30  51  82 113 137 172 228 284 324
#     4   9  16  28  49  78 110 139 172 217 268 320
#     4  10  19  33  56  81 106 141 183 224 268 321
#     4  11  23  37  55  80 109 143 183 225 268 313
#
# _framework density 21.479268000000001
#
# number of rings (size 3 to 8) (size 9 to 14) (size 15 to 20)
#    0.000    2.000    2.500    1.875    0.000    6.750 
#    0.000    0.625    0.000    6.375    0.000    0.000 
#    0.000    0.000    0.000    0.000    0.000    0.000 
#
# Total GULP energy -357020.701694 kJ/mol
# GULP energy per Si atom -5578.448464 kJ/mol
# Density = 2.143038 g / cm^3
# Si number density = 21.479268 Si / 1000 Ang^3
#
#
#
# Elastic Constant Matrix: (Units=GPa)
#
#
# Indices 1 2 3 4 5 6 
#
# 1 198.8929 6.4045 83.5235 0.0000 0.0000 0.0000
# 2 6.4045 46.1069 -10.5404 0.0000 0.0000 0.0000
# 3 83.5235 -10.5404 100.3244 0.0000 0.0000 0.0000
# 4 0.0000 0.0000 0.0000-5222.6647 0.0000 0.0000
# 5 0.0000 0.0000 0.0000 0.0000 27.8585 0.0000
# 6 0.0000 0.0000 0.0000 0.0000 0.0000 10.3760
#
#
#
# Elastic Compliance Matrix: (Units=1/GPa)
#
#
# Indices 1 2 3 4 5 6 
#
# 1 0.008049 -0.002715 -0.006986 0.000000 0.000000 0.000000
# 2 -0.002715 0.023138 0.004692 0.000000 0.000000 0.000000
# 3 -0.006986 0.004692 0.016277 0.000000 0.000000 0.000000
# 4 0.000000 0.000000 0.000000 -0.000191 0.000000 0.000000
# 5 0.000000 0.000000 0.000000 0.000000 0.035896 0.000000
# 6 0.000000 0.000000 0.000000 0.000000 0.000000 0.096376
#
#
# Mechanical properties :
#
#
# Convention : Reuss Voigt Hill
#
# Bulk Modulus (GPa) = 26.70638 56.01104 41.35871
# Shear Modulus (GPa) = 24.74675 -1019.15692 -497.20509
#
# Velocity S-wave (km/s) = 3.39798 -21.80629 -15.23102
# Velocity P-wave (km/s) = 5.27783 24.65533 17.02982
#
# Compressibility (1/GPa) = 0.03744424
#
# Stress axis : x y z
#
# Youngs Moduli (GPa) = 124.23614 43.21820 61.43614
#
# Poissons Ratio (x) = 0.11735 0.42922
# Poissons Ratio (y) = 0.33733 -0.28823
# Poissons Ratio (z) = 0.86798 -0.20276
#
# Static dielectric constant tensor:
#      x y z
#    x 1.840350 0.000000 0.000000 
#    y 0.000000 1.770020 0.000000 
#    z 0.000000 0.000000 1.770960 
# 
# From -- ./inp_files/30670.got.cif
#   From: 2010.05.17/outbox.cif.g08.bks.cpg/sg51_16_cif.got.tgz:30670.got - 2010.06.03 11:52:47.
