data_PCOD9400153
_publ_section_title
;
Structure prediction by ZEFSAII (Michael W. Deem and Ramdas Pophale) SiO2 
 PCOD9400153
Probable space group: P M M A
;
_chemical_formula_sum "Si O2"
_cell_formula_units_Z 64
_cell_length_a 31.726649
_cell_length_b 7.747809
_cell_length_c 14.723535
_cell_angle_alpha 90.000000
_cell_angle_beta 90.000000
_cell_angle_gamma 90.000000
_cell_volume 3619.221831
_symmetry_space_group_name_H-M "P M M A"
_symmetry_group_IT_number 51
_symmetry_cell_setting 'orthorhombic'
loop_
_space_group_symop_operation_xyz
x,y,z
1/2-x,-y,z
1/2+x,-y,-z
-x,y,-z
-x,-y,-z
1/2+x,y,-z
1/2-x,y,z
x,-y,z
loop_
_atom_site_type_symbol
_atom_site_label
_atom_site_fract_x
_atom_site_fract_y
_atom_site_fract_z
Si Si1 0.575953 0.790690 0.744403
Si Si2 0.021051 0.201204 0.734232
Si Si3 0.038359 0.297764 0.936200
Si Si4 0.702606 0.793375 0.870393
Si Si5 0.043983 0.700877 0.540760
Si Si6 0.115116 0.208620 0.061524
Si Si7 0.202263 0.709281 0.340041
Si Si8 0.877498 0.302189 0.564789
O O1 0.527327 0.739073 0.738551
O O2 0.594210 0.744521 0.842133
O O3 0.600847 0.702648 0.663556
O O4 0.579113 0.000000 0.734688
O O5 0.955612 0.500000 0.488757
O O6 0.038757 0.221400 0.835348
O O7 0.043114 0.290867 0.649315
O O8 0.970220 0.500000 0.075106
O O9 0.083110 0.273218 0.985285
O O10 0.000000 0.226662 0.000000
O O11 0.750000 0.724415 0.887456
O O12 0.663620 0.729882 0.931618
O O13 0.692450 0.761815 0.763933
O O14 0.704267 0.000000 0.882076
O O15 0.087007 0.778965 0.500196
O O16 0.000000 0.774743 0.500000
O O17 0.020844 0.000000 0.710828
O O18 0.115550 0.000000 0.055389
O O19 0.250000 0.765547 0.358843
O O20 0.201019 0.500000 0.341644
O O21 0.168186 0.775709 0.412492
O O22 0.870391 0.500000 0.534314
#
# Coordination Sequence:
#
# PCOD9400153 Si02
#       8
#     8   8   8   8   8   8   8   8
#     4  10  19  29  45  69  97 127 160 196 232 274
#     4  11  22  35  50  68  95 128 161 201 241 278
#     4  11  23  35  50  71  95 126 163 200 239 285
#     4   9  17  29  46  69  97 128 159 192 234 281
#     4  10  20  33  48  68  95 126 160 197 236 280
#     4  10  19  32  48  69  98 131 163 196 234 280
#     4   9  17  28  43  66  95 125 158 194 231 275
#     4  10  19  30  46  67  94 130 162 192 233 278
#
# _framework density 17.683357999999998
#
# number of rings (size 3 to 8) (size 9 to 14) (size 15 to 20)
#    0.000    2.000    3.750    0.750    0.000    2.750 
#    0.000    0.000    0.000    0.000    0.000    0.875 
#    0.000    3.000    0.000    0.000    0.000    0.000 
#
# Total GULP energy -356867.557219 kJ/mol
# GULP energy per Si atom -5576.055582 kJ/mol
# Density = 1.764311 g / cm^3
# Si number density = 17.683358 Si / 1000 Ang^3
#
#
#
# Elastic Constant Matrix: (Units=GPa)
#
#
# Indices 1 2 3 4 5 6 
#
# 1 132.7232 0.6951 39.9971 0.0000 0.0000 0.0000
# 2 0.6951 23.8356 -4.0137 0.0000 0.0000 0.0000
# 3 39.9971 -4.0137 71.1504 0.0000 0.0000 0.0000
# 4 0.0000 0.0000 0.0000 16.4811 0.0000 0.0000
# 5 0.0000 0.0000 0.0000 0.0000 26.0299 0.0000
# 6 0.0000 0.0000 0.0000 0.0000 0.0000 11.9313
#
#
#
# Elastic Compliance Matrix: (Units=1/GPa)
#
#
# Indices 1 2 3 4 5 6 
#
# 1 0.009102 -0.001138 -0.005181 0.000000 0.000000 0.000000
# 2 -0.001138 0.042499 0.003037 0.000000 0.000000 0.000000
# 3 -0.005181 0.003037 0.017138 0.000000 0.000000 0.000000
# 4 0.000000 0.000000 0.000000 0.060675 0.000000 0.000000
# 5 0.000000 0.000000 0.000000 0.000000 0.038417 0.000000
# 6 0.000000 0.000000 0.000000 0.000000 0.000000 0.083813
#
#
# Mechanical properties :
#
#
# Convention : Reuss Voigt Hill
#
# Bulk Modulus (GPa) = 16.08345 33.45182 24.76764
# Shear Modulus (GPa) = 17.92547 23.62385 20.77466
#
# Velocity S-wave (km/s) = 3.18731 3.65901 3.43127
# Velocity P-wave (km/s) = 4.76028 6.06707 5.45296
#
# Compressibility (1/GPa) = 0.06217571
#
# Stress axis : x y z
#
# Youngs Moduli (GPa) = 109.86991 23.53018 58.34862
#
# Poissons Ratio (x) = 0.02677 0.30229
# Poissons Ratio (y) = 0.12501 -0.17721
# Poissons Ratio (z) = 0.56920 -0.07146
#
# Static dielectric constant tensor:
#      x y z
#    x 1.663470 0.000000 0.000000 
#    y 0.000000 1.656170 0.000000 
#    z 0.000000 0.000000 1.572170 
# 
# From -- ./inp_files/26708.got.cif
#   From: 2010.05.17/outbox.cif.g08.bks.cpg/sg51_14_cif.got.tgz:26708.got - 2010.06.03 11:52:47.
