data_PCOD9400756
_publ_section_title
;
Structure prediction by ZEFSAII (Michael W. Deem and Ramdas Pophale) SiO2 
 PCOD9400756
Probable space group: P M M A
;
_chemical_formula_sum "Si O2"
_cell_formula_units_Z 64
_cell_length_a 8.789938
_cell_length_b 25.600791
_cell_length_c 15.700752
_cell_angle_alpha 90.000000
_cell_angle_beta 90.000000
_cell_angle_gamma 90.000000
_cell_volume 3533.130263
_symmetry_space_group_name_H-M "P M M A"
_symmetry_group_IT_number 51
_symmetry_cell_setting 'orthorhombic'
loop_
_space_group_symop_operation_xyz
x,y,z
1/2-x,-y,z
1/2+x,-y,-z
-x,y,-z
-x,-y,-z
1/2+x,y,-z
1/2-x,y,z
x,-y,z
loop_
_atom_site_type_symbol
_atom_site_label
_atom_site_fract_x
_atom_site_fract_y
_atom_site_fract_z
Si Si1 0.068003 0.825971 0.087085
Si Si2 0.564697 0.441466 0.730945
Si Si3 0.933640 0.148997 0.722948
Si Si4 0.932082 0.642707 0.590777
Si Si5 0.573937 0.259043 0.324664
Si Si6 0.426893 0.285981 0.873575
Si Si7 0.933585 0.939813 0.591865
Si Si8 0.431988 0.397488 0.087228
O O1 0.250000 0.825676 0.081736
O O2 0.022383 0.852674 0.176941
O O3 0.006926 0.766673 0.094713
O O4 0.000000 0.848879 0.000000
O O5 0.750000 0.440762 0.730480
O O6 0.515266 0.500000 0.708500
O O7 0.514949 0.397769 0.663721
O O8 0.518068 0.426919 0.826915
O O9 0.750000 0.152658 0.720768
O O10 0.981082 0.099459 0.666693
O O11 0.001207 0.201830 0.682768
O O12 0.750000 0.641642 0.587685
O O13 0.000000 0.627766 0.500000
O O14 0.986807 0.700605 0.615606
O O15 0.750000 0.255201 0.350183
O O16 0.567367 0.282512 0.228983
O O17 0.250000 0.286770 0.900260
O O18 0.510891 0.337942 0.903139
O O19 0.750000 0.938385 0.586875
O O20 0.000000 0.924272 0.500000
O O21 0.979422 0.000000 0.608171
O O22 0.250000 0.398374 0.082971
O O23 0.500000 0.419465 0.000000
#
# Coordination Sequence:
#
# PCOD9400756 Si02
#       8
#     8   8   8   8   8   8   8   8
#     4  10  19  31  48  72 105 143 183 221 263 310
#     4   9  20  39  60  79 103 137 175 217 266 320
#     4   9  19  34  53  78 110 148 184 219 265 322
#     4  11  22  38  60  83 108 139 175 216 266 322
#     4  10  20  34  54  80 111 142 176 218 264 315
#     4  10  19  32  51  75 105 138 175 216 259 311
#     4   9  18  34  56  81 108 140 180 225 270 317
#     4  11  21  34  54  79 106 138 174 213 261 315
#
# _framework density 18.114248
#
# number of rings (size 3 to 8) (size 9 to 14) (size 15 to 20)
#    0.000    2.125    1.250    2.250    0.000    3.000 
#    0.000    1.250    0.000    5.625    0.000    0.000 
#    0.000    0.000    0.000    0.000    0.000    0.375 
#
# Total GULP energy -357224.251699 kJ/mol
# GULP energy per Si atom -5581.628933 kJ/mol
# Density = 1.807302 g / cm^3
# Si number density = 18.114248 Si / 1000 Ang^3
#
#
#
# Elastic Constant Matrix: (Units=GPa)
#
#
# Indices 1 2 3 4 5 6 
#
# 1 45.2134 21.8233 36.8889 0.0000 0.0000 0.0000
# 2 21.8233 86.7268 68.6021 0.0000 0.0000 0.0000
# 3 36.8889 68.6021 134.2244 0.0000 0.0000 0.0000
# 4 0.0000 0.0000 0.0000 5.9773 0.0000 0.0000
# 5 0.0000 0.0000 0.0000 0.0000 31.3303 0.0000
# 6 0.0000 0.0000 0.0000 0.0000 0.0000 9.3024
#
#
#
# Elastic Compliance Matrix: (Units=1/GPa)
#
#
# Indices 1 2 3 4 5 6 
#
# 1 0.028650 -0.001647 -0.007032 0.000000 0.000000 0.000000
# 2 -0.001647 0.019450 -0.009489 0.000000 0.000000 0.000000
# 3 -0.007032 -0.009489 0.014232 0.000000 0.000000 0.000000
# 4 0.000000 0.000000 0.000000 0.167299 0.000000 0.000000
# 5 0.000000 0.000000 0.000000 0.000000 0.031918 0.000000
# 6 0.000000 0.000000 0.000000 0.000000 0.000000 0.107499
#
#
# Mechanical properties :
#
#
# Convention : Reuss Voigt Hill
#
# Bulk Modulus (GPa) = 38.46493 57.86592 48.16543
# Shear Modulus (GPa) = 12.07585 18.57869 15.32727
#
# Velocity S-wave (km/s) = 2.58476 3.20604 2.91201
# Velocity P-wave (km/s) = 5.49442 6.76160 6.16068
#
# Compressibility (1/GPa) = 0.02599771
#
# Stress axis : x y z
#
# Youngs Moduli (GPa) = 34.90457 51.41286 70.26193
#
# Poissons Ratio (x) = 0.08466 0.49409
# Poissons Ratio (y) = 0.05747 0.66668
# Poissons Ratio (z) = 0.24545 0.48783
#
# Static dielectric constant tensor:
#      x y z
#    x 1.612210 0.000000 0.000000 
#    y 0.000000 1.593270 0.000000 
#    z 0.000000 0.000000 1.648570 
# 
# From -- ./inp_files/22210.got.cif
#   From: 2010.05.17/outbox.cif.g08.bks.cpg/sg51_12_cif.got.tgz:22210.got - 2010.06.03 11:52:47.
