data_PCOD9400738
_publ_section_title
;
Structure prediction by ZEFSAII (Michael W. Deem and Ramdas Pophale) SiO2 
 PCOD9400738
Probable space group: P M M A
;
_chemical_formula_sum "Si O2"
_cell_formula_units_Z 56
_cell_length_a 7.619035
_cell_length_b 15.020711
_cell_length_c 21.879603
_cell_angle_alpha 90.000000
_cell_angle_beta 90.000000
_cell_angle_gamma 90.000000
_cell_volume 2503.974470
_symmetry_space_group_name_H-M "P M M A"
_symmetry_group_IT_number 51
_symmetry_cell_setting 'orthorhombic'
loop_
_space_group_symop_operation_xyz
x,y,z
1/2-x,-y,z
1/2+x,-y,-z
-x,y,-z
-x,-y,-z
1/2+x,y,-z
1/2-x,y,z
x,-y,z
loop_
_atom_site_type_symbol
_atom_site_label
_atom_site_fract_x
_atom_site_fract_y
_atom_site_fract_z
Si Si1 0.960073 0.904764 0.428134
Si Si2 0.467145 0.285134 0.300762
Si Si3 0.041999 0.713108 0.933315
Si Si4 0.461405 0.098244 0.248517
Si Si5 0.540057 0.097794 0.104588
Si Si6 0.958380 0.400119 0.814359
Si Si7 0.056323 0.706757 0.429192
O O1 0.750000 0.894780 0.419862
O O2 0.000000 0.912259 0.500000
O O3 0.054727 0.812779 0.414002
O O4 0.017474 0.000000 0.400842
O O5 0.250000 0.284423 0.302225
O O6 0.525420 0.183580 0.286068
O O7 0.525444 0.344152 0.243408
O O8 0.531781 0.324273 0.365943
O O9 0.250000 0.719678 0.927626
O O10 0.968089 0.813906 0.927555
O O11 0.982066 0.653340 0.877068
O O12 0.000000 0.676012 0.000000
O O13 0.250000 0.097082 0.253720
O O14 0.505935 0.109865 0.176998
O O15 0.529150 0.000000 0.265903
O O16 0.750000 0.094960 0.095543
O O17 0.469518 0.000000 0.086641
O O18 0.750000 0.406778 0.804702
O O19 0.030839 0.500000 0.818073
O O20 0.250000 0.668462 0.429182
O O21 0.000000 0.697535 0.500000
#
# Coordination Sequence:
#
# PCOD9400738 Si02
#       7
#     8   8   8   8   8   8   8
#     4   9  16  26  40  60  90 129 173 217 259 307
#     4   9  18  33  54  80 108 138 179 225 275 332
#     4  11  23  38  59  87 120 156 189 227 272 321
#     4   9  16  28  50  77 104 138 181 228 273 321
#     4   9  18  33  52  78 114 152 188 226 268 312
#     4  10  21  40  65  88 110 139 180 232 285 338
#     4  10  19  31  48  71 101 137 175 220 270 327
#
# _framework density 22.364443999999999
#
# number of rings (size 3 to 8) (size 9 to 14) (size 15 to 20)
#    0.000    2.429    1.429    2.143    0.000    2.857 
#    0.000    4.286    0.000    2.143    0.000    0.000 
#    0.000    0.000    0.000    0.000    0.000    0.571 
#
# Total GULP energy -312202.045900 kJ/mol
# GULP energy per Si atom -5575.036534 kJ/mol
# Density = 2.231354 g / cm^3
# Si number density = 22.364444 Si / 1000 Ang^3
#
#
#
# Elastic Constant Matrix: (Units=GPa)
#
#
# Indices 1 2 3 4 5 6 
#
# 1 55.6481 7.0914 -8.2434 0.0000 0.0000 0.0000
# 2 7.0914 100.8169 67.8154 0.0000 0.0000 0.0000
# 3 -8.2434 67.8154 172.9713 0.0000 0.0000 0.0000
# 4 0.0000 0.0000 0.0000 -14.8952 0.0000 0.0000
# 5 0.0000 0.0000 0.0000 0.0000 12.1257 0.0000
# 6 0.0000 0.0000 0.0000 0.0000 0.0000 6.7016
#
#
#
# Elastic Compliance Matrix: (Units=1/GPa)
#
#
# Indices 1 2 3 4 5 6 
#
# 1 0.018581 -0.002584 0.001899 0.000000 0.000000 0.000000
# 2 -0.002584 0.013831 -0.005546 0.000000 0.000000 0.000000
# 3 0.001899 -0.005546 0.008046 0.000000 0.000000 0.000000
# 4 0.000000 0.000000 0.000000 -0.067136 0.000000 0.000000
# 5 0.000000 0.000000 0.000000 0.000000 0.082469 0.000000
# 6 0.000000 0.000000 0.000000 0.000000 0.000000 0.149217
#
#
# Mechanical properties :
#
#
# Convention : Reuss Voigt Hill
#
# Bulk Modulus (GPa) = 35.72025 51.41812 43.56919
# Shear Modulus (GPa) = 22.04557 18.30464 20.17510
#
# Velocity S-wave (km/s) = 3.14306 2.86400 3.00677
# Velocity P-wave (km/s) = 5.40170 5.82903 5.61943
#
# Compressibility (1/GPa) = 0.02799532
#
# Stress axis : x y z
#
# Youngs Moduli (GPa) = 53.81958 72.30038 124.28390
#
# Poissons Ratio (x) = 0.18683 -0.23597
# Poissons Ratio (y) = 0.13907 0.68926
# Poissons Ratio (z) = -0.10218 0.40097
#
# Static dielectric constant tensor:
#      x y z
#    x 1.838350 0.000000 0.000000 
#    y 0.000000 1.851220 0.000000 
#    z 0.000000 0.000000 1.827980 
# 
# From -- ./inp_files/31911.got.cif
#   From: 2010.05.17/outbox.cif.g08.bks.cpg/sg51_16_cif.got.tgz:31911.got - 2010.06.03 11:52:47.
