data_PCOD9400398
_publ_section_title
;
Structure prediction by ZEFSAII (Michael W. Deem and Ramdas Pophale) SiO2 
 PCOD9400398
Probable space group: P M M A
;
_chemical_formula_sum "Si O2"
_cell_formula_units_Z 44
_cell_length_a 8.278278
_cell_length_b 29.938313
_cell_length_c 9.910632
_cell_angle_alpha 90.000000
_cell_angle_beta 90.000000
_cell_angle_gamma 90.000000
_cell_volume 2456.228021
_symmetry_space_group_name_H-M "P M M A"
_symmetry_group_IT_number 51
_symmetry_cell_setting 'orthorhombic'
loop_
_space_group_symop_operation_xyz
x,y,z
1/2-x,-y,z
1/2+x,-y,-z
-x,y,-z
-x,-y,-z
1/2+x,y,-z
1/2-x,y,z
x,-y,z
loop_
_atom_site_type_symbol
_atom_site_label
_atom_site_fract_x
_atom_site_fract_y
_atom_site_fract_z
Si Si1 0.554758 0.823274 0.847273
Si Si2 0.945632 0.097459 0.655040
Si Si3 0.557288 0.356540 0.654758
Si Si4 0.945338 0.277559 0.847172
Si Si5 0.555305 0.000000 0.655613
Si Si6 0.056623 0.451718 0.656082
O O1 0.750000 0.823518 0.844499
O O2 0.496013 0.861587 0.746176
O O3 0.500998 0.772868 0.810829
O O4 0.500000 0.832080 0.000000
O O5 0.750000 0.097907 0.656212
O O6 0.999400 0.048410 0.708963
O O7 0.000000 0.102015 0.500000
O O8 0.500000 0.352877 0.500000
O O9 0.750000 0.355126 0.652859
O O10 0.495573 0.315623 0.745284
O O11 0.506890 0.404995 0.712566
O O12 0.750000 0.277916 0.844514
O O13 0.000000 0.286421 0.000000
O O14 0.500000 0.000000 0.500000
O O15 0.750000 0.000000 0.661073
O O16 0.250000 0.450339 0.658334
O O17 0.003738 0.500000 0.714248
O O18 0.000000 0.451845 0.500000
#
# Coordination Sequence:
#
# PCOD9400398 Si02
#       6
#     8   8   8   8   4   8
#     4   9  18  33  49  66  90 120 153 189 228 272
#     4   9  17  29  47  69  93 120 152 189 227 269
#     4  10  19  30  46  70  96 120 149 187 227 268
#     4   9  19  34  50  67  89 120 156 189 226 273
#     4   8  14  26  43  64  90 120 150 182 223 268
#     4   9  16  26  42  65  92 121 151 183 221 265
#
# _framework density 17.913646
#
# number of rings (size 3 to 8) (size 9 to 14) (size 15 to 20)
#    0.000    2.909    0.000    2.182    0.000    4.000 
#    0.000    0.455    0.000    0.545    0.000    0.000 
#    0.000    0.000    0.000    0.000    0.000    0.000 
#
# Total GULP energy -244969.090269 kJ/mol
# GULP energy per Si atom -5567.479324 kJ/mol
# Density = 1.787287 g / cm^3
# Si number density = 17.913646 Si / 1000 Ang^3
#
#
#
# Elastic Constant Matrix: (Units=GPa)
#
#
# Indices 1 2 3 4 5 6 
#
# 1 15.2969 22.2310 7.0899 0.0000 0.0000 0.0000
# 2 22.2310 219.4722 93.3170 0.0000 0.0000 0.0000
# 3 7.0899 93.3170 56.9344 0.0000 0.0000 0.0000
# 4 0.0000 0.0000 0.0000 -7.2208 0.0000 0.0000
# 5 0.0000 0.0000 0.0000 0.0000 20.5864 0.0000
# 6 0.0000 0.0000 0.0000 0.0000 0.0000 7.5344
#
#
#
# Elastic Compliance Matrix: (Units=1/GPa)
#
#
# Indices 1 2 3 4 5 6 
#
# 1 0.078606 -0.012538 0.010761 0.000000 0.000000 0.000000
# 2 -0.012538 0.017032 -0.026355 0.000000 0.000000 0.000000
# 3 0.010761 -0.026355 0.059420 0.000000 0.000000 0.000000
# 4 0.000000 0.000000 0.000000 -0.138488 0.000000 0.000000
# 5 0.000000 0.000000 0.000000 0.000000 0.048576 0.000000
# 6 0.000000 0.000000 0.000000 0.000000 0.000000 0.132725
#
#
# Mechanical properties :
#
#
# Convention : Reuss Voigt Hill
#
# Bulk Modulus (GPa) = 10.12193 59.66436 34.89315
# Shear Modulus (GPa) = 17.41763 15.45105 16.43434
#
# Velocity S-wave (km/s) = 3.12157 2.94007 3.03218
# Velocity P-wave (km/s) = 4.31914 6.70107 5.63734
#
# Compressibility (1/GPa) = 0.09879541
#
# Stress axis : x y z
#
# Youngs Moduli (GPa) = 12.72168 58.71271 16.82932
#
# Poissons Ratio (x) = 0.73612 -0.18110
# Poissons Ratio (y) = 0.15950 0.44353
# Poissons Ratio (z) = -0.13690 1.54736
#
# Static dielectric constant tensor:
#      x y z
#    x 1.620320 0.000000 0.000000 
#    y 0.000000 1.686990 0.000000 
#    z 0.000000 0.000000 1.556720 
# 
# From -- ./inp_files/5879.got.cif
#   From: 2010.05.17/outbox.cif.g08.bks.cpg/sg51_3_cif.got.tgz:5879.got - 2010.06.03 11:52:47.
