data_PCOD9400825
_publ_section_title
;
Structure prediction by ZEFSAII (Michael W. Deem and Ramdas Pophale) SiO2 
 PCOD9400825
Probable space group: P M M A
;
_chemical_formula_sum "Si O2"
_cell_formula_units_Z 64
_cell_length_a 8.693764
_cell_length_b 21.251185
_cell_length_c 20.268270
_cell_angle_alpha 90.000000
_cell_angle_beta 90.000000
_cell_angle_gamma 90.000000
_cell_volume 3744.619372
_symmetry_space_group_name_H-M "P M M A"
_symmetry_group_IT_number 51
_symmetry_cell_setting 'orthorhombic'
loop_
_space_group_symop_operation_xyz
x,y,z
1/2-x,-y,z
1/2+x,-y,-z
-x,y,-z
-x,-y,-z
1/2+x,y,-z
1/2-x,y,z
x,-y,z
loop_
_atom_site_type_symbol
_atom_site_label
_atom_site_fract_x
_atom_site_fract_y
_atom_site_fract_z
Si Si1 0.935484 0.070097 0.710468
Si Si2 0.934710 0.736273 0.430887
Si Si3 0.064679 0.312589 0.710255
Si Si4 0.065504 0.377685 0.069079
Si Si5 0.064679 0.187411 0.789745
Si Si6 0.065504 0.877685 0.430921
Si Si7 0.435484 0.570097 0.210468
Si Si8 0.934710 0.763728 0.069113
O O1 0.750000 0.071956 0.713341
O O2 0.978681 0.084176 0.634380
O O3 0.999276 0.125331 0.756059
O O4 0.987009 0.000000 0.729385
O O5 0.750000 0.740232 0.434284
O O6 0.978370 0.696871 0.366202
O O7 0.000000 0.711277 0.500000
O O8 0.000647 0.806875 0.423036
O O9 0.250000 0.314776 0.714164
O O10 0.014009 0.250000 0.750000
O O11 0.999276 0.374669 0.743941
O O12 0.250000 0.375004 0.064825
O O13 0.021319 0.415824 0.134380
O O14 0.000647 0.306875 0.076964
O O15 0.000000 0.402920 0.000000
O O16 0.250000 0.185224 0.785836
O O17 0.021630 0.196871 0.866202
O O18 0.250000 0.875004 0.435175
O O19 0.000000 0.902920 0.500000
O O20 0.250000 0.571956 0.213341
O O21 0.487009 0.500000 0.229385
O O22 0.750000 0.759768 0.065716
O O23 0.000000 0.788724 0.000000
#
# Coordination Sequence:
#
# PCOD9400825 Si02
#       8
#     8   8   8   8   8   8   8   8
#     4  10  22  37  52  75 107 141 178 218 260 309
#     4  10  19  32  52  78 107 134 169 214 260 308
#     4  10  20  35  55  79 106 136 173 218 263 309
#     4  10  19  31  49  73 104 140 177 212 253 303
#     4  10  20  35  55  79 106 136 173 218 263 309
#     4  10  19  31  49  73 104 140 177 212 253 303
#     4  10  22  37  52  75 107 141 178 218 260 309
#     4  10  19  32  52  78 107 134 169 214 260 308
#
# _framework density 17.091190000000001
#
# number of rings (size 3 to 8) (size 9 to 14) (size 15 to 20)
#    0.000    2.000    2.500    3.000    0.000    4.500 
#    0.000    0.000    0.000    0.750    0.000    0.000 
#    0.000    0.000    0.000    0.000    0.000    0.000 
#
# Total GULP energy -357165.790540 kJ/mol
# GULP energy per Si atom -5580.715477 kJ/mol
# Density = 1.705229 g / cm^3
# Si number density = 17.091190 Si / 1000 Ang^3
#
#
#
# Elastic Constant Matrix: (Units=GPa)
#
#
# Indices 1 2 3 4 5 6 
#
# 1 33.7214 25.0834 37.6535 0.0000 0.0000 0.0000
# 2 25.0834 122.0707 80.9957 0.0000 0.0000 0.0000
# 3 37.6535 80.9957 145.2950 0.0000 0.0000 0.0000
# 4 0.0000 0.0000 0.0000 20.7846 0.0000 0.0000
# 5 0.0000 0.0000 0.0000 0.0000 28.4867 0.0000
# 6 0.0000 0.0000 0.0000 0.0000 0.0000 16.7608
#
#
#
# Elastic Compliance Matrix: (Units=1/GPa)
#
#
# Indices 1 2 3 4 5 6 
#
# 1 0.042113 -0.002241 -0.009664 0.000000 0.000000 0.000000
# 2 -0.002241 0.013120 -0.006733 0.000000 0.000000 0.000000
# 3 -0.009664 -0.006733 0.013140 0.000000 0.000000 0.000000
# 4 0.000000 0.000000 0.000000 0.048113 0.000000 0.000000
# 5 0.000000 0.000000 0.000000 0.000000 0.035104 0.000000
# 6 0.000000 0.000000 0.000000 0.000000 0.000000 0.059663
#
#
# Mechanical properties :
#
#
# Convention : Reuss Voigt Hill
#
# Bulk Modulus (GPa) = 32.15789 65.39467 48.77628
# Shear Modulus (GPa) = 19.31280 23.69672 21.50476
#
# Velocity S-wave (km/s) = 3.36517 3.72760 3.55101
# Velocity P-wave (km/s) = 5.82714 7.54135 6.73897
#
# Compressibility (1/GPa) = 0.03109657
#
# Stress axis : x y z
#
# Youngs Moduli (GPa) = 23.74559 76.21997 76.10079
#
# Poissons Ratio (x) = 0.17081 0.73547
# Poissons Ratio (y) = 0.05321 0.51239
# Poissons Ratio (z) = 0.22949 0.51319
#
# Static dielectric constant tensor:
#      x y z
#    x 1.579540 0.000000 0.000000 
#    y 0.000000 1.553470 0.000000 
#    z 0.000000 0.000000 1.594010 
# 
# From -- ./inp_files/32357.got.cif
#   From: 2010.05.17/outbox.cif.g08.bks.cpg/sg51_17_cif.got.tgz:32357.got - 2010.06.03 11:52:47.
