data_PCOD9400428
_publ_section_title
;
Structure prediction by ZEFSAII (Michael W. Deem and Ramdas Pophale) SiO2 
 PCOD9400428
Probable space group: P M M A
;
_chemical_formula_sum "Si O2"
_cell_formula_units_Z 56
_cell_length_a 14.788657
_cell_length_b 9.576331
_cell_length_c 18.930159
_cell_angle_alpha 90.000000
_cell_angle_beta 90.000000
_cell_angle_gamma 90.000000
_cell_volume 2680.909458
_symmetry_space_group_name_H-M "P M M A"
_symmetry_group_IT_number 51
_symmetry_cell_setting 'orthorhombic'
loop_
_space_group_symop_operation_xyz
x,y,z
1/2-x,-y,z
1/2+x,-y,-z
-x,y,-z
-x,-y,-z
1/2+x,y,-z
1/2-x,y,z
x,-y,z
loop_
_atom_site_type_symbol
_atom_site_label
_atom_site_fract_x
_atom_site_fract_y
_atom_site_fract_z
Si Si1 0.141177 0.161837 0.288793
Si Si2 0.639729 0.338264 0.424239
Si Si3 0.860449 0.162713 0.557702
Si Si4 0.858658 0.341095 0.267092
Si Si5 0.894104 0.159333 0.866378
Si Si6 0.392133 0.842521 0.869115
Si Si7 0.110828 0.339420 0.001398
O O1 0.250000 0.160348 0.290047
O O2 0.111679 0.220464 0.364952
O O3 0.115645 0.221361 0.212576
O O4 0.109604 0.000000 0.287373
O O5 0.750000 0.332281 0.424854
O O6 0.614783 0.500000 0.433891
O O7 0.607506 0.246085 0.489451
O O8 0.610550 0.295062 0.345331
O O9 0.750000 0.166468 0.556696
O O10 0.886072 0.000000 0.553278
O O11 0.750000 0.349524 0.270202
O O12 0.891908 0.500000 0.253154
O O13 0.880323 0.234768 0.205186
O O14 0.859027 0.258360 0.928160
O O15 0.000510 0.146388 0.880140
O O16 0.856530 0.000000 0.867826
O O17 0.355480 0.000000 0.869161
O O18 0.357873 0.746386 0.932834
O O19 0.139935 0.500000 0.999840
O O20 0.000000 0.341392 0.000000
#
# Coordination Sequence:
#
# PCOD9400428 Si02
#       7
#     8   8   8   8   8   8   8
#     4   8  14  26  45  68  93 120 148 180 221 264
#     4   8  14  25  41  61  85 113 144 179 220 261
#     4   8  13  22  39  63  87 112 145 181 214 253
#     4   9  18  32  48  66  90 119 149 183 225 271
#     4   9  17  30  48  69  92 117 149 189 227 264
#     4  10  19  30  47  70  92 115 147 187 228 269
#     4   9  17  30  48  67  87 116 154 189 221 263
#
# _framework density 20.888435000000001
#
# number of rings (size 3 to 8) (size 9 to 14) (size 15 to 20)
#    0.000    3.286    0.000    2.571    0.000    3.143 
#    0.000    2.857    0.000    4.714    0.000    6.000 
#    0.000    0.000    0.000    0.000    0.000    0.000 
#
# Total GULP energy -312127.606553 kJ/mol
# GULP energy per Si atom -5573.707260 kJ/mol
# Density = 2.084089 g / cm^3
# Si number density = 20.888435 Si / 1000 Ang^3
#
#
#
# Elastic Constant Matrix: (Units=GPa)
#
#
# Indices 1 2 3 4 5 6 
#
# 1 45.5421 8.2494 1.1471 0.0000 0.0000 0.0000
# 2 8.2494 121.5923 128.3993 0.0000 0.0000 0.0000
# 3 1.1471 128.3993 243.1708 0.0000 0.0000 0.0000
# 4 0.0000 0.0000 0.0000 47.8103 0.0000 0.0000
# 5 0.0000 0.0000 0.0000 0.0000 19.8292 0.0000
# 6 0.0000 0.0000 0.0000 0.0000 0.0000 -0.8695
#
#
#
# Elastic Compliance Matrix: (Units=1/GPa)
#
#
# Indices 1 2 3 4 5 6 
#
# 1 0.022497 -0.003197 0.001582 0.000000 0.000000 0.000000
# 2 -0.003197 0.019043 -0.010040 0.000000 0.000000 0.000000
# 3 0.001582 -0.010040 0.009406 0.000000 0.000000 0.000000
# 4 0.000000 0.000000 0.000000 0.020916 0.000000 0.000000
# 5 0.000000 0.000000 0.000000 0.000000 0.050431 0.000000
# 6 0.000000 0.000000 0.000000 0.000000 0.000000 -1.150127
#
#
# Mechanical properties :
#
#
# Convention : Reuss Voigt Hill
#
# Bulk Modulus (GPa) = 36.18409 76.21075 56.19742
# Shear Modulus (GPa) = -5.02356 31.52130 13.24887
#
# Velocity S-wave (km/s) = -1.55247 3.88884 2.52120
# Velocity P-wave (km/s) = 3.76120 7.53180 5.95292
#
# Compressibility (1/GPa) = 0.02763645
#
# Stress axis : x y z
#
# Youngs Moduli (GPa) = 44.45057 52.51170 106.31147
#
# Poissons Ratio (x) = 0.16786 -0.16816
# Poissons Ratio (y) = 0.14209 1.06739
# Poissons Ratio (z) = -0.07031 0.52723
#
# Static dielectric constant tensor:
#      x y z
#    x 1.801110 0.000000 0.000000 
#    y 0.000000 1.736490 0.000000 
#    z 0.000000 0.000000 1.763950 
# 
# From -- ./inp_files/30420.got.cif
#   From: 2010.05.17/outbox.cif.g08.bks.cpg/sg51_16_cif.got.tgz:30420.got - 2010.06.03 11:52:47.
