data_PCOD9400657
_publ_section_title
;
Structure prediction by ZEFSAII (Michael W. Deem and Ramdas Pophale) SiO2 
 PCOD9400657
Probable space group: P M M A
;
_chemical_formula_sum "Si O2"
_cell_formula_units_Z 64
_cell_length_a 19.287412
_cell_length_b 10.077572
_cell_length_c 22.010044
_cell_angle_alpha 90.000000
_cell_angle_beta 90.000000
_cell_angle_gamma 90.000000
_cell_volume 4278.098484
_symmetry_space_group_name_H-M "P M M A"
_symmetry_group_IT_number 51
_symmetry_cell_setting 'orthorhombic'
loop_
_space_group_symop_operation_xyz
x,y,z
1/2-x,-y,z
1/2+x,-y,-z
-x,y,-z
-x,-y,-z
1/2+x,y,-z
1/2-x,y,z
x,-y,z
loop_
_atom_site_type_symbol
_atom_site_label
_atom_site_fract_x
_atom_site_fract_y
_atom_site_fract_z
Si Si1 0.669652 0.845210 0.978065
Si Si2 0.034171 0.847813 0.404157
Si Si3 0.330413 0.845906 0.875967
Si Si4 0.947703 0.656311 0.171186
Si Si5 0.951192 0.343704 0.941469
Si Si6 0.327715 0.656709 0.619440
Si Si7 0.530310 0.343487 0.310746
Si Si8 0.887716 0.152205 0.476953
O O1 0.750000 0.818102 0.962759
O O2 0.615857 0.748009 0.946472
O O3 0.655323 0.000000 0.964394
O O4 0.662735 0.829384 0.051108
O O5 0.093087 0.812772 0.453596
O O6 0.021733 0.746191 0.349796
O O7 0.961495 0.846881 0.441415
O O8 0.045440 0.000000 0.384060
O O9 0.250000 0.821732 0.860507
O O10 0.381869 0.746789 0.843131
O O11 0.346310 0.000000 0.862132
O O12 0.929145 0.500000 0.167526
O O13 0.974011 0.682202 0.239167
O O14 0.004901 0.681586 0.119380
O O15 0.932943 0.500000 0.943461
O O16 0.000000 0.316820 0.000000
O O17 0.250000 0.682169 0.643542
O O18 0.332256 0.500000 0.604621
O O19 0.390808 0.684736 0.665939
O O20 0.340676 0.745643 0.559826
O O21 0.517788 0.500000 0.321730
O O22 0.861894 0.000000 0.475035
#
# Coordination Sequence:
#
# PCOD9400657 Si02
#       8
#     8   8   8   8   8   8   8   8
#     4   9  18  32  49  69  91 115 146 185 233 288
#     4   8  14  26  43  62  84 107 136 176 217 254
#     4   9  18  31  45  63  88 117 151 190 229 274
#     4  10  20  32  45  65  92 123 159 195 232 278
#     4  10  19  31  47  69  95 120 151 194 240 285
#     4   9  17  28  41  60  88 120 152 182 210 247
#     4   9  18  30  43  60  86 120 154 185 218 260
#     4   8  14  25  42  63  84 108 138 174 215 253
#
# _framework density 14.959918
#
# number of rings (size 3 to 8) (size 9 to 14) (size 15 to 20)
#    0.000    3.000    1.250    1.500    0.000    3.000 
#    0.000    5.000    0.000    0.000    0.000    0.875 
#    0.000    1.000    0.000    0.000    0.000    0.000 
#
# Total GULP energy -356321.843283 kJ/mol
# GULP energy per Si atom -5567.528801 kJ/mol
# Density = 1.492587 g / cm^3
# Si number density = 14.959918 Si / 1000 Ang^3
#
#
#
# Elastic Constant Matrix: (Units=GPa)
#
#
# Indices 1 2 3 4 5 6 
#
# 1 38.5085 38.6725 36.8246 0.0000 0.0000 0.0000
# 2 38.6725 58.3936 57.1240 0.0000 0.0000 0.0000
# 3 36.8246 57.1240 99.1200 0.0000 0.0000 0.0000
# 4 0.0000 0.0000 0.0000 22.1476 0.0000 0.0000
# 5 0.0000 0.0000 0.0000 0.0000 13.4349 0.0000
# 6 0.0000 0.0000 0.0000 0.0000 0.0000 29.9091
#
#
#
# Elastic Compliance Matrix: (Units=1/GPa)
#
#
# Indices 1 2 3 4 5 6 
#
# 1 0.077681 -0.053216 0.001809 0.000000 0.000000 0.000000
# 2 -0.053216 0.075714 -0.023864 0.000000 0.000000 0.000000
# 3 0.001809 -0.023864 0.023170 0.000000 0.000000 0.000000
# 4 0.000000 0.000000 0.000000 0.045152 0.000000 0.000000
# 5 0.000000 0.000000 0.000000 0.000000 0.074433 0.000000
# 6 0.000000 0.000000 0.000000 0.000000 0.000000 0.033435
#
#
# Mechanical properties :
#
#
# Convention : Reuss Voigt Hill
#
# Bulk Modulus (GPa) = 38.42773 51.25160 44.83966
# Shear Modulus (GPa) = 10.22912 17.32506 13.77709
#
# Velocity S-wave (km/s) = 2.61773 3.40678 3.03798
# Velocity P-wave (km/s) = 5.90590 7.05751 6.50723
#
# Compressibility (1/GPa) = 0.02602288
#
# Stress axis : x y z
#
# Youngs Moduli (GPa) = 12.87320 13.20754 43.15941
#
# Poissons Ratio (x) = 0.70285 -0.07809
# Poissons Ratio (y) = 0.68506 1.02998
# Poissons Ratio (z) = -0.02329 0.31519
#
# Static dielectric constant tensor:
#      x y z
#    x 1.483470 0.000000 0.000000 
#    y 0.000000 1.495770 0.000000 
#    z 0.000000 0.000000 1.488330 
# 
# From -- ./inp_files/34142.got.cif
#   From: 2010.05.17/outbox.cif.g08.bks.cpg/sg51_18_cif.got.tgz:34142.got - 2010.06.03 11:52:47.
