data_PCOD9400114
_publ_section_title
;
Structure prediction by ZEFSAII (Michael W. Deem and Ramdas Pophale) SiO2 
 PCOD9400114
Probable space group: P M M A
;
_chemical_formula_sum "Si O2"
_cell_formula_units_Z 48
_cell_length_a 21.231993
_cell_length_b 8.979443
_cell_length_c 15.476589
_cell_angle_alpha 90.000000
_cell_angle_beta 90.000000
_cell_angle_gamma 90.000000
_cell_volume 2950.634458
_symmetry_space_group_name_H-M "P M M A"
_symmetry_group_IT_number 51
_symmetry_cell_setting 'orthorhombic'
loop_
_space_group_symop_operation_xyz
x,y,z
1/2-x,-y,z
1/2+x,-y,-z
-x,y,-z
-x,-y,-z
1/2+x,y,-z
1/2-x,y,z
x,-y,z
loop_
_atom_site_type_symbol
_atom_site_label
_atom_site_fract_x
_atom_site_fract_y
_atom_site_fract_z
Si Si1 0.318870 0.678613 0.514850
Si Si2 0.318508 0.679403 0.878686
Si Si3 0.491928 0.172773 0.737080
Si Si4 0.958983 0.679990 0.082824
Si Si5 0.448536 0.679616 0.426731
Si Si6 0.345001 0.827322 0.696692
O O1 0.250000 0.712628 0.476589
O O2 0.323263 0.500000 0.526095
O O3 0.379270 0.724652 0.459266
O O4 0.323068 0.753013 0.608555
O O5 0.250000 0.725007 0.916156
O O6 0.319440 0.500000 0.876361
O O7 0.384913 0.726358 0.922021
O O8 0.321723 0.741335 0.781323
O O9 0.488116 0.253277 0.829563
O O10 0.534622 0.250448 0.665198
O O11 0.420754 0.180136 0.700289
O O12 0.508873 0.000000 0.748138
O O13 0.960389 0.500000 0.088644
O O14 0.000000 0.724954 0.000000
O O15 0.500000 0.722978 0.500000
O O16 0.451076 0.500000 0.419682
O O17 0.326360 0.000000 0.700976
#
# Coordination Sequence:
#
# PCOD9400114 Si02
#       6
#     8   8   8   8   8   8
#     4  10  20  32  46  66  94 127 163 203 244 282
#     4   9  17  29  46  68  95 124 153 189 235 288
#     4  10  20  32  49  73  99 128 161 201 243 285
#     4   9  18  33  53  74  96 124 160 199 242 291
#     4  10  19  32  51  71  93 127 168 202 235 280
#     4  10  19  29  43  67  98 128 158 191 233 287
#
# _framework density 16.267686000000001
#
# number of rings (size 3 to 8) (size 9 to 14) (size 15 to 20)
#    0.000    2.333    1.667    1.500    0.000    5.333 
#    0.000    0.000    0.000    1.000    0.000    4.667 
#    0.000    0.000    0.000    0.000    0.000    0.000 
#
# Total GULP energy -267541.432595 kJ/mol
# GULP energy per Si atom -5573.779846 kJ/mol
# Density = 1.623066 g / cm^3
# Si number density = 16.267686 Si / 1000 Ang^3
#
#
#
# Elastic Constant Matrix: (Units=GPa)
#
#
# Indices 1 2 3 4 5 6 
#
# 1 143.7470 32.1769 78.4293 0.0000 0.0000 0.0000
# 2 32.1769 13.8029 26.1024 0.0000 0.0000 0.0000
# 3 78.4293 26.1024 97.9073 0.0000 0.0000 0.0000
# 4 0.0000 0.0000 0.0000 -9.3014 0.0000 0.0000
# 5 0.0000 0.0000 0.0000 0.0000 15.7119 0.0000
# 6 0.0000 0.0000 0.0000 0.0000 0.0000 9.7161
#
#
#
# Elastic Compliance Matrix: (Units=1/GPa)
#
#
# Indices 1 2 3 4 5 6 
#
# 1 0.016033 -0.026396 -0.005806 0.000000 0.000000 0.000000
# 2 -0.026396 0.189571 -0.029396 0.000000 0.000000 0.000000
# 3 -0.005806 -0.029396 0.022702 0.000000 0.000000 0.000000
# 4 0.000000 0.000000 0.000000 -0.107511 0.000000 0.000000
# 5 0.000000 0.000000 0.000000 0.000000 0.063646 0.000000
# 6 0.000000 0.000000 0.000000 0.000000 0.000000 0.102922
#
#
# Mechanical properties :
#
#
# Convention : Reuss Voigt Hill
#
# Bulk Modulus (GPa) = 9.51380 58.76383 34.13882
# Shear Modulus (GPa) = 11.22093 11.14189 11.18141
#
# Velocity S-wave (km/s) = 2.62919 2.61992 2.62456
# Velocity P-wave (km/s) = 3.88302 6.73449 5.49687
#
# Compressibility (1/GPa) = 0.10511050
#
# Stress axis : x y z
#
# Youngs Moduli (GPa) = 62.37089 5.27507 44.04918
#
# Poissons Ratio (x) = 0.13924 0.25576
# Poissons Ratio (y) = 1.64633 1.29486
# Poissons Ratio (z) = 0.36214 0.15506
#
# Static dielectric constant tensor:
#      x y z
#    x 1.596770 0.000000 0.000000 
#    y 0.000000 1.539520 0.000000 
#    z 0.000000 0.000000 1.496400 
# 
# From -- ./inp_files/18614.got.cif
#   From: 2010.05.17/outbox.cif.g08.bks.cpg/sg51_10_cif.got.tgz:18614.got - 2010.06.03 11:52:47.
