data_PCOD9400852
_publ_section_title
;
Structure prediction by ZEFSAII (Michael W. Deem and Ramdas Pophale) SiO2 
 PCOD9400852
Probable space group: P M M A
;
_chemical_formula_sum "Si O2"
_cell_formula_units_Z 64
_cell_length_a 8.847359
_cell_length_b 25.390478
_cell_length_c 15.727542
_cell_angle_alpha 90.000000
_cell_angle_beta 90.000000
_cell_angle_gamma 90.000000
_cell_volume 3533.014181
_symmetry_space_group_name_H-M "P M M A"
_symmetry_group_IT_number 51
_symmetry_cell_setting 'orthorhombic'
loop_
_space_group_symop_operation_xyz
x,y,z
1/2-x,-y,z
1/2+x,-y,-z
-x,y,-z
-x,-y,-z
1/2+x,y,-z
1/2-x,y,z
x,-y,z
loop_
_atom_site_type_symbol
_atom_site_label
_atom_site_fract_x
_atom_site_fract_y
_atom_site_fract_z
Si Si1 0.069377 0.858107 0.723382
Si Si2 0.933084 0.356291 0.590426
Si Si3 0.925059 0.278909 0.874430
Si Si4 0.065811 0.559077 0.269105
Si Si5 0.067867 0.601904 0.087098
Si Si6 0.574542 0.251137 0.677830
Si Si7 0.429434 0.831264 0.912775
Si Si8 0.930447 0.938111 0.590897
O O1 0.250000 0.862756 0.721862
O O2 0.019403 0.856657 0.822843
O O3 0.020375 0.802053 0.683439
O O4 0.995935 0.903677 0.667380
O O5 0.750000 0.356753 0.588351
O O6 0.982851 0.396928 0.663579
O O7 0.979378 0.296719 0.614823
O O8 0.000000 0.371360 0.500000
O O9 0.750000 0.270483 0.900749
O O10 0.975102 0.336393 0.903777
O O11 0.927796 0.276888 0.771947
O O12 0.023635 0.230134 0.905591
O O13 0.250000 0.560255 0.268788
O O14 0.018372 0.500000 0.292190
O O15 0.018201 0.573168 0.173262
O O16 0.250000 0.599717 0.083514
O O17 0.000000 0.580467 0.000000
O O18 0.750000 0.237825 0.659169
O O19 0.250000 0.835616 0.917362
O O20 0.500000 0.852649 0.000000
O O21 0.750000 0.932531 0.587337
O O22 0.000000 0.921595 0.500000
O O23 0.967137 0.000000 0.602701
#
# Coordination Sequence:
#
# PCOD9400852 Si02
#       8
#     8   8   8   8   8   8   8   8
#     4  10  21  35  54  83 116 148 185 226 271 320
#     4  10  20  35  55  78 101 131 170 212 262 318
#     4   9  16  29  49  70  97 133 173 213 256 312
#     4   9  18  35  56  73  95 131 172 212 257 318
#     4  10  19  31  49  74  99 128 167 209 257 314
#     4   9  17  32  52  73 103 141 177 212 258 319
#     4  10  20  32  48  75 110 147 185 224 266 314
#     4  10  21  38  61  87 114 147 187 229 273 320
#
# _framework density 18.114844000000002
#
# number of rings (size 3 to 8) (size 9 to 14) (size 15 to 20)
#    0.000    2.375    1.250    1.500    0.000    5.250 
#    0.000    1.875    0.000    1.125    0.000    0.000 
#    0.000    0.000    0.000    0.000    0.000    0.000 
#
# Total GULP energy -357058.306953 kJ/mol
# GULP energy per Si atom -5579.036046 kJ/mol
# Density = 1.807361 g / cm^3
# Si number density = 18.114844 Si / 1000 Ang^3
#
#
#
# Elastic Constant Matrix: (Units=GPa)
#
#
# Indices 1 2 3 4 5 6 
#
# 1 23.8594 26.7548 32.1602 0.0000 0.0000 0.0000
# 2 26.7548 73.5606 60.3310 0.0000 0.0000 0.0000
# 3 32.1602 60.3310 133.1670 0.0000 0.0000 0.0000
# 4 0.0000 0.0000 0.0000 6.7960 0.0000 0.0000
# 5 0.0000 0.0000 0.0000 0.0000 31.1755 0.0000
# 6 0.0000 0.0000 0.0000 0.0000 0.0000 6.8633
#
#
#
# Elastic Compliance Matrix: (Units=1/GPa)
#
#
# Indices 1 2 3 4 5 6 
#
# 1 0.077634 -0.020463 -0.009478 0.000000 0.000000 0.000000
# 2 -0.020463 0.027026 -0.007302 0.000000 0.000000 0.000000
# 3 -0.009478 -0.007302 0.013107 0.000000 0.000000 0.000000
# 4 0.000000 0.000000 0.000000 0.147146 0.000000 0.000000
# 5 0.000000 0.000000 0.000000 0.000000 0.032076 0.000000
# 6 0.000000 0.000000 0.000000 0.000000 0.000000 0.145703
#
#
# Mechanical properties :
#
#
# Convention : Reuss Voigt Hill
#
# Bulk Modulus (GPa) = 23.10535 52.11988 37.61261
# Shear Modulus (GPa) = 9.40550 16.38969 12.89760
#
# Velocity S-wave (km/s) = 2.28110 3.01120 2.67121
# Velocity P-wave (km/s) = 4.44078 6.39720 5.50657
#
# Compressibility (1/GPa) = 0.04328002
#
# Stress axis : x y z
#
# Youngs Moduli (GPa) = 12.88098 37.00201 76.29768
#
# Poissons Ratio (x) = 0.75716 0.72316
# Poissons Ratio (y) = 0.26358 0.55713
# Poissons Ratio (z) = 0.12209 0.27019
#
# Static dielectric constant tensor:
#      x y z
#    x 1.614340 0.000000 0.000000 
#    y 0.000000 1.605390 0.000000 
#    z 0.000000 0.000000 1.638230 
# 
# From -- ./inp_files/22269.got.cif
#   From: 2010.05.17/outbox.cif.g08.bks.cpg/sg51_12_cif.got.tgz:22269.got - 2010.06.03 11:52:47.
