data_PCOD9400367
_publ_section_title
;
Structure prediction by ZEFSAII (Michael W. Deem and Ramdas Pophale) SiO2 
 PCOD9400367
Probable space group: P M M A
;
_chemical_formula_sum "Si O2"
_cell_formula_units_Z 64
_cell_length_a 28.534311
_cell_length_b 14.941952
_cell_length_c 9.199115
_cell_angle_alpha 90.000000
_cell_angle_beta 90.000000
_cell_angle_gamma 90.000000
_cell_volume 3922.119082
_symmetry_space_group_name_H-M "P M M A"
_symmetry_group_IT_number 51
_symmetry_cell_setting 'orthorhombic'
loop_
_space_group_symop_operation_xyz
x,y,z
1/2-x,-y,z
1/2+x,-y,-z
-x,y,-z
-x,-y,-z
1/2+x,y,-z
1/2-x,y,z
x,-y,z
loop_
_atom_site_type_symbol
_atom_site_label
_atom_site_fract_x
_atom_site_fract_y
_atom_site_fract_z
Si Si1 0.383416 0.105251 0.961310
Si Si2 0.698205 0.397382 0.221536
Si Si3 0.056959 0.897039 0.678144
Si Si4 0.371698 0.600186 0.521709
Si Si5 0.049937 0.741523 0.442803
Si Si6 0.193836 0.401445 0.247491
Si Si7 0.804208 0.249227 0.971063
Si Si8 0.028876 0.176608 0.140774
O O1 0.402727 0.123265 0.797538
O O2 0.339810 0.168903 0.998692
O O3 0.372072 0.000000 0.971013
O O4 0.426740 0.126681 0.070183
O O5 0.750000 0.391222 0.293629
O O6 0.695503 0.500000 0.164971
O O7 0.655198 0.383753 0.328640
O O8 0.696568 0.320895 0.101801
O O9 0.057472 0.831764 0.539473
O O10 0.008848 0.883293 0.770333
O O11 0.060624 0.000000 0.632871
O O12 0.392272 0.500000 0.523739
O O13 0.409753 0.673139 0.483402
O O14 0.331200 0.601292 0.401140
O O15 0.046651 0.758695 0.269794
O O16 0.000000 0.706413 0.500000
O O17 0.250000 0.398586 0.258086
O O18 0.181966 0.500000 0.182145
O O19 0.179467 0.313080 0.160398
O O20 0.750000 0.219690 0.948023
O O21 0.000000 0.214330 0.000000
#
# Coordination Sequence:
#
# PCOD9400367 Si02
#       8
#     8   8   8   8   8   8   8   8
#     4  10  19  31  47  67  94 125 154 186 224 271
#     4   9  17  30  49  72  94 117 150 193 236 270
#     4   9  18  32  50  71  92 115 149 193 237 274
#     4  10  19  31  48  69  94 123 153 186 225 273
#     4  10  20  32  48  69  94 123 152 186 227 274
#     4   9  17  30  48  69  91 116 150 193 236 271
#     4  10  19  30  46  68  95 125 154 186 224 270
#     4   9  18  32  50  70  91 117 151 193 237 272
#
# _framework density 16.317709000000001
#
# number of rings (size 3 to 8) (size 9 to 14) (size 15 to 20)
#    0.000    2.500    0.000    2.625    0.000    7.750 
#    0.000    0.000    0.000    0.375    0.000    0.000 
#    0.000   10.000    0.000    0.000    0.000    0.000 
#
# Total GULP energy -356325.633212 kJ/mol
# GULP energy per Si atom -5567.588019 kJ/mol
# Density = 1.628057 g / cm^3
# Si number density = 16.317709 Si / 1000 Ang^3
#
#
#
# Elastic Constant Matrix: (Units=GPa)
#
#
# Indices 1 2 3 4 5 6 
#
# 1 20.4670 17.1022 -0.8762 0.0000 0.0000 0.0000
# 2 17.1022 48.9746 14.3132 0.0000 0.0000 0.0000
# 3 -0.8762 14.3132 62.5113 0.0000 0.0000 0.0000
# 4 0.0000 0.0000 0.0000 17.1796 0.0000 0.0000
# 5 0.0000 0.0000 0.0000 0.0000 5.2262 0.0000
# 6 0.0000 0.0000 0.0000 0.0000 0.0000 47.4568
#
#
#
# Elastic Compliance Matrix: (Units=1/GPa)
#
#
# Indices 1 2 3 4 5 6 
#
# 1 0.071926 -0.027234 0.007244 0.000000 0.000000 0.000000
# 2 -0.027234 0.032195 -0.007753 0.000000 0.000000 0.000000
# 3 0.007244 -0.007753 0.017874 0.000000 0.000000 0.000000
# 4 0.000000 0.000000 0.000000 0.058209 0.000000 0.000000
# 5 0.000000 0.000000 0.000000 0.000000 0.191345 0.000000
# 6 0.000000 0.000000 0.000000 0.000000 0.000000 0.021072
#
#
# Mechanical properties :
#
#
# Convention : Reuss Voigt Hill
#
# Bulk Modulus (GPa) = 15.03580 21.44791 18.24186
# Shear Modulus (GPa) = 10.63202 20.73342 15.68272
#
# Velocity S-wave (km/s) = 2.55534 3.56843 3.10350
# Velocity P-wave (km/s) = 4.23566 5.49097 4.90365
#
# Compressibility (1/GPa) = 0.06650794
#
# Stress axis : x y z
#
# Youngs Moduli (GPa) = 13.90313 31.06062 55.94736
#
# Poissons Ratio (x) = 0.84591 -0.40528
# Poissons Ratio (y) = 0.37864 0.43378
# Poissons Ratio (z) = -0.10071 0.24083
#
# Static dielectric constant tensor:
#      x y z
#    x 1.540290 0.000000 0.000000 
#    y 0.000000 1.536550 0.000000 
#    z 0.000000 0.000000 1.576750 
# 
# From -- ./inp_files/13167.got.cif
#   From: 2010.05.17/outbox.cif.g08.bks.cpg/sg51_7_cif.got.tgz:13167.got - 2010.06.03 11:52:47.
