data_PCOD9400055
_publ_section_title
;
Structure prediction by ZEFSAII (Michael W. Deem and Ramdas Pophale) SiO2 
 PCOD9400055
Probable space group: P M M A
;
_chemical_formula_sum "Si O2"
_cell_formula_units_Z 56
_cell_length_a 9.332430
_cell_length_b 13.982672
_cell_length_c 29.789677
_cell_angle_alpha 90.000000
_cell_angle_beta 90.000000
_cell_angle_gamma 90.000000
_cell_volume 3887.323696
_symmetry_space_group_name_H-M "P M M A"
_symmetry_group_IT_number 51
_symmetry_cell_setting 'orthorhombic'
loop_
_space_group_symop_operation_xyz
x,y,z
1/2-x,-y,z
1/2+x,-y,-z
-x,y,-z
-x,-y,-z
1/2+x,y,-z
1/2-x,y,z
x,-y,z
loop_
_atom_site_type_symbol
_atom_site_label
_atom_site_fract_x
_atom_site_fract_y
_atom_site_fract_z
Si Si1 0.079006 0.111647 0.771438
Si Si2 0.578680 0.219673 0.136283
Si Si3 0.920963 0.282001 0.725030
Si Si4 0.422807 0.386441 0.644109
Si Si5 0.421749 0.887564 0.954186
Si Si6 0.921057 0.389959 0.818189
Si Si7 0.084915 0.616274 0.543561
O O1 0.250000 0.124195 0.763823
O O2 0.049625 0.147208 0.822345
O O3 0.990432 0.180933 0.738947
O O4 0.044721 0.000000 0.766507
O O5 0.750000 0.234365 0.135173
O O6 0.534416 0.173439 0.089153
O O7 0.500684 0.317995 0.148489
O O8 0.750000 0.274395 0.719233
O O9 0.948759 0.351629 0.767739
O O10 0.996162 0.326723 0.681692
O O11 0.250000 0.374997 0.647451
O O12 0.452456 0.500000 0.649620
O O13 0.467036 0.357151 0.593411
O O14 0.250000 0.878945 0.959503
O O15 0.453113 0.000000 0.946087
O O16 0.500000 0.858816 0.000000
O O17 0.750000 0.384235 0.825271
O O18 0.965958 0.500000 0.822653
O O19 0.250000 0.645305 0.539623
O O20 0.081736 0.500000 0.543106
O O21 0.000000 0.650337 0.500000
#
# Coordination Sequence:
#
# PCOD9400055 Si02
#       7
#     8   8   8   8   8   8   8
#     4   9  17  30  47  64  84 112 142 171 207 251
#     4   9  17  29  46  67  87 109 140 174 205 242
#     4  10  19  29  42  62  87 113 142 176 213 252
#     4   9  17  28  41  58  83 115 148 180 212 248
#     4   9  17  29  45  66  91 114 135 164 204 249
#     4   9  18  31  44  60  85 114 142 174 211 248
#     4   8  14  24  37  54  77 106 140 176 212 249
#
# _framework density 14.405797
#
# number of rings (size 3 to 8) (size 9 to 14) (size 15 to 20)
#    0.000    3.000    0.000    2.143    0.000    4.857 
#    0.000    1.429    0.000    3.000    0.000    0.000 
#    0.000    0.571    0.000    1.857    0.000    2.286 
#
# Total GULP energy -311900.737376 kJ/mol
# GULP energy per Si atom -5569.656025 kJ/mol
# Density = 1.437301 g / cm^3
# Si number density = 14.405797 Si / 1000 Ang^3
#
#
#
# Elastic Constant Matrix: (Units=GPa)
#
#
# Indices 1 2 3 4 5 6 
#
# 1 38.1096 46.5206 61.0861 0.0000 0.0000 0.0000
# 2 46.5206 102.0042 71.5276 0.0000 0.0000 0.0000
# 3 61.0861 71.5276 145.0048 0.0000 0.0000 0.0000
# 4 0.0000 0.0000 0.0000 20.5232 0.0000 0.0000
# 5 0.0000 0.0000 0.0000 0.0000 26.7371 0.0000
# 6 0.0000 0.0000 0.0000 0.0000 0.0000 20.5777
#
#
#
# Elastic Compliance Matrix: (Units=1/GPa)
#
#
# Indices 1 2 3 4 5 6 
#
# 1 0.119752 -0.029414 -0.035939 0.000000 0.000000 0.000000
# 2 -0.029414 0.022212 0.001434 0.000000 0.000000 0.000000
# 3 -0.035939 0.001434 0.021329 0.000000 0.000000 0.000000
# 4 0.000000 0.000000 0.000000 0.048725 0.000000 0.000000
# 5 0.000000 0.000000 0.000000 0.000000 0.037401 0.000000
# 6 0.000000 0.000000 0.000000 0.000000 0.000000 0.048596
#
#
# Mechanical properties :
#
#
# Convention : Reuss Voigt Hill
#
# Bulk Modulus (GPa) = 28.20336 71.48747 49.84542
# Shear Modulus (GPa) = 11.42408 20.63323 16.02865
#
# Velocity S-wave (km/s) = 2.81912 3.78866 3.33926
# Velocity P-wave (km/s) = 5.49698 8.29882 7.03872
#
# Compressibility (1/GPa) = 0.03545677
#
# Stress axis : x y z
#
# Youngs Moduli (GPa) = 8.35056 45.01993 46.88496
#
# Poissons Ratio (x) = 1.32421 1.68499
# Poissons Ratio (y) = 0.24562 -0.06724
# Poissons Ratio (z) = 0.30011 -0.06457
#
# Static dielectric constant tensor:
#      x y z
#    x 1.478650 0.000000 0.000000 
#    y 0.000000 1.451310 0.000000 
#    z 0.000000 0.000000 1.469680 
# 
# From -- ./inp_files/37499.got.cif
#   From: 2010.05.17/outbox.cif.g08.bks.cpg/sg51_19_cif.got.tgz:37499.got - 2010.06.03 11:52:47.
