data_PCOD9400066
_publ_section_title
;
Structure prediction by ZEFSAII (Michael W. Deem and Ramdas Pophale) SiO2 
 PCOD9400066
Probable space group: P M M A
;
_chemical_formula_sum "Si O2"
_cell_formula_units_Z 52
_cell_length_a 9.066509
_cell_length_b 23.306844
_cell_length_c 15.444669
_cell_angle_alpha 90.000000
_cell_angle_beta 90.000000
_cell_angle_gamma 90.000000
_cell_volume 3263.639430
_symmetry_space_group_name_H-M "P M M A"
_symmetry_group_IT_number 51
_symmetry_cell_setting 'orthorhombic'
loop_
_space_group_symop_operation_xyz
x,y,z
1/2-x,-y,z
1/2+x,-y,-z
-x,y,-z
-x,-y,-z
1/2+x,y,-z
1/2-x,y,z
x,-y,z
loop_
_atom_site_type_symbol
_atom_site_label
_atom_site_fract_x
_atom_site_fract_y
_atom_site_fract_z
Si Si1 0.572744 0.906342 0.266268
Si Si2 0.927457 0.677846 0.405253
Si Si3 0.573636 0.773188 0.264525
Si Si4 0.919824 0.088391 0.912306
Si Si5 0.080674 0.771847 0.087047
Si Si6 0.573161 0.563208 0.595513
Si Si7 0.572544 0.000000 0.406358
O O1 0.750000 0.909691 0.256144
O O2 0.531999 0.839675 0.280665
O O3 0.500126 0.927466 0.176897
O O4 0.530752 0.945145 0.347814
O O5 0.750000 0.672424 0.413390
O O6 0.962440 0.731448 0.343677
O O7 0.000000 0.685632 0.500000
O O8 0.996459 0.619403 0.365499
O O9 0.750000 0.772039 0.252518
O O10 0.498325 0.754069 0.175403
O O11 0.750000 0.070482 0.911901
O O12 0.923356 0.158288 0.913874
O O13 0.000000 0.068989 0.000000
O O14 0.250000 0.754023 0.086651
O O15 0.000000 0.752240 0.000000
O O16 0.500000 0.560830 0.500000
O O17 0.750000 0.571043 0.588605
O O18 0.546789 0.500000 0.635476
O O19 0.500000 0.000000 0.500000
O O20 0.750000 0.000000 0.415884
#
# Coordination Sequence:
#
# PCOD9400066 Si02
#       7
#     8   8   8   8   8   8   4
#     4   9  18  34  51  67  89 116 148 187 228 270
#     4  10  19  29  42  62  89 121 153 186 224 264
#     4   9  18  31  46  65  91 120 149 184 226 269
#     4   9  16  27  46  72  96 118 142 171 214 268
#     4   9  16  26  43  66  91 118 147 179 218 265
#     4   9  16  26  41  60  83 114 150 185 220 259
#     4  10  22  38  55  70  85 112 151 194 236 272
#
# _framework density 15.933132000000001
#
# number of rings (size 3 to 8) (size 9 to 14) (size 15 to 20)
#    0.000    2.769    0.000    2.769    0.000    7.077 
#    0.000    0.385    0.000    0.000    0.000    0.000 
#    0.000    0.615    0.000    2.000    0.000    3.231 
#
# Total GULP energy -289739.648353 kJ/mol
# GULP energy per Si atom -5571.916314 kJ/mol
# Density = 1.589687 g / cm^3
# Si number density = 15.933132 Si / 1000 Ang^3
#
#
#
# Elastic Constant Matrix: (Units=GPa)
#
#
# Indices 1 2 3 4 5 6 
#
# 1 62.3453 43.6799 57.9762 0.0000 0.0000 0.0000
# 2 43.6799 89.7257 62.1611 0.0000 0.0000 0.0000
# 3 57.9762 62.1611 132.7210 0.0000 0.0000 0.0000
# 4 0.0000 0.0000 0.0000 -5.8604 0.0000 0.0000
# 5 0.0000 0.0000 0.0000 0.0000 30.3324 0.0000
# 6 0.0000 0.0000 0.0000 0.0000 0.0000 10.9647
#
#
#
# Elastic Compliance Matrix: (Units=1/GPa)
#
#
# Indices 1 2 3 4 5 6 
#
# 1 0.030756 -0.008386 -0.009508 0.000000 0.000000 0.000000
# 2 -0.008386 0.018785 -0.005135 0.000000 0.000000 0.000000
# 3 -0.009508 -0.005135 0.014093 0.000000 0.000000 0.000000
# 4 0.000000 0.000000 0.000000 -0.170636 0.000000 0.000000
# 5 0.000000 0.000000 0.000000 0.000000 0.032968 0.000000
# 6 0.000000 0.000000 0.000000 0.000000 0.000000 0.091202
#
#
# Mechanical properties :
#
#
# Convention : Reuss Voigt Hill
#
# Bulk Modulus (GPa) = 56.89198 68.04738 62.46968
# Shear Modulus (GPa) = 72.37663 15.15232 43.76447
#
# Velocity S-wave (km/s) = 6.74714 3.08717 5.24664
# Velocity P-wave (km/s) = 9.82256 7.45039 8.71754
#
# Compressibility (1/GPa) = 0.01757717
#
# Stress axis : x y z
#
# Youngs Moduli (GPa) = 32.51378 53.23443 70.95869
#
# Poissons Ratio (x) = 0.44642 0.67464
# Poissons Ratio (y) = 0.27266 0.36436
# Poissons Ratio (z) = 0.30913 0.27335
#
# Static dielectric constant tensor:
#      x y z
#    x 1.533760 0.000000 0.000000 
#    y 0.000000 1.566660 0.000000 
#    z 0.000000 0.000000 1.502080 
# 
# From -- ./inp_files/22063.got.cif
#   From: 2010.05.17/outbox.cif.g08.bks.cpg/sg51_12_cif.got.tgz:22063.got - 2010.06.03 11:52:47.
