data_PCOD9400296
_publ_section_title
;
Structure prediction by ZEFSAII (Michael W. Deem and Ramdas Pophale) SiO2 
 PCOD9400296
Probable space group: P M M A
;
_chemical_formula_sum "Si O2"
_cell_formula_units_Z 64
_cell_length_a 19.490274
_cell_length_b 9.188358
_cell_length_c 19.446237
_cell_angle_alpha 90.000000
_cell_angle_beta 90.000000
_cell_angle_gamma 90.000000
_cell_volume 3482.502421
_symmetry_space_group_name_H-M "P M M A"
_symmetry_group_IT_number 51
_symmetry_cell_setting 'orthorhombic'
loop_
_space_group_symop_operation_xyz
x,y,z
1/2-x,-y,z
1/2+x,-y,-z
-x,y,-z
-x,-y,-z
1/2+x,y,-z
1/2-x,y,z
x,-y,z
loop_
_atom_site_type_symbol
_atom_site_label
_atom_site_fract_x
_atom_site_fract_y
_atom_site_fract_z
Si Si1 0.670133 0.339490 0.121595
Si Si2 0.641758 0.164113 0.255628
Si Si3 0.516370 0.165237 0.789501
Si Si4 0.919129 0.832123 0.521297
Si Si5 0.457681 0.326168 0.069896
Si Si6 0.667920 0.829237 0.987870
Si Si7 0.048166 0.331792 0.343566
Si Si8 0.386106 0.667717 0.613043
O O1 0.750000 0.357787 0.105801
O O2 0.636583 0.500000 0.116439
O O3 0.666732 0.272499 0.196816
O O4 0.647036 0.224958 0.064404
O O5 0.560645 0.154786 0.239878
O O6 0.651523 0.234985 0.329999
O O7 0.669299 0.000000 0.250354
O O8 0.513965 0.249466 0.861664
O O9 0.555744 0.254027 0.730075
O O10 0.542347 0.000000 0.798569
O O11 0.915226 0.756151 0.595360
O O12 0.882496 0.740159 0.461733
O O13 0.000000 0.832726 0.500000
O O14 0.896766 0.000000 0.522981
O O15 0.458449 0.500000 0.077404
O O16 0.380346 0.266569 0.060448
O O17 0.500000 0.290027 0.000000
O O18 0.750000 0.809268 0.977768
O O19 0.653225 0.000000 0.980304
O O20 0.069586 0.500000 0.340911
O O21 0.966902 0.332000 0.364379
O O22 0.363550 0.500000 0.613297
#
# Coordination Sequence:
#
# PCOD9400296 Si02
#       8
#     8   8   8   8   8   8   8   8
#     4  10  20  33  49  68  90 118 153 193 236 282
#     4  10  19  30  45  65  91 123 157 194 236 281
#     4  10  20  32  46  66  93 124 157 194 238 286
#     4   9  15  23  36  55  81 113 150 188 225 269
#     4  11  23  36  52  75 102 132 166 204 248 299
#     4  10  21  37  56  76  98 127 164 205 249 296
#     4   9  16  26  40  58  83 116 152 188 228 275
#     4   9  16  25  38  57  83 116 152 188 226 271
#
# _framework density 18.377590000000001
#
# number of rings (size 3 to 8) (size 9 to 14) (size 15 to 20)
#    0.000    2.250    0.000    3.750    0.000   10.500 
#    0.000    0.000    0.000    0.000    0.000    0.000 
#    0.000    1.000    0.000    3.750    0.000    6.125 
#
# Total GULP energy -356872.331615 kJ/mol
# GULP energy per Si atom -5576.130181 kJ/mol
# Density = 1.833576 g / cm^3
# Si number density = 18.377590 Si / 1000 Ang^3
#
#
#
# Elastic Constant Matrix: (Units=GPa)
#
#
# Indices 1 2 3 4 5 6 
#
# 1 24.0389 18.0205 11.0796 0.0000 0.0000 0.0000
# 2 18.0205 148.3858 68.7756 0.0000 0.0000 0.0000
# 3 11.0796 68.7756 124.4202 0.0000 0.0000 0.0000
# 4 0.0000 0.0000 0.0000 39.8393 0.0000 0.0000
# 5 0.0000 0.0000 0.0000 0.0000 9.1096 0.0000
# 6 0.0000 0.0000 0.0000 0.0000 0.0000 8.9803
#
#
#
# Elastic Compliance Matrix: (Units=1/GPa)
#
#
# Indices 1 2 3 4 5 6 
#
# 1 0.045935 -0.004951 -0.001354 0.000000 0.000000 0.000000
# 2 -0.004951 0.009594 -0.004862 0.000000 0.000000 0.000000
# 3 -0.001354 -0.004862 0.010846 0.000000 0.000000 0.000000
# 4 0.000000 0.000000 0.000000 0.025101 0.000000 0.000000
# 5 0.000000 0.000000 0.000000 0.000000 0.109775 0.000000
# 6 0.000000 0.000000 0.000000 0.000000 0.000000 0.111354
#
#
# Mechanical properties :
#
#
# Convention : Reuss Voigt Hill
#
# Bulk Modulus (GPa) = 22.70663 54.73293 38.71978
# Shear Modulus (GPa) = 14.30129 24.85045 19.57587
#
# Velocity S-wave (km/s) = 2.79264 3.68124 3.26729
# Velocity P-wave (km/s) = 4.77293 6.92212 5.94544
#
# Compressibility (1/GPa) = 0.04404001
#
# Stress axis : x y z
#
# Youngs Moduli (GPa) = 21.77009 104.22982 92.20284
#
# Poissons Ratio (x) = 0.51605 0.12481
# Poissons Ratio (y) = 0.10778 0.44833
# Poissons Ratio (z) = 0.02947 0.50682
#
# Static dielectric constant tensor:
#      x y z
#    x 1.673300 0.000000 0.000000 
#    y 0.000000 1.635590 0.000000 
#    z 0.000000 0.000000 1.623020 
# 
# From -- ./inp_files/30659.got.cif
#   From: 2010.05.17/outbox.cif.g08.bks.cpg/sg51_16_cif.got.tgz:30659.got - 2010.06.03 11:52:47.
