data_PCOD9400582
_publ_section_title
;
Structure prediction by ZEFSAII (Michael W. Deem and Ramdas Pophale) SiO2 
 PCOD9400582
Probable space group: P M M A
;
_chemical_formula_sum "Si O2"
_cell_formula_units_Z 48
_cell_length_a 8.447780
_cell_length_b 24.686983
_cell_length_c 14.197979
_cell_angle_alpha 90.000000
_cell_angle_beta 90.000000
_cell_angle_gamma 90.000000
_cell_volume 2960.991378
_symmetry_space_group_name_H-M "P M M A"
_symmetry_group_IT_number 51
_symmetry_cell_setting 'orthorhombic'
loop_
_space_group_symop_operation_xyz
x,y,z
1/2-x,-y,z
1/2+x,-y,-z
-x,y,-z
-x,-y,-z
1/2+x,y,-z
1/2-x,y,z
x,-y,z
loop_
_atom_site_type_symbol
_atom_site_label
_atom_site_fract_x
_atom_site_fract_y
_atom_site_fract_z
Si Si1 0.439883 0.166488 0.214880
Si Si2 0.557326 0.333345 0.286955
Si Si3 0.058704 0.938790 0.105622
Si Si4 0.439356 0.774663 0.604766
Si Si5 0.439873 0.270766 0.895362
Si Si6 0.441559 0.438887 0.606018
O O1 0.250000 0.167356 0.215990
O O2 0.494232 0.108256 0.176292
O O3 0.501373 0.182531 0.317938
O O4 0.498913 0.213303 0.144020
O O5 0.750000 0.334181 0.287328
O O6 0.508054 0.284582 0.356765
O O7 0.508295 0.315252 0.182281
O O8 0.502436 0.391200 0.325156
O O9 0.250000 0.938430 0.104358
O O10 0.006605 0.000000 0.130112
O O11 0.000000 0.926948 0.000000
O O12 0.500000 0.784266 0.500000
O O13 0.250000 0.775025 0.604950
O O14 0.250000 0.269077 0.895630
O O15 0.500000 0.281108 0.000000
O O16 0.500000 0.428154 0.500000
O O17 0.250000 0.438196 0.605227
O O18 0.492365 0.500000 0.632054
#
# Coordination Sequence:
#
# PCOD9400582 Si02
#       6
#     8   8   8   8   8   8
#     4  10  19  31  48  69  93 120 150 183 222 266
#     4   8  16  29  44  64  89 117 147 181 220 263
#     4   9  18  31  47  68  93 120 148 180 219 263
#     4  10  19  31  47  67  93 121 151 186 224 267
#     4  10  19  31  46  65  91 119 150 186 224 267
#     4   9  16  27  44  65  88 114 144 178 218 263
#
# _framework density 16.210785999999999
#
# number of rings (size 3 to 8) (size 9 to 14) (size 15 to 20)
#    0.000    2.667    0.000    3.500    0.000    2.667 
#    0.000    4.167    0.000    1.000    0.000    0.000 
#    0.000    0.000    0.000    0.000    0.000    0.667 
#
# Total GULP energy -267569.371013 kJ/mol
# GULP energy per Si atom -5574.361896 kJ/mol
# Density = 1.617389 g / cm^3
# Si number density = 16.210786 Si / 1000 Ang^3
#
#
#
# Elastic Constant Matrix: (Units=GPa)
#
#
# Indices 1 2 3 4 5 6 
#
# 1 27.5965 24.0726 25.2829 0.0000 0.0000 0.0000
# 2 24.0726 142.8676 102.6972 0.0000 0.0000 0.0000
# 3 25.2829 102.6972 151.7543 0.0000 0.0000 0.0000
# 4 0.0000 0.0000 0.0000 29.3034 0.0000 0.0000
# 5 0.0000 0.0000 0.0000 0.0000 26.3446 0.0000
# 6 0.0000 0.0000 0.0000 0.0000 0.0000 15.9365
#
#
#
# Elastic Compliance Matrix: (Units=1/GPa)
#
#
# Indices 1 2 3 4 5 6 
#
# 1 0.044007 -0.004176 -0.004506 0.000000 0.000000 0.000000
# 2 -0.004176 0.014026 -0.008796 0.000000 0.000000 0.000000
# 3 -0.004506 -0.008796 0.013293 0.000000 0.000000 0.000000
# 4 0.000000 0.000000 0.000000 0.034126 0.000000 0.000000
# 5 0.000000 0.000000 0.000000 0.000000 0.037958 0.000000
# 6 0.000000 0.000000 0.000000 0.000000 0.000000 0.062749
#
#
# Mechanical properties :
#
#
# Convention : Reuss Voigt Hill
#
# Bulk Modulus (GPa) = 27.49494 69.59152 48.54323
# Shear Modulus (GPa) = 19.74419 25.66127 22.70273
#
# Velocity S-wave (km/s) = 3.49372 3.98298 3.74635
# Velocity P-wave (km/s) = 5.76823 8.01090 6.98022
#
# Compressibility (1/GPa) = 0.03637033
#
# Stress axis : x y z
#
# Youngs Moduli (GPa) = 22.72345 71.29573 75.22821
#
# Poissons Ratio (x) = 0.29775 0.33894
# Poissons Ratio (y) = 0.09490 0.66172
# Poissons Ratio (z) = 0.10238 0.62713
#
# Static dielectric constant tensor:
#      x y z
#    x 1.554310 0.000000 0.000000 
#    y 0.000000 1.556600 0.000000 
#    z 0.000000 0.000000 1.511360 
# 
# From -- ./inp_files/14452.got.cif
#   From: 2010.05.17/outbox.cif.g08.bks.cpg/sg51_8_cif.got.tgz:14452.got - 2010.06.03 11:52:47.
