data_PCOD9400529
_publ_section_title
;
Structure prediction by ZEFSAII (Michael W. Deem and Ramdas Pophale) SiO2 
 PCOD9400529
Probable space group: P M M A
;
_chemical_formula_sum "Si O2"
_cell_formula_units_Z 48
_cell_length_a 13.562967
_cell_length_b 18.267870
_cell_length_c 8.080150
_cell_angle_alpha 90.000000
_cell_angle_beta 90.000000
_cell_angle_gamma 90.000000
_cell_volume 2001.990630
_symmetry_space_group_name_H-M "P M M A"
_symmetry_group_IT_number 51
_symmetry_cell_setting 'orthorhombic'
loop_
_space_group_symop_operation_xyz
x,y,z
1/2-x,-y,z
1/2+x,-y,-z
-x,y,-z
-x,-y,-z
1/2+x,y,-z
1/2-x,y,z
x,-y,z
loop_
_atom_site_type_symbol
_atom_site_label
_atom_site_fract_x
_atom_site_fract_y
_atom_site_fract_z
Si Si1 0.870516 0.000000 0.002706
Si Si2 0.370530 0.584072 0.103210
Si Si3 0.369614 0.684611 0.409372
Si Si4 0.131298 0.154046 0.816181
Si Si5 0.370118 0.316884 0.796845
Si Si6 0.865265 0.155706 0.552713
Si Si7 0.924495 0.000000 0.652978
O O1 0.942349 0.000000 0.846291
O O2 0.750000 0.000000 0.962983
O O3 0.886522 0.921649 0.091245
O O4 0.250000 0.584671 0.104411
O O5 0.401972 0.500000 0.113569
O O6 0.402577 0.630020 0.264975
O O7 0.399341 0.622245 0.930043
O O8 0.250000 0.678610 0.408911
O O9 0.399576 0.673558 0.602749
O O10 0.398316 0.768538 0.365595
O O11 0.250000 0.157615 0.813539
O O12 0.100312 0.236141 0.865404
O O13 0.089894 0.145815 0.629948
O O14 0.250000 0.317647 0.792230
O O15 0.750000 0.169940 0.524353
O O16 0.870424 0.077639 0.636433
O O17 0.000000 0.000000 0.500000
#
# Coordination Sequence:
#
# PCOD9400529 Si02
#       7
#     4   8   8   8   8   8   4
#     4  10  19  30  49  74  91 116 159 202 238 276
#     4   9  16  23  34  57  92 128 153 183 234 290
#     4   8  15  26  42  63  84 118 164 198 229 278
#     4   8  15  28  48  71  88 110 159 212 241 270
#     4   8  14  24  37  57  87 117 150 195 236 273
#     4   9  17  33  53  67  87 127 168 203 240 281
#     4  12  25  34  42  68 104 130 155 194 244 298
#
# _framework density 23.976134999999999
#
# number of rings (size 3 to 8) (size 9 to 14) (size 15 to 20)
#    0.000    3.167    0.000    3.250    2.333    2.000 
#    0.000    5.000    0.000    0.000    0.000    0.000 
#    0.000    0.667    0.000    4.333    0.000    5.000 
#
# Total GULP energy -267831.835778 kJ/mol
# GULP energy per Si atom -5579.829912 kJ/mol
# Density = 2.392156 g / cm^3
# Si number density = 23.976135 Si / 1000 Ang^3
#
#
#
# Elastic Constant Matrix: (Units=GPa)
#
#
# Indices 1 2 3 4 5 6 
#
# 1 76.7503 21.3973 23.7318 0.0000 0.0000 0.0000
# 2 21.3973 255.6002 142.4315 0.0000 0.0000 0.0000
# 3 23.7318 142.4315 156.6816 0.0000 0.0000 0.0000
# 4 0.0000 0.0000 0.0000 50.5663 0.0000 0.0000
# 5 0.0000 0.0000 0.0000 0.0000 32.3339 0.0000
# 6 0.0000 0.0000 0.0000 0.0000 0.0000 14.7743
#
#
#
# Elastic Compliance Matrix: (Units=1/GPa)
#
#
# Indices 1 2 3 4 5 6 
#
# 1 0.013670 0.000019 -0.002088 0.000000 0.000000 0.000000
# 2 0.000019 0.007929 -0.007211 0.000000 0.000000 0.000000
# 3 -0.002088 -0.007211 0.013253 0.000000 0.000000 0.000000
# 4 0.000000 0.000000 0.000000 0.019776 0.000000 0.000000
# 5 0.000000 0.000000 0.000000 0.000000 0.030927 0.000000
# 6 0.000000 0.000000 0.000000 0.000000 0.000000 0.067685
#
#
# Mechanical properties :
#
#
# Convention : Reuss Voigt Hill
#
# Bulk Modulus (GPa) = 61.37566 96.01702 78.69634
# Shear Modulus (GPa) = 28.21195 39.63300 33.92247
#
# Velocity S-wave (km/s) = 3.43398 4.07014 3.76552
# Velocity P-wave (km/s) = 6.43251 7.88809 7.19719
#
# Compressibility (1/GPa) = 0.01629310
#
# Stress axis : x y z
#
# Youngs Moduli (GPa) = 73.15552 126.12240 75.45247
#
# Poissons Ratio (x) = -0.00241 0.15753
# Poissons Ratio (y) = -0.00140 0.54406
# Poissons Ratio (z) = 0.15274 0.90942
#
# Static dielectric constant tensor:
#      x y z
#    x 2.020790 0.000000 0.000000 
#    y 0.000000 1.879930 0.000000 
#    z 0.000000 0.000000 1.904140 
# 
# From -- ./inp_files/9680.got.cif
#   From: 2010.05.17/outbox.cif.g08.bks.cpg/sg51_5_cif.got.tgz:9680.got - 2010.06.03 11:52:47.
