data_PCOD9400305
_publ_section_title
;
Structure prediction by ZEFSAII (Michael W. Deem and Ramdas Pophale) SiO2 
 PCOD9400305
Probable space group: P M M A
;
_chemical_formula_sum "Si O2"
_cell_formula_units_Z 64
_cell_length_a 7.865015
_cell_length_b 24.665115
_cell_length_c 19.767248
_cell_angle_alpha 90.000000
_cell_angle_beta 90.000000
_cell_angle_gamma 90.000000
_cell_volume 3834.678080
_symmetry_space_group_name_H-M "P M M A"
_symmetry_group_IT_number 51
_symmetry_cell_setting 'orthorhombic'
loop_
_space_group_symop_operation_xyz
x,y,z
1/2-x,-y,z
1/2+x,-y,-z
-x,y,-z
-x,-y,-z
1/2+x,y,-z
1/2-x,y,z
x,-y,z
loop_
_atom_site_type_symbol
_atom_site_label
_atom_site_fract_x
_atom_site_fract_y
_atom_site_fract_z
Si Si1 0.452957 0.664668 0.843317
Si Si2 0.544694 0.560993 0.077922
Si Si3 0.952562 0.939810 0.715108
Si Si4 0.043721 0.835317 0.206351
Si Si5 0.045330 0.237584 0.574410
Si Si6 0.547003 0.112668 0.425065
Si Si7 0.047269 0.228111 0.077313
Si Si8 0.046895 0.726651 0.714990
O O1 0.250000 0.658121 0.835810
O O2 0.521260 0.608842 0.874103
O O3 0.479994 0.714239 0.895421
O O4 0.522997 0.684903 0.770884
O O5 0.750000 0.560404 0.082497
O O6 0.483241 0.500000 0.093669
O O7 0.500000 0.572839 0.000000
O O8 0.750000 0.942198 0.726413
O O9 0.019704 0.892169 0.763846
O O10 0.979459 0.921536 0.637651
O O11 0.023435 0.000000 0.726367
O O12 0.250000 0.835994 0.207750
O O13 0.988848 0.817642 0.130964
O O14 0.984572 0.786455 0.254606
O O15 0.250000 0.235376 0.578742
O O16 0.982757 0.175101 0.579916
O O17 0.981051 0.271842 0.638346
O O18 0.000000 0.258027 0.500000
O O19 0.500000 0.092414 0.500000
O O20 0.750000 0.113628 0.419760
O O21 0.250000 0.230899 0.081837
O O22 0.000000 0.218155 0.000000
O O23 0.250000 0.718168 0.712090
#
# Coordination Sequence:
#
# PCOD9400305 Si02
#       8
#     8   8   8   8   8   8   8   8
#     4   9  17  28  44  64  88 116 143 177 212 245
#     4   9  17  28  41  59  85 119 153 179 205 239
#     4  10  20  33  48  64  82 106 137 173 210 250
#     4   9  18  31  46  63  83 106 134 167 207 253
#     4   9  17  27  41  61  84 110 137 166 202 248
#     4  10  19  31  46  64  85 111 140 171 205 245
#     4  10  19  30  45  66  88 110 136 170 210 253
#     4   9  16  28  44  63  85 109 138 171 212 251
#
# _framework density 16.689798
#
# number of rings (size 3 to 8) (size 9 to 14) (size 15 to 20)
#    0.000    2.625    1.250    1.125    0.000    3.500 
#    0.000    0.000    0.000    0.375    0.000    0.000 
#    0.000    0.500    0.000    0.375    0.000    1.125 
#
# Total GULP energy -356693.231448 kJ/mol
# GULP energy per Si atom -5573.331741 kJ/mol
# Density = 1.665181 g / cm^3
# Si number density = 16.689798 Si / 1000 Ang^3
#
#
#
# Elastic Constant Matrix: (Units=GPa)
#
#
# Indices 1 2 3 4 5 6 
#
# 1 16.7878 4.1541 -2.9633 0.0000 0.0000 0.0000
# 2 4.1541 118.1042 77.8530 0.0000 0.0000 0.0000
# 3 -2.9633 77.8530 141.7053 0.0000 0.0000 0.0000
# 4 0.0000 0.0000 0.0000 44.8439 0.0000 0.0000
# 5 0.0000 0.0000 0.0000 0.0000 14.3368 0.0000
# 6 0.0000 0.0000 0.0000 0.0000 0.0000 10.6608
#
#
#
# Elastic Compliance Matrix: (Units=1/GPa)
#
#
# Indices 1 2 3 4 5 6 
#
# 1 0.061417 -0.004714 0.003874 0.000000 0.000000 0.000000
# 2 -0.004714 0.013636 -0.007590 0.000000 0.000000 0.000000
# 3 0.003874 -0.007590 0.011308 0.000000 0.000000 0.000000
# 4 0.000000 0.000000 0.000000 0.022300 0.000000 0.000000
# 5 0.000000 0.000000 0.000000 0.000000 0.069750 0.000000
# 6 0.000000 0.000000 0.000000 0.000000 0.000000 0.093802
#
#
# Mechanical properties :
#
#
# Convention : Reuss Voigt Hill
#
# Bulk Modulus (GPa) = 14.38818 48.29831 31.34325
# Shear Modulus (GPa) = 16.01324 27.13854 21.57589
#
# Velocity S-wave (km/s) = 3.10088 4.03681 3.59940
# Velocity P-wave (km/s) = 4.63252 7.12246 6.00790
#
# Compressibility (1/GPa) = 0.06950148
#
# Stress axis : x y z
#
# Youngs Moduli (GPa) = 16.28201 73.33283 88.43202
#
# Poissons Ratio (x) = 0.34570 -0.34261
# Poissons Ratio (y) = 0.07676 0.67124
# Poissons Ratio (z) = -0.06308 0.55663
#
# Static dielectric constant tensor:
#      x y z
#    x 1.602230 0.000000 0.000000 
#    y 0.000000 1.567490 0.000000 
#    z 0.000000 0.000000 1.766090 
# 
# From -- ./inp_files/32692.got.cif
#   From: 2010.05.17/outbox.cif.g08.bks.cpg/sg51_17_cif.got.tgz:32692.got - 2010.06.03 11:52:47.
