data_PCOD9400557
_publ_section_title
;
Structure prediction by ZEFSAII (Michael W. Deem and Ramdas Pophale) SiO2 
 PCOD9400557
Probable space group: P M M A
;
_chemical_formula_sum "Si O2"
_cell_formula_units_Z 52
_cell_length_a 8.746511
_cell_length_b 18.892507
_cell_length_c 25.762446
_cell_angle_alpha 90.000000
_cell_angle_beta 90.000000
_cell_angle_gamma 90.000000
_cell_volume 4257.077268
_symmetry_space_group_name_H-M "P M M A"
_symmetry_group_IT_number 51
_symmetry_cell_setting 'orthorhombic'
loop_
_space_group_symop_operation_xyz
x,y,z
1/2-x,-y,z
1/2+x,-y,-z
-x,y,-z
-x,-y,-z
1/2+x,y,-z
1/2-x,y,z
x,-y,z
loop_
_atom_site_type_symbol
_atom_site_label
_atom_site_fract_x
_atom_site_fract_y
_atom_site_fract_z
Si Si1 0.065299 0.415815 0.775420
Si Si2 0.430273 0.585458 0.660131
Si Si3 0.934596 0.232160 0.058638
Si Si4 0.433519 0.500000 0.942092
Si Si5 0.065864 0.075980 0.941739
Si Si6 0.931461 0.583579 0.553264
Si Si7 0.067469 0.634704 0.118872
O O1 0.250000 0.409370 0.779317
O O2 0.030855 0.500000 0.780641
O O3 0.018657 0.391198 0.717522
O O4 0.985115 0.374711 0.821751
O O5 0.250000 0.599422 0.655346
O O6 0.449134 0.500000 0.661413
O O7 0.511525 0.613042 0.608384
O O8 0.750000 0.238378 0.056806
O O9 0.976844 0.153328 0.079519
O O10 0.004478 0.293562 0.093627
O O11 0.000000 0.238610 0.000000
O O12 0.250000 0.500000 0.942953
O O13 0.493761 0.430881 0.912303
O O14 0.500000 0.500000 0.000000
O O15 0.250000 0.075898 0.944468
O O16 0.018730 0.000000 0.917475
O O17 0.000000 0.075547 0.000000
O O18 0.750000 0.587291 0.550758
O O19 0.976756 0.500000 0.553979
O O20 0.000000 0.614030 0.500000
O O21 0.250000 0.631484 0.114594
#
# Coordination Sequence:
#
# PCOD9400557 Si02
#       7
#     8   8   8   4   8   8   8
#     4   9  17  30  45  56  68  89 116 148 184 221
#     4   8  14  24  37  51  65  83 107 136 172 212
#     4  10  19  31  45  60  79  99 117 142 176 215
#     4  12  24  38  50  58  70  88 115 148 187 228
#     4   8  14  25  42  62  80  97 116 136 162 201
#     4   9  15  21  30  45  65  87 108 133 166 206
#     4  12  23  33  44  59  75  93 119 150 183 219
#
# _framework density 12.214953
#
# number of rings (size 3 to 8) (size 9 to 14) (size 15 to 20)
#    0.000    2.462    0.769    4.385    0.000    3.077 
#    0.000    1.538    0.000    0.000    0.000    0.000 
#    0.000    0.000    0.000    0.000    0.000    0.000 
#
# Total GULP energy -289473.687268 kJ/mol
# GULP energy per Si atom -5566.801678 kJ/mol
# Density = 1.218715 g / cm^3
# Si number density = 12.214953 Si / 1000 Ang^3
#
#
#
# Elastic Constant Matrix: (Units=GPa)
#
#
# Indices 1 2 3 4 5 6 
#
# 1 41.3274 26.2907 36.6104 0.0000 0.0000 0.0000
# 2 26.2907 79.6632 38.2271 0.0000 0.0000 0.0000
# 3 36.6104 38.2271 104.6598 0.0000 0.0000 0.0000
# 4 0.0000 0.0000 0.0000 -1.6020 0.0000 0.0000
# 5 0.0000 0.0000 0.0000 0.0000 21.3673 0.0000
# 6 0.0000 0.0000 0.0000 0.0000 0.0000 7.2388
#
#
#
# Elastic Compliance Matrix: (Units=1/GPa)
#
#
# Indices 1 2 3 4 5 6 
#
# 1 0.038490 -0.007568 -0.010700 0.000000 0.000000 0.000000
# 2 -0.007568 0.016709 -0.003455 0.000000 0.000000 0.000000
# 3 -0.010700 -0.003455 0.014560 0.000000 0.000000 0.000000
# 4 0.000000 0.000000 0.000000 -0.624209 0.000000 0.000000
# 5 0.000000 0.000000 0.000000 0.000000 0.046801 0.000000
# 6 0.000000 0.000000 0.000000 0.000000 0.000000 0.138145
#
#
# Mechanical properties :
#
#
# Convention : Reuss Voigt Hill
#
# Bulk Modulus (GPa) = 38.00602 47.54520 42.77561
# Shear Modulus (GPa) = -15.75858 13.70229 -1.02815
#
# Velocity S-wave (km/s) = -3.59570 3.35291 -0.91844
# Velocity P-wave (km/s) = 3.73405 7.34830 5.82841
#
# Compressibility (1/GPa) = 0.02631162
#
# Stress axis : x y z
#
# Youngs Moduli (GPa) = 25.98079 59.84918 68.68295
#
# Poissons Ratio (x) = 0.45295 0.73488
# Poissons Ratio (y) = 0.19663 0.23733
# Poissons Ratio (z) = 0.27799 0.20681
#
# Static dielectric constant tensor:
#      x y z
#    x 1.405530 0.000000 0.000000 
#    y 0.000000 1.398360 0.000000 
#    z 0.000000 0.000000 1.406950 
# 
# From -- ./inp_files/35060.got.cif
#   From: 2010.05.17/outbox.cif.g08.bks.cpg/sg51_18_cif.got.tgz:35060.got - 2010.06.03 11:52:47.
