data_PCOD9400588
_publ_section_title
;
Structure prediction by ZEFSAII (Michael W. Deem and Ramdas Pophale) SiO2 
 PCOD9400588
Probable space group: P M M A
;
_chemical_formula_sum "Si O2"
_cell_formula_units_Z 44
_cell_length_a 7.645238
_cell_length_b 14.419552
_cell_length_c 19.555024
_cell_angle_alpha 90.000000
_cell_angle_beta 90.000000
_cell_angle_gamma 90.000000
_cell_volume 2155.763580
_symmetry_space_group_name_H-M "P M M A"
_symmetry_group_IT_number 51
_symmetry_cell_setting 'orthorhombic'
loop_
_space_group_symop_operation_xyz
x,y,z
1/2-x,-y,z
1/2+x,-y,-z
-x,y,-z
-x,-y,-z
1/2+x,y,-z
1/2-x,y,z
x,-y,z
loop_
_atom_site_type_symbol
_atom_site_label
_atom_site_fract_x
_atom_site_fract_y
_atom_site_fract_z
Si Si1 0.040954 0.284670 0.421243
Si Si2 0.043429 0.298210 0.920665
Si Si3 0.040265 0.500000 0.919021
Si Si4 0.458287 0.216439 0.213231
Si Si5 0.536142 0.602915 0.707584
Si Si6 0.035884 0.103591 0.340970
O O1 0.250000 0.281860 0.414922
O O2 0.983059 0.364681 0.368714
O O3 0.977437 0.185096 0.392341
O O4 0.000000 0.299666 0.500000
O O5 0.250000 0.307379 0.917767
O O6 0.968037 0.399361 0.897051
O O7 0.993805 0.218994 0.867055
O O8 0.000000 0.281536 0.000000
O O9 0.250000 0.500000 0.907870
O O10 0.000000 0.500000 0.000000
O O11 0.250000 0.217664 0.221150
O O12 0.525760 0.314095 0.243817
O O13 0.519062 0.136153 0.264638
O O14 0.750000 0.601290 0.710095
O O15 0.474516 0.500000 0.725210
O O16 0.250000 0.102054 0.342794
O O17 0.975603 0.000000 0.357142
#
# Coordination Sequence:
#
# PCOD9400588 Si02
#       6
#     8   8   4   8   8   8
#     4   9  17  29  46  68  93 120 153 189 227 271
#     4  10  19  31  46  66  95 126 155 189 228 270
#     4   8  16  28  40  58  86 120 151 176 211 258
#     4   9  17  29  48  71  89 115 156 195 232 274
#     4   8  15  28  44  63  89 123 158 188 221 269
#     4   8  15  30  50  69  91 120 153 188 230 283
#
# _framework density 20.410402000000001
#
# number of rings (size 3 to 8) (size 9 to 14) (size 15 to 20)
#    0.000    3.273    0.000    2.727    1.273    1.455 
#    0.000    3.636    0.000    3.273    0.000    0.000 
#    0.000    0.000    0.000    0.000    0.000    0.000 
#
# Total GULP energy -245105.403653 kJ/mol
# GULP energy per Si atom -5570.577356 kJ/mol
# Density = 2.036395 g / cm^3
# Si number density = 20.410402 Si / 1000 Ang^3
#
#
#
# Elastic Constant Matrix: (Units=GPa)
#
#
# Indices 1 2 3 4 5 6 
#
# 1 37.2929 1.8194 -9.3091 0.0000 0.0000 0.0000
# 2 1.8194 35.0995 -20.1048 0.0000 0.0000 0.0000
# 3 -9.3091 -20.1048 63.8955 0.0000 0.0000 0.0000
# 4 0.0000 0.0000 0.0000 3.8163 0.0000 0.0000
# 5 0.0000 0.0000 0.0000 0.0000 21.9381 0.0000
# 6 0.0000 0.0000 0.0000 0.0000 0.0000 3.0739
#
#
#
# Elastic Compliance Matrix: (Units=1/GPa)
#
#
# Indices 1 2 3 4 5 6 
#
# 1 0.027860 0.001074 0.004397 0.000000 0.000000 0.000000
# 2 0.001074 0.034796 0.011105 0.000000 0.000000 0.000000
# 3 0.004397 0.011105 0.019785 0.000000 0.000000 0.000000
# 4 0.000000 0.000000 0.000000 0.262037 0.000000 0.000000
# 5 0.000000 0.000000 0.000000 0.000000 0.045583 0.000000
# 6 0.000000 0.000000 0.000000 0.000000 0.000000 0.325322
#
#
# Mechanical properties :
#
#
# Convention : Reuss Voigt Hill
#
# Bulk Modulus (GPa) = 8.65096 9.01099 8.83098
# Shear Modulus (GPa) = 6.93712 16.69113 11.81413
#
# Velocity S-wave (km/s) = 1.84559 2.86278 2.40850
# Velocity P-wave (km/s) = 2.96467 3.91814 3.47427
#
# Compressibility (1/GPa) = 0.11559412
#
# Stress axis : x y z
#
# Youngs Moduli (GPa) = 35.89385 28.73922 50.54234
#
# Poissons Ratio (x) = -0.03088 -0.22224
# Poissons Ratio (y) = -0.03857 -0.56127
# Poissons Ratio (z) = -0.15783 -0.31915
#
# Static dielectric constant tensor:
#      x y z
#    x 1.756530 0.000000 0.000000 
#    y 0.000000 1.741650 0.000000 
#    z 0.000000 0.000000 1.734100 
# 
# From -- ./inp_files/27344.got.cif
#   From: 2010.05.17/outbox.cif.g08.bks.cpg/sg51_14_cif.got.tgz:27344.got - 2010.06.03 11:52:47.
