data_PCOD9400822
_publ_section_title
;
Structure prediction by ZEFSAII (Michael W. Deem and Ramdas Pophale) SiO2 
 PCOD9400822
Probable space group: P M M A
;
_chemical_formula_sum "Si O2"
_cell_formula_units_Z 36
_cell_length_a 8.533864
_cell_length_b 16.516358
_cell_length_c 13.823630
_cell_angle_alpha 90.000000
_cell_angle_beta 90.000000
_cell_angle_gamma 90.000000
_cell_volume 1948.417880
_symmetry_space_group_name_H-M "P M M A"
_symmetry_group_IT_number 51
_symmetry_cell_setting 'orthorhombic'
loop_
_space_group_symop_operation_xyz
x,y,z
1/2-x,-y,z
1/2+x,-y,-z
-x,y,-z
-x,-y,-z
1/2+x,y,-z
1/2-x,y,z
x,-y,z
loop_
_atom_site_type_symbol
_atom_site_label
_atom_site_fract_x
_atom_site_fract_y
_atom_site_fract_z
Si Si1 0.061999 0.243263 0.895506
Si Si2 0.060686 0.000000 0.391021
Si Si3 0.437547 0.669124 0.604275
Si Si4 0.059420 0.589390 0.804447
Si Si5 0.438161 0.830288 0.299669
O O1 0.250000 0.241617 0.894124
O O2 0.008777 0.335529 0.870776
O O3 0.999369 0.189110 0.807619
O O4 0.000000 0.218895 0.000000
O O5 0.009891 0.917902 0.337474
O O6 0.000000 0.000000 0.500000
O O7 0.250000 0.000000 0.392570
O O8 0.500000 0.643731 0.500000
O O9 0.250000 0.671206 0.601960
O O10 0.485306 0.612027 0.694156
O O11 0.498736 0.758568 0.631739
O O12 0.250000 0.588447 0.807123
O O13 0.002956 0.500000 0.831635
O O14 0.250000 0.827136 0.300071
#
# Coordination Sequence:
#
# PCOD9400822 Si02
#       5
#     8   4   8   8   8
#     4  10  20  35  56  79 103 135 172 210 257 307
#     4  10  22  36  55  82 109 138 169 206 250 300
#     4  10  19  31  49  73 102 138 176 211 254 305
#     4   8  16  31  49  71 101 134 170 213 256 301
#     4  10  20  36  55  77 105 134 170 213 256 303
#
# _framework density 18.476531000000001
#
# number of rings (size 3 to 8) (size 9 to 14) (size 15 to 20)
#    0.000    2.444    0.000    4.000    0.000    4.444 
#    0.000    0.556    0.000   22.667    0.000    0.000 
#    0.000    0.000    0.000    0.000    0.000    0.000 
#
# Total GULP energy -200897.987527 kJ/mol
# GULP energy per Si atom -5580.499654 kJ/mol
# Density = 1.843448 g / cm^3
# Si number density = 18.476531 Si / 1000 Ang^3
#
#
#
# Elastic Constant Matrix: (Units=GPa)
#
#
# Indices 1 2 3 4 5 6 
#
# 1 37.8468 9.5720 13.1999 0.0000 0.0000 0.0000
# 2 9.5720 98.7399 21.5806 0.0000 0.0000 0.0000
# 3 13.1999 21.5806 96.8199 0.0000 0.0000 0.0000
# 4 0.0000 0.0000 0.0000 -21.2848 0.0000 0.0000
# 5 0.0000 0.0000 0.0000 0.0000 31.1036 0.0000
# 6 0.0000 0.0000 0.0000 0.0000 0.0000 18.8317
#
#
#
# Elastic Compliance Matrix: (Units=1/GPa)
#
#
# Indices 1 2 3 4 5 6 
#
# 1 0.028106 -0.001984 -0.003390 0.000000 0.000000 0.000000
# 2 -0.001984 0.010786 -0.002134 0.000000 0.000000 0.000000
# 3 -0.003390 -0.002134 0.011266 0.000000 0.000000 0.000000
# 4 0.000000 0.000000 0.000000 -0.046982 0.000000 0.000000
# 5 0.000000 0.000000 0.000000 0.000000 0.032151 0.000000
# 6 0.000000 0.000000 0.000000 0.000000 0.000000 0.053102
#
#
# Mechanical properties :
#
#
# Convention : Reuss Voigt Hill
#
# Bulk Modulus (GPa) = 28.45413 35.79019 32.12216
# Shear Modulus (GPa) = 43.41829 18.33368 30.87598
#
# Velocity S-wave (km/s) = 4.85285 3.15345 4.09233
# Velocity P-wave (km/s) = 6.84352 5.71591 6.30498
#
# Compressibility (1/GPa) = 0.03514428
#
# Stress axis : x y z
#
# Youngs Moduli (GPa) = 35.57920 92.71031 88.76116
#
# Poissons Ratio (x) = 0.18392 0.30087
# Poissons Ratio (y) = 0.07058 0.18939
# Poissons Ratio (z) = 0.12060 0.19782
#
# Static dielectric constant tensor:
#      x y z
#    x 1.625370 0.000000 0.000000 
#    y 0.000000 1.640030 0.000000 
#    z 0.000000 0.000000 1.609580 
# 
# From -- ./inp_files/20323.got.cif
#   From: 2010.05.17/outbox.cif.g08.bks.cpg/sg51_11_cif.got.tgz:20323.got - 2010.06.03 11:52:47.
