data_PCOD9400449
_publ_section_title
;
Structure prediction by ZEFSAII (Michael W. Deem and Ramdas Pophale) SiO2 
 PCOD9400449
Probable space group: P M M A
;
_chemical_formula_sum "Si O2"
_cell_formula_units_Z 48
_cell_length_a 13.898611
_cell_length_b 7.426232
_cell_length_c 19.263214
_cell_angle_alpha 90.000000
_cell_angle_beta 90.000000
_cell_angle_gamma 90.000000
_cell_volume 1988.239337
_symmetry_space_group_name_H-M "P M M A"
_symmetry_group_IT_number 51
_symmetry_cell_setting 'orthorhombic'
loop_
_space_group_symop_operation_xyz
x,y,z
1/2-x,-y,z
1/2+x,-y,-z
-x,y,-z
-x,-y,-z
1/2+x,y,-z
1/2-x,y,z
x,-y,z
loop_
_atom_site_type_symbol
_atom_site_label
_atom_site_fract_x
_atom_site_fract_y
_atom_site_fract_z
Si Si1 0.941205 0.220318 0.897468
Si Si2 0.362288 0.219492 0.395468
Si Si3 0.366788 0.207208 0.545086
Si Si4 0.144480 0.219162 0.956883
Si Si5 0.558718 0.204047 0.747989
Si Si6 0.858587 0.293519 0.297713
O O1 0.876239 0.271079 0.963032
O O2 0.911399 0.284836 0.821426
O O3 0.941214 0.000000 0.895350
O O4 0.050777 0.277181 0.914277
O O5 0.250000 0.262826 0.391053
O O6 0.400335 0.281894 0.470638
O O7 0.409293 0.287271 0.324802
O O8 0.371032 0.000000 0.398265
O O9 0.250000 0.207096 0.538941
O O10 0.385007 0.289956 0.620148
O O11 0.399228 0.000000 0.551145
O O12 0.250000 0.279969 0.933824
O O13 0.144255 0.000000 0.954961
O O14 0.442855 0.198819 0.744112
O O15 0.597126 0.000000 0.746872
O O16 0.750000 0.219278 0.291061
O O17 0.857106 0.500000 0.275298
#
# Coordination Sequence:
#
# PCOD9400449 Si02
#       6
#     8   8   8   8   8   8
#     4   8  15  25  37  61  93 119 148 183 219 265
#     4   8  15  28  46  69  95 121 152 193 238 278
#     4   8  14  28  49  67  85 115 156 198 235 274
#     4   8  13  23  39  59  88 123 151 180 221 262
#     4  10  19  30  47  71  97 124 154 190 231 277
#     4  10  21  35  48  64  90 123 157 195 238 280
#
# _framework density 24.141963000000001
#
# number of rings (size 3 to 8) (size 9 to 14) (size 15 to 20)
#    0.000    3.333    0.000    2.500    0.000    3.000 
#    0.000    9.167    0.000    1.500    0.000    2.333 
#    0.000    1.333    0.000    0.000    0.000    0.000 
#
# Total GULP energy -267904.672169 kJ/mol
# GULP energy per Si atom -5581.347337 kJ/mol
# Density = 2.408702 g / cm^3
# Si number density = 24.141963 Si / 1000 Ang^3
#
#
#
# Elastic Constant Matrix: (Units=GPa)
#
#
# Indices 1 2 3 4 5 6 
#
# 1 53.4367 -7.5777 1.6491 0.0000 0.0000 0.0000
# 2 -7.5777 75.1959 -3.2028 0.0000 0.0000 0.0000
# 3 1.6491 -3.2028 53.9249 0.0000 0.0000 0.0000
# 4 0.0000 0.0000 0.0000 22.5933 0.0000 0.0000
# 5 0.0000 0.0000 0.0000 0.0000 8.6308 0.0000
# 6 0.0000 0.0000 0.0000 0.0000 0.0000 -18.0126
#
#
#
# Elastic Compliance Matrix: (Units=1/GPa)
#
#
# Indices 1 2 3 4 5 6 
#
# 1 0.018997 0.001894 -0.000468 0.000000 0.000000 0.000000
# 2 0.001894 0.013521 0.000745 0.000000 0.000000 0.000000
# 3 -0.000468 0.000745 0.018603 0.000000 0.000000 0.000000
# 4 0.000000 0.000000 0.000000 0.044261 0.000000 0.000000
# 5 0.000000 0.000000 0.000000 0.000000 0.115864 0.000000
# 6 0.000000 0.000000 0.000000 0.000000 0.000000 -0.055517
#
#
# Mechanical properties :
#
#
# Convention : Reuss Voigt Hill
#
# Bulk Modulus (GPa) = 18.02995 18.25495 18.14245
# Shear Modulus (GPa) = 29.43350 15.42158 22.42754
#
# Velocity S-wave (km/s) = 3.49547 2.53017 3.05123
# Velocity P-wave (km/s) = 4.87602 4.01417 4.46594
#
# Compressibility (1/GPa) = 0.05546327
#
# Stress axis : x y z
#
# Youngs Moduli (GPa) = 52.64034 73.95776 53.75505
#
# Poissons Ratio (x) = -0.14011 0.02518
# Poissons Ratio (y) = -0.09972 -0.04006
# Poissons Ratio (z) = 0.02466 -0.05511
#
# Static dielectric constant tensor:
#      x y z
#    x 1.931760 0.000000 0.000000 
#    y 0.000000 1.976180 0.000000 
#    z 0.000000 0.000000 1.919140 
# 
# From -- ./inp_files/29404.got.cif
#   From: 2010.05.17/outbox.cif.g08.bks.cpg/sg51_15_cif.got.tgz:29404.got - 2010.06.03 11:52:47.
