data_PCOD9400229
_publ_section_title
;
Structure prediction by ZEFSAII (Michael W. Deem and Ramdas Pophale) SiO2 
 PCOD9400229
Probable space group: P M M A
;
_chemical_formula_sum "Si O2"
_cell_formula_units_Z 40
_cell_length_a 8.886638
_cell_length_b 16.031107
_cell_length_c 19.985260
_cell_angle_alpha 90.000000
_cell_angle_beta 90.000000
_cell_angle_gamma 90.000000
_cell_volume 2847.152994
_symmetry_space_group_name_H-M "P M M A"
_symmetry_group_IT_number 51
_symmetry_cell_setting 'orthorhombic'
loop_
_space_group_symop_operation_xyz
x,y,z
1/2-x,-y,z
1/2+x,-y,-z
-x,y,-z
-x,-y,-z
1/2+x,y,-z
1/2-x,y,z
x,-y,z
loop_
_atom_site_type_symbol
_atom_site_label
_atom_site_fract_x
_atom_site_fract_y
_atom_site_fract_z
Si Si1 0.430164 0.500000 0.926293
Si Si2 0.569182 0.835369 0.842852
Si Si3 0.423463 0.898563 0.431142
Si Si4 0.568614 0.683808 0.074930
Si Si5 0.929593 0.098883 0.290855
Si Si6 0.430719 0.000000 0.073369
O O1 0.250000 0.500000 0.931995
O O2 0.471075 0.590778 0.897612
O O3 0.500000 0.500000 0.000000
O O4 0.750000 0.829524 0.842392
O O5 0.498385 0.755237 0.878414
O O6 0.507988 0.850766 0.768470
O O7 0.525321 0.917285 0.885944
O O8 0.500000 0.869796 0.500000
O O9 0.250000 0.872339 0.427729
O O10 0.511469 0.874943 0.363921
O O11 0.425449 0.000000 0.432907
O O12 0.750000 0.691127 0.070797
O O13 0.500000 0.691652 0.000000
O O14 0.750000 0.107264 0.287311
O O15 0.966532 0.000000 0.282415
O O16 0.250000 0.000000 0.067816
O O17 0.500000 0.000000 0.000000
#
# Coordination Sequence:
#
# PCOD9400229 Si02
#       6
#     4   8   8   8   8   4
#     4   8  16  30  48  66  86 106 131 170 219 268
#     4  11  21  33  45  61  84 115 147 182 220 259
#     4   9  16  26  41  60  82 108 140 179 216 254
#     4  10  19  32  48  67  86 109 140 178 221 267
#     4  10  19  30  44  61  82 112 147 182 218 258
#     4  10  22  34  44  56  77 108 145 182 218 252
#
# _framework density 14.049123
#
# number of rings (size 3 to 8) (size 9 to 14) (size 15 to 20)
#    0.000    2.200    1.000    3.000    0.000    7.200 
#    0.000    0.000    0.000    0.000    0.000    0.000 
#    0.000    0.000    0.000    0.900    0.000   11.400 
#
# Total GULP energy -222976.502539 kJ/mol
# GULP energy per Si atom -5574.412563 kJ/mol
# Density = 1.401715 g / cm^3
# Si number density = 14.049123 Si / 1000 Ang^3
#
#
#
# Elastic Constant Matrix: (Units=GPa)
#
#
# Indices 1 2 3 4 5 6 
#
# 1 57.8967 41.4633 43.6907 0.0000 0.0000 0.0000
# 2 41.4633 103.2383 55.3262 0.0000 0.0000 0.0000
# 3 43.6907 55.3262 115.8273 0.0000 0.0000 0.0000
# 4 0.0000 0.0000 0.0000 3.4048 0.0000 0.0000
# 5 0.0000 0.0000 0.0000 0.0000 28.5852 0.0000
# 6 0.0000 0.0000 0.0000 0.0000 0.0000 15.3428
#
#
#
# Elastic Compliance Matrix: (Units=1/GPa)
#
#
# Indices 1 2 3 4 5 6 
#
# 1 0.027859 -0.007469 -0.006941 0.000000 0.000000 0.000000
# 2 -0.007469 0.015022 -0.004358 0.000000 0.000000 0.000000
# 3 -0.006941 -0.004358 0.013333 0.000000 0.000000 0.000000
# 4 0.000000 0.000000 0.000000 0.293704 0.000000 0.000000
# 5 0.000000 0.000000 0.000000 0.000000 0.034983 0.000000
# 6 0.000000 0.000000 0.000000 0.000000 0.000000 0.065177
#
#
# Mechanical properties :
#
#
# Convention : Reuss Voigt Hill
#
# Bulk Modulus (GPa) = 53.53865 61.99144 57.76504
# Shear Modulus (GPa) = 10.12474 18.56535 14.34504
#
# Velocity S-wave (km/s) = 2.68744 3.63913 3.19887
# Velocity P-wave (km/s) = 6.91525 7.86627 7.40604
#
# Compressibility (1/GPa) = 0.01867809
#
# Stress axis : x y z
#
# Youngs Moduli (GPa) = 35.89481 66.57094 75.00088
#
# Poissons Ratio (x) = 0.49724 0.52057
# Poissons Ratio (y) = 0.26811 0.32683
# Poissons Ratio (z) = 0.24914 0.29010
#
# Static dielectric constant tensor:
#      x y z
#    x 1.468630 0.000000 0.000000 
#    y 0.000000 1.463660 0.000000 
#    z 0.000000 0.000000 1.440550 
# 
# From -- ./inp_files/31528.got.cif
#   From: 2010.05.17/outbox.cif.g08.bks.cpg/sg51_16_cif.got.tgz:31528.got - 2010.06.03 11:52:47.
