data_PCOD9400925
_publ_section_title
;
Structure prediction by ZEFSAII (Michael W. Deem and Ramdas Pophale) SiO2 
 PCOD9400925
Probable space group: P M M A
;
_chemical_formula_sum "Si O2"
_cell_formula_units_Z 64
_cell_length_a 18.536258
_cell_length_b 8.450737
_cell_length_c 22.279771
_cell_angle_alpha 90.000000
_cell_angle_beta 90.000000
_cell_angle_gamma 90.000000
_cell_volume 3490.015649
_symmetry_space_group_name_H-M "P M M A"
_symmetry_group_IT_number 51
_symmetry_cell_setting 'orthorhombic'
loop_
_space_group_symop_operation_xyz
x,y,z
1/2-x,-y,z
1/2+x,-y,-z
-x,y,-z
-x,-y,-z
1/2+x,y,-z
1/2-x,y,z
x,-y,z
loop_
_atom_site_type_symbol
_atom_site_label
_atom_site_fract_x
_atom_site_fract_y
_atom_site_fract_z
Si Si1 0.830798 0.809009 0.875329
Si Si2 0.420466 0.691265 0.614466
Si Si3 0.973621 0.308986 0.935157
Si Si4 0.332854 0.306712 0.497069
Si Si5 0.450935 0.310733 0.813639
Si Si6 0.087039 0.308742 0.376284
Si Si7 0.094406 0.189266 0.247427
Si Si8 0.667361 0.189133 0.270510
O O1 0.750000 0.754484 0.889459
O O2 0.893219 0.744969 0.918320
O O3 0.852996 0.763818 0.807203
O O4 0.832096 0.000000 0.878018
O O5 0.421299 0.500000 0.614439
O O6 0.381171 0.744402 0.553463
O O7 0.503610 0.744136 0.617607
O O8 0.375159 0.746206 0.671748
O O9 0.974692 0.500000 0.935417
O O10 0.025052 0.256609 0.880083
O O11 0.000000 0.252315 0.000000
O O12 0.250000 0.255573 0.503278
O O13 0.333199 0.500000 0.497314
O O14 0.367544 0.256433 0.434024
O O15 0.446322 0.500000 0.813191
O O16 0.516316 0.259666 0.769888
O O17 0.377492 0.241095 0.787820
O O18 0.087422 0.500000 0.375350
O O19 0.116333 0.248517 0.312797
O O20 0.088914 0.000000 0.247872
O O21 0.750000 0.246128 0.269961
O O22 0.667589 0.000000 0.273679
#
# Coordination Sequence:
#
# PCOD9400925 Si02
#       8
#     8   8   8   8   8   8   8   8
#     4   9  19  35  54  79 111 146 184 221 258 308
#     4  10  19  33  54  75  98 133 177 220 262 314
#     4   9  19  36  58  84 112 142 178 220 264 309
#     4   9  18  32  49  71 100 134 174 220 267 315
#     4  10  19  34  56  79 104 136 174 212 252 307
#     4  10  19  31  50  76 102 132 174 220 263 314
#     4  10  19  32  52  76 105 139 172 213 263 311
#     4  11  23  36  52  77 108 138 170 215 267 312
#
# _framework density 18.338027
#
# number of rings (size 3 to 8) (size 9 to 14) (size 15 to 20)
#    0.000    2.250    1.250    1.875    0.000    5.000 
#    0.000    1.250    0.000    6.000    0.000    0.000 
#    0.000    0.000    0.000    0.000    0.000    0.000 
#
# Total GULP energy -357203.106320 kJ/mol
# GULP energy per Si atom -5581.298536 kJ/mol
# Density = 1.829629 g / cm^3
# Si number density = 18.338027 Si / 1000 Ang^3
#
#
#
# Elastic Constant Matrix: (Units=GPa)
#
#
# Indices 1 2 3 4 5 6 
#
# 1 81.9074 6.1147 51.5110 0.0000 0.0000 0.0000
# 2 6.1147 6.9699 9.8225 0.0000 0.0000 0.0000
# 3 51.5110 9.8225 137.9910 0.0000 0.0000 0.0000
# 4 0.0000 0.0000 0.0000 8.7695 0.0000 0.0000
# 5 0.0000 0.0000 0.0000 0.0000 19.4118 0.0000
# 6 0.0000 0.0000 0.0000 0.0000 0.0000 18.0693
#
#
#
# Elastic Compliance Matrix: (Units=1/GPa)
#
#
# Indices 1 2 3 4 5 6 
#
# 1 0.016201 -0.006325 -0.005598 0.000000 0.000000 0.000000
# 2 -0.006325 0.161942 -0.009166 0.000000 0.000000 0.000000
# 3 -0.005598 -0.009166 0.009989 0.000000 0.000000 0.000000
# 4 0.000000 0.000000 0.000000 0.114032 0.000000 0.000000
# 5 0.000000 0.000000 0.000000 0.000000 0.051515 0.000000
# 6 0.000000 0.000000 0.000000 0.000000 0.000000 0.055342
#
#
# Mechanical properties :
#
#
# Convention : Reuss Voigt Hill
#
# Bulk Modulus (GPa) = 6.85146 40.19607 23.52377
# Shear Modulus (GPa) = 10.00298 19.87811 14.94055
#
# Velocity S-wave (km/s) = 2.33808 3.29596 2.85744
# Velocity P-wave (km/s) = 3.32162 6.03752 4.87261
#
# Compressibility (1/GPa) = 0.14595421
#
# Stress axis : x y z
#
# Youngs Moduli (GPa) = 61.72296 6.17506 100.11130
#
# Poissons Ratio (x) = 0.03906 0.56039
# Poissons Ratio (y) = 0.39040 0.91765
# Poissons Ratio (z) = 0.34550 0.05660
#
# Static dielectric constant tensor:
#      x y z
#    x 1.618860 0.000000 0.000000 
#    y 0.000000 1.630590 0.000000 
#    z 0.000000 0.000000 1.622700 
# 
# From -- ./inp_files/33941.got.cif
#   From: 2010.05.17/outbox.cif.g08.bks.cpg/sg51_17_cif.got.tgz:33941.got - 2010.06.03 11:52:47.
