data_PCOD9400221
_publ_section_title
;
Structure prediction by ZEFSAII (Michael W. Deem and Ramdas Pophale) SiO2 
 PCOD9400221
Probable space group: P M M A
;
_chemical_formula_sum "Si O2"
_cell_formula_units_Z 64
_cell_length_a 9.424118
_cell_length_b 17.661794
_cell_length_c 28.456854
_cell_angle_alpha 90.000000
_cell_angle_beta 90.000000
_cell_angle_gamma 90.000000
_cell_volume 4736.553161
_symmetry_space_group_name_H-M "P M M A"
_symmetry_group_IT_number 51
_symmetry_cell_setting 'orthorhombic'
loop_
_space_group_symop_operation_xyz
x,y,z
1/2-x,-y,z
1/2+x,-y,-z
-x,y,-z
-x,-y,-z
1/2+x,y,-z
1/2-x,y,z
x,-y,z
loop_
_atom_site_type_symbol
_atom_site_label
_atom_site_fract_x
_atom_site_fract_y
_atom_site_fract_z
Si Si1 0.910882 0.408432 0.364517
Si Si2 0.089862 0.415734 0.097343
Si Si3 0.084481 0.300596 0.184678
Si Si4 0.412527 0.407634 0.454035
Si Si5 0.593550 0.687634 0.040753
Si Si6 0.578930 0.410535 0.255736
Si Si7 0.586436 0.810972 0.122874
Si Si8 0.415639 0.090981 0.048783
O O1 0.750000 0.381344 0.372690
O O2 0.906814 0.500000 0.367602
O O3 0.951219 0.393138 0.310638
O O4 0.014058 0.381960 0.405706
O O5 0.250000 0.414426 0.078535
O O6 0.057534 0.500000 0.114260
O O7 0.086047 0.357530 0.140223
O O8 0.980980 0.388171 0.058488
O O9 0.250000 0.284052 0.196326
O O10 0.003969 0.349864 0.224214
O O11 0.998030 0.226448 0.166759
O O12 0.500000 0.384151 0.500000
O O13 0.250000 0.383288 0.456972
O O14 0.413254 0.500000 0.453728
O O15 0.750000 0.674100 0.023152
O O16 0.597876 0.743576 0.084692
O O17 0.500000 0.722499 0.000000
O O18 0.750000 0.404618 0.248761
O O19 0.541928 0.500000 0.246839
O O20 0.750000 0.834013 0.133918
O O21 0.495777 0.872740 0.093670
O O22 0.250000 0.116670 0.045848
O O23 0.415055 0.000000 0.053782
O O24 0.500000 0.106949 0.000000
#
# Coordination Sequence:
#
# PCOD9400221 Si02
#       8
#     8   8   8   8   8   8   8   8
#     4   8  14  24  35  47  65  89 117 151 192 235
#     4   9  18  31  43  54  69  89 114 145 179 214
#     4  10  19  30  44  60  77  97 123 155 190 227
#     4   9  15  21  30  44  62  85 113 146 186 234
#     4  10  20  31  43  58  73  92 116 141 171 206
#     4   9  17  28  41  56  75  99 127 162 203 243
#     4  10  20  33  48  64  82 103 126 150 177 213
#     4  10  20  33  50  72  94 112 128 146 172 209
#
# _framework density 13.511936
#
# number of rings (size 3 to 8) (size 9 to 14) (size 15 to 20)
#    0.000    2.625    0.000    3.375    0.000    7.000 
#    0.000    1.250    0.000    0.000    0.000    0.000 
#    0.000    0.000    0.000    0.000    0.000    0.000 
#
# Total GULP energy -356271.803064 kJ/mol
# GULP energy per Si atom -5566.746923 kJ/mol
# Density = 1.348118 g / cm^3
# Si number density = 13.511936 Si / 1000 Ang^3
#
#
#
# Elastic Constant Matrix: (Units=GPa)
#
#
# Indices 1 2 3 4 5 6 
#
# 1 116.1373 28.9204 60.3279 0.0000 0.0000 0.0000
# 2 28.9204 33.1480 16.8180 0.0000 0.0000 0.0000
# 3 60.3279 16.8180 77.6006 0.0000 0.0000 0.0000
# 4 0.0000 0.0000 0.0000 3.1649 0.0000 0.0000
# 5 0.0000 0.0000 0.0000 0.0000 22.6521 0.0000
# 6 0.0000 0.0000 0.0000 0.0000 0.0000 2.7873
#
#
#
# Elastic Compliance Matrix: (Units=1/GPa)
#
#
# Indices 1 2 3 4 5 6 
#
# 1 0.016467 -0.008844 -0.010885 0.000000 0.000000 0.000000
# 2 -0.008844 0.038645 -0.001500 0.000000 0.000000 0.000000
# 3 -0.010885 -0.001500 0.021674 0.000000 0.000000 0.000000
# 4 0.000000 0.000000 0.000000 0.315966 0.000000 0.000000
# 5 0.000000 0.000000 0.000000 0.000000 0.044146 0.000000
# 6 0.000000 0.000000 0.000000 0.000000 0.000000 0.358773
#
#
# Mechanical properties :
#
#
# Convention : Reuss Voigt Hill
#
# Bulk Modulus (GPa) = 29.13090 48.77984 38.95537
# Shear Modulus (GPa) = 5.88532 13.77550 9.83041
#
# Velocity S-wave (km/s) = 2.08928 3.19643 2.70021
# Velocity P-wave (km/s) = 5.23701 7.05710 6.21405
#
# Compressibility (1/GPa) = 0.03432781
#
# Stress axis : x y z
#
# Youngs Moduli (GPa) = 60.72681 25.87660 46.13888
#
# Poissons Ratio (x) = 0.22886 0.50222
# Poissons Ratio (y) = 0.53709 0.06919
# Poissons Ratio (z) = 0.66101 0.03880
#
# Static dielectric constant tensor:
#      x y z
#    x 1.455830 0.000000 0.000000 
#    y 0.000000 1.428300 0.000000 
#    z 0.000000 0.000000 1.443330 
# 
# From -- ./inp_files/36442.got.cif
#   From: 2010.05.17/outbox.cif.g08.bks.cpg/sg51_19_cif.got.tgz:36442.got - 2010.06.03 11:52:47.
