data_PCOD9400475
_publ_section_title
;
Structure prediction by ZEFSAII (Michael W. Deem and Ramdas Pophale) SiO2 
 PCOD9400475
Probable space group: P M M A
;
_chemical_formula_sum "Si O2"
_cell_formula_units_Z 48
_cell_length_a 17.221151
_cell_length_b 13.159806
_cell_length_c 12.351956
_cell_angle_alpha 90.000000
_cell_angle_beta 90.000000
_cell_angle_gamma 90.000000
_cell_volume 2799.286810
_symmetry_space_group_name_H-M "P M M A"
_symmetry_group_IT_number 51
_symmetry_cell_setting 'orthorhombic'
loop_
_space_group_symop_operation_xyz
x,y,z
1/2-x,-y,z
1/2+x,-y,-z
-x,y,-z
-x,-y,-z
1/2+x,y,-z
1/2-x,y,z
x,-y,z
loop_
_atom_site_type_symbol
_atom_site_label
_atom_site_fract_x
_atom_site_fract_y
_atom_site_fract_z
Si Si1 0.991549 0.116711 0.370640
Si Si2 0.158803 0.613991 0.459402
Si Si3 0.337455 0.770781 0.653090
Si Si4 0.102689 0.382706 0.821586
Si Si5 0.435608 0.691590 0.258015
Si Si6 0.841963 0.381058 0.936851
O O1 0.902563 0.143461 0.342115
O O2 0.000000 0.132159 0.500000
O O3 0.042706 0.197616 0.304527
O O4 0.010642 0.000000 0.346438
O O5 0.250000 0.621703 0.428090
O O6 0.146153 0.500000 0.502684
O O7 0.144037 0.697901 0.550693
O O8 0.104559 0.632552 0.356858
O O9 0.250000 0.809143 0.642290
O O10 0.345236 0.696360 0.755582
O O11 0.123696 0.500000 0.799308
O O12 0.015135 0.360972 0.782047
O O13 0.114368 0.366318 0.949384
O O14 0.377469 0.687902 0.156995
O O15 0.750000 0.365000 0.951664
O O16 0.852915 0.500000 0.904937
#
# Coordination Sequence:
#
# PCOD9400475 Si02
#       6
#     8   8   8   8   8   8
#     4  10  21  39  57  76 103 134 175 227 275 319
#     4  10  19  30  47  76 113 146 174 211 265 325
#     4  10  20  34  53  78 107 141 179 218 263 319
#     4  10  20  32  51  79 112 146 182 215 252 311
#     4  11  20  33  54  78 104 142 180 225 266 320
#     4  10  20  34  53  78 111 149 183 216 257 310
#
# _framework density 17.147224000000001
#
# number of rings (size 3 to 8) (size 9 to 14) (size 15 to 20)
#    0.000    1.833    1.667    3.500    0.000    4.667 
#    0.000    2.500    0.000   10.000    0.000    0.000 
#    0.000    0.000    0.000    0.000    0.000    0.000 
#
# Total GULP energy -267927.270178 kJ/mol
# GULP energy per Si atom -5581.818129 kJ/mol
# Density = 1.710820 g / cm^3
# Si number density = 17.147224 Si / 1000 Ang^3
#
#
#
# Elastic Constant Matrix: (Units=GPa)
#
#
# Indices 1 2 3 4 5 6 
#
# 1 41.3835 19.9673 19.2728 0.0000 0.0000 0.0000
# 2 19.9673 73.0441 32.3720 0.0000 0.0000 0.0000
# 3 19.2728 32.3720 81.2166 0.0000 0.0000 0.0000
# 4 0.0000 0.0000 0.0000 18.3003 0.0000 0.0000
# 5 0.0000 0.0000 0.0000 0.0000 31.1430 0.0000
# 6 0.0000 0.0000 0.0000 0.0000 0.0000 72.0023
#
#
#
# Elastic Compliance Matrix: (Units=1/GPa)
#
#
# Indices 1 2 3 4 5 6 
#
# 1 0.029154 -0.005956 -0.004545 0.000000 0.000000 0.000000
# 2 -0.005956 0.017844 -0.005699 0.000000 0.000000 0.000000
# 3 -0.004545 -0.005699 0.015663 0.000000 0.000000 0.000000
# 4 0.000000 0.000000 0.000000 0.054644 0.000000 0.000000
# 5 0.000000 0.000000 0.000000 0.000000 0.032110 0.000000
# 6 0.000000 0.000000 0.000000 0.000000 0.000000 0.013888
#
#
# Mechanical properties :
#
#
# Convention : Reuss Voigt Hill
#
# Bulk Modulus (GPa) = 33.04406 37.65206 35.34806
# Shear Modulus (GPa) = 24.29668 32.55794 28.42731
#
# Velocity S-wave (km/s) = 3.76832 4.36217 4.07607
# Velocity P-wave (km/s) = 6.18436 6.88311 6.54306
#
# Compressibility (1/GPa) = 0.03026262
#
# Stress axis : x y z
#
# Youngs Moduli (GPa) = 34.30036 56.04074 63.84543
#
# Poissons Ratio (x) = 0.33375 0.29015
# Poissons Ratio (y) = 0.20428 0.36387
# Poissons Ratio (z) = 0.15588 0.31939
#
# Static dielectric constant tensor:
#      x y z
#    x 1.600520 0.000000 0.000000 
#    y 0.000000 1.548860 0.000000 
#    z 0.000000 0.000000 1.572710 
# 
# From -- ./inp_files/17280.got.cif
#   From: 2010.05.17/outbox.cif.g08.bks.cpg/sg51_9_cif.got.tgz:17280.got - 2010.06.03 11:52:47.
