data_PCOD9400388
_publ_section_title
;
Structure prediction by ZEFSAII (Michael W. Deem and Ramdas Pophale) SiO2 
 PCOD9400388
Probable space group: P M M A
;
_chemical_formula_sum "Si O2"
_cell_formula_units_Z 64
_cell_length_a 27.998254
_cell_length_b 9.078964
_cell_length_c 14.497651
_cell_angle_alpha 90.000000
_cell_angle_beta 90.000000
_cell_angle_gamma 90.000000
_cell_volume 3685.232427
_symmetry_space_group_name_H-M "P M M A"
_symmetry_group_IT_number 51
_symmetry_cell_setting 'orthorhombic'
loop_
_space_group_symop_operation_xyz
x,y,z
1/2-x,-y,z
1/2+x,-y,-z
-x,y,-z
-x,-y,-z
1/2+x,y,-z
1/2-x,y,z
x,-y,z
loop_
_atom_site_type_symbol
_atom_site_label
_atom_site_fract_x
_atom_site_fract_y
_atom_site_fract_z
Si Si1 0.053522 0.322981 0.966097
Si Si2 0.461363 0.171877 0.281948
Si Si3 0.569823 0.824925 0.230289
Si Si4 0.552485 0.337267 0.541464
Si Si5 0.869669 0.670571 0.381416
Si Si6 0.806703 0.176184 0.736894
Si Si7 0.806906 0.671640 0.544495
Si Si8 0.888551 0.324540 0.852929
O O1 0.052187 0.500000 0.953817
O O2 0.066607 0.246744 0.870358
O O3 0.093046 0.288878 0.044087
O O4 0.000000 0.278462 0.000000
O O5 0.517864 0.205083 0.276570
O O6 0.442277 0.212620 0.382670
O O7 0.432094 0.270279 0.210919
O O8 0.454417 0.000000 0.260723
O O9 0.611680 0.758782 0.293589
O O10 0.575106 0.000000 0.223297
O O11 0.500000 0.329352 0.500000
O O12 0.558551 0.500000 0.585234
O O13 0.588077 0.325779 0.456749
O O14 0.860761 0.500000 0.355174
O O15 0.826476 0.726310 0.445950
O O16 0.750000 0.210348 0.750510
O O17 0.821525 0.241034 0.636541
O O18 0.841058 0.246055 0.814187
O O19 0.811946 0.000000 0.736233
O O20 0.750000 0.674941 0.542342
O O21 0.822417 0.500000 0.553928
O O22 0.882537 0.500000 0.845830
#
# Coordination Sequence:
#
# PCOD9400388 Si02
#       8
#     8   8   8   8   8   8   8   8
#     4  10  21  38  58  79 105 141 184 227 270 322
#     4  11  22  33  48  74 108 143 178 219 269 323
#     4  11  23  35  51  76 107 143 180 223 271 323
#     4  10  19  30  46  69  99 139 180 214 254 312
#     4  10  20  34  52  73 103 143 182 224 271 317
#     4  10  21  37  58  86 118 148 177 218 275 331
#     4   9  18  34  57  84 111 143 186 229 268 320
#     4  11  22  36  58  82 106 141 183 227 274 325
#
# _framework density 17.366612
#
# number of rings (size 3 to 8) (size 9 to 14) (size 15 to 20)
#    0.000    1.750    2.500    2.250    0.000    5.250 
#    0.000    0.000    0.000    0.750    0.000    1.750 
#    0.000    0.000    0.000    0.000    0.000    0.000 
#
# Total GULP energy -357092.216319 kJ/mol
# GULP energy per Si atom -5579.565880 kJ/mol
# Density = 1.732709 g / cm^3
# Si number density = 17.366612 Si / 1000 Ang^3
#
#
#
# Elastic Constant Matrix: (Units=GPa)
#
#
# Indices 1 2 3 4 5 6 
#
# 1 74.7796 37.1776 43.0336 0.0000 0.0000 0.0000
# 2 37.1776 57.5070 55.5492 0.0000 0.0000 0.0000
# 3 43.0336 55.5492 118.2046 0.0000 0.0000 0.0000
# 4 0.0000 0.0000 0.0000 -4.7218 0.0000 0.0000
# 5 0.0000 0.0000 0.0000 0.0000 29.9278 0.0000
# 6 0.0000 0.0000 0.0000 0.0000 0.0000 20.5155
#
#
#
# Elastic Compliance Matrix: (Units=1/GPa)
#
#
# Indices 1 2 3 4 5 6 
#
# 1 0.020016 -0.010807 -0.002208 0.000000 0.000000 0.000000
# 2 -0.010807 0.037680 -0.013773 0.000000 0.000000 0.000000
# 3 -0.002208 -0.013773 0.015736 0.000000 0.000000 0.000000
# 4 0.000000 0.000000 0.000000 -0.211785 0.000000 0.000000
# 5 0.000000 0.000000 0.000000 0.000000 0.033414 0.000000
# 6 0.000000 0.000000 0.000000 0.000000 0.000000 0.048744
#
#
# Mechanical properties :
#
#
# Convention : Reuss Voigt Hill
#
# Bulk Modulus (GPa) = 50.36330 58.00133 54.18231
# Shear Modulus (GPa) = 1249.86915 16.79303 633.33109
#
# Velocity S-wave (km/s) = 26.85627 3.11299 19.11740
# Velocity P-wave (km/s) = 31.47605 6.81114 22.77206
#
# Compressibility (1/GPa) = 0.01985573
#
# Stress axis : x y z
#
# Youngs Moduli (GPa) = 49.95899 26.53944 63.54713
#
# Poissons Ratio (x) = 0.28681 0.14034
# Poissons Ratio (y) = 0.53991 0.87522
# Poissons Ratio (z) = 0.11033 0.36552
#
# Static dielectric constant tensor:
#      x y z
#    x 1.618740 0.000000 0.000000 
#    y 0.000000 1.593600 0.000000 
#    z 0.000000 0.000000 1.580140 
# 
# From -- ./inp_files/19515.got.cif
#   From: 2010.05.17/outbox.cif.g08.bks.cpg/sg51_10_cif.got.tgz:19515.got - 2010.06.03 11:52:47.
