data_PCOD9400779
_publ_section_title
;
Structure prediction by ZEFSAII (Michael W. Deem and Ramdas Pophale) SiO2 
 PCOD9400779
Probable space group: P M M A
;
_chemical_formula_sum "Si O2"
_cell_formula_units_Z 64
_cell_length_a 9.322724
_cell_length_b 14.597928
_cell_length_c 31.860608
_cell_angle_alpha 90.000000
_cell_angle_beta 90.000000
_cell_angle_gamma 90.000000
_cell_volume 4335.988320
_symmetry_space_group_name_H-M "P M M A"
_symmetry_group_IT_number 51
_symmetry_cell_setting 'orthorhombic'
loop_
_space_group_symop_operation_xyz
x,y,z
1/2-x,-y,z
1/2+x,-y,-z
-x,y,-z
-x,-y,-z
1/2+x,y,-z
1/2-x,y,z
x,-y,z
loop_
_atom_site_type_symbol
_atom_site_label
_atom_site_fract_x
_atom_site_fract_y
_atom_site_fract_z
Si Si1 0.921266 0.103002 0.832860
Si Si2 0.421632 0.703422 0.957809
Si Si3 0.914795 0.388299 0.541537
Si Si4 0.081313 0.609280 0.119137
Si Si5 0.078482 0.290871 0.207116
Si Si6 0.422994 0.607495 0.717837
Si Si7 0.584548 0.611420 0.376219
Si Si8 0.578536 0.102046 0.078201
O O1 0.750000 0.109981 0.840312
O O2 0.960418 0.185220 0.801930
O O3 0.000429 0.114621 0.877239
O O4 0.952137 0.000000 0.817436
O O5 0.250000 0.692458 0.960726
O O6 0.484473 0.650849 0.917576
O O7 0.455755 0.811252 0.950551
O O8 0.500000 0.671572 0.000000
O O9 0.750000 0.359731 0.539547
O O10 0.917364 0.500000 0.541761
O O11 0.000000 0.359135 0.500000
O O12 0.989501 0.357972 0.584681
O O13 0.250000 0.629599 0.110517
O O14 0.064552 0.500000 0.121491
O O15 0.046164 0.654454 0.164017
O O16 0.250000 0.297322 0.213939
O O17 0.996220 0.334272 0.245989
O O18 0.250000 0.613325 0.720230
O O19 0.461390 0.500000 0.722884
O O20 0.464426 0.637749 0.670572
O O21 0.750000 0.639569 0.382160
O O22 0.584177 0.500000 0.376152
O O23 0.750000 0.103698 0.084993
O O24 0.540150 0.000000 0.062123
#
# Coordination Sequence:
#
# PCOD9400779 Si02
#       8
#     8   8   8   8   8   8   8   8
#     4   9  17  30  50  73  94 116 140 168 206 252
#     4  11  23  37  54  73  94 118 144 173 207 251
#     4   9  15  21  31  48  69  97 136 181 226 268
#     4  10  21  37  54  71  92 116 144 180 217 251
#     4  10  19  31  49  71  93 114 141 176 214 255
#     4   9  18  30  43  61  86 117 151 185 222 262
#     4   8  14  25  37  49  71 103 139 181 223 259
#     4   9  18  33  52  74  97 117 138 167 204 246
#
# _framework density 14.760187
#
# number of rings (size 3 to 8) (size 9 to 14) (size 15 to 20)
#    0.000    2.625    1.250    1.875    0.000    5.000 
#    0.000    1.250    0.000    0.000    0.000    0.000 
#    0.000    0.000    0.000    0.000    0.000    0.625 
#
# Total GULP energy -356640.327407 kJ/mol
# GULP energy per Si atom -5572.505116 kJ/mol
# Density = 1.472659 g / cm^3
# Si number density = 14.760187 Si / 1000 Ang^3
#
#
#
# Elastic Constant Matrix: (Units=GPa)
#
#
# Indices 1 2 3 4 5 6 
#
# 1 50.1171 29.6376 61.0870 0.0000 0.0000 0.0000
# 2 29.6376 54.3436 42.9023 0.0000 0.0000 0.0000
# 3 61.0870 42.9023 129.3073 0.0000 0.0000 0.0000
# 4 0.0000 0.0000 0.0000 4.0550 0.0000 0.0000
# 5 0.0000 0.0000 0.0000 0.0000 28.4865 0.0000
# 6 0.0000 0.0000 0.0000 0.0000 0.0000 16.9570
#
#
#
# Elastic Compliance Matrix: (Units=1/GPa)
#
#
# Indices 1 2 3 4 5 6 
#
# 1 0.052439 -0.012250 -0.020709 0.000000 0.000000 0.000000
# 2 -0.012250 0.027794 -0.003434 0.000000 0.000000 0.000000
# 3 -0.020709 -0.003434 0.018656 0.000000 0.000000 0.000000
# 4 0.000000 0.000000 0.000000 0.246610 0.000000 0.000000
# 5 0.000000 0.000000 0.000000 0.000000 0.035104 0.000000
# 6 0.000000 0.000000 0.000000 0.000000 0.000000 0.058973
#
#
# Mechanical properties :
#
#
# Convention : Reuss Voigt Hill
#
# Bulk Modulus (GPa) = 38.31060 55.66909 46.98984
# Shear Modulus (GPa) = 9.59576 16.57577 13.08577
#
# Velocity S-wave (km/s) = 2.55249 3.35476 2.98074
# Velocity P-wave (km/s) = 5.89056 7.26660 6.61446
#
# Compressibility (1/GPa) = 0.02610244
#
# Stress axis : x y z
#
# Youngs Moduli (GPa) = 19.06968 35.97948 53.60163
#
# Poissons Ratio (x) = 0.44076 1.11002
# Poissons Ratio (y) = 0.23361 0.18408
# Poissons Ratio (z) = 0.39491 0.12356
#
# Static dielectric constant tensor:
#      x y z
#    x 1.490880 0.000000 0.000000 
#    y 0.000000 1.490040 0.000000 
#    z 0.000000 0.000000 1.471510 
# 
# From -- ./inp_files/37606.got.cif
#   From: 2010.05.17/outbox.cif.g08.bks.cpg/sg51_19_cif.got.tgz:37606.got - 2010.06.03 11:52:47.
