data_PCOD9400735
_publ_section_title
;
Structure prediction by ZEFSAII (Michael W. Deem and Ramdas Pophale) SiO2 
 PCOD9400735
Probable space group: P M M A
;
_chemical_formula_sum "Si O2"
_cell_formula_units_Z 64
_cell_length_a 8.179293
_cell_length_b 23.107910
_cell_length_c 16.797456
_cell_angle_alpha 90.000000
_cell_angle_beta 90.000000
_cell_angle_gamma 90.000000
_cell_volume 3174.826125
_symmetry_space_group_name_H-M "P M M A"
_symmetry_group_IT_number 51
_symmetry_cell_setting 'orthorhombic'
loop_
_space_group_symop_operation_xyz
x,y,z
1/2-x,-y,z
1/2+x,-y,-z
-x,y,-z
-x,-y,-z
1/2+x,y,-z
1/2-x,y,z
x,-y,z
loop_
_atom_site_type_symbol
_atom_site_label
_atom_site_fract_x
_atom_site_fract_y
_atom_site_fract_z
Si Si1 0.554192 0.855725 0.586243
Si Si2 0.054623 0.935569 0.733552
Si Si3 0.555348 0.561960 0.245755
Si Si4 0.554930 0.232959 0.913827
Si Si5 0.946489 0.401262 0.583202
Si Si6 0.941023 0.310625 0.224765
Si Si7 0.560569 0.727166 0.611958
Si Si8 0.944585 0.097270 0.911521
O O1 0.500000 0.880459 0.500000
O O2 0.750000 0.853110 0.586720
O O3 0.505203 0.890196 0.666450
O O4 0.487209 0.789305 0.589951
O O5 0.250000 0.933728 0.730822
O O6 0.006944 0.926878 0.826726
O O7 0.996731 0.000000 0.710379
O O8 0.750000 0.560467 0.233080
O O9 0.486947 0.500000 0.217743
O O10 0.519204 0.568246 0.339652
O O11 0.497948 0.623592 0.211408
O O12 0.750000 0.237682 0.903113
O O13 0.461312 0.271245 0.850985
O O14 0.510195 0.165261 0.907968
O O15 0.500000 0.253049 0.000000
O O16 0.750000 0.400849 0.590472
O O17 0.010554 0.334368 0.583721
O O18 0.000000 0.427745 0.500000
O O19 0.750000 0.312983 0.249577
O O20 0.045307 0.280366 0.293542
O O21 0.750000 0.727837 0.586905
O O22 0.750000 0.091258 0.910812
O O23 0.000000 0.075671 0.000000
#
# Coordination Sequence:
#
# PCOD9400735 Si02
#       8
#     8   8   8   8   8   8   8   8
#     4  11  23  39  60  84 111 146 188 235 286 336
#     4  11  25  43  61  83 113 150 192 235 277 325
#     4   9  19  35  51  68  94 131 175 217 256 303
#     4  10  20  34  54  82 114 142 169 206 254 311
#     4  10  19  31  48  71 100 131 165 208 258 312
#     4  10  19  31  52  79 105 137 174 215 265 316
#     4   9  19  34  52  77 107 137 171 214 266 323
#     4  10  21  38  62  91 121 152 184 221 271 330
#
# _framework density 20.158584999999999
#
# number of rings (size 3 to 8) (size 9 to 14) (size 15 to 20)
#    0.000    2.000    0.000    3.375    0.000    8.500 
#    0.000    0.000    0.000    0.375    0.000    0.000 
#    0.000    0.000    0.000    0.000    0.000    0.000 
#
# Total GULP energy -356870.443442 kJ/mol
# GULP energy per Si atom -5576.100679 kJ/mol
# Density = 2.011270 g / cm^3
# Si number density = 20.158585 Si / 1000 Ang^3
#
#
#
# Elastic Constant Matrix: (Units=GPa)
#
#
# Indices 1 2 3 4 5 6 
#
# 1 19.0330 17.0044 9.9333 0.0000 0.0000 0.0000
# 2 17.0044 89.8123 33.1158 0.0000 0.0000 0.0000
# 3 9.9333 33.1158 83.4867 0.0000 0.0000 0.0000
# 4 0.0000 0.0000 0.0000 -41.3419 0.0000 0.0000
# 5 0.0000 0.0000 0.0000 0.0000 33.6570 0.0000
# 6 0.0000 0.0000 0.0000 0.0000 0.0000 7.7580
#
#
#
# Elastic Compliance Matrix: (Units=1/GPa)
#
#
# Indices 1 2 3 4 5 6 
#
# 1 0.063999 -0.010904 -0.003289 0.000000 0.000000 0.000000
# 2 -0.010904 0.014900 -0.004613 0.000000 0.000000 0.000000
# 3 -0.003289 -0.004613 0.014199 0.000000 0.000000 0.000000
# 4 0.000000 0.000000 0.000000 -0.024189 0.000000 0.000000
# 5 0.000000 0.000000 0.000000 0.000000 0.029711 0.000000
# 6 0.000000 0.000000 0.000000 0.000000 0.000000 0.128899
#
#
# Mechanical properties :
#
#
# Convention : Reuss Voigt Hill
#
# Bulk Modulus (GPa) = 18.02290 34.71546 26.36918
# Shear Modulus (GPa) = 17.62879 8.83320 13.23100
#
# Velocity S-wave (km/s) = 2.96041 2.09556 2.56470
# Velocity P-wave (km/s) = 4.54372 4.80767 4.67756
#
# Compressibility (1/GPa) = 0.05548498
#
# Stress axis : x y z
#
# Youngs Moduli (GPa) = 15.62527 67.11555 70.42747
#
# Poissons Ratio (x) = 0.73184 0.23166
# Poissons Ratio (y) = 0.17038 0.32486
# Poissons Ratio (z) = 0.05140 0.30958
#
# Static dielectric constant tensor:
#      x y z
#    x 1.715310 0.000000 0.000000 
#    y 0.000000 1.767950 0.000000 
#    z 0.000000 0.000000 1.696730 
# 
# From -- ./inp_files/22296.got.cif
#   From: 2010.05.17/outbox.cif.g08.bks.cpg/sg51_12_cif.got.tgz:22296.got - 2010.06.03 11:52:47.
