data_PCOD9400443
_publ_section_title
;
Structure prediction by ZEFSAII (Michael W. Deem and Ramdas Pophale) SiO2 
 PCOD9400443
Probable space group: P M M A
;
_chemical_formula_sum "Si O2"
_cell_formula_units_Z 64
_cell_length_a 8.705358
_cell_length_b 17.078668
_cell_length_c 23.507689
_cell_angle_alpha 90.000000
_cell_angle_beta 90.000000
_cell_angle_gamma 90.000000
_cell_volume 3495.027268
_symmetry_space_group_name_H-M "P M M A"
_symmetry_group_IT_number 51
_symmetry_cell_setting 'orthorhombic'
loop_
_space_group_symop_operation_xyz
x,y,z
1/2-x,-y,z
1/2+x,-y,-z
-x,y,-z
-x,-y,-z
1/2+x,y,-z
1/2-x,y,z
x,-y,z
loop_
_atom_site_type_symbol
_atom_site_label
_atom_site_fract_x
_atom_site_fract_y
_atom_site_fract_z
Si Si1 0.565142 0.911459 0.936024
Si Si2 0.931693 0.225220 0.752723
Si Si3 0.433734 0.754186 0.876670
Si Si4 0.067960 0.842471 0.563342
Si Si5 0.568211 0.913090 0.670869
Si Si6 0.435775 0.410895 0.935968
Si Si7 0.933653 0.412733 0.444571
Si Si8 0.067683 0.699961 0.649502
O O1 0.750000 0.907351 0.936619
O O2 0.503222 0.833296 0.905001
O O3 0.524410 0.000000 0.913231
O O4 0.500000 0.908852 0.000000
O O5 0.750000 0.217750 0.763747
O O6 0.988578 0.148382 0.717888
O O7 0.018113 0.241346 0.810855
O O8 0.968817 0.290071 0.705499
O O9 0.250000 0.758024 0.882983
O O10 0.483965 0.669082 0.902699
O O11 0.250000 0.848955 0.557809
O O12 0.033554 0.764368 0.600359
O O13 0.000000 0.844346 0.500000
O O14 0.005910 0.905484 0.608612
O O15 0.750000 0.897916 0.663525
O O16 0.545992 0.000000 0.693001
O O17 0.250000 0.409875 0.937180
O O18 0.479965 0.500000 0.915081
O O19 0.500000 0.404607 0.000000
O O20 0.750000 0.412211 0.450794
O O21 0.996434 0.500000 0.445105
O O22 0.967577 0.378420 0.383592
O O23 0.000000 0.369841 0.500000
O O24 0.250000 0.706283 0.662638
#
# Coordination Sequence:
#
# PCOD9400443 Si02
#       8
#     8   8   8   8   8   8   8   8
#     4  10  21  37  57  83 117 153 187 225 270 320
#     4  10  21  36  54  75  99 131 173 216 259 309
#     4  11  22  36  57  83 112 147 186 228 272 320
#     4  10  19  30  47  71  96 123 157 198 247 303
#     4   9  19  36  54  70  92 124 162 206 255 305
#     4   9  19  36  58  85 115 146 180 219 266 318
#     4   9  17  29  47  72  99 126 158 199 250 308
#     4   9  18  33  50  68  94 128 165 205 250 301
#
# _framework density 18.311731000000002
#
# number of rings (size 3 to 8) (size 9 to 14) (size 15 to 20)
#    0.000    2.375    0.000    2.250    0.000    5.250 
#    0.000    1.875    0.000    3.750    0.000    0.000 
#    0.000    0.000    0.000    0.000    0.000    0.000 
#
# Total GULP energy -356290.995955 kJ/mol
# GULP energy per Si atom -5567.046812 kJ/mol
# Density = 1.827005 g / cm^3
# Si number density = 18.311731 Si / 1000 Ang^3
#
#
#
# Elastic Constant Matrix: (Units=GPa)
#
#
# Indices 1 2 3 4 5 6 
#
# 1 24.3633 32.7079 27.3605 0.0000 0.0000 0.0000
# 2 32.7079 110.9622 65.3852 0.0000 0.0000 0.0000
# 3 27.3605 65.3852 109.8059 0.0000 0.0000 0.0000
# 4 0.0000 0.0000 0.0000 10.5853 0.0000 0.0000
# 5 0.0000 0.0000 0.0000 0.0000 32.1308 0.0000
# 6 0.0000 0.0000 0.0000 0.0000 0.0000 21.3448
#
#
#
# Elastic Compliance Matrix: (Units=1/GPa)
#
#
# Indices 1 2 3 4 5 6 
#
# 1 0.072440 -0.016510 -0.008219 0.000000 0.000000 0.000000
# 2 -0.016510 0.017646 -0.006394 0.000000 0.000000 0.000000
# 3 -0.008219 -0.006394 0.014962 0.000000 0.000000 0.000000
# 4 0.000000 0.000000 0.000000 0.094471 0.000000 0.000000
# 5 0.000000 0.000000 0.000000 0.000000 0.031123 0.000000
# 6 0.000000 0.000000 0.000000 0.000000 0.000000 0.046850
#
#
# Mechanical properties :
#
#
# Convention : Reuss Voigt Hill
#
# Bulk Modulus (GPa) = 23.36285 55.11541 39.23913
# Shear Modulus (GPa) = 14.12410 20.79068 17.45739
#
# Velocity S-wave (km/s) = 2.78027 3.37319 3.09098
# Velocity P-wave (km/s) = 4.80548 6.73312 5.84926
#
# Compressibility (1/GPa) = 0.04280299
#
# Stress axis : x y z
#
# Youngs Moduli (GPa) = 13.80456 56.66935 66.83479
#
# Poissons Ratio (x) = 0.93559 0.54932
# Poissons Ratio (y) = 0.22791 0.42733
# Poissons Ratio (z) = 0.11346 0.36234
#
# Static dielectric constant tensor:
#      x y z
#    x 1.627250 0.000000 0.000000 
#    y 0.000000 1.724550 0.000000 
#    z 0.000000 0.000000 1.635640 
# 
# From -- ./inp_files/32336.got.cif
#   From: 2010.05.17/outbox.cif.g08.bks.cpg/sg51_17_cif.got.tgz:32336.got - 2010.06.03 11:52:47.
