data_PCOD9400931
_publ_section_title
;
Structure prediction by ZEFSAII (Michael W. Deem and Ramdas Pophale) SiO2 
 PCOD9400931
Probable space group: P M M A
;
_chemical_formula_sum "Si O2"
_cell_formula_units_Z 48
_cell_length_a 17.072000
_cell_length_b 16.327874
_cell_length_c 9.507580
_cell_angle_alpha 90.000000
_cell_angle_beta 90.000000
_cell_angle_gamma 90.000000
_cell_volume 2650.232838
_symmetry_space_group_name_H-M "P M M A"
_symmetry_group_IT_number 51
_symmetry_cell_setting 'orthorhombic'
loop_
_space_group_symop_operation_xyz
x,y,z
1/2-x,-y,z
1/2+x,-y,-z
-x,y,-z
-x,-y,-z
1/2+x,y,-z
1/2-x,y,z
x,-y,z
loop_
_atom_site_type_symbol
_atom_site_label
_atom_site_fract_x
_atom_site_fract_y
_atom_site_fract_z
Si Si1 0.410415 0.767134 0.552038
Si Si2 0.589561 0.093452 0.950424
Si Si3 0.843015 0.587916 0.759416
Si Si4 0.843072 0.767617 0.756785
Si Si5 0.590434 0.412183 0.448888
Si Si6 0.157805 0.093598 0.744233
O O1 0.500000 0.771841 0.500000
O O2 0.359423 0.773073 0.409797
O O3 0.396825 0.676563 0.619320
O O4 0.389286 0.839427 0.656962
O O5 0.641738 0.103812 0.090148
O O6 0.599764 0.000000 0.898163
O O7 0.500000 0.102552 0.000000
O O8 0.613064 0.160190 0.836586
O O9 0.750000 0.587728 0.783457
O O10 0.875102 0.500000 0.812944
O O11 0.872209 0.677170 0.807026
O O12 0.859076 0.587660 0.591953
O O13 0.750000 0.773445 0.781628
O O14 0.500000 0.412452 0.500000
O O15 0.604582 0.500000 0.374996
O O16 0.250000 0.102674 0.715598
O O17 0.134261 0.000000 0.708483
#
# Coordination Sequence:
#
# PCOD9400931 Si02
#       6
#     8   8   8   8   8   8
#     4  10  19  31  50  76 104 132 163 202 244 285
#     4  10  21  37  55  73  95 126 163 202 246 297
#     4   8  14  25  42  66  95 124 155 194 239 283
#     4  10  19  31  51  77  99 124 165 210 242 277
#     4   8  14  25  42  66  96 128 160 194 234 280
#     4  10  21  36  51  68  96 133 164 194 245 305
#
# _framework density 18.111615
#
# number of rings (size 3 to 8) (size 9 to 14) (size 15 to 20)
#    0.000    2.667    0.000    2.000    0.000    2.667 
#    0.000    0.000    0.000    1.500    0.000    0.000 
#    0.000    0.000    0.000    0.000    0.000    0.000 
#
# Total GULP energy -267225.056080 kJ/mol
# GULP energy per Si atom -5567.188668 kJ/mol
# Density = 1.807039 g / cm^3
# Si number density = 18.111615 Si / 1000 Ang^3
#
#
#
# Elastic Constant Matrix: (Units=GPa)
#
#
# Indices 1 2 3 4 5 6 
#
# 1 23.1972 12.2089 -2.4131 0.0000 0.0000 0.0000
# 2 12.2089 126.3472 25.4942 0.0000 0.0000 0.0000
# 3 -2.4131 25.4942 14.7233 0.0000 0.0000 0.0000
# 4 0.0000 0.0000 0.0000 -4.5851 0.0000 0.0000
# 5 0.0000 0.0000 0.0000 0.0000 21.0477 0.0000
# 6 0.0000 0.0000 0.0000 0.0000 0.0000 20.2312
#
#
#
# Elastic Compliance Matrix: (Units=1/GPa)
#
#
# Indices 1 2 3 4 5 6 
#
# 1 0.051191 -0.010205 0.026060 0.000000 0.000000 0.000000
# 2 -0.010205 0.014199 -0.026260 0.000000 0.000000 0.000000
# 3 0.026060 -0.026260 0.117661 0.000000 0.000000 0.000000
# 4 0.000000 0.000000 0.000000 -0.218096 0.000000 0.000000
# 5 0.000000 0.000000 0.000000 0.000000 0.047511 0.000000
# 6 0.000000 0.000000 0.000000 0.000000 0.000000 0.049429
#
#
# Mechanical properties :
#
#
# Convention : Reuss Voigt Hill
#
# Bulk Modulus (GPa) = 6.16362 26.09420 16.12891
# Shear Modulus (GPa) = 36.55420 15.93728 26.24574
#
# Velocity S-wave (km/s) = 4.49739 2.96961 3.81085
# Velocity P-wave (km/s) = 5.51174 5.11828 5.31865
#
# Compressibility (1/GPa) = 0.16224228
#
# Stress axis : x y z
#
# Youngs Moduli (GPa) = 19.53482 70.42519 8.49902
#
# Poissons Ratio (x) = 0.71869 -0.22149
# Poissons Ratio (y) = 0.19935 0.22318
# Poissons Ratio (z) = -0.50909 1.84934
#
# Static dielectric constant tensor:
#      x y z
#    x 1.636810 0.000000 0.000000 
#    y 0.000000 1.691130 0.000000 
#    z 0.000000 0.000000 1.573530 
# 
# From -- ./inp_files/8210.got.cif
#   From: 2010.05.17/outbox.cif.g08.bks.cpg/sg51_5_cif.got.tgz:8210.got - 2010.06.03 11:52:47.
