data_PCOD9400277
_publ_section_title
;
Structure prediction by ZEFSAII (Michael W. Deem and Ramdas Pophale) SiO2 
 PCOD9400277
Probable space group: P M M A
;
_chemical_formula_sum "Si O2"
_cell_formula_units_Z 64
_cell_length_a 8.828469
_cell_length_b 27.267814
_cell_length_c 18.896833
_cell_angle_alpha 90.000000
_cell_angle_beta 90.000000
_cell_angle_gamma 90.000000
_cell_volume 4549.092255
_symmetry_space_group_name_H-M "P M M A"
_symmetry_group_IT_number 51
_symmetry_cell_setting 'orthorhombic'
loop_
_space_group_symop_operation_xyz
x,y,z
1/2-x,-y,z
1/2+x,-y,-z
-x,y,-z
-x,-y,-z
1/2+x,y,-z
1/2-x,y,z
x,-y,z
loop_
_atom_site_type_symbol
_atom_site_label
_atom_site_fract_x
_atom_site_fract_y
_atom_site_fract_z
Si Si1 0.568411 0.446129 0.920716
Si Si2 0.568920 0.346116 0.079209
Si Si3 0.068069 0.946219 0.651964
Si Si4 0.066404 0.251835 0.154066
Si Si5 0.076271 0.202100 0.294757
Si Si6 0.566886 0.850179 0.922665
Si Si7 0.569477 0.153214 0.423828
Si Si8 0.076063 0.902935 0.214185
O O1 0.750000 0.440254 0.924646
O O2 0.536539 0.500000 0.888436
O O3 0.493831 0.397386 0.889129
O O4 0.500000 0.447900 0.000000
O O5 0.750000 0.347424 0.074671
O O6 0.511282 0.299762 0.123247
O O7 0.500000 0.341488 0.000000
O O8 0.250000 0.945665 0.649323
O O9 0.014282 0.900322 0.604703
O O10 0.017646 0.936529 0.732727
O O11 0.014075 0.000000 0.628618
O O12 0.250000 0.256174 0.151272
O O13 0.023860 0.240656 0.235585
O O14 0.024935 0.203785 0.107472
O O15 0.250000 0.212975 0.314499
O O16 0.077879 0.150517 0.251938
O O17 0.979710 0.192284 0.364373
O O18 0.750000 0.851609 0.924696
O O19 0.518531 0.890812 0.864564
O O20 0.500000 0.857601 0.000000
O O21 0.500000 0.163355 0.500000
O O22 0.750000 0.151788 0.428682
O O23 0.250000 0.920321 0.210634
#
# Coordination Sequence:
#
# PCOD9400277 Si02
#       8
#     8   8   8   8   8   8   8   8
#     4   9  16  26  39  52  68  95 133 175 216 255
#     4  11  20  27  37  54  78 106 137 175 214 249
#     4   9  18  31  45  62  82 102 125 154 188 224
#     4   9  17  29  42  57  79 104 130 162 200 241
#     4   8  15  29  46  60  78 104 130 157 190 229
#     4   9  17  27  40  58  78  99 124 157 195 234
#     4  10  19  30  45  64  86 108 130 156 183 218
#     4   8  15  28  43  59  77  98 126 155 186 228
#
# _framework density 14.068742
#
# number of rings (size 3 to 8) (size 9 to 14) (size 15 to 20)
#    0.000    2.875    0.000    4.500    0.000    4.250 
#    0.000    2.500    0.000    0.375    0.000    0.000 
#    0.000    0.000    0.000    0.000    0.000    0.625 
#
# Total GULP energy -356281.306861 kJ/mol
# GULP energy per Si atom -5566.895420 kJ/mol
# Density = 1.403672 g / cm^3
# Si number density = 14.068742 Si / 1000 Ang^3
#
#
#
# Elastic Constant Matrix: (Units=GPa)
#
#
# Indices 1 2 3 4 5 6 
#
# 1 38.4858 17.9361 27.1899 0.0000 0.0000 0.0000
# 2 17.9361 44.8243 21.1327 0.0000 0.0000 0.0000
# 3 27.1899 21.1327 88.2251 0.0000 0.0000 0.0000
# 4 0.0000 0.0000 0.0000 9.6527 0.0000 0.0000
# 5 0.0000 0.0000 0.0000 0.0000 20.4626 0.0000
# 6 0.0000 0.0000 0.0000 0.0000 0.0000 17.7966
#
#
#
# Elastic Compliance Matrix: (Units=1/GPa)
#
#
# Indices 1 2 3 4 5 6 
#
# 1 0.037279 -0.010710 -0.008924 0.000000 0.000000 0.000000
# 2 -0.010710 0.028226 -0.003460 0.000000 0.000000 0.000000
# 3 -0.008924 -0.003460 0.014914 0.000000 0.000000 0.000000
# 4 0.000000 0.000000 0.000000 0.103598 0.000000 0.000000
# 5 0.000000 0.000000 0.000000 0.000000 0.048870 0.000000
# 6 0.000000 0.000000 0.000000 0.000000 0.000000 0.056191
#
#
# Mechanical properties :
#
#
# Convention : Reuss Voigt Hill
#
# Bulk Modulus (GPa) = 29.21302 33.78362 31.49832
# Shear Modulus (GPa) = 14.42268 16.60081 15.51174
#
# Velocity S-wave (km/s) = 3.20528 3.43881 3.32410
# Velocity P-wave (km/s) = 5.87435 6.31131 6.09674
#
# Compressibility (1/GPa) = 0.03423131
#
# Stress axis : x y z
#
# Youngs Moduli (GPa) = 26.82449 35.42804 67.05250
#
# Poissons Ratio (x) = 0.37943 0.59836
# Poissons Ratio (y) = 0.28729 0.23203
# Poissons Ratio (z) = 0.23937 0.12260
#
# Static dielectric constant tensor:
#      x y z
#    x 1.472550 0.000000 0.000000 
#    y 0.000000 1.482420 0.000000 
#    z 0.000000 0.000000 1.453880 
# 
# From -- ./inp_files/28670.got.cif
#   From: 2010.05.17/outbox.cif.g08.bks.cpg/sg51_15_cif.got.tgz:28670.got - 2010.06.03 11:52:47.
