data_PCOD9400728
_publ_section_title
;
Structure prediction by ZEFSAII (Michael W. Deem and Ramdas Pophale) SiO2 
 PCOD9400728
Probable space group: P M M A
;
_chemical_formula_sum "Si O2"
_cell_formula_units_Z 64
_cell_length_a 22.001315
_cell_length_b 9.082971
_cell_length_c 19.331213
_cell_angle_alpha 90.000000
_cell_angle_beta 90.000000
_cell_angle_gamma 90.000000
_cell_volume 3863.097530
_symmetry_space_group_name_H-M "P M M A"
_symmetry_group_IT_number 51
_symmetry_cell_setting 'orthorhombic'
loop_
_space_group_symop_operation_xyz
x,y,z
1/2-x,-y,z
1/2+x,-y,-z
-x,y,-z
-x,-y,-z
1/2+x,y,-z
1/2-x,y,z
x,-y,z
loop_
_atom_site_type_symbol
_atom_site_label
_atom_site_fract_x
_atom_site_fract_y
_atom_site_fract_z
Si Si1 0.565890 0.669129 0.538091
Si Si2 0.882572 0.171478 0.410383
Si Si3 0.178598 0.665675 0.706316
Si Si4 0.818695 0.175654 0.021271
Si Si5 0.438529 0.676417 0.041435
Si Si6 0.513271 0.826906 0.666964
Si Si7 0.496977 0.675077 0.184428
Si Si8 0.377933 0.172915 0.834151
O O1 0.500000 0.667512 0.500000
O O2 0.586316 0.500000 0.543214
O O3 0.606401 0.766306 0.486807
O O4 0.556174 0.742419 0.612653
O O5 0.835558 0.270805 0.368869
O O6 0.945676 0.185235 0.366573
O O7 0.866081 0.000000 0.411432
O O8 0.250000 0.660020 0.718074
O O9 0.153069 0.500000 0.713574
O O10 0.149894 0.773730 0.762364
O O11 0.750000 0.226937 0.003904
O O12 0.831563 0.197409 0.103033
O O13 0.821138 0.000000 0.008484
O O14 0.876154 0.250483 0.984101
O O15 0.434236 0.500000 0.031302
O O16 0.449747 0.705789 0.122729
O O17 0.500000 0.725062 0.000000
O O18 0.514401 0.755702 0.742829
O O19 0.527754 0.000000 0.670347
O O20 0.499467 0.500000 0.195649
O O21 0.561420 0.732809 0.155827
O O22 0.393184 0.000000 0.831396
#
# Coordination Sequence:
#
# PCOD9400728 Si02
#       8
#     8   8   8   8   8   8   8   8
#     4   9  17  29  47  70  97 130 164 200 246 297
#     4  10  19  31  48  70  98 132 170 213 255 302
#     4  11  23  35  48  69  99 138 182 222 260 307
#     4  10  22  38  56  79 106 139 181 226 272 325
#     4  10  21  37  55  79 108 140 179 224 272 324
#     4  10  19  31  48  73 102 131 168 208 254 309
#     4  11  21  33  52  76 107 140 176 218 265 321
#     4  11  21  34  52  74 103 139 178 219 264 315
#
# _framework density 16.567017
#
# number of rings (size 3 to 8) (size 9 to 14) (size 15 to 20)
#    0.000    1.750    2.500    2.625    0.000    6.000 
#    0.000    0.000    0.000    0.000    0.000    0.875 
#    0.000    3.000    0.000    0.000    0.000    0.000 
#
# Total GULP energy -357053.155100 kJ/mol
# GULP energy per Si atom -5578.955548 kJ/mol
# Density = 1.652931 g / cm^3
# Si number density = 16.567017 Si / 1000 Ang^3
#
#
#
# Elastic Constant Matrix: (Units=GPa)
#
#
# Indices 1 2 3 4 5 6 
#
# 1 67.0503 17.9512 33.3647 0.0000 0.0000 0.0000
# 2 17.9512 65.4211 42.0530 0.0000 0.0000 0.0000
# 3 33.3647 42.0530 85.4256 0.0000 0.0000 0.0000
# 4 0.0000 0.0000 0.0000 25.7859 0.0000 0.0000
# 5 0.0000 0.0000 0.0000 0.0000 14.8334 0.0000
# 6 0.0000 0.0000 0.0000 0.0000 0.0000 21.2248
#
#
#
# Elastic Compliance Matrix: (Units=1/GPa)
#
#
# Indices 1 2 3 4 5 6 
#
# 1 0.018530 -0.000633 -0.006926 0.000000 0.000000 0.000000
# 2 -0.000633 0.022383 -0.010772 0.000000 0.000000 0.000000
# 3 -0.006926 -0.010772 0.019714 0.000000 0.000000 0.000000
# 4 0.000000 0.000000 0.000000 0.038781 0.000000 0.000000
# 5 0.000000 0.000000 0.000000 0.000000 0.067416 0.000000
# 6 0.000000 0.000000 0.000000 0.000000 0.000000 0.047115
#
#
# Mechanical properties :
#
#
# Convention : Reuss Voigt Hill
#
# Bulk Modulus (GPa) = 41.72444 44.95941 43.34193
# Shear Modulus (GPa) = 19.33585 20.67069 20.00327
#
# Velocity S-wave (km/s) = 3.42003 3.53611 3.47856
# Velocity P-wave (km/s) = 6.39026 6.62336 6.50786
#
# Compressibility (1/GPa) = 0.02396677
#
# Stress axis : x y z
#
# Youngs Moduli (GPa) = 53.96689 44.67626 50.72594
#
# Poissons Ratio (x) = 0.02826 0.35132
# Poissons Ratio (y) = 0.03414 0.54640
# Poissons Ratio (z) = 0.37377 0.48124
#
# Static dielectric constant tensor:
#      x y z
#    x 1.554340 0.000000 0.000000 
#    y 0.000000 1.558220 0.000000 
#    z 0.000000 0.000000 1.558150 
# 
# From -- ./inp_files/30565.got.cif
#   From: 2010.05.17/outbox.cif.g08.bks.cpg/sg51_16_cif.got.tgz:30565.got - 2010.06.03 11:52:47.
