data_PCOD9400290
_publ_section_title
;
Structure prediction by ZEFSAII (Michael W. Deem and Ramdas Pophale) SiO2 
 PCOD9400290
Probable space group: P M M A
;
_chemical_formula_sum "Si O2"
_cell_formula_units_Z 64
_cell_length_a 8.640442
_cell_length_b 20.516459
_cell_length_c 20.512872
_cell_angle_alpha 90.000000
_cell_angle_beta 90.000000
_cell_angle_gamma 90.000000
_cell_volume 3636.342954
_symmetry_space_group_name_H-M "P M M A"
_symmetry_group_IT_number 51
_symmetry_cell_setting 'orthorhombic'
loop_
_space_group_symop_operation_xyz
x,y,z
1/2-x,-y,z
1/2+x,-y,-z
-x,y,-z
-x,-y,-z
1/2+x,y,-z
1/2-x,y,z
x,-y,z
loop_
_atom_site_type_symbol
_atom_site_label
_atom_site_fract_x
_atom_site_fract_y
_atom_site_fract_z
Si Si1 0.564628 0.744528 0.604756
Si Si2 0.936796 0.571721 0.286603
Si Si3 0.065094 0.116119 0.567534
Si Si4 0.565869 0.291997 0.753615
Si Si5 0.935785 0.170331 0.181061
Si Si6 0.061688 0.928879 0.708430
Si Si7 0.434708 0.606400 0.567022
Si Si8 0.935858 0.074047 0.926907
O O1 0.750000 0.745406 0.596719
O O2 0.491378 0.809660 0.576293
O O3 0.527713 0.737407 0.681798
O O4 0.493854 0.680582 0.572088
O O5 0.750000 0.576366 0.284852
O O6 0.982451 0.500000 0.262012
O O7 0.983053 0.576392 0.363277
O O8 0.004328 0.634008 0.249261
O O9 0.250000 0.114175 0.565064
O O10 0.012417 0.081165 0.633871
O O11 0.000000 0.089263 0.500000
O O12 0.750000 0.292758 0.760179
O O13 0.494620 0.243570 0.807034
O O14 0.750000 0.170683 0.179490
O O15 0.990428 0.127939 0.243702
O O16 0.997825 0.130189 0.119442
O O17 0.250000 0.927321 0.708513
O O18 0.012039 0.000000 0.732058
O O19 0.500000 0.577649 0.500000
O O20 0.250000 0.604133 0.564062
O O21 0.750000 0.077418 0.927502
O O22 0.980559 0.000000 0.905227
O O23 0.000000 0.081781 0.000000
#
# Coordination Sequence:
#
# PCOD9400290 Si02
#       8
#     8   8   8   8   8   8   8   8
#     4  10  19  32  48  66  90 119 157 206 261 317
#     4   9  19  35  52  70  96 131 169 211 264 326
#     4  11  21  33  48  65  88 119 160 211 269 326
#     4  10  20  33  52  77 104 131 169 218 266 315
#     4  11  20  34  58  83 109 143 183 223 266 315
#     4   9  19  34  51  71  95 126 167 213 263 319
#     4  10  19  30  45  65  90 119 157 202 256 320
#     4  10  21  37  57  85 122 160 194 227 265 312
#
# _framework density 17.600099
#
# number of rings (size 3 to 8) (size 9 to 14) (size 15 to 20)
#    0.000    2.000    1.250    3.000    0.000    3.500 
#    0.000    0.000    0.000    3.375    0.000    0.000 
#    0.000    0.500    0.000    1.875    0.000    2.875 
#
# Total GULP energy -357253.577537 kJ/mol
# GULP energy per Si atom -5582.087149 kJ/mol
# Density = 1.756004 g / cm^3
# Si number density = 17.600099 Si / 1000 Ang^3
#
#
#
# Elastic Constant Matrix: (Units=GPa)
#
#
# Indices 1 2 3 4 5 6 
#
# 1 39.2173 28.2328 27.5177 0.0000 0.0000 0.0000
# 2 28.2328 123.2217 55.1238 0.0000 0.0000 0.0000
# 3 27.5177 55.1238 77.7045 0.0000 0.0000 0.0000
# 4 0.0000 0.0000 0.0000 -22.2680 0.0000 0.0000
# 5 0.0000 0.0000 0.0000 0.0000 24.6177 0.0000
# 6 0.0000 0.0000 0.0000 0.0000 0.0000 14.4073
#
#
#
# Elastic Compliance Matrix: (Units=1/GPa)
#
#
# Indices 1 2 3 4 5 6 
#
# 1 0.035002 -0.003625 -0.009824 0.000000 0.000000 0.000000
# 2 -0.003625 0.012264 -0.007416 0.000000 0.000000 0.000000
# 3 -0.009824 -0.007416 0.021609 0.000000 0.000000 0.000000
# 4 0.000000 0.000000 0.000000 -0.044908 0.000000 0.000000
# 5 0.000000 0.000000 0.000000 0.000000 0.040621 0.000000
# 6 0.000000 0.000000 0.000000 0.000000 0.000000 0.069409
#
#
# Mechanical properties :
#
#
# Convention : Reuss Voigt Hill
#
# Bulk Modulus (GPa) = 36.83938 51.32135 44.08036
# Shear Modulus (GPa) = 27.05990 11.96935 19.51462
#
# Velocity S-wave (km/s) = 3.92533 2.61065 3.33345
# Velocity P-wave (km/s) = 6.44369 6.18953 6.31789
#
# Compressibility (1/GPa) = 0.02714486
#
# Stress axis : x y z
#
# Youngs Moduli (GPa) = 28.57019 81.54162 46.27661
#
# Poissons Ratio (x) = 0.29559 0.45460
# Poissons Ratio (y) = 0.10357 0.34320
# Poissons Ratio (z) = 0.28066 0.60473
#
# Static dielectric constant tensor:
#      x y z
#    x 1.587250 0.000000 0.000000 
#    y 0.000000 1.617730 0.000000 
#    z 0.000000 0.000000 1.597820 
# 
# From -- ./inp_files/28327.got.cif
#   From: 2010.05.17/outbox.cif.g08.bks.cpg/sg51_15_cif.got.tgz:28327.got - 2010.06.03 11:52:47.
