data_PCOD9400166
_publ_section_title
;
Structure prediction by ZEFSAII (Michael W. Deem and Ramdas Pophale) SiO2 
 PCOD9400166
Probable space group: P M M A
;
_chemical_formula_sum "Si O2"
_cell_formula_units_Z 60
_cell_length_a 8.756756
_cell_length_b 21.419109
_cell_length_c 19.444198
_cell_angle_alpha 90.000000
_cell_angle_beta 90.000000
_cell_angle_gamma 90.000000
_cell_volume 3646.990940
_symmetry_space_group_name_H-M "P M M A"
_symmetry_group_IT_number 51
_symmetry_cell_setting 'orthorhombic'
loop_
_space_group_symop_operation_xyz
x,y,z
1/2-x,-y,z
1/2+x,-y,-z
-x,y,-z
-x,-y,-z
1/2+x,y,-z
1/2-x,y,z
x,-y,z
loop_
_atom_site_type_symbol
_atom_site_label
_atom_site_fract_x
_atom_site_fract_y
_atom_site_fract_z
Si Si1 0.568068 0.746251 0.425529
Si Si2 0.933715 0.186314 0.700268
Si Si3 0.567039 0.500000 0.422700
Si Si4 0.067905 0.719300 0.927072
Si Si5 0.065983 0.623472 0.353379
Si Si6 0.065884 0.928943 0.206989
Si Si7 0.067517 0.310867 0.214285
Si Si8 0.567268 0.134552 0.072850
O O1 0.500000 0.759968 0.500000
O O2 0.750000 0.740168 0.428364
O O3 0.517966 0.797972 0.370191
O O4 0.494789 0.681725 0.397862
O O5 0.750000 0.188264 0.689459
O O6 0.977196 0.121073 0.734741
O O7 0.970591 0.243056 0.752786
O O8 0.750000 0.500000 0.426197
O O9 0.500000 0.500000 0.500000
O O10 0.507148 0.439123 0.382625
O O11 0.250000 0.717020 0.930604
O O12 0.021096 0.792436 0.918478
O O13 0.010296 0.683603 0.859550
O O14 0.000000 0.697737 0.000000
O O15 0.250000 0.620896 0.358616
O O16 0.026540 0.639540 0.273869
O O17 0.250000 0.926615 0.201125
O O18 0.996139 0.905349 0.135587
O O19 0.020556 0.000000 0.221936
O O20 0.250000 0.312869 0.205060
O O21 0.750000 0.131784 0.071208
O O22 0.500000 0.113226 0.000000
#
# Coordination Sequence:
#
# PCOD9400166 Si02
#       8
#     8   8   4   8   8   8   8   8
#     4  11  21  34  54  79 105 132 166 207 251 300
#     4   9  18  33  51  72  99 128 161 205 256 308
#     4  12  24  38  56  80 113 152 185 216 248 292
#     4  10  19  29  46  71 100 132 168 210 259 307
#     4  10  21  37  55  79 110 145 178 211 250 297
#     4  10  20  34  52  71  94 128 167 207 255 312
#     4   9  17  31  52  74 100 133 168 211 257 301
#     4  10  20  32  47  68  95 130 168 210 255 305
#
# _framework density 16.451920000000001
#
# number of rings (size 3 to 8) (size 9 to 14) (size 15 to 20)
#    0.000    2.000    1.333    4.200    0.000    4.800 
#    0.000    0.000    0.000    0.400    0.000    0.467 
#    0.000    0.000    0.000    0.000    0.000    0.000 
#
# Total GULP energy -334892.757548 kJ/mol
# GULP energy per Si atom -5581.545959 kJ/mol
# Density = 1.641447 g / cm^3
# Si number density = 16.451920 Si / 1000 Ang^3
#
#
#
# Elastic Constant Matrix: (Units=GPa)
#
#
# Indices 1 2 3 4 5 6 
#
# 1 63.3066 41.5123 62.8542 0.0000 0.0000 0.0000
# 2 41.5123 98.3273 73.2112 0.0000 0.0000 0.0000
# 3 62.8542 73.2112 164.8510 0.0000 0.0000 0.0000
# 4 0.0000 0.0000 0.0000 22.5401 0.0000 0.0000
# 5 0.0000 0.0000 0.0000 0.0000 32.5971 0.0000
# 6 0.0000 0.0000 0.0000 0.0000 0.0000 20.9059
#
#
#
# Elastic Compliance Matrix: (Units=1/GPa)
#
#
# Indices 1 2 3 4 5 6 
#
# 1 0.027373 -0.005656 -0.007925 0.000000 0.000000 0.000000
# 2 -0.005656 0.016363 -0.005110 0.000000 0.000000 0.000000
# 3 -0.007925 -0.005110 0.011357 0.000000 0.000000 0.000000
# 4 0.000000 0.000000 0.000000 0.044365 0.000000 0.000000
# 5 0.000000 0.000000 0.000000 0.000000 0.030678 0.000000
# 6 0.000000 0.000000 0.000000 0.000000 0.000000 0.047833
#
#
# Mechanical properties :
#
#
# Convention : Reuss Voigt Hill
#
# Bulk Modulus (GPa) = 56.46241 75.73782 66.10012
# Shear Modulus (GPa) = 22.59822 25.13576 23.86699
#
# Velocity S-wave (km/s) = 3.71022 3.91299 3.81295
# Velocity P-wave (km/s) = 7.26281 8.15789 7.72333
#
# Compressibility (1/GPa) = 0.01771090
#
# Stress axis : x y z
#
# Youngs Moduli (GPa) = 36.53190 61.11347 88.04901
#
# Poissons Ratio (x) = 0.34565 0.69779
# Poissons Ratio (y) = 0.20662 0.44997
# Poissons Ratio (z) = 0.28952 0.31232
#
# Static dielectric constant tensor:
#      x y z
#    x 1.548260 0.000000 0.000000 
#    y 0.000000 1.545570 0.000000 
#    z 0.000000 0.000000 1.544890 
# 
# From -- ./inp_files/28331.got.cif
#   From: 2010.05.17/outbox.cif.g08.bks.cpg/sg51_15_cif.got.tgz:28331.got - 2010.06.03 11:52:47.
