data_PCOD9400944
_publ_section_title
;
Structure prediction by ZEFSAII (Michael W. Deem and Ramdas Pophale) SiO2 
 PCOD9400944
Probable space group: P M M A
;
_chemical_formula_sum "Si O2"
_cell_formula_units_Z 64
_cell_length_a 19.658248
_cell_length_b 9.110664
_cell_length_c 20.471860
_cell_angle_alpha 90.000000
_cell_angle_beta 90.000000
_cell_angle_gamma 90.000000
_cell_volume 3666.503828
_symmetry_space_group_name_H-M "P M M A"
_symmetry_group_IT_number 51
_symmetry_cell_setting 'orthorhombic'
loop_
_space_group_symop_operation_xyz
x,y,z
1/2-x,-y,z
1/2+x,-y,-z
-x,y,-z
-x,-y,-z
1/2+x,y,-z
1/2-x,y,z
x,-y,z
loop_
_atom_site_type_symbol
_atom_site_label
_atom_site_fract_x
_atom_site_fract_y
_atom_site_fract_z
Si Si1 0.672116 0.827037 0.269426
Si Si2 0.919849 0.169227 0.519834
Si Si3 0.609240 0.673061 0.389740
Si Si4 0.572850 0.823914 0.152869
Si Si5 0.422004 0.323805 0.983321
Si Si6 0.330008 0.676406 0.107420
Si Si7 0.951290 0.325719 0.650524
Si Si8 0.574745 0.823793 0.789096
O O1 0.750000 0.811410 0.248449
O O2 0.657991 0.738750 0.335096
O O3 0.621414 0.778432 0.212362
O O4 0.658777 0.000000 0.282109
O O5 0.883529 0.246176 0.458914
O O6 0.914254 0.256522 0.587540
O O7 0.000000 0.171507 0.500000
O O8 0.899544 0.000000 0.527426
O O9 0.618451 0.500000 0.398251
O O10 0.532040 0.697211 0.363000
O O11 0.594211 0.749659 0.085570
O O12 0.495454 0.786583 0.172677
O O13 0.577183 0.000000 0.146289
O O14 0.419000 0.500000 0.976776
O O15 0.500000 0.283385 0.000000
O O16 0.371786 0.281182 0.042142
O O17 0.250000 0.708422 0.101149
O O18 0.337859 0.500000 0.115546
O O19 0.364087 0.757594 0.168578
O O20 0.939464 0.500000 0.654627
O O21 0.930557 0.246472 0.717336
O O22 0.579215 0.000000 0.784227
#
# Coordination Sequence:
#
# PCOD9400944 Si02
#       8
#     8   8   8   8   8   8   8   8
#     4  10  21  37  54  74 107 150 190 228 277 335
#     4   9  17  29  48  75 108 142 178 223 273 324
#     4  10  19  31  50  76 108 143 183 231 277 325
#     4  10  21  35  54  81 110 142 183 230 277 325
#     4  10  20  35  57  82 108 141 181 223 270 325
#     4  10  22  40  59  81 111 146 183 224 275 333
#     4  10  19  31  51  80 111 143 181 227 278 326
#     4  11  21  34  56  83 112 145 184 229 276 329
#
# _framework density 17.45532
#
# number of rings (size 3 to 8) (size 9 to 14) (size 15 to 20)
#    0.000    2.000    2.500    1.500    0.000    5.250 
#    0.000    0.000    0.000    0.750    0.000    0.000 
#    0.000    0.000    0.000    0.000    0.000    0.000 
#
# Total GULP energy -357219.944184 kJ/mol
# GULP energy per Si atom -5581.561628 kJ/mol
# Density = 1.741559 g / cm^3
# Si number density = 17.455320 Si / 1000 Ang^3
#
#
#
# Elastic Constant Matrix: (Units=GPa)
#
#
# Indices 1 2 3 4 5 6 
#
# 1 72.1155 40.6036 44.3756 0.0000 0.0000 0.0000
# 2 40.6036 53.7453 57.9150 0.0000 0.0000 0.0000
# 3 44.3756 57.9150 143.1728 0.0000 0.0000 0.0000
# 4 0.0000 0.0000 0.0000 40.7524 0.0000 0.0000
# 5 0.0000 0.0000 0.0000 0.0000 21.5177 0.0000
# 6 0.0000 0.0000 0.0000 0.0000 0.0000 7.9806
#
#
#
# Elastic Compliance Matrix: (Units=1/GPa)
#
#
# Indices 1 2 3 4 5 6 
#
# 1 0.024134 -0.018032 -0.000186 0.000000 0.000000 0.000000
# 2 -0.018032 0.046457 -0.013203 0.000000 0.000000 0.000000
# 3 -0.000186 -0.013203 0.012383 0.000000 0.000000 0.000000
# 4 0.000000 0.000000 0.000000 0.024538 0.000000 0.000000
# 5 0.000000 0.000000 0.000000 0.000000 0.046473 0.000000
# 6 0.000000 0.000000 0.000000 0.000000 0.000000 0.125304
#
#
# Mechanical properties :
#
#
# Convention : Reuss Voigt Hill
#
# Bulk Modulus (GPa) = 49.67507 61.64689 55.66098
# Shear Modulus (GPa) = 14.33307 22.45943 18.39625
#
# Velocity S-wave (km/s) = 2.86864 3.59092 3.24991
# Velocity P-wave (km/s) = 6.28429 7.25166 6.78524
#
# Compressibility (1/GPa) = 0.02013082
#
# Stress axis : x y z
#
# Youngs Moduli (GPa) = 41.43549 21.52514 80.75515
#
# Poissons Ratio (x) = 0.38815 0.01501
# Poissons Ratio (y) = 0.74718 1.06625
# Poissons Ratio (z) = 0.00770 0.28421
#
# Static dielectric constant tensor:
#      x y z
#    x 1.589060 0.000000 0.000000 
#    y 0.000000 1.582110 0.000000 
#    z 0.000000 0.000000 1.567920 
# 
# From -- ./inp_files/30509.got.cif
#   From: 2010.05.17/outbox.cif.g08.bks.cpg/sg51_16_cif.got.tgz:30509.got - 2010.06.03 11:52:47.
