data_PCOD9400032
_publ_section_title
;
Structure prediction by ZEFSAII (Michael W. Deem and Ramdas Pophale) SiO2 
 PCOD9400032
Probable space group: P M M A
;
_chemical_formula_sum "Si O2"
_cell_formula_units_Z 64
_cell_length_a 27.349903
_cell_length_b 9.262381
_cell_length_c 17.287253
_cell_angle_alpha 90.000000
_cell_angle_beta 90.000000
_cell_angle_gamma 90.000000
_cell_volume 4379.297202
_symmetry_space_group_name_H-M "P M M A"
_symmetry_group_IT_number 51
_symmetry_cell_setting 'orthorhombic'
loop_
_space_group_symop_operation_xyz
x,y,z
1/2-x,-y,z
1/2+x,-y,-z
-x,y,-z
-x,-y,-z
1/2+x,y,-z
1/2-x,y,z
x,-y,z
loop_
_atom_site_type_symbol
_atom_site_label
_atom_site_fract_x
_atom_site_fract_y
_atom_site_fract_z
Si Si1 0.420997 0.829219 0.872065
Si Si2 0.943477 0.827099 0.650148
Si Si3 0.942262 0.333644 0.977456
Si Si4 0.617945 0.171251 0.287811
Si Si5 0.459410 0.331468 0.607166
Si Si6 0.806898 0.171782 0.420473
Si Si7 0.117773 0.668932 0.469470
Si Si8 0.033411 0.828146 0.173035
O O1 0.382849 0.798004 0.803409
O O2 0.475305 0.797385 0.837302
O O3 0.419984 0.000000 0.889127
O O4 0.415276 0.742576 0.951175
O O5 0.897912 0.753812 0.607245
O O6 0.948768 0.790308 0.741061
O O7 0.992191 0.763722 0.610342
O O8 0.941936 0.000000 0.642413
O O9 0.928291 0.500000 0.970574
O O10 0.938829 0.252964 0.895778
O O11 0.000000 0.326837 0.000000
O O12 0.576738 0.268459 0.327812
O O13 0.666882 0.195730 0.337372
O O14 0.604915 0.000000 0.296070
O O15 0.471378 0.500000 0.619931
O O16 0.428413 0.320732 0.528389
O O17 0.750000 0.210907 0.419081
O O18 0.837495 0.258596 0.484475
O O19 0.811050 0.000000 0.436373
O O20 0.126689 0.500000 0.454834
O O21 0.038997 0.000000 0.163038
#
# Coordination Sequence:
#
# PCOD9400032 Si02
#       8
#     8   8   8   8   8   8   8   8
#     4   9  15  26  41  57  81 113 147 180 212 252
#     4  11  20  30  44  62  85 116 152 186 220 259
#     4   9  17  26  37  56  80 110 146 180 212 246
#     4   9  16  28  45  65  87 114 149 182 218 263
#     4  10  19  29  41  59  87 117 147 182 219 258
#     4   9  18  33  52  70  88 112 144 184 225 264
#     4  10  21  33  44  63  87 115 147 180 222 268
#     4   9  17  28  40  56  80 114 150 180 214 253
#
# _framework density 14.614216000000001
#
# number of rings (size 3 to 8) (size 9 to 14) (size 15 to 20)
#    0.000    2.500    1.250    1.875    0.000    6.250 
#    0.000    0.000    0.000    0.000    0.000    0.000 
#    0.000    1.000    0.000    7.750    0.000    1.875 
#
# Total GULP energy -356631.758123 kJ/mol
# GULP energy per Si atom -5572.371221 kJ/mol
# Density = 1.458095 g / cm^3
# Si number density = 14.614216 Si / 1000 Ang^3
#
#
#
# Elastic Constant Matrix: (Units=GPa)
#
#
# Indices 1 2 3 4 5 6 
#
# 1 64.3270 38.3085 46.1548 0.0000 0.0000 0.0000
# 2 38.3085 62.4384 60.4649 0.0000 0.0000 0.0000
# 3 46.1548 60.4649 95.3240 0.0000 0.0000 0.0000
# 4 0.0000 0.0000 0.0000 13.1457 0.0000 0.0000
# 5 0.0000 0.0000 0.0000 0.0000 10.0524 0.0000
# 6 0.0000 0.0000 0.0000 0.0000 0.0000 11.0364
#
#
#
# Elastic Compliance Matrix: (Units=1/GPa)
#
#
# Indices 1 2 3 4 5 6 
#
# 1 0.025912 -0.009717 -0.006383 0.000000 0.000000 0.000000
# 2 -0.009717 0.045164 -0.023943 0.000000 0.000000 0.000000
# 3 -0.006383 -0.023943 0.028768 0.000000 0.000000 0.000000
# 4 0.000000 0.000000 0.000000 0.076071 0.000000 0.000000
# 5 0.000000 0.000000 0.000000 0.000000 0.099478 0.000000
# 6 0.000000 0.000000 0.000000 0.000000 0.000000 0.090609
#
#
# Mechanical properties :
#
#
# Convention : Reuss Voigt Hill
#
# Bulk Modulus (GPa) = 50.61099 56.88287 53.74693
# Shear Modulus (GPa) = 11.04550 11.99099 11.51825
#
# Velocity S-wave (km/s) = 2.75217 2.86755 2.81045
# Velocity P-wave (km/s) = 6.69371 7.06903 6.88393
#
# Compressibility (1/GPa) = 0.01975855
#
# Stress axis : x y z
#
# Youngs Moduli (GPa) = 38.59223 22.14169 34.76086
#
# Poissons Ratio (x) = 0.21516 0.22186
# Poissons Ratio (y) = 0.37501 0.83227
# Poissons Ratio (z) = 0.24632 0.53013
#
# Static dielectric constant tensor:
#      x y z
#    x 1.458050 0.000000 0.000000 
#    y 0.000000 1.485990 0.000000 
#    z 0.000000 0.000000 1.494290 
# 
# From -- ./inp_files/30999.got.cif
#   From: 2010.05.17/outbox.cif.g08.bks.cpg/sg51_16_cif.got.tgz:30999.got - 2010.06.03 11:52:47.
