data_PCOD9400691
_publ_section_title
;
Structure prediction by ZEFSAII (Michael W. Deem and Ramdas Pophale) SiO2 
 PCOD9400691
Probable space group: P M M A
;
_chemical_formula_sum "Si O2"
_cell_formula_units_Z 56
_cell_length_a 19.047199
_cell_length_b 7.675944
_cell_length_c 20.452121
_cell_angle_alpha 90.000000
_cell_angle_beta 90.000000
_cell_angle_gamma 90.000000
_cell_volume 2990.207114
_symmetry_space_group_name_H-M "P M M A"
_symmetry_group_IT_number 51
_symmetry_cell_setting 'orthorhombic'
loop_
_space_group_symop_operation_xyz
x,y,z
1/2-x,-y,z
1/2+x,-y,-z
-x,y,-z
-x,-y,-z
1/2+x,y,-z
1/2-x,y,z
x,-y,z
loop_
_atom_site_type_symbol
_atom_site_label
_atom_site_fract_x
_atom_site_fract_y
_atom_site_fract_z
Si Si1 0.934215 0.292317 0.957529
Si Si2 0.670368 0.294902 0.361481
Si Si3 0.328188 0.210199 0.489531
Si Si4 0.330669 0.793910 0.934495
Si Si5 0.465287 0.198614 0.702582
Si Si6 0.467427 0.212805 0.430315
Si Si7 0.464422 0.790473 0.847885
O O1 0.932297 0.500000 0.963104
O O2 0.962956 0.247508 0.885975
O O3 0.863378 0.228292 0.992442
O O4 0.000000 0.221695 0.000000
O O5 0.750000 0.232917 0.354271
O O6 0.667514 0.500000 0.347196
O O7 0.651172 0.268004 0.437521
O O8 0.616559 0.197903 0.315707
O O9 0.250000 0.275068 0.476474
O O10 0.386052 0.260449 0.437246
O O11 0.327028 0.000000 0.491490
O O12 0.250000 0.725251 0.928163
O O13 0.393969 0.724913 0.886736
O O14 0.326270 0.000000 0.921836
O O15 0.500256 0.278808 0.637453
O O16 0.470955 0.279033 0.774193
O O17 0.492116 0.000000 0.707295
O O18 0.500000 0.269710 0.500000
O O19 0.475440 0.000000 0.429712
O O20 0.456483 0.000000 0.844929
#
# Coordination Sequence:
#
# PCOD9400691 Si02
#       7
#     8   8   8   8   8   8   8
#     4   9  17  30  49  71  95 125 160 193 226 272
#     4  10  20  31  42  61  91 121 150 190 239 287
#     4   9  16  28  47  65  82 111 150 191 239 291
#     4   9  17  30  49  73  99 124 153 193 235 276
#     4  10  19  31  48  68  92 127 163 197 236 282
#     4   9  15  26  45  68  91 113 152 208 247 274
#     4   9  18  31  48  70  97 129 163 195 235 283
#
# _framework density 18.727798
#
# number of rings (size 3 to 8) (size 9 to 14) (size 15 to 20)
#    0.000    2.714    1.429    0.857    0.000    4.000 
#    0.000    2.857    0.000    0.857    0.000    4.000 
#    0.000    0.000    0.000    0.000    0.000    0.000 
#
# Total GULP energy -311738.177964 kJ/mol
# GULP energy per Si atom -5566.753178 kJ/mol
# Density = 1.868517 g / cm^3
# Si number density = 18.727798 Si / 1000 Ang^3
#
#
#
# Elastic Constant Matrix: (Units=GPa)
#
#
# Indices 1 2 3 4 5 6 
#
# 1 64.8279 2.3740 59.2814 0.0000 0.0000 0.0000
# 2 2.3740 35.8894 1.6522 0.0000 0.0000 0.0000
# 3 59.2814 1.6522 138.5695 0.0000 0.0000 0.0000
# 4 0.0000 0.0000 0.0000 9.9543 0.0000 0.0000
# 5 0.0000 0.0000 0.0000 0.0000 22.7380 0.0000
# 6 0.0000 0.0000 0.0000 0.0000 0.0000 0.1418
#
#
#
# Elastic Compliance Matrix: (Units=1/GPa)
#
#
# Indices 1 2 3 4 5 6 
#
# 1 0.025388 -0.001180 -0.010847 0.000000 0.000000 0.000000
# 2 -0.001180 0.027934 0.000172 0.000000 0.000000 0.000000
# 3 -0.010847 0.000172 0.011855 0.000000 0.000000 0.000000
# 4 0.000000 0.000000 0.000000 0.100459 0.000000 0.000000
# 5 0.000000 0.000000 0.000000 0.000000 0.043979 0.000000
# 6 0.000000 0.000000 0.000000 0.000000 0.000000 7.050145
#
#
# Mechanical properties :
#
#
# Convention : Reuss Voigt Hill
#
# Bulk Modulus (GPa) = 24.11632 40.65576 32.38604
# Shear Modulus (GPa) = 0.68519 18.29877 9.49198
#
# Velocity S-wave (km/s) = 0.60552 3.12924 2.25375
# Velocity P-wave (km/s) = 3.65980 5.90018 4.90949
#
# Compressibility (1/GPa) = 0.04146569
#
# Stress axis : x y z
#
# Youngs Moduli (GPa) = 39.38926 35.79927 84.35257
#
# Poissons Ratio (x) = 0.04224 0.91497
# Poissons Ratio (y) = 0.04648 -0.01449
# Poissons Ratio (z) = 0.42726 -0.00615
#
# Static dielectric constant tensor:
#      x y z
#    x 1.680540 0.000000 0.000000 
#    y 0.000000 1.682070 0.000000 
#    z 0.000000 0.000000 1.671650 
# 
# From -- ./inp_files/33719.got.cif
#   From: 2010.05.17/outbox.cif.g08.bks.cpg/sg51_17_cif.got.tgz:33719.got - 2010.06.03 11:52:47.
