data_PCOD9400140
_publ_section_title
;
Structure prediction by ZEFSAII (Michael W. Deem and Ramdas Pophale) SiO2 
 PCOD9400140
Probable space group: P M M A
;
_chemical_formula_sum "Si O2"
_cell_formula_units_Z 56
_cell_length_a 19.511002
_cell_length_b 9.320984
_cell_length_c 16.839481
_cell_angle_alpha 90.000000
_cell_angle_beta 90.000000
_cell_angle_gamma 90.000000
_cell_volume 3062.457273
_symmetry_space_group_name_H-M "P M M A"
_symmetry_group_IT_number 51
_symmetry_cell_setting 'orthorhombic'
loop_
_space_group_symop_operation_xyz
x,y,z
1/2-x,-y,z
1/2+x,-y,-z
-x,y,-z
-x,-y,-z
1/2+x,y,-z
1/2-x,y,z
x,-y,z
loop_
_atom_site_type_symbol
_atom_site_label
_atom_site_fract_x
_atom_site_fract_y
_atom_site_fract_z
Si Si1 0.136680 0.338411 0.798713
Si Si2 0.398242 0.166264 0.944440
Si Si3 0.046172 0.171488 0.422006
Si Si4 0.556977 0.165938 0.884433
Si Si5 0.329955 0.841299 0.648710
Si Si6 0.019526 0.662228 0.262745
Si Si7 0.832197 0.668840 0.504679
O O1 0.164544 0.500000 0.792753
O O2 0.141711 0.272157 0.886322
O O3 0.165702 0.227541 0.734996
O O4 0.056827 0.345644 0.773421
O O5 0.477411 0.169411 0.913694
O O6 0.375783 0.000000 0.937195
O O7 0.400224 0.207198 0.037144
O O8 0.121177 0.239681 0.436180
O O9 0.000000 0.204464 0.500000
O O10 0.017710 0.242692 0.341865
O O11 0.049698 0.000000 0.414551
O O12 0.563491 0.263815 0.807134
O O13 0.571965 0.000000 0.864971
O O14 0.250000 0.858767 0.631064
O O15 0.353505 0.729695 0.582055
O O16 0.363048 0.000000 0.643563
O O17 0.042272 0.500000 0.280640
O O18 0.750000 0.686568 0.515792
O O19 0.847271 0.500000 0.509902
#
# Coordination Sequence:
#
# PCOD9400140 Si02
#       7
#     8   8   8   8   8   8   8
#     4  10  19  29  44  68  97 128 159 194 239 287
#     4   8  14  25  42  63  89 122 156 190 228 275
#     4  11  23  36  52  75 102 134 170 208 251 298
#     4   8  14  26  43  63  89 122 158 192 229 278
#     4  10  20  33  49  68  91 122 160 199 237 282
#     4  10  20  31  45  68  98 129 159 197 244 290
#     4  10  21  37  56  76  99 129 165 206 252 300
#
# _framework density 18.285969999999999
#
# number of rings (size 3 to 8) (size 9 to 14) (size 15 to 20)
#    0.000    2.429    0.000    3.857    0.000    7.429 
#    0.000    2.857    0.000    0.000    0.000    1.000 
#    0.000    1.143    0.000    0.000    0.000    0.000 
#
# Total GULP energy -312124.709571 kJ/mol
# GULP energy per Si atom -5573.655528 kJ/mol
# Density = 1.824435 g / cm^3
# Si number density = 18.285970 Si / 1000 Ang^3
#
#
#
# Elastic Constant Matrix: (Units=GPa)
#
#
# Indices 1 2 3 4 5 6 
#
# 1 25.3026 23.5597 12.8567 0.0000 0.0000 0.0000
# 2 23.5597 118.4102 63.4882 0.0000 0.0000 0.0000
# 3 12.8567 63.4882 104.7170 0.0000 0.0000 0.0000
# 4 0.0000 0.0000 0.0000 12.7352 0.0000 0.0000
# 5 0.0000 0.0000 0.0000 0.0000 17.7674 0.0000
# 6 0.0000 0.0000 0.0000 0.0000 0.0000 11.2873
#
#
#
# Elastic Compliance Matrix: (Units=1/GPa)
#
#
# Indices 1 2 3 4 5 6 
#
# 1 0.048510 -0.009569 -0.000154 0.000000 0.000000 0.000000
# 2 -0.009569 0.014400 -0.007556 0.000000 0.000000 0.000000
# 3 -0.000154 -0.007556 0.014149 0.000000 0.000000 0.000000
# 4 0.000000 0.000000 0.000000 0.078523 0.000000 0.000000
# 5 0.000000 0.000000 0.000000 0.000000 0.056283 0.000000
# 6 0.000000 0.000000 0.000000 0.000000 0.000000 0.088595
#
#
# Mechanical properties :
#
#
# Convention : Reuss Voigt Hill
#
# Bulk Modulus (GPa) = 23.52868 49.80432 36.66650
# Shear Modulus (GPa) = 14.31899 18.25964 16.28932
#
# Velocity S-wave (km/s) = 2.80135 3.16343 2.98788
# Velocity P-wave (km/s) = 4.83306 6.37484 5.65672
#
# Compressibility (1/GPa) = 0.04250131
#
# Stress axis : x y z
#
# Youngs Moduli (GPa) = 20.61433 69.44247 70.67395
#
# Poissons Ratio (x) = 0.66451 0.01090
# Poissons Ratio (y) = 0.19726 0.53400
# Poissons Ratio (z) = 0.00318 0.52470
#
# Static dielectric constant tensor:
#      x y z
#    x 1.669980 0.000000 0.000000 
#    y 0.000000 1.635900 0.000000 
#    z 0.000000 0.000000 1.632600 
# 
# From -- ./inp_files/25697.got.cif
#   From: 2010.05.17/outbox.cif.g08.bks.cpg/sg51_13_cif.got.tgz:25697.got - 2010.06.03 11:52:47.
