data_PCOD9400451
_publ_section_title
;
Structure prediction by ZEFSAII (Michael W. Deem and Ramdas Pophale) SiO2 
 PCOD9400451
Probable space group: P M M A
;
_chemical_formula_sum "Si O2"
_cell_formula_units_Z 64
_cell_length_a 8.875240
_cell_length_b 19.310637
_cell_length_c 24.007930
_cell_angle_alpha 90.000000
_cell_angle_beta 90.000000
_cell_angle_gamma 90.000000
_cell_volume 4114.636006
_symmetry_space_group_name_H-M "P M M A"
_symmetry_group_IT_number 51
_symmetry_cell_setting 'orthorhombic'
loop_
_space_group_symop_operation_xyz
x,y,z
1/2-x,-y,z
1/2+x,-y,-z
-x,y,-z
-x,-y,-z
1/2+x,y,-z
1/2-x,y,z
x,-y,z
loop_
_atom_site_type_symbol
_atom_site_label
_atom_site_fract_x
_atom_site_fract_y
_atom_site_fract_z
Si Si1 0.571561 0.705290 0.839310
Si Si2 0.429617 0.079414 0.110047
Si Si3 0.930215 0.581100 0.560203
Si Si4 0.071053 0.212521 0.276200
Si Si5 0.928882 0.920708 0.233207
Si Si6 0.430818 0.580290 0.777856
Si Si7 0.929353 0.213544 0.058575
Si Si8 0.069798 0.660257 0.663738
O O1 0.750000 0.704820 0.849905
O O2 0.544095 0.753130 0.784810
O O3 0.512531 0.629823 0.821827
O O4 0.485899 0.737654 0.891471
O O5 0.250000 0.091516 0.110074
O O6 0.491299 0.086296 0.173038
O O7 0.510297 0.136671 0.072967
O O8 0.457947 0.000000 0.092269
O O9 0.750000 0.588199 0.558344
O O10 0.965918 0.500000 0.571781
O O11 0.000000 0.597822 0.500000
O O12 0.998794 0.628147 0.608525
O O13 0.250000 0.208364 0.284589
O O14 0.997041 0.137116 0.273433
O O15 0.997214 0.265125 0.319942
O O16 0.750000 0.909786 0.226134
O O17 0.953054 0.000000 0.251938
O O18 0.250000 0.586186 0.785060
O O19 0.473155 0.500000 0.782188
O O20 0.466142 0.610093 0.716328
O O21 0.750000 0.213263 0.055709
O O22 0.000000 0.235645 0.000000
O O23 0.250000 0.664160 0.658815
#
# Coordination Sequence:
#
# PCOD9400451 Si02
#       8
#     8   8   8   8   8   8   8   8
#     4  10  20  34  51  72  97 123 156 195 240 292
#     4  10  20  34  51  71  96 125 158 196 237 284
#     4  10  20  33  49  70 100 139 180 216 251 293
#     4  10  19  31  49  71  99 131 164 204 247 292
#     4  10  19  30  47  71  98 130 165 199 241 294
#     4   9  18  32  51  75 101 129 160 196 241 291
#     4  12  24  37  54  71  93 122 157 198 240 290
#     4  10  19  31  49  73 103 135 170 210 249 289
#
# _framework density 15.554232000000001
#
# number of rings (size 3 to 8) (size 9 to 14) (size 15 to 20)
#    0.000    1.875    1.250    3.750    0.000    4.750 
#    0.000    0.000    0.000    0.375    0.000    0.000 
#    0.000    0.500    0.000    1.875    0.000    2.875 
#
# Total GULP energy -357344.509583 kJ/mol
# GULP energy per Si atom -5583.507962 kJ/mol
# Density = 1.551883 g / cm^3
# Si number density = 15.554232 Si / 1000 Ang^3
#
#
#
# Elastic Constant Matrix: (Units=GPa)
#
#
# Indices 1 2 3 4 5 6 
#
# 1 85.8444 55.4529 58.1025 0.0000 0.0000 0.0000
# 2 55.4529 94.4792 49.7874 0.0000 0.0000 0.0000
# 3 58.1025 49.7874 95.2262 0.0000 0.0000 0.0000
# 4 0.0000 0.0000 0.0000 24.1021 0.0000 0.0000
# 5 0.0000 0.0000 0.0000 0.0000 26.0887 0.0000
# 6 0.0000 0.0000 0.0000 0.0000 0.0000 27.8113
#
#
#
# Elastic Compliance Matrix: (Units=1/GPa)
#
#
# Indices 1 2 3 4 5 6 
#
# 1 0.024268 -0.008890 -0.010159 0.000000 0.000000 0.000000
# 2 -0.008890 0.017866 -0.003917 0.000000 0.000000 0.000000
# 3 -0.010159 -0.003917 0.018748 0.000000 0.000000 0.000000
# 4 0.000000 0.000000 0.000000 0.041490 0.000000 0.000000
# 5 0.000000 0.000000 0.000000 0.000000 0.038331 0.000000
# 6 0.000000 0.000000 0.000000 0.000000 0.000000 0.035957
#
#
# Mechanical properties :
#
#
# Convention : Reuss Voigt Hill
#
# Bulk Modulus (GPa) = 66.88978 66.91503 66.90241
# Shear Modulus (GPa) = 21.97089 23.08088 22.52589
#
# Velocity S-wave (km/s) = 3.76245 3.85632 3.80967
# Velocity P-wave (km/s) = 7.87225 7.93361 7.90299
#
# Compressibility (1/GPa) = 0.01494997
#
# Stress axis : x y z
#
# Youngs Moduli (GPa) = 41.20716 55.97167 53.34004
#
# Poissons Ratio (x) = 0.49759 0.54188
# Poissons Ratio (y) = 0.36633 0.20892
# Poissons Ratio (z) = 0.41862 0.21923
#
# Static dielectric constant tensor:
#      x y z
#    x 1.515020 0.000000 0.000000 
#    y 0.000000 1.519590 0.000000 
#    z 0.000000 0.000000 1.488360 
# 
# From -- ./inp_files/32317.got.cif
#   From: 2010.05.17/outbox.cif.g08.bks.cpg/sg51_17_cif.got.tgz:32317.got - 2010.06.03 11:52:47.
