data_PCOD9400813
_publ_section_title
;
Structure prediction by ZEFSAII (Michael W. Deem and Ramdas Pophale) SiO2 
 PCOD9400813
Probable space group: P M M A
;
_chemical_formula_sum "Si O2"
_cell_formula_units_Z 64
_cell_length_a 8.682455
_cell_length_b 24.112995
_cell_length_c 19.693559
_cell_angle_alpha 90.000000
_cell_angle_beta 90.000000
_cell_angle_gamma 90.000000
_cell_volume 4123.043394
_symmetry_space_group_name_H-M "P M M A"
_symmetry_group_IT_number 51
_symmetry_cell_setting 'orthorhombic'
loop_
_space_group_symop_operation_xyz
x,y,z
1/2-x,-y,z
1/2+x,-y,-z
-x,y,-z
-x,-y,-z
1/2+x,y,-z
1/2-x,y,z
x,-y,z
loop_
_atom_site_type_symbol
_atom_site_label
_atom_site_fract_x
_atom_site_fract_y
_atom_site_fract_z
Si Si1 0.934549 0.111985 0.427366
Si Si2 0.565880 0.225161 0.925052
Si Si3 0.065058 0.243082 0.571555
Si Si4 0.435460 0.667395 0.848601
Si Si5 0.563514 0.271634 0.283423
Si Si6 0.065698 0.936019 0.288490
Si Si7 0.565252 0.161479 0.199549
Si Si8 0.065634 0.436199 0.075277
O O1 0.750000 0.106865 0.426754
O O2 0.973717 0.177609 0.421167
O O3 0.000000 0.092704 0.500000
O O4 0.004051 0.080934 0.362830
O O5 0.750000 0.227243 0.926523
O O6 0.500987 0.283529 0.896137
O O7 0.508861 0.178531 0.872016
O O8 0.500000 0.215887 0.000000
O O9 0.250000 0.246510 0.569122
O O10 0.007668 0.273773 0.639335
O O11 0.000000 0.263066 0.500000
O O12 0.250000 0.669312 0.852171
O O13 0.485013 0.682922 0.771772
O O14 0.495784 0.608751 0.874195
O O15 0.750000 0.273591 0.286053
O O16 0.524130 0.211904 0.250975
O O17 0.250000 0.930024 0.287798
O O18 0.993422 0.894735 0.233257
O O19 0.026337 0.000000 0.274933
O O20 0.750000 0.160861 0.193010
O O21 0.250000 0.431032 0.073520
O O22 0.026367 0.500000 0.092774
O O23 0.000000 0.425310 0.000000
#
# Coordination Sequence:
#
# PCOD9400813 Si02
#       8
#     8   8   8   8   8   8   8   8
#     4  10  19  32  50  69  92 123 158 198 239 285
#     4  11  21  34  52  76 102 128 157 194 239 287
#     4   9  16  28  44  66  92 122 154 189 231 282
#     4  10  19  31  49  72  99 132 167 205 241 281
#     4   8  15  29  47  67  93 122 153 191 237 282
#     4  11  23  36  50  70  95 123 158 198 238 288
#     4  10  19  35  54  72  94 122 156 194 240 290
#     4  10  20  33  48  67  96 134 172 208 243 283
#
# _framework density 15.522515
#
# number of rings (size 3 to 8) (size 9 to 14) (size 15 to 20)
#    0.000    2.125    1.250    4.125    0.000    2.500 
#    0.000    1.250    0.000    0.375    0.000    0.000 
#    0.000    0.500    0.000    1.125    0.000    2.000 
#
# Total GULP energy -357049.709187 kJ/mol
# GULP energy per Si atom -5578.901706 kJ/mol
# Density = 1.548718 g / cm^3
# Si number density = 15.522515 Si / 1000 Ang^3
#
#
#
# Elastic Constant Matrix: (Units=GPa)
#
#
# Indices 1 2 3 4 5 6 
#
# 1 59.9368 40.9315 45.6290 0.0000 0.0000 0.0000
# 2 40.9315 93.8815 72.7067 0.0000 0.0000 0.0000
# 3 45.6290 72.7067 154.4321 0.0000 0.0000 0.0000
# 4 0.0000 0.0000 0.0000 26.5178 0.0000 0.0000
# 5 0.0000 0.0000 0.0000 0.0000 26.6777 0.0000
# 6 0.0000 0.0000 0.0000 0.0000 0.0000 19.8061
#
#
#
# Elastic Compliance Matrix: (Units=1/GPa)
#
#
# Indices 1 2 3 4 5 6 
#
# 1 0.024929 -0.008128 -0.003539 0.000000 0.000000 0.000000
# 2 -0.008128 0.019414 -0.006739 0.000000 0.000000 0.000000
# 3 -0.003539 -0.006739 0.010694 0.000000 0.000000 0.000000
# 4 0.000000 0.000000 0.000000 0.037710 0.000000 0.000000
# 5 0.000000 0.000000 0.000000 0.000000 0.037484 0.000000
# 6 0.000000 0.000000 0.000000 0.000000 0.000000 0.050490
#
#
# Mechanical properties :
#
#
# Convention : Reuss Voigt Hill
#
# Bulk Modulus (GPa) = 54.86826 69.64276 62.25551
# Shear Modulus (GPa) = 22.36053 24.53254 23.44653
#
# Velocity S-wave (km/s) = 3.79954 3.97980 3.89071
# Velocity P-wave (km/s) = 7.39411 8.12905 7.77028
#
# Compressibility (1/GPa) = 0.01822547
#
# Stress axis : x y z
#
# Youngs Moduli (GPa) = 40.11363 51.50830 93.51448
#
# Poissons Ratio (x) = 0.41867 0.33094
# Poissons Ratio (y) = 0.32605 0.63017
# Poissons Ratio (z) = 0.14196 0.34710
#
# Static dielectric constant tensor:
#      x y z
#    x 1.522590 0.000000 0.000000 
#    y 0.000000 1.499160 0.000000 
#    z 0.000000 0.000000 1.521750 
# 
# From -- ./inp_files/28570.got.cif
#   From: 2010.05.17/outbox.cif.g08.bks.cpg/sg51_15_cif.got.tgz:28570.got - 2010.06.03 11:52:47.
