data_PCOD9400267
_publ_section_title
;
Structure prediction by ZEFSAII (Michael W. Deem and Ramdas Pophale) SiO2 
 PCOD9400267
Probable space group: P M M A
;
_chemical_formula_sum "Si O2"
_cell_formula_units_Z 48
_cell_length_a 26.858673
_cell_length_b 8.021744
_cell_length_c 12.352288
_cell_angle_alpha 90.000000
_cell_angle_beta 90.000000
_cell_angle_gamma 90.000000
_cell_volume 2661.342435
_symmetry_space_group_name_H-M "P M M A"
_symmetry_group_IT_number 51
_symmetry_cell_setting 'orthorhombic'
loop_
_space_group_symop_operation_xyz
x,y,z
1/2-x,-y,z
1/2+x,-y,-z
-x,y,-z
-x,-y,-z
1/2+x,y,-z
1/2-x,y,z
x,-y,z
loop_
_atom_site_type_symbol
_atom_site_label
_atom_site_fract_x
_atom_site_fract_y
_atom_site_fract_z
Si Si1 0.618980 0.196360 0.503243
Si Si2 0.305907 0.301082 0.674978
Si Si3 0.924770 0.306849 0.715694
Si Si4 0.554461 0.703282 0.956326
Si Si5 0.393363 0.297568 0.829386
Si Si6 0.468971 0.804401 0.649121
O O1 0.665560 0.268901 0.437907
O O2 0.613416 0.228465 0.630241
O O3 0.568690 0.259459 0.443186
O O4 0.620003 0.000000 0.483333
O O5 0.250000 0.231897 0.677103
O O6 0.302649 0.500000 0.687755
O O7 0.342361 0.241581 0.771663
O O8 0.911513 0.500000 0.725502
O O9 0.931056 0.235050 0.836838
O O10 0.979398 0.288344 0.663146
O O11 0.551420 0.500000 0.949263
O O12 0.500000 0.758081 0.000000
O O13 0.595629 0.745194 0.046576
O O14 0.396671 0.500000 0.819929
O O15 0.437708 0.220541 0.758620
O O16 0.479875 0.000000 0.630500
#
# Coordination Sequence:
#
# PCOD9400267 Si02
#       6
#     8   8   8   8   8   8
#     4  10  21  34  47  68  98 129 161 199 246 295
#     4   9  18  33  55  79  96 115 153 204 251 295
#     4  11  20  30  47  68  96 135 171 200 237 284
#     4   9  16  28  46  69  97 131 168 199 233 283
#     4   9  16  30  50  70  96 128 161 199 242 289
#     4  10  19  30  44  66  98 130 162 202 241 284
#
# _framework density 18.036011999999999
#
# number of rings (size 3 to 8) (size 9 to 14) (size 15 to 20)
#    0.000    2.333    1.667    2.000    0.000    4.333 
#    0.000    2.500    0.000    1.000    0.000    4.667 
#    0.000    0.000    0.000    0.000    0.000    0.000 
#
# Total GULP energy -267609.074406 kJ/mol
# GULP energy per Si atom -5575.189050 kJ/mol
# Density = 1.799496 g / cm^3
# Si number density = 18.036012 Si / 1000 Ang^3
#
#
#
# Elastic Constant Matrix: (Units=GPa)
#
#
# Indices 1 2 3 4 5 6 
#
# 1 97.4703 1.4866 55.1355 0.0000 0.0000 0.0000
# 2 1.4866 10.4911 3.8128 0.0000 0.0000 0.0000
# 3 55.1355 3.8128 108.3265 0.0000 0.0000 0.0000
# 4 0.0000 0.0000 0.0000 -2.4241 0.0000 0.0000
# 5 0.0000 0.0000 0.0000 0.0000 6.7956 0.0000
# 6 0.0000 0.0000 0.0000 0.0000 0.0000 -6.8739
#
#
#
# Elastic Compliance Matrix: (Units=1/GPa)
#
#
# Indices 1 2 3 4 5 6 
#
# 1 0.014412 0.000632 -0.007357 0.000000 0.000000 0.000000
# 2 0.000632 0.096582 -0.003721 0.000000 0.000000 0.000000
# 3 -0.007357 -0.003721 0.013107 0.000000 0.000000 0.000000
# 4 0.000000 0.000000 0.000000 -0.412531 0.000000 0.000000
# 5 0.000000 0.000000 0.000000 0.000000 0.147153 0.000000
# 6 0.000000 0.000000 0.000000 0.000000 0.000000 -0.145478
#
#
# Mechanical properties :
#
#
# Convention : Reuss Voigt Hill
#
# Bulk Modulus (GPa) = 9.68925 37.46197 23.57561
# Shear Modulus (GPa) = -21.60205 9.88974 -5.85615
#
# Velocity S-wave (km/s) = -3.46456 2.34419 -1.80388
# Velocity P-wave (km/s) = 3.25890 5.30497 2.95993
#
# Compressibility (1/GPa) = 0.10320712
#
# Stress axis : x y z
#
# Youngs Moduli (GPa) = 69.38783 10.35394 76.29466
#
# Poissons Ratio (x) = -0.00654 0.56133
# Poissons Ratio (y) = -0.04384 0.28389
# Poissons Ratio (z) = 0.51052 0.03853
#
# Static dielectric constant tensor:
#      x y z
#    x 1.607330 0.000000 0.000000 
#    y 0.000000 1.631850 0.000000 
#    z 0.000000 0.000000 1.656090 
# 
# From -- ./inp_files/18986.got.cif
#   From: 2010.05.17/outbox.cif.g08.bks.cpg/sg51_10_cif.got.tgz:18986.got - 2010.06.03 11:52:47.
