data_PCOD9400403
_publ_section_title
;
Structure prediction by ZEFSAII (Michael W. Deem and Ramdas Pophale) SiO2 
 PCOD9400403
Probable space group: P M M A
;
_chemical_formula_sum "Si O2"
_cell_formula_units_Z 52
_cell_length_a 9.129098
_cell_length_b 10.875865
_cell_length_c 30.082743
_cell_angle_alpha 90.000000
_cell_angle_beta 90.000000
_cell_angle_gamma 90.000000
_cell_volume 2986.820413
_symmetry_space_group_name_H-M "P M M A"
_symmetry_group_IT_number 51
_symmetry_cell_setting 'orthorhombic'
loop_
_space_group_symop_operation_xyz
x,y,z
1/2-x,-y,z
1/2+x,-y,-z
-x,y,-z
-x,-y,-z
1/2+x,y,-z
1/2-x,y,z
x,-y,z
loop_
_atom_site_type_symbol
_atom_site_label
_atom_site_fract_x
_atom_site_fract_y
_atom_site_fract_z
Si Si1 0.573916 0.145590 0.392138
Si Si2 0.413387 0.644751 0.041723
Si Si3 0.924074 0.000000 0.952053
Si Si4 0.075474 0.787918 0.119390
Si Si5 0.416755 0.148432 0.299307
Si Si6 0.426334 0.641234 0.451389
Si Si7 0.419521 0.149007 0.789473
O O1 0.750000 0.156954 0.394747
O O2 0.515978 0.172206 0.342334
O O3 0.496174 0.247373 0.423050
O O4 0.538186 0.000000 0.402129
O O5 0.250000 0.697331 0.039693
O O6 0.404723 0.500000 0.034854
O O7 0.465118 0.666393 0.091878
O O8 0.500000 0.697664 0.000000
O O9 0.959833 0.113113 0.919171
O O10 0.750000 0.000000 0.959476
O O11 0.000000 0.000000 0.000000
O O12 0.250000 0.794775 0.129352
O O13 0.989258 0.807280 0.164464
O O14 0.250000 0.193621 0.305026
O O15 0.489686 0.192278 0.253519
O O16 0.409450 0.000000 0.295980
O O17 0.500000 0.647062 0.500000
O O18 0.250000 0.656411 0.454128
O O19 0.453645 0.500000 0.434504
O O20 0.250000 0.184943 0.785672
O O21 0.425303 0.000000 0.790088
#
# Coordination Sequence:
#
# PCOD9400403 Si02
#       7
#     8   8   4   8   8   8   8
#     4  10  20  34  54  82 114 146 184 231 280 328
#     4   9  18  32  49  67  86 112 148 188 229 274
#     4  10  20  30  42  62  90 120 148 180 225 280
#     4  10  19  31  46  65  91 121 151 186 230 284
#     4   9  17  30  50  74 102 136 170 209 257 307
#     4  10  21  37  57  81 111 150 194 235 278 331
#     4  10  19  30  46  70  98 127 160 199 243 296
#
# _framework density 17.409818000000001
#
# number of rings (size 3 to 8) (size 9 to 14) (size 15 to 20)
#    0.000    2.308    0.769    2.308    0.000    5.846 
#    0.000    0.000    0.000    0.923    0.000    2.154 
#    0.000    0.000    0.000    0.000    0.000    0.000 
#
# Total GULP energy -289526.385615 kJ/mol
# GULP energy per Si atom -5567.815108 kJ/mol
# Density = 1.737019 g / cm^3
# Si number density = 17.409818 Si / 1000 Ang^3
#
#
#
# Elastic Constant Matrix: (Units=GPa)
#
#
# Indices 1 2 3 4 5 6 
#
# 1 99.5668 44.2562 63.6524 0.0000 0.0000 0.0000
# 2 44.2562 63.7222 51.4464 0.0000 0.0000 0.0000
# 3 63.6524 51.4464 127.5947 0.0000 0.0000 0.0000
# 4 0.0000 0.0000 0.0000 21.9375 0.0000 0.0000
# 5 0.0000 0.0000 0.0000 0.0000 36.9214 0.0000
# 6 0.0000 0.0000 0.0000 0.0000 0.0000 17.7029
#
#
#
# Elastic Compliance Matrix: (Units=1/GPa)
#
#
# Indices 1 2 3 4 5 6 
#
# 1 0.016731 -0.007237 -0.005428 0.000000 0.000000 0.000000
# 2 -0.007237 0.026398 -0.007033 0.000000 0.000000 0.000000
# 3 -0.005428 -0.007033 0.013381 0.000000 0.000000 0.000000
# 4 0.000000 0.000000 0.000000 0.045584 0.000000 0.000000
# 5 0.000000 0.000000 0.000000 0.000000 0.027085 0.000000
# 6 0.000000 0.000000 0.000000 0.000000 0.000000 0.056488
#
#
# Mechanical properties :
#
#
# Convention : Reuss Voigt Hill
#
# Bulk Modulus (GPa) = 58.43818 67.73267 63.08542
# Shear Modulus (GPa) = 21.66683 24.08093 22.87388
#
# Velocity S-wave (km/s) = 3.53160 3.72315 3.62864
# Velocity P-wave (km/s) = 7.09004 7.58101 7.33963
#
# Compressibility (1/GPa) = 0.01711210
#
# Stress axis : x y z
#
# Youngs Moduli (GPa) = 59.77075 37.88190 74.73220
#
# Poissons Ratio (x) = 0.27416 0.40566
# Poissons Ratio (y) = 0.43257 0.52561
# Poissons Ratio (z) = 0.32445 0.26643
#
# Static dielectric constant tensor:
#      x y z
#    x 1.609620 0.000000 0.000000 
#    y 0.000000 1.667760 0.000000 
#    z 0.000000 0.000000 1.577600 
# 
# From -- ./inp_files/36249.got.cif
#   From: 2010.05.17/outbox.cif.g08.bks.cpg/sg51_19_cif.got.tgz:36249.got - 2010.06.03 11:52:47.
