data_PCOD9400344
_publ_section_title
;
Structure prediction by ZEFSAII (Michael W. Deem and Ramdas Pophale) SiO2 
 PCOD9400344
Probable space group: P M M A
;
_chemical_formula_sum "Si O2"
_cell_formula_units_Z 64
_cell_length_a 14.301414
_cell_length_b 9.256263
_cell_length_c 32.372909
_cell_angle_alpha 90.000000
_cell_angle_beta 90.000000
_cell_angle_gamma 90.000000
_cell_volume 4285.449593
_symmetry_space_group_name_H-M "P M M A"
_symmetry_group_IT_number 51
_symmetry_cell_setting 'orthorhombic'
loop_
_space_group_symop_operation_xyz
x,y,z
1/2-x,-y,z
1/2+x,-y,-z
-x,y,-z
-x,-y,-z
1/2+x,y,-z
1/2-x,y,z
x,-y,z
loop_
_atom_site_type_symbol
_atom_site_label
_atom_site_fract_x
_atom_site_fract_y
_atom_site_fract_z
Si Si1 0.022473 0.173569 0.396167
Si Si2 0.860127 0.674481 0.858835
Si Si3 0.141070 0.173670 0.316313
Si Si4 0.638841 0.831477 0.521757
Si Si5 0.541218 0.174573 0.934689
Si Si6 0.136513 0.333844 0.233539
Si Si7 0.639930 0.328702 0.437067
Si Si8 0.855490 0.824740 0.019659
O O1 0.077555 0.217845 0.354970
O O2 0.084966 0.207274 0.436577
O O3 0.924699 0.252099 0.403430
O O4 0.010217 0.000000 0.395127
O O5 0.750000 0.711936 0.863986
O O6 0.866604 0.500000 0.861310
O O7 0.920359 0.749735 0.894038
O O8 0.891029 0.716770 0.812328
O O9 0.250000 0.215704 0.323252
O O10 0.108525 0.240347 0.272928
O O11 0.138927 0.000000 0.313735
O O12 0.750000 0.818437 0.529058
O O13 0.614664 0.736849 0.481957
O O14 0.618969 0.000000 0.512083
O O15 0.435991 0.218451 0.947980
O O16 0.543662 0.000000 0.930275
O O17 0.607035 0.212826 0.973923
O O18 0.250000 0.333484 0.232724
O O19 0.106652 0.500000 0.238941
O O20 0.750000 0.299130 0.430643
O O21 0.625560 0.500000 0.437060
O O22 0.750000 0.772168 0.026885
O O23 0.853552 0.000000 0.020786
#
# Coordination Sequence:
#
# PCOD9400344 Si02
#       8
#     8   8   8   8   8   8   8   8
#     4  10  19  30  46  67  88 112 141 170 205 250
#     4   9  17  28  41  59  86 116 141 170 210 249
#     4   9  17  29  45  67  93 114 134 166 205 245
#     4   9  17  30  47  65  87 115 142 167 201 248
#     4   9  16  25  41  63  81 106 147 183 209 246
#     4   8  15  28  43  59  83 115 143 164 198 252
#     4  10  21  34  45  60  84 112 144 182 215 240
#     4   8  14  25  39  57  85 115 140 173 217 256
#
# _framework density 14.934257000000001
#
# number of rings (size 3 to 8) (size 9 to 14) (size 15 to 20)
#    0.000    3.000    0.000    3.000    0.000    6.000 
#    0.000    2.500    0.000    4.875    0.000    0.875 
#    0.000    3.000    0.000    0.000    0.000    0.000 
#
# Total GULP energy -356507.838957 kJ/mol
# GULP energy per Si atom -5570.434984 kJ/mol
# Density = 1.490027 g / cm^3
# Si number density = 14.934257 Si / 1000 Ang^3
#
#
#
# Elastic Constant Matrix: (Units=GPa)
#
#
# Indices 1 2 3 4 5 6 
#
# 1 87.4785 32.3870 71.5319 0.0000 0.0000 0.0000
# 2 32.3870 22.0709 46.5916 0.0000 0.0000 0.0000
# 3 71.5319 46.5916 139.5942 0.0000 0.0000 0.0000
# 4 0.0000 0.0000 0.0000 67.2100 0.0000 0.0000
# 5 0.0000 0.0000 0.0000 0.0000 24.3681 0.0000
# 6 0.0000 0.0000 0.0000 0.0000 0.0000 17.2361
#
#
#
# Elastic Compliance Matrix: (Units=1/GPa)
#
#
# Indices 1 2 3 4 5 6 
#
# 1 0.025182 -0.032875 -0.001932 0.000000 0.000000 0.000000
# 2 -0.032875 0.196284 -0.048667 0.000000 0.000000 0.000000
# 3 -0.001932 -0.048667 0.024397 0.000000 0.000000 0.000000
# 4 0.000000 0.000000 0.000000 0.014879 0.000000 0.000000
# 5 0.000000 0.000000 0.000000 0.000000 0.041037 0.000000
# 6 0.000000 0.000000 0.000000 0.000000 0.000000 0.058018
#
#
# Mechanical properties :
#
#
# Convention : Reuss Voigt Hill
#
# Bulk Modulus (GPa) = 12.67157 61.12941 36.90049
# Shear Modulus (GPa) = 9.04080 28.33839 18.68960
#
# Velocity S-wave (km/s) = 2.46310 4.36081 3.54143
# Velocity P-wave (km/s) = 4.07339 8.14719 6.44085
#
# Compressibility (1/GPa) = 0.07891682
#
# Stress axis : x y z
#
# Youngs Moduli (GPa) = 39.71110 5.09465 40.98913
#
# Poissons Ratio (x) = 0.16748 0.07917
# Poissons Ratio (y) = 1.30548 1.99482
# Poissons Ratio (z) = 0.07670 0.24794
#
# Static dielectric constant tensor:
#      x y z
#    x 1.501100 0.000000 0.000000 
#    y 0.000000 1.495370 0.000000 
#    z 0.000000 0.000000 1.482490 
# 
# From -- ./inp_files/37811.got.cif
#   From: 2010.05.17/outbox.cif.g08.bks.cpg/sg51_19_cif.got.tgz:37811.got - 2010.06.03 11:52:47.
