data_PCOD9400645
_publ_section_title
;
Structure prediction by ZEFSAII (Michael W. Deem and Ramdas Pophale) SiO2 
 PCOD9400645
Probable space group: P M M A
;
_chemical_formula_sum "Si O2"
_cell_formula_units_Z 48
_cell_length_a 9.718079
_cell_length_b 15.166033
_cell_length_c 16.201361
_cell_angle_alpha 90.000000
_cell_angle_beta 90.000000
_cell_angle_gamma 90.000000
_cell_volume 2387.832841
_symmetry_space_group_name_H-M "P M M A"
_symmetry_group_IT_number 51
_symmetry_cell_setting 'orthorhombic'
loop_
_space_group_symop_operation_xyz
x,y,z
1/2-x,-y,z
1/2+x,-y,-z
-x,y,-z
-x,-y,-z
1/2+x,y,-z
1/2-x,y,z
x,-y,z
loop_
_atom_site_type_symbol
_atom_site_label
_atom_site_fract_x
_atom_site_fract_y
_atom_site_fract_z
Si Si1 0.593514 0.368212 0.574983
Si Si2 0.095525 0.901676 0.124835
Si Si3 0.090472 0.704367 0.075996
Si Si4 0.405540 0.841984 0.426314
Si Si5 0.095179 0.102806 0.719931
Si Si6 0.084022 0.601064 0.238041
O O1 0.500000 0.401360 0.500000
O O2 0.750000 0.402614 0.571179
O O3 0.604254 0.263046 0.563135
O O4 0.535934 0.383814 0.667622
O O5 0.250000 0.899489 0.164291
O O6 0.088825 0.811240 0.074621
O O7 0.973675 0.894582 0.190518
O O8 0.086178 0.000000 0.085594
O O9 0.250000 0.676998 0.067055
O O10 0.040305 0.667795 0.165256
O O11 0.000000 0.671291 0.000000
O O12 0.500000 0.878620 0.500000
O O13 0.250000 0.877945 0.425136
O O14 0.488028 0.855001 0.342348
O O15 0.250000 0.139953 0.717090
O O16 0.103565 0.000000 0.696880
O O17 0.250000 0.611090 0.243264
O O18 0.053116 0.500000 0.214468
#
# Coordination Sequence:
#
# PCOD9400645 Si02
#       6
#     8   8   8   8   8   8
#     4   9  18  33  54  80 107 137 176 220 267 321
#     4   9  18  34  55  77 103 137 175 215 263 322
#     4  10  21  37  57  82 110 143 185 228 272 323
#     4  10  19  31  47  67  95 133 176 221 268 320
#     4  10  20  32  47  70  99 131 171 220 271 322
#     4   9  18  34  56  80 109 147 185 220 265 325
#
# _framework density 20.101908999999999
#
# number of rings (size 3 to 8) (size 9 to 14) (size 15 to 20)
#    0.000    2.500    0.000    2.000    0.000    6.333 
#    0.000    0.833    0.000    1.000    0.000    0.000 
#    0.000    0.000    0.000    0.000    0.000    0.000 
#
# Total GULP energy -267393.639275 kJ/mol
# GULP energy per Si atom -5570.700818 kJ/mol
# Density = 2.005616 g / cm^3
# Si number density = 20.101909 Si / 1000 Ang^3
#
#
#
# Elastic Constant Matrix: (Units=GPa)
#
#
# Indices 1 2 3 4 5 6 
#
# 1 119.5632 19.2019 55.3614 0.0000 0.0000 0.0000
# 2 19.2019 44.4212 25.7816 0.0000 0.0000 0.0000
# 3 55.3614 25.7816 114.2294 0.0000 0.0000 0.0000
# 4 0.0000 0.0000 0.0000 50.5617 0.0000 0.0000
# 5 0.0000 0.0000 0.0000 0.0000 33.3677 0.0000
# 6 0.0000 0.0000 0.0000 0.0000 0.0000 -13.2372
#
#
#
# Elastic Compliance Matrix: (Units=1/GPa)
#
#
# Indices 1 2 3 4 5 6 
#
# 1 0.010921 -0.001897 -0.004865 0.000000 0.000000 0.000000
# 2 -0.001897 0.026235 -0.005002 0.000000 0.000000 0.000000
# 3 -0.004865 -0.005002 0.012241 0.000000 0.000000 0.000000
# 4 0.000000 0.000000 0.000000 0.019778 0.000000 0.000000
# 5 0.000000 0.000000 0.000000 0.000000 0.029969 0.000000
# 6 0.000000 0.000000 0.000000 0.000000 0.000000 -0.075544
#
#
# Mechanical properties :
#
#
# Convention : Reuss Voigt Hill
#
# Bulk Modulus (GPa) = 38.65583 53.21152 45.93367
# Shear Modulus (GPa) = 89.68707 25.99637 57.84172
#
# Velocity S-wave (km/s) = 6.68678 3.60005 5.36998
# Velocity P-wave (km/s) = 8.88195 6.61882 7.83256
#
# Compressibility (1/GPa) = 0.02586932
#
# Stress axis : x y z
#
# Youngs Moduli (GPa) = 91.56699 38.11727 81.69392
#
# Poissons Ratio (x) = 0.07232 0.39741
# Poissons Ratio (y) = 0.17374 0.40860
# Poissons Ratio (z) = 0.44544 0.19065
#
# Static dielectric constant tensor:
#      x y z
#    x 1.720240 0.000000 0.000000 
#    y 0.000000 1.742670 0.000000 
#    z 0.000000 0.000000 1.717850 
# 
# From -- ./inp_files/21092.got.cif
#   From: 2010.05.17/outbox.cif.g08.bks.cpg/sg51_11_cif.got.tgz:21092.got - 2010.06.03 11:52:47.
