data_PCOD9400840
_publ_section_title
;
Structure prediction by ZEFSAII (Michael W. Deem and Ramdas Pophale) SiO2 
 PCOD9400840
Probable space group: P M M A
;
_chemical_formula_sum "Si O2"
_cell_formula_units_Z 48
_cell_length_a 9.337886
_cell_length_b 14.817521
_cell_length_c 16.051452
_cell_angle_alpha 90.000000
_cell_angle_beta 90.000000
_cell_angle_gamma 90.000000
_cell_volume 2220.948272
_symmetry_space_group_name_H-M "P M M A"
_symmetry_group_IT_number 51
_symmetry_cell_setting 'orthorhombic'
loop_
_space_group_symop_operation_xyz
x,y,z
1/2-x,-y,z
1/2+x,-y,-z
-x,y,-z
-x,-y,-z
1/2+x,y,-z
1/2-x,y,z
x,-y,z
loop_
_atom_site_type_symbol
_atom_site_label
_atom_site_fract_x
_atom_site_fract_y
_atom_site_fract_z
Si Si1 0.086247 0.141089 0.081562
Si Si2 0.913762 0.608484 0.581723
Si Si3 0.586024 0.357640 0.247827
Si Si4 0.586654 0.141833 0.241253
Si Si5 0.589582 0.107631 0.423312
Si Si6 0.084037 0.638315 0.083535
O O1 0.250000 0.112246 0.078027
O O2 0.085325 0.251429 0.083080
O O3 0.007580 0.109493 0.164853
O O4 0.000000 0.113124 0.000000
O O5 0.750000 0.643605 0.585361
O O6 0.904455 0.500000 0.574577
O O7 0.000000 0.640642 0.500000
O O8 0.000925 0.626701 0.666495
O O9 0.750000 0.391544 0.251879
O O10 0.594764 0.249862 0.235919
O O11 0.498718 0.391411 0.167119
O O12 0.750000 0.106658 0.237511
O O13 0.524492 0.121219 0.332210
O O14 0.500000 0.144383 0.500000
O O15 0.750000 0.146841 0.421893
O O16 0.601606 0.000000 0.434960
O O17 0.250000 0.609741 0.083161
O O18 0.000000 0.610544 0.000000
#
# Coordination Sequence:
#
# PCOD9400840 Si02
#       6
#     8   8   8   8   8   8
#     4   9  16  26  43  67  95 127 159 194 236 282
#     4  10  21  37  55  73  95 126 163 200 239 287
#     4  10  19  31  49  74 102 129 159 198 242 286
#     4   9  18  31  47  71 100 127 158 198 241 282
#     4   9  18  33  51  69  92 125 162 198 238 285
#     4   9  16  27  44  68  98 130 163 197 236 283
#
# _framework density 21.612390000000001
#
# number of rings (size 3 to 8) (size 9 to 14) (size 15 to 20)
#    0.000    2.667    0.000    2.000    0.000    7.000 
#    0.000    1.667    0.000    1.000    0.000    0.000 
#    0.000    0.000    0.000    0.000    0.000    0.000 
#
# Total GULP energy -268079.176705 kJ/mol
# GULP energy per Si atom -5584.982848 kJ/mol
# Density = 2.156320 g / cm^3
# Si number density = 21.612390 Si / 1000 Ang^3
#
#
#
# Elastic Constant Matrix: (Units=GPa)
#
#
# Indices 1 2 3 4 5 6 
#
# 1 201.6689 5.8503 151.5834 0.0000 0.0000 0.0000
# 2 5.8503 58.2833 -1.8835 0.0000 0.0000 0.0000
# 3 151.5834 -1.8835 264.8100 0.0000 0.0000 0.0000
# 4 0.0000 0.0000 0.0000 35.9493 0.0000 0.0000
# 5 0.0000 0.0000 0.0000 0.0000 36.9694 0.0000
# 6 0.0000 0.0000 0.0000 0.0000 0.0000 5.3555
#
#
#
# Elastic Compliance Matrix: (Units=1/GPa)
#
#
# Indices 1 2 3 4 5 6 
#
# 1 0.008766 -0.001042 -0.005025 0.000000 0.000000 0.000000
# 2 -0.001042 0.017285 0.000720 0.000000 0.000000 0.000000
# 3 -0.005025 0.000720 0.006658 0.000000 0.000000 0.000000
# 4 0.000000 0.000000 0.000000 0.027817 0.000000 0.000000
# 5 0.000000 0.000000 0.000000 0.000000 0.027049 0.000000
# 6 0.000000 0.000000 0.000000 0.000000 0.000000 0.186722
#
#
# Mechanical properties :
#
#
# Convention : Reuss Voigt Hill
#
# Bulk Modulus (GPa) = 45.42676 92.87364 69.15020
# Shear Modulus (GPa) = 17.10383 40.26898 28.68640
#
# Velocity S-wave (km/s) = 2.81622 4.32120 3.64718
# Velocity P-wave (km/s) = 5.62488 8.24395 7.05698
#
# Compressibility (1/GPa) = 0.02201346
#
# Stress axis : x y z
#
# Youngs Moduli (GPa) = 114.07519 57.85216 150.19423
#
# Poissons Ratio (x) = 0.06030 0.75478
# Poissons Ratio (y) = 0.11890 -0.10808
# Poissons Ratio (z) = 0.57327 -0.04163
#
# Static dielectric constant tensor:
#      x y z
#    x 1.764020 0.000000 0.000000 
#    y 0.000000 1.828130 0.000000 
#    z 0.000000 0.000000 1.744560 
# 
# From -- ./inp_files/14461.got.cif
#   From: 2010.05.17/outbox.cif.g08.bks.cpg/sg51_8_cif.got.tgz:14461.got - 2010.06.03 11:52:47.
