data_PCOD9400696
_publ_section_title
;
Structure prediction by ZEFSAII (Michael W. Deem and Ramdas Pophale) SiO2 
 PCOD9400696
Probable space group: P M M A
;
_chemical_formula_sum "Si O2"
_cell_formula_units_Z 64
_cell_length_a 19.580096
_cell_length_b 7.763616
_cell_length_c 22.449336
_cell_angle_alpha 90.000000
_cell_angle_beta 90.000000
_cell_angle_gamma 90.000000
_cell_volume 3412.576245
_symmetry_space_group_name_H-M "P M M A"
_symmetry_group_IT_number 51
_symmetry_cell_setting 'orthorhombic'
loop_
_space_group_symop_operation_xyz
x,y,z
1/2-x,-y,z
1/2+x,-y,-z
-x,y,-z
-x,-y,-z
1/2+x,y,-z
1/2-x,y,z
x,-y,z
loop_
_atom_site_type_symbol
_atom_site_label
_atom_site_fract_x
_atom_site_fract_y
_atom_site_fract_z
Si Si1 0.638005 0.195873 0.763809
Si Si2 0.076837 0.293322 0.488633
Si Si3 0.175927 0.791242 0.108566
Si Si4 0.472780 0.294809 0.062299
Si Si5 0.673075 0.293832 0.406021
Si Si6 0.918490 0.791868 0.646203
Si Si7 0.507056 0.704250 0.190386
Si Si8 0.433461 0.205475 0.692953
O O1 0.671762 0.273988 0.822748
O O2 0.633511 0.272996 0.697590
O O3 0.558252 0.196926 0.782956
O O4 0.663788 0.000000 0.758642
O O5 0.073945 0.500000 0.495300
O O6 0.128873 0.225531 0.538299
O O7 0.097998 0.255410 0.421104
O O8 0.000000 0.225910 0.500000
O O9 0.250000 0.740651 0.083449
O O10 0.107656 0.736212 0.074362
O O11 0.173451 0.000000 0.111139
O O12 0.482682 0.500000 0.059923
O O13 0.512667 0.236332 0.122066
O O14 0.500000 0.221377 0.000000
O O15 0.750000 0.225015 0.403963
O O16 0.677462 0.500000 0.413311
O O17 0.630143 0.261294 0.346417
O O18 0.995640 0.730065 0.662130
O O19 0.918763 0.000000 0.650857
O O20 0.491063 0.500000 0.189972
O O21 0.565938 0.733788 0.238540
O O22 0.436091 0.000000 0.692792
#
# Coordination Sequence:
#
# PCOD9400696 Si02
#       8
#     8   8   8   8   8   8   8   8
#     4   8  15  28  43  65  96 125 155 194 240 285
#     4  10  19  31  48  69  91 120 161 202 240 289
#     4   9  17  30  49  72 100 135 172 208 248 297
#     4   9  18  32  50  75 106 137 170 208 247 288
#     4  10  21  36  51  68  93 124 158 200 251 301
#     4   9  17  28  45  69  93 119 153 195 237 279
#     4   9  16  27  47  72  96 122 155 194 235 281
#     4  10  19  31  49  72  96 120 152 197 244 288
#
# _framework density 18.754159000000001
#
# number of rings (size 3 to 8) (size 9 to 14) (size 15 to 20)
#    0.000    2.750    1.250    1.500    0.000    4.000 
#    0.000    0.625    0.000    1.500    0.000    1.750 
#    0.000    0.000    0.000    0.000    0.000    0.000 
#
# Total GULP energy -356452.636179 kJ/mol
# GULP energy per Si atom -5569.572440 kJ/mol
# Density = 1.871147 g / cm^3
# Si number density = 18.754159 Si / 1000 Ang^3
#
#
#
# Elastic Constant Matrix: (Units=GPa)
#
#
# Indices 1 2 3 4 5 6 
#
# 1 94.6234 1.0382 72.3416 0.0000 0.0000 0.0000
# 2 1.0382 30.1254 -0.0958 0.0000 0.0000 0.0000
# 3 72.3416 -0.0958 171.3836 0.0000 0.0000 0.0000
# 4 0.0000 0.0000 0.0000 24.0355 0.0000 0.0000
# 5 0.0000 0.0000 0.0000 0.0000 16.2889 0.0000
# 6 0.0000 0.0000 0.0000 0.0000 0.0000 10.2577
#
#
#
# Elastic Compliance Matrix: (Units=1/GPa)
#
#
# Indices 1 2 3 4 5 6 
#
# 1 0.015613 -0.000559 -0.006591 0.000000 0.000000 0.000000
# 2 -0.000559 0.033215 0.000255 0.000000 0.000000 0.000000
# 3 -0.006591 0.000255 0.008617 0.000000 0.000000 0.000000
# 4 0.000000 0.000000 0.000000 0.041605 0.000000 0.000000
# 5 0.000000 0.000000 0.000000 0.000000 0.061392 0.000000
# 6 0.000000 0.000000 0.000000 0.000000 0.000000 0.097487
#
#
# Mechanical properties :
#
#
# Convention : Reuss Voigt Hill
#
# Bulk Modulus (GPa) = 22.90720 49.18892 36.04806
# Shear Modulus (GPa) = 17.46601 24.97298 21.21950
#
# Velocity S-wave (km/s) = 3.05505 3.65306 3.36736
# Velocity P-wave (km/s) = 4.96845 6.63916 5.86361
#
# Compressibility (1/GPa) = 0.04365440
#
# Stress axis : x y z
#
# Youngs Moduli (GPa) = 64.04918 30.10718 116.05067
#
# Poissons Ratio (x) = 0.01683 0.76485
# Poissons Ratio (y) = 0.03581 -0.02954
# Poissons Ratio (z) = 0.42212 -0.00766
#
# Static dielectric constant tensor:
#      x y z
#    x 1.652620 0.000000 0.000000 
#    y 0.000000 1.690830 0.000000 
#    z 0.000000 0.000000 1.689350 
# 
# From -- ./inp_files/33906.got.cif
#   From: 2010.05.17/outbox.cif.g08.bks.cpg/sg51_17_cif.got.tgz:33906.got - 2010.06.03 11:52:47.
