data_PCOD9400952
_publ_section_title
;
Structure prediction by ZEFSAII (Michael W. Deem and Ramdas Pophale) SiO2 
 PCOD9400952
Probable space group: P M M A
;
_chemical_formula_sum "Si O2"
_cell_formula_units_Z 64
_cell_length_a 8.689691
_cell_length_b 15.741468
_cell_length_c 25.553132
_cell_angle_alpha 90.000000
_cell_angle_beta 90.000000
_cell_angle_gamma 90.000000
_cell_volume 3495.374413
_symmetry_space_group_name_H-M "P M M A"
_symmetry_group_IT_number 51
_symmetry_cell_setting 'orthorhombic'
loop_
_space_group_symop_operation_xyz
x,y,z
1/2-x,-y,z
1/2+x,-y,-z
-x,y,-z
-x,-y,-z
1/2+x,y,-z
1/2-x,y,z
x,-y,z
loop_
_atom_site_type_symbol
_atom_site_label
_atom_site_fract_x
_atom_site_fract_y
_atom_site_fract_z
Si Si1 0.434698 0.093772 0.141923
Si Si2 0.570893 0.370845 0.215826
Si Si3 0.065366 0.902680 0.441636
Si Si4 0.065899 0.406000 0.328701
Si Si5 0.564723 0.774756 0.356174
Si Si6 0.563570 0.230257 0.943649
Si Si7 0.564392 0.592008 0.897139
Si Si8 0.428518 0.826856 0.758569
O O1 0.250000 0.094400 0.139400
O O2 0.489431 0.165822 0.101707
O O3 0.482244 0.114791 0.201071
O O4 0.490478 0.000000 0.127096
O O5 0.750000 0.395653 0.217894
O O6 0.486476 0.402023 0.268054
O O7 0.494928 0.400447 0.162243
O O8 0.563736 0.268636 0.218577
O O9 0.250000 0.896045 0.442604
O O10 0.000000 0.890731 0.500000
O O11 0.996913 0.832554 0.402883
O O12 0.025173 0.000000 0.425443
O O13 0.250000 0.399235 0.331433
O O14 0.020542 0.500000 0.349145
O O15 0.993713 0.322733 0.355785
O O16 0.750000 0.772784 0.355997
O O17 0.514044 0.817396 0.300918
O O18 0.750000 0.229431 0.944873
O O19 0.511229 0.325600 0.928875
O O20 0.500000 0.205612 0.000000
O O21 0.750000 0.594595 0.895913
O O22 0.515806 0.500000 0.918537
O O23 0.250000 0.853125 0.756984
#
# Coordination Sequence:
#
# PCOD9400952 Si02
#       8
#     8   8   8   8   8   8   8   8
#     4  10  21  37  57  79 102 132 171 214 265 323
#     4  10  19  31  50  77 108 141 178 219 265 320
#     4  10  21  38  61  88 118 155 199 245 292 341
#     4  10  20  33  51  78 114 155 195 234 278 331
#     4  10  21  36  56  85 119 155 194 239 286 336
#     4  10  22  39  56  75 100 131 168 217 266 318
#     4  10  20  34  53  76 101 133 171 209 259 321
#     4   9  19  34  52  78 111 144 177 214 264 320
#
# _framework density 18.309913000000002
#
# number of rings (size 3 to 8) (size 9 to 14) (size 15 to 20)
#    0.000    2.125    1.250    2.625    0.000    8.250 
#    0.000    2.500    0.000    0.375    0.000    0.000 
#    0.000    0.000    0.000    0.000    0.000    0.000 
#
# Total GULP energy -357116.381957 kJ/mol
# GULP energy per Si atom -5579.943468 kJ/mol
# Density = 1.826824 g / cm^3
# Si number density = 18.309913 Si / 1000 Ang^3
#
#
#
# Elastic Constant Matrix: (Units=GPa)
#
#
# Indices 1 2 3 4 5 6 
#
# 1 26.1283 33.6017 18.3217 0.0000 0.0000 0.0000
# 2 33.6017 127.6401 65.9353 0.0000 0.0000 0.0000
# 3 18.3217 65.9353 84.1252 0.0000 0.0000 0.0000
# 4 0.0000 0.0000 0.0000 -0.1717 0.0000 0.0000
# 5 0.0000 0.0000 0.0000 0.0000 27.2750 0.0000
# 6 0.0000 0.0000 0.0000 0.0000 0.0000 8.1441
#
#
#
# Elastic Compliance Matrix: (Units=1/GPa)
#
#
# Indices 1 2 3 4 5 6 
#
# 1 0.057924 -0.014673 -0.001115 0.000000 0.000000 0.000000
# 2 -0.014673 0.016881 -0.010036 0.000000 0.000000 0.000000
# 3 -0.001115 -0.010036 0.019996 0.000000 0.000000 0.000000
# 4 0.000000 0.000000 0.000000 -5.824736 0.000000 0.000000
# 5 0.000000 0.000000 0.000000 0.000000 0.036664 0.000000
# 6 0.000000 0.000000 0.000000 0.000000 0.000000 0.122789
#
#
# Mechanical properties :
#
#
# Convention : Reuss Voigt Hill
#
# Bulk Modulus (GPa) = 23.17286 52.62343 37.89814
# Shear Modulus (GPa) = -0.90836 15.05182 7.07173
#
# Velocity S-wave (km/s) = -0.70511 2.87027 1.96739
# Velocity P-wave (km/s) = 3.46706 6.30772 5.08959
#
# Compressibility (1/GPa) = 0.04315393
#
# Stress axis : x y z
#
# Youngs Moduli (GPa) = 17.26403 59.23755 50.01113
#
# Poissons Ratio (x) = 0.86916 0.05578
# Poissons Ratio (y) = 0.25331 0.50189
# Poissons Ratio (z) = 0.01925 0.59448
#
# Static dielectric constant tensor:
#      x y z
#    x 1.613600 0.000000 0.000000 
#    y 0.000000 1.664850 0.000000 
#    z 0.000000 0.000000 1.587730 
# 
# From -- ./inp_files/34827.got.cif
#   From: 2010.05.17/outbox.cif.g08.bks.cpg/sg51_18_cif.got.tgz:34827.got - 2010.06.03 11:52:47.
