data_PCOD9400768
_publ_section_title
;
Structure prediction by ZEFSAII (Michael W. Deem and Ramdas Pophale) SiO2 
 PCOD9400768
Probable space group: P M M A
;
_chemical_formula_sum "Si O2"
_cell_formula_units_Z 64
_cell_length_a 9.185338
_cell_length_b 25.084750
_cell_length_c 15.689281
_cell_angle_alpha 90.000000
_cell_angle_beta 90.000000
_cell_angle_gamma 90.000000
_cell_volume 3614.997161
_symmetry_space_group_name_H-M "P M M A"
_symmetry_group_IT_number 51
_symmetry_cell_setting 'orthorhombic'
loop_
_space_group_symop_operation_xyz
x,y,z
1/2-x,-y,z
1/2+x,-y,-z
-x,y,-z
-x,-y,-z
1/2+x,y,-z
1/2-x,y,z
x,-y,z
loop_
_atom_site_type_symbol
_atom_site_label
_atom_site_fract_x
_atom_site_fract_y
_atom_site_fract_z
Si Si1 0.074601 0.862106 0.412999
Si Si2 0.924096 0.237090 0.687530
Si Si3 0.426321 0.355118 0.264890
Si Si4 0.077012 0.332650 0.912674
Si Si5 0.924600 0.437672 0.588303
Si Si6 0.921085 0.938342 0.743507
Si Si7 0.420090 0.094188 0.915533
Si Si8 0.417873 0.212418 0.857130
O O1 0.250000 0.863569 0.421603
O O2 0.027073 0.801968 0.387558
O O3 0.034637 0.900103 0.333968
O O4 0.000000 0.878899 0.500000
O O5 0.750000 0.236685 0.686368
O O6 0.969740 0.298744 0.691170
O O7 0.977993 0.211811 0.775889
O O8 0.250000 0.355108 0.252942
O O9 0.503454 0.356469 0.172768
O O10 0.465398 0.402105 0.330168
O O11 0.250000 0.343217 0.914369
O O12 0.056908 0.268330 0.904613
O O13 0.000000 0.350426 0.000000
O O14 0.750000 0.433370 0.578157
O O15 0.960785 0.500000 0.602184
O O16 0.000000 0.420536 0.500000
O O17 0.750000 0.927970 0.761226
O O18 0.010216 0.927655 0.829070
O O19 0.936456 0.000000 0.718340
O O20 0.250000 0.081445 0.919158
O O21 0.436054 0.158623 0.909950
O O22 0.500000 0.074508 0.000000
O O23 0.250000 0.213530 0.826858
#
# Coordination Sequence:
#
# PCOD9400768 Si02
#       8
#     8   8   8   8   8   8   8   8
#     4  10  21  36  55  79 104 133 167 207 257 310
#     4   9  17  31  51  74 103 137 170 205 252 306
#     4   9  18  32  51  76 106 141 178 216 260 308
#     4  10  19  31  48  74 108 143 178 215 257 305
#     4   9  18  33  53  77 106 140 179 222 266 312
#     4  10  22  41  60  76  99 132 171 216 260 305
#     4  11  22  35  55  81 107 135 169 208 255 309
#     4   9  18  31  49  75 104 135 170 207 249 300
#
# _framework density 17.704025000000001
#
# number of rings (size 3 to 8) (size 9 to 14) (size 15 to 20)
#    0.000    2.375    1.250    1.125    0.000    3.750 
#    0.000    0.000    0.000    0.375    0.000    0.000 
#    0.000    0.000    0.000    0.000    0.000    0.000 
#
# Total GULP energy -356893.111109 kJ/mol
# GULP energy per Si atom -5576.454861 kJ/mol
# Density = 1.766373 g / cm^3
# Si number density = 17.704025 Si / 1000 Ang^3
#
#
#
# Elastic Constant Matrix: (Units=GPa)
#
#
# Indices 1 2 3 4 5 6 
#
# 1 31.1729 36.4213 56.3568 0.0000 0.0000 0.0000
# 2 36.4213 62.0464 61.0070 0.0000 0.0000 0.0000
# 3 56.3568 61.0070 144.3722 0.0000 0.0000 0.0000
# 4 0.0000 0.0000 0.0000 6.1721 0.0000 0.0000
# 5 0.0000 0.0000 0.0000 0.0000 34.1911 0.0000
# 6 0.0000 0.0000 0.0000 0.0000 0.0000 16.5582
#
#
#
# Elastic Compliance Matrix: (Units=1/GPa)
#
#
# Indices 1 2 3 4 5 6 
#
# 1 0.208710 -0.072550 -0.050814 0.000000 0.000000 0.000000
# 2 -0.072550 0.052792 0.006012 0.000000 0.000000 0.000000
# 3 -0.050814 0.006012 0.024222 0.000000 0.000000 0.000000
# 4 0.000000 0.000000 0.000000 0.162020 0.000000 0.000000
# 5 0.000000 0.000000 0.000000 0.000000 0.029247 0.000000
# 6 0.000000 0.000000 0.000000 0.000000 0.000000 0.060393
#
#
# Mechanical properties :
#
#
# Convention : Reuss Voigt Hill
#
# Bulk Modulus (GPa) = 19.60014 60.57350 40.08682
# Shear Modulus (GPa) = 6.33637 16.97137 11.65387
#
# Velocity S-wave (km/s) = 1.89389 3.09951 2.56844
# Velocity P-wave (km/s) = 3.98465 6.86281 5.61140
#
# Compressibility (1/GPa) = 0.05102005
#
# Stress axis : x y z
#
# Youngs Moduli (GPa) = 4.79133 18.94213 41.28496
#
# Poissons Ratio (x) = 1.37425 2.09787
# Poissons Ratio (y) = 0.34761 -0.24821
# Poissons Ratio (z) = 0.24347 -0.11388
#
# Static dielectric constant tensor:
#      x y z
#    x 1.590690 0.000000 0.000000 
#    y 0.000000 1.621650 0.000000 
#    z 0.000000 0.000000 1.575610 
# 
# From -- ./inp_files/22308.got.cif
#   From: 2010.05.17/outbox.cif.g08.bks.cpg/sg51_12_cif.got.tgz:22308.got - 2010.06.03 11:52:47.
