data_PCOD9400452
_publ_section_title
;
Structure prediction by ZEFSAII (Michael W. Deem and Ramdas Pophale) SiO2 
 PCOD9400452
Probable space group: P M M A
;
_chemical_formula_sum "Si O2"
_cell_formula_units_Z 64
_cell_length_a 8.852332
_cell_length_b 19.572512
_cell_length_c 24.101953
_cell_angle_alpha 90.000000
_cell_angle_beta 90.000000
_cell_angle_gamma 90.000000
_cell_volume 4175.961602
_symmetry_space_group_name_H-M "P M M A"
_symmetry_group_IT_number 51
_symmetry_cell_setting 'orthorhombic'
loop_
_space_group_symop_operation_xyz
x,y,z
1/2-x,-y,z
1/2+x,-y,-z
-x,y,-z
-x,-y,-z
1/2+x,y,-z
1/2-x,y,z
x,-y,z
loop_
_atom_site_type_symbol
_atom_site_label
_atom_site_fract_x
_atom_site_fract_y
_atom_site_fract_z
Si Si1 0.430650 0.079596 0.559812
Si Si2 0.430368 0.280743 0.723164
Si Si3 0.931763 0.079116 0.777207
Si Si4 0.067920 0.423964 0.113088
Si Si5 0.070617 0.797282 0.838848
Si Si6 0.067893 0.576349 0.763970
Si Si7 0.430169 0.843703 0.336653
Si Si8 0.568939 0.716978 0.940885
O O1 0.500000 0.097245 0.500000
O O2 0.250000 0.084375 0.557325
O O3 0.494067 0.126638 0.608499
O O4 0.471301 0.000000 0.571280
O O5 0.250000 0.276405 0.713567
O O6 0.459544 0.250103 0.784762
O O7 0.477718 0.359899 0.725854
O O8 0.513912 0.231677 0.680195
O O9 0.750000 0.084655 0.782848
O O10 0.971078 0.108246 0.716132
O O11 0.009996 0.128407 0.821584
O O12 0.974470 0.000000 0.782186
O O13 0.250000 0.422307 0.116857
O O14 0.022979 0.500000 0.093198
O O15 0.020162 0.360424 0.075458
O O16 0.001595 0.415251 0.174793
O O17 0.250000 0.798412 0.847787
O O18 0.988995 0.765667 0.891867
O O19 0.250000 0.579739 0.769442
O O20 0.027711 0.500000 0.744103
O O21 0.250000 0.844730 0.342556
O O22 0.750000 0.718988 0.943325
O O23 0.500000 0.735711 0.000000
#
# Coordination Sequence:
#
# PCOD9400452 Si02
#       8
#     8   8   8   8   8   8   8   8
#     4  10  20  33  49  69  97 134 171 204 237 274
#     4   9  17  29  45  67  95 124 156 194 236 279
#     4   9  18  32  50  72  97 124 152 186 230 277
#     4   9  18  31  46  65  89 117 150 188 228 272
#     4  10  19  32  49  69  92 117 149 187 230 279
#     4   9  16  27  45  67  92 123 156 190 231 279
#     4  10  19  30  47  71  99 130 164 199 234 271
#     4  11  22  34  49  66  88 117 151 189 230 277
#
# _framework density 15.325812000000001
#
# number of rings (size 3 to 8) (size 9 to 14) (size 15 to 20)
#    0.000    2.375    1.250    1.875    0.000    3.750 
#    0.000    0.000    0.000    0.375    0.000    0.000 
#    0.000    0.500    0.000    1.375    0.000    2.000 
#
# Total GULP energy -356910.110814 kJ/mol
# GULP energy per Si atom -5576.720481 kJ/mol
# Density = 1.529093 g / cm^3
# Si number density = 15.325812 Si / 1000 Ang^3
#
#
#
# Elastic Constant Matrix: (Units=GPa)
#
#
# Indices 1 2 3 4 5 6 
#
# 1 33.9854 36.8698 40.6613 0.0000 0.0000 0.0000
# 2 36.8698 110.8023 56.3194 0.0000 0.0000 0.0000
# 3 40.6613 56.3194 97.8601 0.0000 0.0000 0.0000
# 4 0.0000 0.0000 0.0000 22.4792 0.0000 0.0000
# 5 0.0000 0.0000 0.0000 0.0000 24.3626 0.0000
# 6 0.0000 0.0000 0.0000 0.0000 0.0000 19.7546
#
#
#
# Elastic Compliance Matrix: (Units=1/GPa)
#
#
# Indices 1 2 3 4 5 6 
#
# 1 0.067676 -0.011628 -0.021428 0.000000 0.000000 0.000000
# 2 -0.011628 0.014755 -0.003660 0.000000 0.000000 0.000000
# 3 -0.021428 -0.003660 0.021228 0.000000 0.000000 0.000000
# 4 0.000000 0.000000 0.000000 0.044486 0.000000 0.000000
# 5 0.000000 0.000000 0.000000 0.000000 0.041047 0.000000
# 6 0.000000 0.000000 0.000000 0.000000 0.000000 0.050621
#
#
# Mechanical properties :
#
#
# Convention : Reuss Voigt Hill
#
# Bulk Modulus (GPa) = 33.08214 56.70542 44.89378
# Shear Modulus (GPa) = 15.46455 20.57241 18.01848
#
# Velocity S-wave (km/s) = 3.18000 3.66777 3.43256
# Velocity P-wave (km/s) = 5.92588 7.41734 6.71316
#
# Compressibility (1/GPa) = 0.03022779
#
# Stress axis : x y z
#
# Youngs Moduli (GPa) = 14.77622 67.77520 47.10692
#
# Poissons Ratio (x) = 0.78810 1.00940
# Poissons Ratio (y) = 0.17182 0.17241
# Poissons Ratio (z) = 0.31662 0.24805
#
# Static dielectric constant tensor:
#      x y z
#    x 1.506660 0.000000 0.000000 
#    y 0.000000 1.527270 0.000000 
#    z 0.000000 0.000000 1.469410 
# 
# From -- ./inp_files/32662.got.cif
#   From: 2010.05.17/outbox.cif.g08.bks.cpg/sg51_17_cif.got.tgz:32662.got - 2010.06.03 11:52:47.
