data_PCOD9400791
_publ_section_title
;
Structure prediction by ZEFSAII (Michael W. Deem and Ramdas Pophale) SiO2 
 PCOD9400791
Probable space group: P M M A
;
_chemical_formula_sum "Si O2"
_cell_formula_units_Z 64
_cell_length_a 8.169967
_cell_length_b 18.057625
_cell_length_c 21.646872
_cell_angle_alpha 90.000000
_cell_angle_beta 90.000000
_cell_angle_gamma 90.000000
_cell_volume 3193.567363
_symmetry_space_group_name_H-M "P M M A"
_symmetry_group_IT_number 51
_symmetry_cell_setting 'orthorhombic'
loop_
_space_group_symop_operation_xyz
x,y,z
1/2-x,-y,z
1/2+x,-y,-z
-x,y,-z
-x,-y,-z
1/2+x,y,-z
1/2-x,y,z
x,-y,z
loop_
_atom_site_type_symbol
_atom_site_label
_atom_site_fract_x
_atom_site_fract_y
_atom_site_fract_z
Si Si1 0.052567 0.079188 0.846900
Si Si2 0.447381 0.418204 0.204945
Si Si3 0.051412 0.709511 0.299078
Si Si4 0.946888 0.791929 0.066522
Si Si5 0.556722 0.752588 0.566277
Si Si6 0.558550 0.879137 0.716377
Si Si7 0.939295 0.081023 0.412550
Si Si8 0.054118 0.622634 0.931994
O O1 0.250000 0.084487 0.840945
O O2 0.992031 0.150697 0.883238
O O3 0.974463 0.081382 0.779971
O O4 0.016005 0.000000 0.877489
O O5 0.250000 0.414562 0.205745
O O6 0.498064 0.500000 0.227189
O O7 0.508576 0.353206 0.251155
O O8 0.498221 0.411634 0.132970
O O9 0.250000 0.702244 0.300997
O O10 0.991806 0.713219 0.370867
O O11 0.015129 0.792398 0.275384
O O12 0.750000 0.789030 0.069865
O O13 0.007583 0.707848 0.072171
O O14 0.000000 0.820019 0.000000
O O15 0.500000 0.723147 0.500000
O O16 0.750000 0.745528 0.568940
O O17 0.517795 0.840878 0.567957
O O18 0.750000 0.883249 0.698496
O O19 0.454706 0.913654 0.661413
O O20 0.750000 0.082990 0.431744
O O21 0.009204 0.000000 0.430749
O O22 0.250000 0.620966 0.932588
O O23 0.000000 0.593740 0.000000
#
# Coordination Sequence:
#
# PCOD9400791 Si02
#       8
#     8   8   8   8   8   8   8   8
#     4  10  20  32  45  64  93 126 161 207 261 311
#     4  10  20  35  57  83 109 137 169 207 253 305
#     4   8  17  34  54  77 104 134 169 210 256 305
#     4   9  19  34  50  68  90 122 164 207 253 302
#     4  10  20  35  55  78 105 138 178 221 261 306
#     4  10  19  31  49  71  96 128 168 211 251 299
#     4  10  20  33  49  71 102 138 173 212 259 307
#     4  10  20  35  55  78 106 139 174 211 250 300
#
# _framework density 20.040285999999998
#
# number of rings (size 3 to 8) (size 9 to 14) (size 15 to 20)
#    0.000    2.375    0.000    3.375    0.000    4.750 
#    0.000    3.125    0.000    0.375    0.000    0.000 
#    0.000    0.000    0.000    0.000    0.000    0.500 
#
# Total GULP energy -356815.187129 kJ/mol
# GULP energy per Si atom -5575.237299 kJ/mol
# Density = 1.999467 g / cm^3
# Si number density = 20.040286 Si / 1000 Ang^3
#
#
#
# Elastic Constant Matrix: (Units=GPa)
#
#
# Indices 1 2 3 4 5 6 
#
# 1 15.4734 15.4287 4.0830 0.0000 0.0000 0.0000
# 2 15.4287 99.8897 62.3014 0.0000 0.0000 0.0000
# 3 4.0830 62.3014 121.7431 0.0000 0.0000 0.0000
# 4 0.0000 0.0000 0.0000 -104.0088 0.0000 0.0000
# 5 0.0000 0.0000 0.0000 0.0000 28.1228 0.0000
# 6 0.0000 0.0000 0.0000 0.0000 0.0000 9.8380
#
#
#
# Elastic Compliance Matrix: (Units=1/GPa)
#
#
# Indices 1 2 3 4 5 6 
#
# 1 0.078616 -0.015420 0.005255 0.000000 0.000000 0.000000
# 2 -0.015420 0.017729 -0.008556 0.000000 0.000000 0.000000
# 3 0.005255 -0.008556 0.012416 0.000000 0.000000 0.000000
# 4 0.000000 0.000000 0.000000 -0.009615 0.000000 0.000000
# 5 0.000000 0.000000 0.000000 0.000000 0.035558 0.000000
# 6 0.000000 0.000000 0.000000 0.000000 0.000000 0.101647
#
#
# Mechanical properties :
#
#
# Convention : Reuss Voigt Hill
#
# Bulk Modulus (GPa) = 14.02150 44.52584 29.27367
# Shear Modulus (GPa) = 16.80294 -2.85674 6.97310
#
# Velocity S-wave (km/s) = 2.89876 -1.19524 1.86738
# Velocity P-wave (km/s) = 4.26797 4.51238 4.39188
#
# Compressibility (1/GPa) = 0.07131902
#
# Stress axis : x y z
#
# Youngs Moduli (GPa) = 12.72000 56.40506 80.54100
#
# Poissons Ratio (x) = 0.86978 -0.42321
# Poissons Ratio (y) = 0.19614 0.68907
# Poissons Ratio (z) = -0.06684 0.48257
#
# Static dielectric constant tensor:
#      x y z
#    x 1.709730 0.000000 0.000000 
#    y 0.000000 1.731380 0.000000 
#    z 0.000000 0.000000 1.738530 
# 
# From -- ./inp_files/32431.got.cif
#   From: 2010.05.17/outbox.cif.g08.bks.cpg/sg51_17_cif.got.tgz:32431.got - 2010.06.03 11:52:47.
