data_PCOD9400414
_publ_section_title
;
Structure prediction by ZEFSAII (Michael W. Deem and Ramdas Pophale) SiO2 
 PCOD9400414
Probable space group: P M M A
;
_chemical_formula_sum "Si O2"
_cell_formula_units_Z 48
_cell_length_a 8.594002
_cell_length_b 32.576108
_cell_length_c 9.872813
_cell_angle_alpha 90.000000
_cell_angle_beta 90.000000
_cell_angle_gamma 90.000000
_cell_volume 2763.984210
_symmetry_space_group_name_H-M "P M M A"
_symmetry_group_IT_number 51
_symmetry_cell_setting 'orthorhombic'
loop_
_space_group_symop_operation_xyz
x,y,z
1/2-x,-y,z
1/2+x,-y,-z
-x,y,-z
-x,-y,-z
1/2+x,y,-z
1/2-x,y,z
x,-y,z
loop_
_atom_site_type_symbol
_atom_site_label
_atom_site_fract_x
_atom_site_fract_y
_atom_site_fract_z
Si Si1 0.563613 0.453153 0.650521
Si Si2 0.062138 0.046488 0.349501
Si Si3 0.436897 0.616446 0.846786
Si Si4 0.436651 0.880621 0.152908
Si Si5 0.437449 0.293647 0.846409
Si Si6 0.562917 0.204986 0.154559
O O1 0.500000 0.445030 0.500000
O O2 0.750000 0.451319 0.648162
O O3 0.517237 0.500000 0.687035
O O4 0.499815 0.419956 0.754763
O O5 0.250000 0.047218 0.353265
O O6 0.010866 0.081154 0.244153
O O7 0.000000 0.054742 0.500000
O O8 0.013611 0.000000 0.311515
O O9 0.250000 0.614841 0.850641
O O10 0.484880 0.661779 0.790553
O O11 0.500000 0.612902 0.000000
O O12 0.250000 0.879888 0.147133
O O13 0.494698 0.837073 0.212722
O O14 0.500000 0.884552 0.000000
O O15 0.250000 0.293338 0.850844
O O16 0.484064 0.249472 0.784541
O O17 0.500000 0.293602 0.000000
O O18 0.750000 0.202181 0.152615
O O19 0.500000 0.205753 0.000000
#
# Coordination Sequence:
#
# PCOD9400414 Si02
#       6
#     8   8   8   8   8   8
#     4  10  21  37  55  74  97 128 165 202 244 295
#     4   9  19  35  52  69  91 121 157 195 235 282
#     4  10  19  32  51  76 104 131 163 203 245 286
#     4  10  19  30  46  71  99 124 155 194 235 278
#     4   8  15  26  42  66  95 126 158 193 232 277
#     4   9  15  25  42  65  94 126 158 191 231 277
#
# _framework density 17.366235
#
# number of rings (size 3 to 8) (size 9 to 14) (size 15 to 20)
#    0.000    2.667    0.000    3.000    0.000    4.333 
#    0.000    0.000    0.000    1.000    0.000    2.333 
#    0.000    0.000    0.000    0.000    0.000    0.000 
#
# Total GULP energy -267278.971610 kJ/mol
# GULP energy per Si atom -5568.311909 kJ/mol
# Density = 1.732671 g / cm^3
# Si number density = 17.366235 Si / 1000 Ang^3
#
#
#
# Elastic Constant Matrix: (Units=GPa)
#
#
# Indices 1 2 3 4 5 6 
#
# 1 38.4902 43.8220 19.6577 0.0000 0.0000 0.0000
# 2 43.8220 208.7573 86.1670 0.0000 0.0000 0.0000
# 3 19.6577 86.1670 51.7009 0.0000 0.0000 0.0000
# 4 0.0000 0.0000 0.0000 -7.5515 0.0000 0.0000
# 5 0.0000 0.0000 0.0000 0.0000 23.2935 0.0000
# 6 0.0000 0.0000 0.0000 0.0000 0.0000 -37.6169
#
#
#
# Elastic Compliance Matrix: (Units=1/GPa)
#
#
# Indices 1 2 3 4 5 6 
#
# 1 0.034319 -0.005826 -0.003339 0.000000 0.000000 0.000000
# 2 -0.005826 0.016339 -0.025016 0.000000 0.000000 0.000000
# 3 -0.003339 -0.025016 0.062304 0.000000 0.000000 0.000000
# 4 0.000000 0.000000 0.000000 -0.132424 0.000000 0.000000
# 5 0.000000 0.000000 0.000000 0.000000 0.042931 0.000000
# 6 0.000000 0.000000 0.000000 0.000000 0.000000 -0.026584
#
#
# Mechanical properties :
#
#
# Convention : Reuss Voigt Hill
#
# Bulk Modulus (GPa) = 22.42140 66.47130 44.44635
# Shear Modulus (GPa) = 62.41236 5.57846 33.99541
#
# Velocity S-wave (km/s) = 6.00141 1.79422 4.42923
# Velocity P-wave (km/s) = 7.80779 6.53082 7.19768
#
# Compressibility (1/GPa) = 0.04460025
#
# Stress axis : x y z
#
# Youngs Moduli (GPa) = 29.13842 61.20428 16.05043
#
# Poissons Ratio (x) = 0.35658 0.05359
# Poissons Ratio (y) = 0.16976 0.40151
# Poissons Ratio (z) = 0.09729 1.53106
#
# Static dielectric constant tensor:
#      x y z
#    x 1.586690 0.000000 0.000000 
#    y 0.000000 1.661000 0.000000 
#    z 0.000000 0.000000 1.541230 
# 
# From -- ./inp_files/6010.got.cif
#   From: 2010.05.17/outbox.cif.g08.bks.cpg/sg51_4_cif.got.tgz:6010.got - 2010.06.03 11:52:47.
