data_PCOD9400549
_publ_section_title
;
Structure prediction by ZEFSAII (Michael W. Deem and Ramdas Pophale) SiO2 
 PCOD9400549
Probable space group: P M M A
;
_chemical_formula_sum "Si O2"
_cell_formula_units_Z 48
_cell_length_a 10.376211
_cell_length_b 28.356094
_cell_length_c 8.664072
_cell_angle_alpha 90.000000
_cell_angle_beta 90.000000
_cell_angle_gamma 90.000000
_cell_volume 2549.219633
_symmetry_space_group_name_H-M "P M M A"
_symmetry_group_IT_number 51
_symmetry_cell_setting 'orthorhombic'
loop_
_space_group_symop_operation_xyz
x,y,z
1/2-x,-y,z
1/2+x,-y,-z
-x,y,-z
-x,-y,-z
1/2+x,y,-z
1/2-x,y,z
x,-y,z
loop_
_atom_site_type_symbol
_atom_site_label
_atom_site_fract_x
_atom_site_fract_y
_atom_site_fract_z
Si Si1 0.102001 0.140651 0.364061
Si Si2 0.250000 0.618421 0.643419
Si Si3 0.750000 0.699269 0.862038
Si Si4 0.017654 0.552740 0.686370
Si Si5 0.602609 0.945951 0.865473
Si Si6 0.982005 0.766886 0.816455
Si Si7 0.750000 0.721835 0.227639
Si Si8 0.250000 0.596509 0.275514
O O1 0.250000 0.143350 0.418505
O O2 0.086893 0.092907 0.265723
O O3 0.072392 0.185718 0.257437
O O4 0.000000 0.140933 0.500000
O O5 0.125214 0.592276 0.713535
O O6 0.250000 0.673699 0.676416
O O7 0.250000 0.609346 0.458909
O O8 0.877010 0.725400 0.797826
O O9 0.750000 0.644909 0.817963
O O10 0.750000 0.706924 0.046617
O O11 0.056948 0.500000 0.734785
O O12 0.000000 0.551225 0.500000
O O13 0.879879 0.567330 0.754168
O O14 0.750000 0.941734 0.924472
O O15 0.586288 0.000000 0.809872
O O16 0.500000 0.937776 0.000000
O O17 0.119599 0.751441 0.747137
O O18 0.000000 0.774026 0.000000
#
# Coordination Sequence:
#
# PCOD9400549 Si02
#       8
#     8   4   4   8   8   8   4   4
#     4  11  24  39  57  86 121 155 190 238 294 343
#     4  10  19  32  50  78 100 133 171 222 269 324
#     4  10  20  37  55  77 107 143 176 228 281 331
#     4   9  17  30  49  74 102 133 173 216 261 318
#     4   9  19  38  63  90 120 157 201 245 286 336
#     4  10  21  39  59  79 105 147 191 235 278 340
#     4  10  22  35  57  81 105 137 186 224 283 337
#     4  10  19  30  52  74 102 135 173 214 269 324
#
# _framework density 18.829291999999999
#
# number of rings (size 3 to 8) (size 9 to 14) (size 15 to 20)
#    0.000    2.167    0.833    2.000    1.167    4.333 
#    0.000    0.000    0.000    3.000    0.000    0.000 
#    0.000    0.000    0.000    0.000    0.000    0.000 
#
# Total GULP energy -267988.932362 kJ/mol
# GULP energy per Si atom -5583.102758 kJ/mol
# Density = 1.878644 g / cm^3
# Si number density = 18.829292 Si / 1000 Ang^3
#
#
#
# Elastic Constant Matrix: (Units=GPa)
#
#
# Indices 1 2 3 4 5 6 
#
# 1 109.6221 31.5717 21.7173 0.0000 0.0000 0.0000
# 2 31.5717 77.6027 20.4566 0.0000 0.0000 0.0000
# 3 21.7173 20.4566 12.7196 0.0000 0.0000 0.0000
# 4 0.0000 0.0000 0.0000 21.5038 0.0000 0.0000
# 5 0.0000 0.0000 0.0000 0.0000 17.3963 0.0000
# 6 0.0000 0.0000 0.0000 0.0000 0.0000 34.1622
#
#
#
# Elastic Compliance Matrix: (Units=1/GPa)
#
#
# Indices 1 2 3 4 5 6 
#
# 1 0.013833 0.001038 -0.025288 0.000000 0.000000 0.000000
# 2 0.001038 0.022448 -0.037875 0.000000 0.000000 0.000000
# 3 -0.025288 -0.037875 0.182709 0.000000 0.000000 0.000000
# 4 0.000000 0.000000 0.000000 0.046503 0.000000 0.000000
# 5 0.000000 0.000000 0.000000 0.000000 0.057484 0.000000
# 6 0.000000 0.000000 0.000000 0.000000 0.000000 0.029272
#
#
# Mechanical properties :
#
#
# Convention : Reuss Voigt Hill
#
# Bulk Modulus (GPa) = 10.55524 38.60397 24.57961
# Shear Modulus (GPa) = 9.84100 23.02571 16.43335
#
# Velocity S-wave (km/s) = 2.28862 3.50074 2.95745
# Velocity P-wave (km/s) = 3.54988 6.07346 4.97436
#
# Compressibility (1/GPa) = 0.09473963
#
# Stress axis : x y z
#
# Youngs Moduli (GPa) = 72.29052 44.54772 5.47319
#
# Poissons Ratio (x) = -0.04626 0.13841
# Poissons Ratio (y) = -0.07506 0.20730
# Poissons Ratio (z) = 1.82810 1.68725
#
# Static dielectric constant tensor:
#      x y z
#    x 1.654370 0.000000 0.000000 
#    y 0.000000 1.621490 0.000000 
#    z 0.000000 0.000000 1.634450 
# 
# From -- ./inp_files/6335.got.cif
#   From: 2010.05.17/outbox.cif.g08.bks.cpg/sg51_4_cif.got.tgz:6335.got - 2010.06.03 11:52:47.
