data_PCOD9400137
_publ_section_title
;
Structure prediction by ZEFSAII (Michael W. Deem and Ramdas Pophale) SiO2 
 PCOD9400137
Probable space group: P M M A
;
_chemical_formula_sum "Si O2"
_cell_formula_units_Z 40
_cell_length_a 34.264822
_cell_length_b 13.718733
_cell_length_c 5.070849
_cell_angle_alpha 90.000000
_cell_angle_beta 90.000000
_cell_angle_gamma 90.000000
_cell_volume 2383.653707
_symmetry_space_group_name_H-M "P M M A"
_symmetry_group_IT_number 51
_symmetry_cell_setting 'orthorhombic'
loop_
_space_group_symop_operation_xyz
x,y,z
1/2-x,-y,z
1/2+x,-y,-z
-x,y,-z
-x,-y,-z
1/2+x,y,-z
1/2-x,y,z
x,-y,z
loop_
_atom_site_type_symbol
_atom_site_label
_atom_site_fract_x
_atom_site_fract_y
_atom_site_fract_z
Si Si1 0.844063 0.383448 0.056658
Si Si2 0.706214 0.616241 0.544301
Si Si3 0.540831 0.614585 0.356704
Si Si4 0.076933 0.295906 0.150242
Si Si5 0.027825 0.887821 0.254263
O O1 0.854901 0.500000 0.068370
O O2 0.810632 0.372581 0.836110
O O3 0.880933 0.320035 0.968453
O O4 0.825435 0.349795 0.331576
O O5 0.750000 0.656309 0.514563
O O6 0.708781 0.500000 0.495125
O O7 0.500000 0.636751 0.500000
O O8 0.542338 0.500000 0.301963
O O9 0.572138 0.643382 0.579494
O O10 0.547798 0.668193 0.081731
O O11 0.063411 0.186841 0.220551
O O12 0.000000 0.861701 0.500000
O O13 0.959229 0.000000 0.710379
O O14 0.000000 0.883417 0.000000
#
# Coordination Sequence:
#
# PCOD9400137 Si02
#       5
#     8   8   8   8   8
#     4  10  19  29  44  68  96 125 155 190 234 281
#     4   9  17  30  46  64  91 127 161 189 221 271
#     4  11  22  33  46  66  95 133 168 193 227 285
#     4  12  21  33  50  70  98 126 160 205 251 286
#     4  10  21  37  55  72  91 122 166 211 252 291
#
# _framework density 16.780961999999999
#
# number of rings (size 3 to 8) (size 9 to 14) (size 15 to 20)
#    0.000    1.600    0.000    7.200    0.000    5.600 
#    0.000    0.000    0.000    0.000    0.000    0.000 
#    0.000    4.800    0.000    0.000    0.000    0.000 
#
# Total GULP energy -223317.730328 kJ/mol
# GULP energy per Si atom -5582.943258 kJ/mol
# Density = 1.674277 g / cm^3
# Si number density = 16.780962 Si / 1000 Ang^3
#
#
#
# Elastic Constant Matrix: (Units=GPa)
#
#
# Indices 1 2 3 4 5 6 
#
# 1 64.3933 24.0515 -9.6156 0.0000 0.0000 0.0000
# 2 24.0515 86.3530 9.6106 0.0000 0.0000 0.0000
# 3 -9.6156 9.6106 70.7625 0.0000 0.0000 0.0000
# 4 0.0000 0.0000 0.0000 7.5675 0.0000 0.0000
# 5 0.0000 0.0000 0.0000 0.0000 6.2187 0.0000
# 6 0.0000 0.0000 0.0000 0.0000 0.0000 11.3667
#
#
#
# Elastic Compliance Matrix: (Units=1/GPa)
#
#
# Indices 1 2 3 4 5 6 
#
# 1 0.018010 -0.005370 0.003177 0.000000 0.000000 0.000000
# 2 -0.005370 0.013359 -0.002544 0.000000 0.000000 0.000000
# 3 0.003177 -0.002544 0.014909 0.000000 0.000000 0.000000
# 4 0.000000 0.000000 0.000000 0.132144 0.000000 0.000000
# 5 0.000000 0.000000 0.000000 0.000000 0.160805 0.000000
# 6 0.000000 0.000000 0.000000 0.000000 0.000000 0.087976
#
#
# Mechanical properties :
#
#
# Convention : Reuss Voigt Hill
#
# Bulk Modulus (GPa) = 27.17151 29.95576 28.56363
# Shear Modulus (GPa) = 11.13722 18.19473 14.66598
#
# Velocity S-wave (km/s) = 2.57900 3.29637 2.95950
# Velocity P-wave (km/s) = 5.00952 5.69015 5.36065
#
# Compressibility (1/GPa) = 0.03680325
#
# Stress axis : x y z
#
# Youngs Moduli (GPa) = 55.52619 74.85537 67.07381
#
# Poissons Ratio (x) = 0.40195 -0.21306
# Poissons Ratio (y) = 0.29816 0.17064
# Poissons Ratio (z) = -0.17638 0.19043
#
# Static dielectric constant tensor:
#      x y z
#    x 1.593630 0.000000 0.000000 
#    y 0.000000 1.560360 0.000000 
#    z 0.000000 0.000000 1.577250 
# 
# From -- ./inp_files/3915.got.cif
#   From: 2010.05.17/outbox.cif.g08.bks.cpg/sg51_2_cif.got.tgz:3915.got - 2010.06.03 11:52:47.
