data_PCOD9400176
_publ_section_title
;
Structure prediction by ZEFSAII (Michael W. Deem and Ramdas Pophale) SiO2 
 PCOD9400176
Probable space group: P M M A
;
_chemical_formula_sum "Si O2"
_cell_formula_units_Z 64
_cell_length_a 29.598703
_cell_length_b 7.398240
_cell_length_c 13.167690
_cell_angle_alpha 90.000000
_cell_angle_beta 90.000000
_cell_angle_gamma 90.000000
_cell_volume 2883.438483
_symmetry_space_group_name_H-M "P M M A"
_symmetry_group_IT_number 51
_symmetry_cell_setting 'orthorhombic'
loop_
_space_group_symop_operation_xyz
x,y,z
1/2-x,-y,z
1/2+x,-y,-z
-x,y,-z
-x,-y,-z
1/2+x,y,-z
1/2-x,y,z
x,-y,z
loop_
_atom_site_type_symbol
_atom_site_label
_atom_site_fract_x
_atom_site_fract_y
_atom_site_fract_z
Si Si1 0.699441 0.707076 0.913097
Si Si2 0.198917 0.783296 0.532877
Si Si3 0.546010 0.279530 0.771846
Si Si4 0.111468 0.285453 0.639927
Si Si5 0.049530 0.279765 0.458236
Si Si6 0.555328 0.720730 0.167814
Si Si7 0.695301 0.793948 0.685173
Si Si8 0.603959 0.721686 0.963085
O O1 0.750000 0.788176 0.921988
O O2 0.703184 0.500000 0.946839
O O3 0.686696 0.704205 0.793065
O O4 0.655809 0.785900 0.968466
O O5 0.250000 0.717974 0.550277
O O6 0.164225 0.743806 0.621956
O O7 0.180550 0.714136 0.423153
O O8 0.201139 0.000000 0.521130
O O9 0.546369 0.500000 0.770563
O O10 0.556321 0.219060 0.657359
O O11 0.495518 0.224372 0.804780
O O12 0.581048 0.221591 0.857718
O O13 0.103700 0.500000 0.641090
O O14 0.085624 0.214305 0.540419
O O15 0.088987 0.217748 0.743001
O O16 0.050928 0.500000 0.456067
O O17 0.000000 0.230752 0.500000
O O18 0.554990 0.500000 0.166334
O O19 0.573747 0.777847 0.058499
O O20 0.750000 0.796352 0.675478
O O21 0.679225 0.000000 0.694216
O O22 0.604910 0.500000 0.962792
#
# Coordination Sequence:
#
# PCOD9400176 Si02
#       8
#     8   8   8   8   8   8   8   8
#     4   9  17  28  42  65  96 123 148 188 241 285
#     4   9  19  35  51  68  95 131 165 195 235 289
#     4   9  15  24  40  62  93 128 160 194 234 283
#     4  10  19  29  48  74 100 127 158 199 242 286
#     4   9  15  25  40  65  99 129 154 188 242 296
#     4   9  16  28  42  63  94 127 161 199 240 278
#     4   8  15  29  47  64  86 119 153 185 225 274
#     4   9  17  26  40  63  92 127 165 196 231 282
#
# _framework density 22.195722
#
# number of rings (size 3 to 8) (size 9 to 14) (size 15 to 20)
#    0.000    3.000    1.250    1.125    1.750    2.250 
#    0.000    1.875    0.000    3.375    0.000    2.625 
#    0.000    2.000    0.000    0.000    0.000    0.000 
#
# Total GULP energy -357189.456154 kJ/mol
# GULP energy per Si atom -5581.085252 kJ/mol
# Density = 2.214520 g / cm^3
# Si number density = 22.195722 Si / 1000 Ang^3
#
#
#
# Elastic Constant Matrix: (Units=GPa)
#
#
# Indices 1 2 3 4 5 6 
#
# 1 91.2610 -2.3289 45.5265 0.0000 0.0000 0.0000
# 2 -2.3289 73.8066 3.7569 0.0000 0.0000 0.0000
# 3 45.5265 3.7569 116.4092 0.0000 0.0000 0.0000
# 4 0.0000 0.0000 0.0000 -15.3669 0.0000 0.0000
# 5 0.0000 0.0000 0.0000 0.0000 22.2300 0.0000
# 6 0.0000 0.0000 0.0000 0.0000 0.0000 45.8166
#
#
#
# Elastic Compliance Matrix: (Units=1/GPa)
#
#
# Indices 1 2 3 4 5 6 
#
# 1 0.013650 0.000704 -0.005361 0.000000 0.000000 0.000000
# 2 0.000704 0.013607 -0.000714 0.000000 0.000000 0.000000
# 3 -0.005361 -0.000714 0.010710 0.000000 0.000000 0.000000
# 4 0.000000 0.000000 0.000000 -0.065075 0.000000 0.000000
# 5 0.000000 0.000000 0.000000 0.000000 0.044984 0.000000
# 6 0.000000 0.000000 0.000000 0.000000 0.000000 0.021826
#
#
# Mechanical properties :
#
#
# Convention : Reuss Voigt Hill
#
# Bulk Modulus (GPa) = 36.73238 41.70954 39.22096
# Shear Modulus (GPa) = 84.00339 26.17075 55.08707
#
# Velocity S-wave (km/s) = 6.15864 3.43751 4.98725
# Velocity P-wave (km/s) = 8.19494 5.88114 7.13249
#
# Compressibility (1/GPa) = 0.02722394
#
# Stress axis : x y z
#
# Youngs Moduli (GPa) = 73.26021 73.48898 93.36976
#
# Poissons Ratio (x) = -0.05171 0.50056
# Poissons Ratio (y) = -0.05155 0.06670
# Poissons Ratio (z) = 0.39275 0.05250
#
# Static dielectric constant tensor:
#      x y z
#    x 1.810460 0.000000 0.000000 
#    y 0.000000 1.844850 0.000000 
#    z 0.000000 0.000000 1.788400 
# 
# From -- ./inp_files/19635.got.cif
#   From: 2010.05.17/outbox.cif.g08.bks.cpg/sg51_10_cif.got.tgz:19635.got - 2010.06.03 11:52:47.
