data_PCOD9400147
_publ_section_title
;
Structure prediction by ZEFSAII (Michael W. Deem and Ramdas Pophale) SiO2 
 PCOD9400147
Probable space group: P M M A
;
_chemical_formula_sum "Si O2"
_cell_formula_units_Z 56
_cell_length_a 9.007211
_cell_length_b 14.016911
_cell_length_c 30.270313
_cell_angle_alpha 90.000000
_cell_angle_beta 90.000000
_cell_angle_gamma 90.000000
_cell_volume 3821.726150
_symmetry_space_group_name_H-M "P M M A"
_symmetry_group_IT_number 51
_symmetry_cell_setting 'orthorhombic'
loop_
_space_group_symop_operation_xyz
x,y,z
1/2-x,-y,z
1/2+x,-y,-z
-x,y,-z
-x,-y,-z
1/2+x,y,-z
1/2-x,y,z
x,-y,z
loop_
_atom_site_type_symbol
_atom_site_label
_atom_site_fract_x
_atom_site_fract_y
_atom_site_fract_z
Si Si1 0.922170 0.615934 0.365724
Si Si2 0.928488 0.784610 0.953710
Si Si3 0.578880 0.383841 0.544911
Si Si4 0.071007 0.299192 0.181383
Si Si5 0.072495 0.389172 0.904438
Si Si6 0.428949 0.613397 0.732708
Si Si7 0.570340 0.893703 0.864782
O O1 0.750000 0.642847 0.369981
O O2 0.927357 0.500000 0.365540
O O3 0.975382 0.644380 0.316839
O O4 0.008107 0.649332 0.409034
O O5 0.750000 0.779077 0.956782
O O6 0.967771 0.857012 0.913954
O O7 0.994686 0.682780 0.938497
O O8 0.000000 0.812889 0.000000
O O9 0.500000 0.351443 0.500000
O O10 0.750000 0.357772 0.543236
O O11 0.568909 0.500000 0.545221
O O12 0.250000 0.307333 0.178947
O O13 0.027176 0.190623 0.168654
O O14 0.997256 0.364242 0.143324
O O15 0.010836 0.331043 0.228616
O O16 0.250000 0.372589 0.903553
O O17 0.046553 0.500000 0.914926
O O18 0.250000 0.624803 0.735898
O O19 0.459083 0.500000 0.737346
O O20 0.750000 0.897300 0.863317
O O21 0.513242 0.000000 0.855933
#
# Coordination Sequence:
#
# PCOD9400147 Si02
#       7
#     8   8   8   8   8   8   8
#     4   8  14  24  35  47  66  95 132 169 203 239
#     4  10  20  33  50  70  90 111 134 163 197 233
#     4   9  15  21  30  44  63  90 126 169 212 247
#     4  10  19  29  45  67  86 106 134 169 204 239
#     4  10  20  33  48  64  85 114 142 167 196 231
#     4   9  17  28  41  57  81 113 141 167 204 247
#     4   8  16  32  50  66  85 108 133 162 198 239
#
# _framework density 14.653065
#
# number of rings (size 3 to 8) (size 9 to 14) (size 15 to 20)
#    0.000    2.857    0.000    3.857    0.000    6.000 
#    0.000    1.429    0.000   15.000    0.000    0.000 
#    0.000    0.000    0.000    0.000    0.000    0.714 
#
# Total GULP energy -311893.556422 kJ/mol
# GULP energy per Si atom -5569.527793 kJ/mol
# Density = 1.461971 g / cm^3
# Si number density = 14.653065 Si / 1000 Ang^3
#
#
#
# Elastic Constant Matrix: (Units=GPa)
#
#
# Indices 1 2 3 4 5 6 
#
# 1 49.1260 18.8577 41.9891 0.0000 0.0000 0.0000
# 2 18.8577 53.6488 23.0283 0.0000 0.0000 0.0000
# 3 41.9891 23.0283 117.4509 0.0000 0.0000 0.0000
# 4 0.0000 0.0000 0.0000 7.8774 0.0000 0.0000
# 5 0.0000 0.0000 0.0000 0.0000 29.9922 0.0000
# 6 0.0000 0.0000 0.0000 0.0000 0.0000 6.9216
#
#
#
# Elastic Compliance Matrix: (Units=1/GPa)
#
#
# Indices 1 2 3 4 5 6 
#
# 1 0.031430 -0.006797 -0.009904 0.000000 0.000000 0.000000
# 2 -0.006797 0.021822 -0.001849 0.000000 0.000000 0.000000
# 3 -0.009904 -0.001849 0.012417 0.000000 0.000000 0.000000
# 4 0.000000 0.000000 0.000000 0.126946 0.000000 0.000000
# 5 0.000000 0.000000 0.000000 0.000000 0.033342 0.000000
# 6 0.000000 0.000000 0.000000 0.000000 0.000000 0.144475
#
#
# Mechanical properties :
#
#
# Convention : Reuss Voigt Hill
#
# Bulk Modulus (GPa) = 35.00028 43.10842 39.05435
# Shear Modulus (GPa) = 11.98886 18.04828 15.01857
#
# Velocity S-wave (km/s) = 2.86349 3.51338 3.20495
# Velocity P-wave (km/s) = 5.90513 6.77803 6.35658
#
# Compressibility (1/GPa) = 0.02857120
#
# Stress axis : x y z
#
# Youngs Moduli (GPa) = 31.81710 45.82452 80.53296
#
# Poissons Ratio (x) = 0.31145 0.79757
# Poissons Ratio (y) = 0.21625 0.14889
# Poissons Ratio (z) = 0.31510 0.08472
#
# Static dielectric constant tensor:
#      x y z
#    x 1.489740 0.000000 0.000000 
#    y 0.000000 1.467200 0.000000 
#    z 0.000000 0.000000 1.492780 
# 
# From -- ./inp_files/37485.got.cif
#   From: 2010.05.17/outbox.cif.g08.bks.cpg/sg51_19_cif.got.tgz:37485.got - 2010.06.03 11:52:47.
