data_PCOD9400929
_publ_section_title
;
Structure prediction by ZEFSAII (Michael W. Deem and Ramdas Pophale) SiO2 
 PCOD9400929
Probable space group: P M M A
;
_chemical_formula_sum "Si O2"
_cell_formula_units_Z 48
_cell_length_a 16.881908
_cell_length_b 28.852003
_cell_length_c 5.117592
_cell_angle_alpha 90.000000
_cell_angle_beta 90.000000
_cell_angle_gamma 90.000000
_cell_volume 2492.660643
_symmetry_space_group_name_H-M "P M M A"
_symmetry_group_IT_number 51
_symmetry_cell_setting 'orthorhombic'
loop_
_space_group_symop_operation_xyz
x,y,z
1/2-x,-y,z
1/2+x,-y,-z
-x,y,-z
-x,-y,-z
1/2+x,y,-z
1/2-x,y,z
x,-y,z
loop_
_atom_site_type_symbol
_atom_site_label
_atom_site_fract_x
_atom_site_fract_y
_atom_site_fract_z
Si Si1 0.089092 0.899346 0.104139
Si Si2 0.442962 0.650690 0.749413
Si Si3 0.154974 0.801899 0.294888
Si Si4 0.557624 0.549735 0.249930
Si Si5 0.155580 0.743257 0.788104
Si Si6 0.658100 0.053847 0.399092
O O1 0.112548 0.848599 0.206715
O O2 0.105140 0.932088 0.353282
O O3 0.140977 0.915341 0.855716
O O4 0.000000 0.900934 0.000000
O O5 0.500000 0.652780 0.500000
O O6 0.401041 0.599922 0.751305
O O7 0.385129 0.694130 0.746825
O O8 0.500000 0.653613 0.000000
O O9 0.250000 0.810729 0.302839
O O10 0.129367 0.781147 0.572966
O O11 0.139579 0.763212 0.075039
O O12 0.500000 0.549725 0.500000
O O13 0.601824 0.500000 0.250173
O O14 0.500000 0.549681 0.000000
O O15 0.250000 0.738432 0.757134
O O16 0.750000 0.059970 0.477101
O O17 0.645317 0.000000 0.330734
#
# Coordination Sequence:
#
# PCOD9400929 Si02
#       6
#     8   8   8   8   8   8
#     4  12  25  40  62  92 120 146 183 237 288 322
#     4  10  19  31  50  76 103 134 173 219 267 313
#     4  10  21  38  58  78 106 146 184 215 259 325
#     4   8  14  25  42  66  96 129 167 210 256 309
#     4  10  21  36  54  76 104 140 178 219 267 318
#     4  11  24  43  66  89 117 156 193 222 265 334
#
# _framework density 19.256533000000001
#
# number of rings (size 3 to 8) (size 9 to 14) (size 15 to 20)
#    0.000    1.833    0.000    4.500    0.000    6.667 
#    0.000    0.000    0.000    0.500    0.000    0.000 
#    0.000   17.333    0.000    0.000    0.000    2.667 
#
# Total GULP energy -267957.633123 kJ/mol
# GULP energy per Si atom -5582.450690 kJ/mol
# Density = 1.921270 g / cm^3
# Si number density = 19.256533 Si / 1000 Ang^3
#
#
#
# Elastic Constant Matrix: (Units=GPa)
#
#
# Indices 1 2 3 4 5 6 
#
# 1 15.7537 19.1363 -1.7597 0.0000 0.0000 0.0000
# 2 19.1363 91.0496 -13.7329 0.0000 0.0000 0.0000
# 3 -1.7597 -13.7329 94.5929 0.0000 0.0000 0.0000
# 4 0.0000 0.0000 0.0000 27.1363 0.0000 0.0000
# 5 0.0000 0.0000 0.0000 0.0000 19.2208 0.0000
# 6 0.0000 0.0000 0.0000 0.0000 0.0000 22.5882
#
#
#
# Elastic Compliance Matrix: (Units=1/GPa)
#
#
# Indices 1 2 3 4 5 6 
#
# 1 0.085339 -0.018093 -0.001039 0.000000 0.000000 0.000000
# 2 -0.018093 0.015065 0.001850 0.000000 0.000000 0.000000
# 3 -0.001039 0.001850 0.010821 0.000000 0.000000 0.000000
# 4 0.000000 0.000000 0.000000 0.036851 0.000000 0.000000
# 5 0.000000 0.000000 0.000000 0.000000 0.052027 0.000000
# 6 0.000000 0.000000 0.000000 0.000000 0.000000 0.044271
#
#
# Mechanical properties :
#
#
# Convention : Reuss Voigt Hill
#
# Bulk Modulus (GPa) = 13.04433 23.18707 18.11570
# Shear Modulus (GPa) = 16.42093 26.97257 21.69675
#
# Velocity S-wave (km/s) = 2.92335 3.74665 3.36031
# Velocity P-wave (km/s) = 4.26419 5.54831 4.94809
#
# Compressibility (1/GPa) = 0.07666165
#
# Stress axis : x y z
#
# Youngs Moduli (GPa) = 11.71804 66.38017 92.41345
#
# Poissons Ratio (x) = 1.20099 0.09603
# Poissons Ratio (y) = 0.21201 -0.17101
# Poissons Ratio (z) = 0.01218 -0.12284
#
# Static dielectric constant tensor:
#      x y z
#    x 1.648600 0.000000 0.000000 
#    y 0.000000 1.711770 0.000000 
#    z 0.000000 0.000000 1.653340 
# 
# From -- ./inp_files/1443.got.cif
#   From: 2010.05.17/outbox.cif.g08.bks.cpg/sg51_1_cif.got.tgz:1443.got - 2010.06.03 11:52:47.
