data_PCOD9400100
_publ_section_title
;
Structure prediction by ZEFSAII (Michael W. Deem and Ramdas Pophale) SiO2 
 PCOD9400100
Probable space group: P M M A
;
_chemical_formula_sum "Si O2"
_cell_formula_units_Z 64
_cell_length_a 8.855224
_cell_length_b 25.624454
_cell_length_c 15.210428
_cell_angle_alpha 90.000000
_cell_angle_beta 90.000000
_cell_angle_gamma 90.000000
_cell_volume 3451.402477
_symmetry_space_group_name_H-M "P M M A"
_symmetry_group_IT_number 51
_symmetry_cell_setting 'orthorhombic'
loop_
_space_group_symop_operation_xyz
x,y,z
1/2-x,-y,z
1/2+x,-y,-z
-x,y,-z
-x,-y,-z
1/2+x,y,-z
1/2-x,y,z
x,-y,z
loop_
_atom_site_type_symbol
_atom_site_label
_atom_site_fract_x
_atom_site_fract_y
_atom_site_fract_z
Si Si1 0.924902 0.306954 0.865808
Si Si2 0.424782 0.338509 0.338473
Si Si3 0.431762 0.442817 0.715774
Si Si4 0.432299 0.769520 0.409018
Si Si5 0.568543 0.060188 0.406215
Si Si6 0.927977 0.412865 0.088992
Si Si7 0.068268 0.150370 0.727988
Si Si8 0.568831 0.186498 0.906227
O O1 0.750000 0.316143 0.892988
O O2 0.931351 0.315611 0.760890
O O3 0.967076 0.248050 0.889960
O O4 0.030989 0.351471 0.905189
O O5 0.250000 0.348462 0.359359
O O6 0.510385 0.393159 0.337736
O O7 0.480675 0.290862 0.397534
O O8 0.250000 0.441173 0.716680
O O9 0.480235 0.500000 0.684025
O O10 0.482983 0.435967 0.817785
O O11 0.500000 0.789983 0.500000
O O12 0.250000 0.772026 0.407955
O O13 0.498702 0.802526 0.328903
O O14 0.500000 0.076699 0.500000
O O15 0.750000 0.061770 0.414091
O O16 0.526479 0.098349 0.326630
O O17 0.522685 0.000000 0.390570
O O18 0.750000 0.420478 0.084773
O O19 0.000000 0.434262 0.000000
O O20 0.250000 0.154540 0.730888
O O21 0.001386 0.154552 0.825423
O O22 0.750000 0.181736 0.906118
O O23 0.500000 0.171363 0.000000
#
# Coordination Sequence:
#
# PCOD9400100 Si02
#       8
#     8   8   8   8   8   8   8   8
#     4   9  17  32  50  69  96 133 173 216 265 314
#     4   9  18  34  53  74 102 134 170 213 263 320
#     4   9  19  34  50  69  93 124 166 215 267 322
#     4  11  22  37  56  84 118 149 180 222 274 335
#     4   9  19  36  58  86 119 154 193 235 279 331
#     4  10  19  29  43  65  92 125 163 209 261 317
#     4  11  22  36  57  85 117 155 193 232 281 332
#     4  11  22  36  53  77 111 151 193 239 282 331
#
# _framework density 18.543187
#
# number of rings (size 3 to 8) (size 9 to 14) (size 15 to 20)
#    0.000    2.125    1.250    2.250    0.000    6.000 
#    0.000    0.000    0.000    0.750    0.000    0.000 
#    0.000    0.000    0.000    0.000    0.000    0.000 
#
# Total GULP energy -357223.852997 kJ/mol
# GULP energy per Si atom -5581.622703 kJ/mol
# Density = 1.850098 g / cm^3
# Si number density = 18.543187 Si / 1000 Ang^3
#
#
#
# Elastic Constant Matrix: (Units=GPa)
#
#
# Indices 1 2 3 4 5 6 
#
# 1 38.1637 35.1468 30.6010 0.0000 0.0000 0.0000
# 2 35.1468 111.5799 52.6373 0.0000 0.0000 0.0000
# 3 30.6010 52.6373 98.5002 0.0000 0.0000 0.0000
# 4 0.0000 0.0000 0.0000 6.8525 0.0000 0.0000
# 5 0.0000 0.0000 0.0000 0.0000 25.3336 0.0000
# 6 0.0000 0.0000 0.0000 0.0000 0.0000 17.9927
#
#
#
# Elastic Compliance Matrix: (Units=1/GPa)
#
#
# Indices 1 2 3 4 5 6 
#
# 1 0.040943 -0.009221 -0.007792 0.000000 0.000000 0.000000
# 2 -0.009221 0.014060 -0.004649 0.000000 0.000000 0.000000
# 3 -0.007792 -0.004649 0.015057 0.000000 0.000000 0.000000
# 4 0.000000 0.000000 0.000000 0.145933 0.000000 0.000000
# 5 0.000000 0.000000 0.000000 0.000000 0.039473 0.000000
# 6 0.000000 0.000000 0.000000 0.000000 0.000000 0.055578
#
#
# Mechanical properties :
#
#
# Convention : Reuss Voigt Hill
#
# Bulk Modulus (GPa) = 37.40216 53.89043 45.64629
# Shear Modulus (GPa) = 13.76352 18.69301 16.22827
#
# Velocity S-wave (km/s) = 2.72737 3.17847 2.96152
# Velocity P-wave (km/s) = 5.48927 6.52652 6.03024
#
# Compressibility (1/GPa) = 0.02673643
#
# Stress axis : x y z
#
# Youngs Moduli (GPa) = 24.42432 71.12559 66.41299
#
# Poissons Ratio (x) = 0.65583 0.51751
# Poissons Ratio (y) = 0.22521 0.30874
# Poissons Ratio (z) = 0.19032 0.33064
#
# Static dielectric constant tensor:
#      x y z
#    x 1.624330 0.000000 0.000000 
#    y 0.000000 1.651480 0.000000 
#    z 0.000000 0.000000 1.654580 
# 
# From -- ./inp_files/22219.got.cif
#   From: 2010.05.17/outbox.cif.g08.bks.cpg/sg51_12_cif.got.tgz:22219.got - 2010.06.03 11:52:47.
