data_PCOD9400155
_publ_section_title
;
Structure prediction by ZEFSAII (Michael W. Deem and Ramdas Pophale) SiO2 
 PCOD9400155
Probable space group: P M M A
;
_chemical_formula_sum "Si O2"
_cell_formula_units_Z 64
_cell_length_a 9.262354
_cell_length_b 20.573185
_cell_length_c 20.064857
_cell_angle_alpha 90.000000
_cell_angle_beta 90.000000
_cell_angle_gamma 90.000000
_cell_volume 3823.481346
_symmetry_space_group_name_H-M "P M M A"
_symmetry_group_IT_number 51
_symmetry_cell_setting 'orthorhombic'
loop_
_space_group_symop_operation_xyz
x,y,z
1/2-x,-y,z
1/2+x,-y,-z
-x,y,-z
-x,-y,-z
1/2+x,y,-z
1/2-x,y,z
x,-y,z
loop_
_atom_site_type_symbol
_atom_site_label
_atom_site_fract_x
_atom_site_fract_y
_atom_site_fract_z
Si Si1 0.579311 0.427108 0.663878
Si Si2 0.080649 0.236039 0.799515
Si Si3 0.583690 0.239474 0.933805
Si Si4 0.922881 0.075805 0.568750
Si Si5 0.577430 0.188162 0.668605
Si Si6 0.080764 0.606711 0.798581
Si Si7 0.916749 0.602070 0.933271
Si Si8 0.922261 0.308653 0.570290
O O1 0.750000 0.416205 0.678031
O O2 0.562523 0.500000 0.637181
O O3 0.492959 0.420656 0.732494
O O4 0.532639 0.372713 0.611311
O O5 0.250000 0.220941 0.803756
O O6 0.067511 0.314629 0.793494
O O7 0.998379 0.218069 0.867328
O O8 0.007806 0.202648 0.735971
O O9 0.750000 0.218792 0.934089
O O10 0.583163 0.318684 0.934224
O O11 0.500000 0.218336 0.000000
O O12 0.750000 0.081560 0.559630
O O13 0.962813 0.122177 0.630024
O O14 0.000000 0.095650 0.500000
O O15 0.957288 0.000000 0.581082
O O16 0.750000 0.187643 0.682125
O O17 0.548604 0.246832 0.617102
O O18 0.250000 0.590658 0.802282
O O19 0.999439 0.584157 0.865500
O O20 0.750000 0.581086 0.933023
O O21 0.000000 0.580801 0.000000
O O22 0.750000 0.311927 0.559610
O O23 0.000000 0.303488 0.500000
#
# Coordination Sequence:
#
# PCOD9400155 Si02
#       8
#     8   8   8   8   8   8   8   8
#     4  10  21  37  54  70  91 122 159 199 245 298
#     4  10  19  29  45  70  98 128 164 205 247 291
#     4   9  16  26  41  63  95 132 166 201 243 290
#     4   9  18  32  50  73 101 134 170 205 244 292
#     4  10  19  32  50  72 100 133 165 201 244 290
#     4  10  19  31  48  70  95 123 158 201 246 293
#     4   9  16  26  43  67  95 126 159 196 238 288
#     4  10  21  35  52  73  96 122 156 196 243 294
#
# _framework density 16.738671
#
# number of rings (size 3 to 8) (size 9 to 14) (size 15 to 20)
#    0.000    2.375    1.250    1.875    0.000    6.000 
#    0.000    0.000    0.000    0.375    0.000    0.000 
#    0.000    0.500    0.000    1.375    0.000    2.000 
#
# Total GULP energy -357180.341991 kJ/mol
# GULP energy per Si atom -5580.942844 kJ/mol
# Density = 1.670057 g / cm^3
# Si number density = 16.738671 Si / 1000 Ang^3
#
#
#
# Elastic Constant Matrix: (Units=GPa)
#
#
# Indices 1 2 3 4 5 6 
#
# 1 91.7124 37.9079 79.2488 0.0000 0.0000 0.0000
# 2 37.9079 52.2577 48.2038 0.0000 0.0000 0.0000
# 3 79.2488 48.2038 155.6894 0.0000 0.0000 0.0000
# 4 0.0000 0.0000 0.0000 611.6221 0.0000 0.0000
# 5 0.0000 0.0000 0.0000 0.0000 38.3279 0.0000
# 6 0.0000 0.0000 0.0000 0.0000 0.0000 59.2992
#
#
#
# Elastic Compliance Matrix: (Units=1/GPa)
#
#
# Indices 1 2 3 4 5 6 
#
# 1 0.021467 -0.007689 -0.008546 0.000000 0.000000 0.000000
# 2 -0.007689 0.029540 -0.005232 0.000000 0.000000 0.000000
# 3 -0.008546 -0.005232 0.012393 0.000000 0.000000 0.000000
# 4 0.000000 0.000000 0.000000 0.001635 0.000000 0.000000
# 5 0.000000 0.000000 0.000000 0.000000 0.026091 0.000000
# 6 0.000000 0.000000 0.000000 0.000000 0.000000 0.016864
#
#
# Mechanical properties :
#
#
# Convention : Reuss Voigt Hill
#
# Bulk Modulus (GPa) = 48.86382 70.04228 59.45305
# Shear Modulus (GPa) = 31.69677 150.80311 91.24994
#
# Velocity S-wave (km/s) = 4.35630 9.50201 7.39140
# Velocity P-wave (km/s) = 7.38639 12.74048 10.41341
#
# Compressibility (1/GPa) = 0.02046504
#
# Stress axis : x y z
#
# Youngs Moduli (GPa) = 46.58417 33.85287 80.68871
#
# Poissons Ratio (x) = 0.26028 0.68960
# Poissons Ratio (y) = 0.35816 0.42219
# Poissons Ratio (z) = 0.39813 0.17713
#
# Static dielectric constant tensor:
#      x y z
#    x 1.558510 0.000000 0.000000 
#    y 0.000000 1.569170 0.000000 
#    z 0.000000 0.000000 1.530190 
# 
# From -- ./inp_files/28377.got.cif
#   From: 2010.05.17/outbox.cif.g08.bks.cpg/sg51_15_cif.got.tgz:28377.got - 2010.06.03 11:52:47.
