data_PCOD9400051
_publ_section_title
;
Structure prediction by ZEFSAII (Michael W. Deem and Ramdas Pophale) SiO2 
 PCOD9400051
Probable space group: P M M A
;
_chemical_formula_sum "Si O2"
_cell_formula_units_Z 64
_cell_length_a 27.061047
_cell_length_b 8.341614
_cell_length_c 15.348614
_cell_angle_alpha 90.000000
_cell_angle_beta 90.000000
_cell_angle_gamma 90.000000
_cell_volume 3464.685745
_symmetry_space_group_name_H-M "P M M A"
_symmetry_group_IT_number 51
_symmetry_cell_setting 'orthorhombic'
loop_
_space_group_symop_operation_xyz
x,y,z
1/2-x,-y,z
1/2+x,-y,-z
-x,y,-z
-x,-y,-z
1/2+x,y,-z
1/2-x,y,z
x,-y,z
loop_
_atom_site_type_symbol
_atom_site_label
_atom_site_fract_x
_atom_site_fract_y
_atom_site_fract_z
Si Si1 0.695218 0.693491 0.900145
Si Si2 0.597592 0.692365 0.001764
Si Si3 0.455907 0.806780 0.164933
Si Si4 0.596343 0.184701 0.370118
Si Si5 0.357561 0.191472 0.266924
Si Si6 0.386045 0.690955 0.439765
Si Si7 0.067893 0.193982 0.808490
Si Si8 0.991780 0.680669 0.602057
O O1 0.750000 0.746062 0.926957
O O2 0.694198 0.500000 0.899294
O O3 0.682627 0.753378 0.803284
O O4 0.650545 0.746978 0.962797
O O5 0.596312 0.500000 0.002684
O O6 0.588176 0.756253 0.097948
O O7 0.556738 0.753340 0.933017
O O8 0.409839 0.748450 0.224031
O O9 0.510218 0.750454 0.194295
O O10 0.456004 0.000000 0.168052
O O11 0.617929 0.260680 0.458830
O O12 0.602361 0.252725 0.272063
O O13 0.536730 0.204883 0.374059
O O14 0.610911 0.000000 0.372288
O O15 0.348645 0.255008 0.364717
O O16 0.359467 0.000000 0.269815
O O17 0.390483 0.500000 0.438430
O O18 0.437728 0.757704 0.399814
O O19 0.067151 0.000000 0.802711
O O20 0.994033 0.500000 0.641905
O O21 0.000000 0.654977 0.500000
#
# Coordination Sequence:
#
# PCOD9400051 Si02
#       8
#     8   8   8   8   8   8   8   8
#     4   9  19  37  57  76 100 125 149 186 240 298
#     4  10  20  32  49  73  95 121 160 201 242 289
#     4   9  18  32  47  65  95 133 166 198 240 288
#     4  10  19  29  42  61  87 124 169 208 239 275
#     4  10  19  31  50  75  99 125 161 200 237 283
#     4  10  19  30  43  62  92 127 160 196 240 283
#     4  10  20  32  45  64  95 135 171 202 241 285
#     4   8  15  26  38  55  82 118 159 200 238 272
#
# _framework density 18.472093999999998
#
# number of rings (size 3 to 8) (size 9 to 14) (size 15 to 20)
#    0.000    2.500    0.000    3.375    0.000    8.000 
#    0.000    0.000    0.000    0.000    0.000    0.875 
#    0.000    3.000    0.000    0.000    0.000    0.000 
#
# Total GULP energy -356321.390594 kJ/mol
# GULP energy per Si atom -5567.521728 kJ/mol
# Density = 1.843005 g / cm^3
# Si number density = 18.472094 Si / 1000 Ang^3
#
#
#
# Elastic Constant Matrix: (Units=GPa)
#
#
# Indices 1 2 3 4 5 6 
#
# 1 40.9208 4.7166 9.7366 0.0000 0.0000 0.0000
# 2 4.7166 12.9129 5.7393 0.0000 0.0000 0.0000
# 3 9.7366 5.7393 108.1916 0.0000 0.0000 0.0000
# 4 0.0000 0.0000 0.0000 26.8396 0.0000 0.0000
# 5 0.0000 0.0000 0.0000 0.0000 8.7447 0.0000
# 6 0.0000 0.0000 0.0000 0.0000 0.0000 11.9798
#
#
#
# Elastic Compliance Matrix: (Units=1/GPa)
#
#
# Indices 1 2 3 4 5 6 
#
# 1 0.025876 -0.008620 -0.001871 0.000000 0.000000 0.000000
# 2 -0.008620 0.082184 -0.003584 0.000000 0.000000 0.000000
# 3 -0.001871 -0.003584 0.009601 0.000000 0.000000 0.000000
# 4 0.000000 0.000000 0.000000 0.037258 0.000000 0.000000
# 5 0.000000 0.000000 0.000000 0.000000 0.114355 0.000000
# 6 0.000000 0.000000 0.000000 0.000000 0.000000 0.083474
#
#
# Mechanical properties :
#
#
# Convention : Reuss Voigt Hill
#
# Bulk Modulus (GPa) = 11.17183 22.49004 16.83093
# Shear Modulus (GPa) = 12.17328 18.96833 15.57080
#
# Velocity S-wave (km/s) = 2.56990 3.20795 2.90649
# Velocity P-wave (km/s) = 3.85577 5.09145 4.51607
#
# Compressibility (1/GPa) = 0.08951088
#
# Stress axis : x y z
#
# Youngs Moduli (GPa) = 38.64539 12.16787 104.15149
#
# Poissons Ratio (x) = 0.10489 0.19492
# Poissons Ratio (y) = 0.33312 0.37327
# Poissons Ratio (z) = 0.07232 0.04361
#
# Static dielectric constant tensor:
#      x y z
#    x 1.710990 0.000000 0.000000 
#    y 0.000000 1.646460 0.000000 
#    z 0.000000 0.000000 1.695530 
# 
# From -- ./inp_files/26572.got.cif
#   From: 2010.05.17/outbox.cif.g08.bks.cpg/sg51_14_cif.got.tgz:26572.got - 2010.06.03 11:52:47.
