data_PCOD9400704
_publ_section_title
;
Structure prediction by ZEFSAII (Michael W. Deem and Ramdas Pophale) SiO2 
 PCOD9400704
Probable space group: P M M A
;
_chemical_formula_sum "Si O2"
_cell_formula_units_Z 64
_cell_length_a 19.378418
_cell_length_b 9.167386
_cell_length_c 21.897593
_cell_angle_alpha 90.000000
_cell_angle_beta 90.000000
_cell_angle_gamma 90.000000
_cell_volume 3890.095087
_symmetry_space_group_name_H-M "P M M A"
_symmetry_group_IT_number 51
_symmetry_cell_setting 'orthorhombic'
loop_
_space_group_symop_operation_xyz
x,y,z
1/2-x,-y,z
1/2+x,-y,-z
-x,y,-z
-x,-y,-z
1/2+x,y,-z
1/2-x,y,z
x,-y,z
loop_
_atom_site_type_symbol
_atom_site_label
_atom_site_fract_x
_atom_site_fract_y
_atom_site_fract_z
Si Si1 0.137371 0.166543 0.767550
Si Si2 0.597185 0.674078 0.351116
Si Si3 0.941691 0.325948 0.694473
Si Si4 0.175867 0.674255 0.888571
Si Si5 0.521556 0.833659 0.813714
Si Si6 0.330549 0.325915 0.407194
Si Si7 0.668257 0.173527 0.464228
Si Si8 0.974482 0.324259 0.067006
O O1 0.139635 0.256134 0.705032
O O2 0.173724 0.246779 0.823404
O O3 0.057151 0.163703 0.788450
O O4 0.160574 0.000000 0.759314
O O5 0.606389 0.500000 0.353102
O O6 0.516355 0.704025 0.336588
O O7 0.622945 0.747527 0.413077
O O8 0.938791 0.500000 0.704875
O O9 0.881309 0.284564 0.647723
O O10 0.937645 0.246173 0.759537
O O11 0.250000 0.706677 0.918564
O O12 0.171997 0.500000 0.878786
O O13 0.106323 0.715706 0.924198
O O14 0.516677 0.748913 0.877745
O O15 0.544352 0.000000 0.822349
O O16 0.250000 0.300073 0.392136
O O17 0.338893 0.500000 0.418214
O O18 0.346868 0.239522 0.469093
O O19 0.750000 0.200076 0.452301
O O20 0.656814 0.000000 0.463285
O O21 0.980297 0.500000 0.072496
O O22 0.000000 0.281319 0.000000
#
# Coordination Sequence:
#
# PCOD9400704 Si02
#       8
#     8   8   8   8   8   8   8   8
#     4   9  17  29  44  64  91 120 151 186 225 271
#     4  10  19  31  48  69  94 124 157 192 232 279
#     4   9  18  32  51  74  97 121 152 194 238 278
#     4   9  17  29  45  66  92 121 155 193 229 268
#     4   9  17  29  47  71  96 121 150 186 227 271
#     4   9  18  34  54  72  91 119 156 196 240 289
#     4  10  21  35  48  64  90 123 158 197 239 284
#     4   9  17  30  49  71  95 126 160 191 227 272
#
# _framework density 16.45204
#
# number of rings (size 3 to 8) (size 9 to 14) (size 15 to 20)
#    0.000    2.750    0.000    1.500    0.000    6.250 
#    0.000    2.500    0.000    0.750    0.000    3.500 
#    0.000    0.000    0.000    0.000    0.000    0.000 
#
# Total GULP energy -356674.898785 kJ/mol
# GULP energy per Si atom -5573.045294 kJ/mol
# Density = 1.641459 g / cm^3
# Si number density = 16.452040 Si / 1000 Ang^3
#
#
#
# Elastic Constant Matrix: (Units=GPa)
#
#
# Indices 1 2 3 4 5 6 
#
# 1 67.3973 41.6105 71.3516 0.0000 0.0000 0.0000
# 2 41.6105 57.9602 68.9888 0.0000 0.0000 0.0000
# 3 71.3516 68.9888 156.2598 0.0000 0.0000 0.0000
# 4 0.0000 0.0000 0.0000 2.5412 0.0000 0.0000
# 5 0.0000 0.0000 0.0000 0.0000 14.3296 0.0000
# 6 0.0000 0.0000 0.0000 0.0000 0.0000 13.0383
#
#
#
# Elastic Compliance Matrix: (Units=1/GPa)
#
#
# Indices 1 2 3 4 5 6 
#
# 1 0.032153 -0.011819 -0.009464 0.000000 0.000000 0.000000
# 2 -0.011819 0.040706 -0.012575 0.000000 0.000000 0.000000
# 3 -0.009464 -0.012575 0.016273 0.000000 0.000000 0.000000
# 4 0.000000 0.000000 0.000000 0.393517 0.000000 0.000000
# 5 0.000000 0.000000 0.000000 0.000000 0.069786 0.000000
# 6 0.000000 0.000000 0.000000 0.000000 0.000000 0.076697
#
#
# Mechanical properties :
#
#
# Convention : Reuss Voigt Hill
#
# Bulk Modulus (GPa) = 46.69220 71.72435 59.20827
# Shear Modulus (GPa) = 7.10241 12.62623 9.86432
#
# Velocity S-wave (km/s) = 2.08000 2.77331 2.45129
# Velocity P-wave (km/s) = 5.84901 7.34477 6.63915
#
# Compressibility (1/GPa) = 0.02141685
#
# Stress axis : x y z
#
# Youngs Moduli (GPa) = 31.10092 24.56654 61.45181
#
# Poissons Ratio (x) = 0.29034 0.58158
# Poissons Ratio (y) = 0.36757 0.77276
# Poissons Ratio (z) = 0.29434 0.30892
#
# Static dielectric constant tensor:
#      x y z
#    x 1.567450 0.000000 0.000000 
#    y 0.000000 1.551370 0.000000 
#    z 0.000000 0.000000 1.519120 
# 
# From -- ./inp_files/30559.got.cif
#   From: 2010.05.17/outbox.cif.g08.bks.cpg/sg51_16_cif.got.tgz:30559.got - 2010.06.03 11:52:47.
