data_PCOD9400830
_publ_section_title
;
Structure prediction by ZEFSAII (Michael W. Deem and Ramdas Pophale) SiO2 
 PCOD9400830
Probable space group: P M M A
;
_chemical_formula_sum "Si O2"
_cell_formula_units_Z 64
_cell_length_a 18.090748
_cell_length_b 9.064767
_cell_length_c 23.435584
_cell_angle_alpha 90.000000
_cell_angle_beta 90.000000
_cell_angle_gamma 90.000000
_cell_volume 3843.164286
_symmetry_space_group_name_H-M "P M M A"
_symmetry_group_IT_number 51
_symmetry_cell_setting 'orthorhombic'
loop_
_space_group_symop_operation_xyz
x,y,z
1/2-x,-y,z
1/2+x,-y,-z
-x,y,-z
-x,-y,-z
1/2+x,y,-z
1/2-x,y,z
x,-y,z
loop_
_atom_site_type_symbol
_atom_site_label
_atom_site_fract_x
_atom_site_fract_y
_atom_site_fract_z
Si Si1 0.335450 0.822410 0.054615
Si Si2 0.469612 0.324582 0.255131
Si Si3 0.835028 0.172253 0.685604
Si Si4 0.475932 0.823453 0.132924
Si Si5 0.457634 0.323291 0.628664
Si Si6 0.334638 0.322651 0.543994
Si Si7 0.593125 0.173241 0.565239
Si Si8 0.072332 0.331178 0.959284
O O1 0.250000 0.782655 0.067770
O O2 0.396871 0.783116 0.102832
O O3 0.338632 0.000000 0.048142
O O4 0.364106 0.746782 0.996413
O O5 0.473072 0.500000 0.246580
O O6 0.390485 0.276399 0.280625
O O7 0.480585 0.242174 0.195899
O O8 0.526681 0.281956 0.305802
O O9 0.750000 0.200810 0.698981
O O10 0.849906 0.190304 0.618084
O O11 0.851798 0.000000 0.699113
O O12 0.542562 0.758464 0.094903
O O13 0.479787 0.000000 0.133698
O O14 0.469124 0.500000 0.624817
O O15 0.378328 0.288093 0.602139
O O16 0.518205 0.245295 0.588802
O O17 0.250000 0.273304 0.545179
O O18 0.336082 0.500000 0.536978
O O19 0.376772 0.251077 0.490869
O O20 0.582282 0.000000 0.554795
O O21 0.091777 0.500000 0.945108
O O22 0.000000 0.334443 0.000000
#
# Coordination Sequence:
#
# PCOD9400830 Si02
#       8
#     8   8   8   8   8   8   8   8
#     4   9  18  32  50  74 104 134 161 192 235 288
#     4  10  20  33  49  69  93 124 164 208 246 281
#     4   9  18  32  47  64  92 128 160 192 235 290
#     4  10  19  32  51  73  98 132 170 203 239 287
#     4   9  19  35  51  68  94 127 162 201 245 294
#     4  10  20  33  50  71  94 122 156 196 246 301
#     4  10  19  31  49  73  98 124 156 195 241 294
#     4   9  17  30  49  73 100 129 162 200 237 273
#
# _framework density 16.652944000000002
#
# number of rings (size 3 to 8) (size 9 to 14) (size 15 to 20)
#    0.000    2.500    0.000    2.250    0.000    6.750 
#    0.000    1.250    0.000    0.750    0.000    1.750 
#    0.000    0.000    0.000    0.000    0.000    0.000 
#
# Total GULP energy -356829.692740 kJ/mol
# GULP energy per Si atom -5575.463949 kJ/mol
# Density = 1.661504 g / cm^3
# Si number density = 16.652944 Si / 1000 Ang^3
#
#
#
# Elastic Constant Matrix: (Units=GPa)
#
#
# Indices 1 2 3 4 5 6 
#
# 1 57.1936 27.4674 55.8927 0.0000 0.0000 0.0000
# 2 27.4674 42.4750 51.6347 0.0000 0.0000 0.0000
# 3 55.8927 51.6347 128.7600 0.0000 0.0000 0.0000
# 4 0.0000 0.0000 0.0000 30.1345 0.0000 0.0000
# 5 0.0000 0.0000 0.0000 0.0000 5.9018 0.0000
# 6 0.0000 0.0000 0.0000 0.0000 0.0000 17.2552
#
#
#
# Elastic Compliance Matrix: (Units=1/GPa)
#
#
# Indices 1 2 3 4 5 6 
#
# 1 0.031488 -0.007310 -0.010737 0.000000 0.000000 0.000000
# 2 -0.007310 0.047634 -0.015929 0.000000 0.000000 0.000000
# 3 -0.010737 -0.015929 0.018815 0.000000 0.000000 0.000000
# 4 0.000000 0.000000 0.000000 0.033185 0.000000 0.000000
# 5 0.000000 0.000000 0.000000 0.000000 0.169439 0.000000
# 6 0.000000 0.000000 0.000000 0.000000 0.000000 0.057954
#
#
# Mechanical properties :
#
#
# Convention : Reuss Voigt Hill
#
# Bulk Modulus (GPa) = 33.34957 55.37980 44.36469
# Shear Modulus (GPa) = 11.45576 16.88723 14.17149
#
# Velocity S-wave (km/s) = 2.62565 3.18790 2.92034
# Velocity P-wave (km/s) = 5.40942 6.84673 6.17007
#
# Compressibility (1/GPa) = 0.02998539
#
# Stress axis : x y z
#
# Youngs Moduli (GPa) = 31.75827 20.99322 53.14926
#
# Poissons Ratio (x) = 0.15346 0.57066
# Poissons Ratio (y) = 0.23215 0.84662
# Poissons Ratio (z) = 0.34099 0.33440
#
# Static dielectric constant tensor:
#      x y z
#    x 1.554180 0.000000 0.000000 
#    y 0.000000 1.561150 0.000000 
#    z 0.000000 0.000000 1.550410 
# 
# From -- ./inp_files/35908.got.cif
#   From: 2010.05.17/outbox.cif.g08.bks.cpg/sg51_18_cif.got.tgz:35908.got - 2010.06.03 11:52:47.
