data_PCOD9400301
_publ_section_title
;
Structure prediction by ZEFSAII (Michael W. Deem and Ramdas Pophale) SiO2 
 PCOD9400301
Probable space group: P M M A
;
_chemical_formula_sum "Si O2"
_cell_formula_units_Z 64
_cell_length_a 18.476604
_cell_length_b 10.193783
_cell_length_c 20.913821
_cell_angle_alpha 90.000000
_cell_angle_beta 90.000000
_cell_angle_gamma 90.000000
_cell_volume 3939.044814
_symmetry_space_group_name_H-M "P M M A"
_symmetry_group_IT_number 51
_symmetry_cell_setting 'orthorhombic'
loop_
_space_group_symop_operation_xyz
x,y,z
1/2-x,-y,z
1/2+x,-y,-z
-x,y,-z
-x,-y,-z
1/2+x,y,-z
1/2-x,y,z
x,-y,z
loop_
_atom_site_type_symbol
_atom_site_label
_atom_site_fract_x
_atom_site_fract_y
_atom_site_fract_z
Si Si1 0.986443 0.647633 0.205228
Si Si2 0.455339 0.850490 0.304519
Si Si3 0.951050 0.346064 0.061153
Si Si4 0.168654 0.749649 0.765231
Si Si5 0.162691 0.346804 0.525785
Si Si6 0.111709 0.148075 0.633594
Si Si7 0.166606 0.855837 0.906242
Si Si8 0.163975 0.847321 0.409507
O O1 0.011750 0.500000 0.216450
O O2 0.989445 0.677252 0.129670
O O3 0.901353 0.657088 0.225760
O O4 0.030143 0.750298 0.247524
O O5 0.526691 0.843611 0.349450
O O6 0.384984 0.824365 0.347262
O O7 0.451760 0.000000 0.280234
O O8 0.931934 0.500000 0.060012
O O9 0.880686 0.256527 0.062636
O O10 0.000000 0.317591 0.000000
O O11 0.250000 0.691153 0.763013
O O12 0.154008 0.828780 0.700266
O O13 0.165334 0.837302 0.829262
O O14 0.250000 0.347809 0.530815
O O15 0.139015 0.500000 0.523574
O O16 0.132696 0.263219 0.585209
O O17 0.144508 0.259916 0.463234
O O18 0.127545 0.000000 0.609634
O O19 0.250000 0.846484 0.925675
O O20 0.138159 0.000000 0.921885
O O21 0.250000 0.836277 0.396904
O O22 0.150646 0.000000 0.430035
#
# Coordination Sequence:
#
# PCOD9400301 Si02
#       8
#     8   8   8   8   8   8   8   8
#     4   9  18  31  48  71  97 125 156 191 230 270
#     4   9  19  34  51  72  95 118 148 190 236 280
#     4   9  18  32  49  70  97 130 166 197 227 272
#     4   9  17  28  44  67  95 127 161 194 225 262
#     4  10  21  34  46  65  94 123 153 192 233 271
#     4  10  19  30  45  65  92 126 158 185 220 271
#     4   9  17  29  46  70  98 125 158 200 239 276
#     4   9  18  35  57  73  85 110 151 194 237 287
#
# _framework density 16.247593999999999
#
# number of rings (size 3 to 8) (size 9 to 14) (size 15 to 20)
#    0.000    2.750    0.000    1.125    0.000    8.750 
#    0.000    5.000    0.000    0.750    0.000    3.500 
#    0.000    0.000    0.000    0.000    0.000    0.000 
#
# Total GULP energy -356464.622615 kJ/mol
# GULP energy per Si atom -5569.759728 kJ/mol
# Density = 1.621061 g / cm^3
# Si number density = 16.247594 Si / 1000 Ang^3
#
#
#
# Elastic Constant Matrix: (Units=GPa)
#
#
# Indices 1 2 3 4 5 6 
#
# 1 47.9352 42.2317 47.3710 0.0000 0.0000 0.0000
# 2 42.2317 117.4023 75.0830 0.0000 0.0000 0.0000
# 3 47.3710 75.0830 87.2020 0.0000 0.0000 0.0000
# 4 0.0000 0.0000 0.0000 17.2733 0.0000 0.0000
# 5 0.0000 0.0000 0.0000 0.0000 20.1984 0.0000
# 6 0.0000 0.0000 0.0000 0.0000 0.0000 18.0566
#
#
#
# Elastic Compliance Matrix: (Units=1/GPa)
#
#
# Indices 1 2 3 4 5 6 
#
# 1 0.045122 -0.001235 -0.023448 0.000000 0.000000 0.000000
# 2 -0.001235 0.018990 -0.015680 0.000000 0.000000 0.000000
# 3 -0.023448 -0.015680 0.037706 0.000000 0.000000 0.000000
# 4 0.000000 0.000000 0.000000 0.057893 0.000000 0.000000
# 5 0.000000 0.000000 0.000000 0.000000 0.049509 0.000000
# 6 0.000000 0.000000 0.000000 0.000000 0.000000 0.055381
#
#
# Mechanical properties :
#
#
# Convention : Reuss Voigt Hill
#
# Bulk Modulus (GPa) = 47.41214 64.65679 56.03446
# Shear Modulus (GPa) = 14.19013 16.96257 15.57635
#
# Velocity S-wave (km/s) = 2.95849 3.23461 3.09963
# Velocity P-wave (km/s) = 6.39645 7.33699 6.88280
#
# Compressibility (1/GPa) = 0.02109165
#
# Stress axis : x y z
#
# Youngs Moduli (GPa) = 22.16215 52.66008 26.52095
#
# Poissons Ratio (x) = 0.06504 0.62187
# Poissons Ratio (y) = 0.02737 0.41584
# Poissons Ratio (z) = 0.51966 0.82569
#
# Static dielectric constant tensor:
#      x y z
#    x 1.538940 0.000000 0.000000 
#    y 0.000000 1.552010 0.000000 
#    z 0.000000 0.000000 1.529210 
# 
# From -- ./inp_files/30618.got.cif
#   From: 2010.05.17/outbox.cif.g08.bks.cpg/sg51_16_cif.got.tgz:30618.got - 2010.06.03 11:52:47.
