data_PCOD9400769
_publ_section_title
;
Structure prediction by ZEFSAII (Michael W. Deem and Ramdas Pophale) SiO2 
 PCOD9400769
Probable space group: P M M A
;
_chemical_formula_sum "Si O2"
_cell_formula_units_Z 64
_cell_length_a 9.362130
_cell_length_b 14.946236
_cell_length_c 30.078357
_cell_angle_alpha 90.000000
_cell_angle_beta 90.000000
_cell_angle_gamma 90.000000
_cell_volume 4208.822519
_symmetry_space_group_name_H-M "P M M A"
_symmetry_group_IT_number 51
_symmetry_cell_setting 'orthorhombic'
loop_
_space_group_symop_operation_xyz
x,y,z
1/2-x,-y,z
1/2+x,-y,-z
-x,y,-z
-x,-y,-z
1/2+x,y,-z
1/2-x,y,z
x,-y,z
loop_
_atom_site_type_symbol
_atom_site_label
_atom_site_fract_x
_atom_site_fract_y
_atom_site_fract_z
Si Si1 0.085012 0.757386 0.700840
Si Si2 0.415610 0.890921 0.955562
Si Si3 0.414056 0.108036 0.131901
Si Si4 0.089457 0.139381 0.458188
Si Si5 0.419761 0.604085 0.636970
Si Si6 0.923516 0.104863 0.223835
Si Si7 0.593661 0.902826 0.375843
Si Si8 0.416351 0.355847 0.455249
O O1 0.250000 0.736711 0.712813
O O2 0.026099 0.667414 0.677410
O O3 0.027709 0.818245 0.741365
O O4 0.083149 0.826477 0.660050
O O5 0.250000 0.862530 0.955762
O O6 0.500302 0.860556 0.911642
O O7 0.414589 0.000000 0.955042
O O8 0.500000 0.863845 0.000000
O O9 0.250000 0.140519 0.133666
O O10 0.502719 0.125167 0.176723
O O11 0.406940 0.000000 0.128277
O O12 0.250000 0.110681 0.463432
O O13 0.083769 0.247627 0.456565
O O14 0.000000 0.108713 0.500000
O O15 0.024235 0.105365 0.412751
O O16 0.250000 0.625322 0.629636
O O17 0.430471 0.500000 0.648945
O O18 0.503504 0.618429 0.590496
O O19 0.750000 0.108172 0.220902
O O20 0.958316 0.000000 0.235658
O O21 0.750000 0.894355 0.397921
O O22 0.587715 0.000000 0.353691
O O23 0.500000 0.386168 0.500000
O O24 0.250000 0.385107 0.455529
#
# Coordination Sequence:
#
# PCOD9400769 Si02
#       8
#     8   8   8   8   8   8   8   8
#     4   9  17  31  49  67  88 110 137 174 209 249
#     4   9  15  22  33  50  74 107 147 189 230 268
#     4   9  16  25  36  53  79 109 143 185 227 263
#     4  10  20  33  49  67  87 112 138 165 199 239
#     4  10  20  34  53  74  93 114 138 166 206 254
#     4   9  16  27  44  63  82 109 145 181 217 255
#     4  10  19  31  49  69  87 111 140 169 204 244
#     4  10  20  34  53  73  92 114 138 165 202 246
#
# _framework density 15.206154
#
# number of rings (size 3 to 8) (size 9 to 14) (size 15 to 20)
#    0.000    2.500    1.250    1.875    0.000    6.500 
#    0.000    1.250    0.000    1.500    0.000    0.000 
#    0.000    0.000    0.000    0.000    0.000    0.625 
#
# Total GULP energy -356371.619509 kJ/mol
# GULP energy per Si atom -5568.306555 kJ/mol
# Density = 1.517154 g / cm^3
# Si number density = 15.206154 Si / 1000 Ang^3
#
#
#
# Elastic Constant Matrix: (Units=GPa)
#
#
# Indices 1 2 3 4 5 6 
#
# 1 82.9356 23.1765 50.6511 0.0000 0.0000 0.0000
# 2 23.1765 60.6220 34.0552 0.0000 0.0000 0.0000
# 3 50.6511 34.0552 112.2810 0.0000 0.0000 0.0000
# 4 0.0000 0.0000 0.0000 4.8055 0.0000 0.0000
# 5 0.0000 0.0000 0.0000 0.0000 21.3998 0.0000
# 6 0.0000 0.0000 0.0000 0.0000 0.0000 8.7865
#
#
#
# Elastic Compliance Matrix: (Units=1/GPa)
#
#
# Indices 1 2 3 4 5 6 
#
# 1 0.016986 -0.002639 -0.006862 0.000000 0.000000 0.000000
# 2 -0.002639 0.020294 -0.004965 0.000000 0.000000 0.000000
# 3 -0.006862 -0.004965 0.013508 0.000000 0.000000 0.000000
# 4 0.000000 0.000000 0.000000 0.208095 0.000000 0.000000
# 5 0.000000 0.000000 0.000000 0.000000 0.046729 0.000000
# 6 0.000000 0.000000 0.000000 0.000000 0.000000 0.113811
#
#
# Mechanical properties :
#
#
# Convention : Reuss Voigt Hill
#
# Bulk Modulus (GPa) = 45.75499 52.40048 49.07774
# Shear Modulus (GPa) = 10.97360 16.86207 13.91784
#
# Velocity S-wave (km/s) = 2.68928 3.33362 3.02864
# Velocity P-wave (km/s) = 6.30857 7.02512 6.67646
#
# Compressibility (1/GPa) = 0.02185554
#
# Stress axis : x y z
#
# Youngs Moduli (GPa) = 58.87236 49.27683 74.03256
#
# Poissons Ratio (x) = 0.13004 0.50802
# Poissons Ratio (y) = 0.15537 0.36754
# Poissons Ratio (z) = 0.40399 0.24464
#
# Static dielectric constant tensor:
#      x y z
#    x 1.524090 0.000000 0.000000 
#    y 0.000000 1.518230 0.000000 
#    z 0.000000 0.000000 1.492630 
# 
# From -- ./inp_files/37671.got.cif
#   From: 2010.05.17/outbox.cif.g08.bks.cpg/sg51_19_cif.got.tgz:37671.got - 2010.06.03 11:52:47.
