data_PCOD9400892
_publ_section_title
;
Structure prediction by ZEFSAII (Michael W. Deem and Ramdas Pophale) SiO2 
 PCOD9400892
Probable space group: P M M A
;
_chemical_formula_sum "Si O2"
_cell_formula_units_Z 64
_cell_length_a 9.201830
_cell_length_b 27.740737
_cell_length_c 13.576570
_cell_angle_alpha 90.000000
_cell_angle_beta 90.000000
_cell_angle_gamma 90.000000
_cell_volume 3465.630553
_symmetry_space_group_name_H-M "P M M A"
_symmetry_group_IT_number 51
_symmetry_cell_setting 'orthorhombic'
loop_
_space_group_symop_operation_xyz
x,y,z
1/2-x,-y,z
1/2+x,-y,-z
-x,y,-z
-x,-y,-z
1/2+x,y,-z
1/2-x,y,z
x,-y,z
loop_
_atom_site_type_symbol
_atom_site_label
_atom_site_fract_x
_atom_site_fract_y
_atom_site_fract_z
Si Si1 0.077024 0.946854 0.202898
Si Si2 0.922026 0.809340 0.296516
Si Si3 0.083957 0.373687 0.761761
Si Si4 0.913302 0.446296 0.414598
Si Si5 0.424884 0.292922 0.605429
Si Si6 0.577529 0.087999 0.396633
Si Si7 0.424351 0.846180 0.103572
Si Si8 0.576580 0.446273 0.894667
O O1 0.250000 0.943383 0.223065
O O2 0.040515 0.901951 0.132571
O O3 0.991808 0.940703 0.305360
O O4 0.047099 0.000000 0.161045
O O5 0.750000 0.808370 0.271378
O O6 0.956440 0.761007 0.356369
O O7 0.946281 0.856058 0.365237
O O8 0.012866 0.816073 0.196158
O O9 0.250000 0.364192 0.797169
O O10 0.090003 0.417011 0.683703
O O11 0.032884 0.328767 0.695208
O O12 0.982048 0.397927 0.842572
O O13 0.750000 0.450382 0.451127
O O14 0.973951 0.500000 0.399204
O O15 0.000000 0.420327 0.500000
O O16 0.500000 0.301563 0.500000
O O17 0.250000 0.298746 0.593452
O O18 0.500000 0.077688 0.500000
O O19 0.750000 0.079375 0.403784
O O20 0.250000 0.841043 0.096803
O O21 0.500000 0.834102 0.000000
O O22 0.750000 0.443832 0.902926
O O23 0.542545 0.500000 0.848972
O O24 0.500000 0.447266 0.000000
#
# Coordination Sequence:
#
# PCOD9400892 Si02
#       8
#     8   8   8   8   8   8   8   8
#     4   9  19  35  52  73 104 139 174 212 256 311
#     4   9  19  36  55  77 105 137 178 224 267 313
#     4  10  20  34  52  76 107 140 173 212 259 309
#     4   9  17  28  43  65  95 131 167 202 241 288
#     4  10  21  36  56  82 112 145 178 216 263 314
#     4  10  19  31  50  74 101 136 177 222 268 314
#     4  10  20  35  57  82 106 135 172 215 263 313
#     4  10  21  37  58  82 106 136 176 221 267 315
#
# _framework density 18.467058000000002
#
# number of rings (size 3 to 8) (size 9 to 14) (size 15 to 20)
#    0.000    2.375    0.000    2.250    0.000    4.500 
#    0.000    1.875    0.000    0.000    0.000    0.000 
#    0.000    0.000    0.000    0.000    0.000    0.000 
#
# Total GULP energy -356597.855966 kJ/mol
# GULP energy per Si atom -5571.841499 kJ/mol
# Density = 1.842503 g / cm^3
# Si number density = 18.467058 Si / 1000 Ang^3
#
#
#
# Elastic Constant Matrix: (Units=GPa)
#
#
# Indices 1 2 3 4 5 6 
#
# 1 44.0957 15.1103 34.3749 0.0000 0.0000 0.0000
# 2 15.1103 79.9353 8.8104 0.0000 0.0000 0.0000
# 3 34.3749 8.8104 68.8624 0.0000 0.0000 0.0000
# 4 0.0000 0.0000 0.0000 19.7152 0.0000 0.0000
# 5 0.0000 0.0000 0.0000 0.0000 33.0044 0.0000
# 6 0.0000 0.0000 0.0000 0.0000 0.0000 20.2569
#
#
#
# Elastic Compliance Matrix: (Units=1/GPa)
#
#
# Indices 1 2 3 4 5 6 
#
# 1 0.039246 -0.005335 -0.018909 0.000000 0.000000 0.000000
# 2 -0.005335 0.013414 0.000947 0.000000 0.000000 0.000000
# 3 -0.018909 0.000947 0.023839 0.000000 0.000000 0.000000
# 4 0.000000 0.000000 0.000000 0.050722 0.000000 0.000000
# 5 0.000000 0.000000 0.000000 0.000000 0.030299 0.000000
# 6 0.000000 0.000000 0.000000 0.000000 0.000000 0.049366
#
#
# Mechanical properties :
#
#
# Convention : Reuss Voigt Hill
#
# Bulk Modulus (GPa) = 33.43713 34.38719 33.91216
# Shear Modulus (GPa) = 18.97902 23.56848 21.27375
#
# Velocity S-wave (km/s) = 3.20929 3.57633 3.39777
# Velocity P-wave (km/s) = 5.64610 5.97618 5.81348
#
# Compressibility (1/GPa) = 0.02990687
#
# Stress axis : x y z
#
# Youngs Moduli (GPa) = 25.48020 74.54793 41.94736
#
# Poissons Ratio (x) = 0.39769 0.79316
# Poissons Ratio (y) = 0.13593 -0.03971
# Poissons Ratio (z) = 0.48179 -0.07058
#
# Static dielectric constant tensor:
#      x y z
#    x 1.636560 0.000000 0.000000 
#    y 0.000000 1.673990 0.000000 
#    z 0.000000 0.000000 1.623820 
# 
# From -- ./inp_files/14832.got.cif
#   From: 2010.05.17/outbox.cif.g08.bks.cpg/sg51_8_cif.got.tgz:14832.got - 2010.06.03 11:52:47.
