data_PCOD9400632
_publ_section_title
;
Structure prediction by ZEFSAII (Michael W. Deem and Ramdas Pophale) SiO2 
 PCOD9400632
Probable space group: P M M A
;
_chemical_formula_sum "Si O2"
_cell_formula_units_Z 52
_cell_length_a 8.839188
_cell_length_b 27.226529
_cell_length_c 14.054980
_cell_angle_alpha 90.000000
_cell_angle_beta 90.000000
_cell_angle_gamma 90.000000
_cell_volume 3382.477227
_symmetry_space_group_name_H-M "P M M A"
_symmetry_group_IT_number 51
_symmetry_cell_setting 'orthorhombic'
loop_
_space_group_symop_operation_xyz
x,y,z
1/2-x,-y,z
1/2+x,-y,-z
-x,y,-z
-x,-y,-z
1/2+x,y,-z
1/2-x,y,z
x,-y,z
loop_
_atom_site_type_symbol
_atom_site_label
_atom_site_fract_x
_atom_site_fract_y
_atom_site_fract_z
Si Si1 0.568219 0.703551 0.279687
Si Si2 0.433040 0.607676 0.606275
Si Si3 0.430652 0.057115 0.896000
Si Si4 0.068854 0.855403 0.219760
Si Si5 0.430663 0.242970 0.104055
Si Si6 0.931959 0.500000 0.394307
Si Si7 0.569156 0.801890 0.395905
O O1 0.750000 0.702611 0.267134
O O2 0.518840 0.652289 0.326249
O O3 0.492639 0.717759 0.180050
O O4 0.533031 0.747949 0.352742
O O5 0.500000 0.613065 0.500000
O O6 0.250000 0.609769 0.598533
O O7 0.475908 0.553438 0.645836
O O8 0.250000 0.063328 0.899965
O O9 0.501617 0.094662 0.821546
O O10 0.463520 0.000000 0.873430
O O11 0.500000 0.067377 0.000000
O O12 0.250000 0.858020 0.225758
O O13 0.028927 0.810580 0.147831
O O14 0.000033 0.840289 0.321096
O O15 0.250000 0.245976 0.099099
O O16 0.500000 0.248823 0.000000
O O17 0.750000 0.500000 0.399573
O O18 0.000000 0.500000 0.500000
O O19 0.500000 0.807074 0.500000
O O20 0.750000 0.806809 0.399131
#
# Coordination Sequence:
#
# PCOD9400632 Si02
#       7
#     8   8   8   8   8   4   8
#     4   9  18  30  44  64  90 120 152 185 223 266
#     4   9  16  26  41  62  89 120 151 184 221 262
#     4  10  20  33  50  73  99 125 153 186 225 268
#     4  10  20  33  50  71  94 122 154 186 223 268
#     4  10  20  32  47  67  91 118 148 183 223 268
#     4   8  14  24  38  58  85 116 149 182 219 262
#     4  10  19  31  47  67  93 123 155 190 225 265
#
# _framework density 15.373348999999999
#
# number of rings (size 3 to 8) (size 9 to 14) (size 15 to 20)
#    0.000    2.462    0.000    2.769    0.000    5.231 
#    0.000    0.000    0.000    0.462    0.000    0.538 
#    0.000    0.000    0.000    0.000    0.000    0.000 
#
# Total GULP energy -289920.215964 kJ/mol
# GULP energy per Si atom -5575.388769 kJ/mol
# Density = 1.533836 g / cm^3
# Si number density = 15.373349 Si / 1000 Ang^3
#
#
#
# Elastic Constant Matrix: (Units=GPa)
#
#
# Indices 1 2 3 4 5 6 
#
# 1 37.4770 46.0211 48.3859 0.0000 0.0000 0.0000
# 2 46.0211 120.7246 79.2973 0.0000 0.0000 0.0000
# 3 48.3859 79.2973 136.1978 0.0000 0.0000 0.0000
# 4 0.0000 0.0000 0.0000 24.4538 0.0000 0.0000
# 5 0.0000 0.0000 0.0000 0.0000 27.9415 0.0000
# 6 0.0000 0.0000 0.0000 0.0000 0.0000 17.6338
#
#
#
# Elastic Compliance Matrix: (Units=1/GPa)
#
#
# Indices 1 2 3 4 5 6 
#
# 1 0.062446 -0.014951 -0.013480 0.000000 0.000000 0.000000
# 2 -0.014951 0.016992 -0.004582 0.000000 0.000000 0.000000
# 3 -0.013480 -0.004582 0.014799 0.000000 0.000000 0.000000
# 4 0.000000 0.000000 0.000000 0.040894 0.000000 0.000000
# 5 0.000000 0.000000 0.000000 0.000000 0.035789 0.000000
# 6 0.000000 0.000000 0.000000 0.000000 0.000000 0.056709
#
#
# Mechanical properties :
#
#
# Convention : Reuss Voigt Hill
#
# Bulk Modulus (GPa) = 35.44583 71.31201 53.37892
# Shear Modulus (GPa) = 16.49846 22.05214 19.27530
#
# Velocity S-wave (km/s) = 3.27951 3.79151 3.54476
# Velocity P-wave (km/s) = 6.11939 8.10277 7.17990
#
# Compressibility (1/GPa) = 0.02821207
#
# Stress axis : x y z
#
# Youngs Moduli (GPa) = 16.01375 58.85080 67.57252
#
# Poissons Ratio (x) = 0.87985 0.91090
# Poissons Ratio (y) = 0.23941 0.30960
# Poissons Ratio (z) = 0.21587 0.26964
#
# Static dielectric constant tensor:
#      x y z
#    x 1.510340 0.000000 0.000000 
#    y 0.000000 1.528740 0.000000 
#    z 0.000000 0.000000 1.471140 
# 
# From -- ./inp_files/14642.got.cif
#   From: 2010.05.17/outbox.cif.g08.bks.cpg/sg51_8_cif.got.tgz:14642.got - 2010.06.03 11:52:47.
