data_PCOD9400924
_publ_section_title
;
Structure prediction by ZEFSAII (Michael W. Deem and Ramdas Pophale) SiO2 
 PCOD9400924
Probable space group: P M M A
;
_chemical_formula_sum "Si O2"
_cell_formula_units_Z 56
_cell_length_a 8.935819
_cell_length_b 19.546512
_cell_length_c 18.716880
_cell_angle_alpha 90.000000
_cell_angle_beta 90.000000
_cell_angle_gamma 90.000000
_cell_volume 3269.166875
_symmetry_space_group_name_H-M "P M M A"
_symmetry_group_IT_number 51
_symmetry_cell_setting 'orthorhombic'
loop_
_space_group_symop_operation_xyz
x,y,z
1/2-x,-y,z
1/2+x,-y,-z
-x,y,-z
-x,-y,-z
1/2+x,y,-z
1/2-x,y,z
x,-y,z
loop_
_atom_site_type_symbol
_atom_site_label
_atom_site_fract_x
_atom_site_fract_y
_atom_site_fract_z
Si Si1 0.927713 0.578106 0.348989
Si Si2 0.072204 0.148331 0.075985
Si Si3 0.427922 0.715268 0.158918
Si Si4 0.429105 0.211828 0.704591
Si Si5 0.571871 0.707681 0.577536
Si Si6 0.071368 0.576942 0.821962
Si Si7 0.070466 0.922449 0.787805
O O1 0.750000 0.590785 0.359614
O O2 0.959774 0.500000 0.371285
O O3 0.955538 0.582126 0.263713
O O4 0.021049 0.634365 0.390665
O O5 0.250000 0.139599 0.072680
O O6 0.040610 0.226900 0.099657
O O7 0.006070 0.101606 0.138935
O O8 0.000000 0.133165 0.000000
O O9 0.250000 0.714275 0.171903
O O10 0.511580 0.741313 0.230294
O O11 0.486686 0.639738 0.141893
O O12 0.250000 0.219538 0.698857
O O13 0.507210 0.236797 0.632864
O O14 0.465849 0.134292 0.728088
O O15 0.500000 0.716399 0.500000
O O16 0.750000 0.711512 0.573878
O O17 0.250000 0.583597 0.832288
O O18 0.026878 0.500000 0.844071
O O19 0.250000 0.919728 0.797919
O O20 0.028355 0.000000 0.769472
#
# Coordination Sequence:
#
# PCOD9400924 Si02
#       7
#     8   8   8   8   8   8   8
#     4   9  18  33  51  72 101 135 172 214 261 313
#     4  10  21  35  52  78 111 144 177 210 250 299
#     4  10  19  31  50  76 102 132 173 218 258 302
#     4  10  19  34  55  77 104 134 168 211 254 303
#     4  12  24  36  52  74 102 137 177 218 262 310
#     4   9  17  29  48  73 100 132 170 213 262 312
#     4   9  19  36  59  85 110 139 171 203 248 304
#
# _framework density 17.129746999999998
#
# number of rings (size 3 to 8) (size 9 to 14) (size 15 to 20)
#    0.000    2.143    1.429    3.429    0.000    3.714 
#    0.000    1.429    0.000    0.857    0.000    0.000 
#    0.000    0.000    0.000    0.000    0.000    0.000 
#
# Total GULP energy -312542.937202 kJ/mol
# GULP energy per Si atom -5581.123879 kJ/mol
# Density = 1.709076 g / cm^3
# Si number density = 17.129747 Si / 1000 Ang^3
#
#
#
# Elastic Constant Matrix: (Units=GPa)
#
#
# Indices 1 2 3 4 5 6 
#
# 1 57.3408 45.4869 25.7970 0.0000 0.0000 0.0000
# 2 45.4869 134.2069 27.4333 0.0000 0.0000 0.0000
# 3 25.7970 27.4333 40.1117 0.0000 0.0000 0.0000
# 4 0.0000 0.0000 0.0000 12.7806 0.0000 0.0000
# 5 0.0000 0.0000 0.0000 0.0000 24.1638 0.0000
# 6 0.0000 0.0000 0.0000 0.0000 0.0000 13.9523
#
#
#
# Elastic Compliance Matrix: (Units=1/GPa)
#
#
# Indices 1 2 3 4 5 6 
#
# 1 0.029382 -0.007087 -0.014050 0.000000 0.000000 0.000000
# 2 -0.007087 0.010371 -0.002536 0.000000 0.000000 0.000000
# 3 -0.014050 -0.002536 0.035700 0.000000 0.000000 0.000000
# 4 0.000000 0.000000 0.000000 0.078244 0.000000 0.000000
# 5 0.000000 0.000000 0.000000 0.000000 0.041384 0.000000
# 6 0.000000 0.000000 0.000000 0.000000 0.000000 0.071673
#
#
# Mechanical properties :
#
#
# Convention : Reuss Voigt Hill
#
# Bulk Modulus (GPa) = 35.57474 47.67709 41.62591
# Shear Modulus (GPa) = 15.45746 19.04214 17.24980
#
# Velocity S-wave (km/s) = 3.00722 3.33775 3.17678
# Velocity P-wave (km/s) = 5.73330 6.53815 6.14891
#
# Compressibility (1/GPa) = 0.02810984
#
# Stress axis : x y z
#
# Youngs Moduli (GPa) = 34.03450 96.41948 28.01090
#
# Poissons Ratio (x) = 0.68328 0.39355
# Poissons Ratio (y) = 0.24119 0.07103
# Poissons Ratio (z) = 0.47818 0.24448
#
# Static dielectric constant tensor:
#      x y z
#    x 1.566870 0.000000 0.000000 
#    y 0.000000 1.601490 0.000000 
#    z 0.000000 0.000000 1.548290 
# 
# From -- ./inp_files/28209.got.cif
#   From: 2010.05.17/outbox.cif.g08.bks.cpg/sg51_15_cif.got.tgz:28209.got - 2010.06.03 11:52:47.
