data_PCOD9400949
_publ_section_title
;
Structure prediction by ZEFSAII (Michael W. Deem and Ramdas Pophale) SiO2 
 PCOD9400949
Probable space group: P M M A
;
_chemical_formula_sum "Si O2"
_cell_formula_units_Z 64
_cell_length_a 29.828908
_cell_length_b 7.537697
_cell_length_c 12.880839
_cell_angle_alpha 90.000000
_cell_angle_beta 90.000000
_cell_angle_gamma 90.000000
_cell_volume 2896.144204
_symmetry_space_group_name_H-M "P M M A"
_symmetry_group_IT_number 51
_symmetry_cell_setting 'orthorhombic'
loop_
_space_group_symop_operation_xyz
x,y,z
1/2-x,-y,z
1/2+x,-y,-z
-x,y,-z
-x,-y,-z
1/2+x,y,-z
1/2-x,y,z
x,-y,z
loop_
_atom_site_type_symbol
_atom_site_label
_atom_site_fract_x
_atom_site_fract_y
_atom_site_fract_z
Si Si1 0.800877 0.206013 0.549444
Si Si2 0.993499 0.716657 0.828008
Si Si3 0.831065 0.284915 0.005061
Si Si4 0.372225 0.785052 0.618185
Si Si5 0.798239 0.208652 0.225779
Si Si6 0.477715 0.709741 0.605227
Si Si7 0.068514 0.284214 0.991932
Si Si8 0.196275 0.702853 0.219068
O O1 0.750000 0.282564 0.539369
O O2 0.840377 0.277292 0.476833
O O3 0.814709 0.214354 0.670094
O O4 0.796861 0.000000 0.520270
O O5 0.993540 0.500000 0.825476
O O6 0.000494 0.781954 0.711564
O O7 0.950334 0.770552 0.895433
O O8 0.035089 0.771424 0.900896
O O9 0.828498 0.500000 0.001386
O O10 0.801659 0.229165 0.102380
O O11 0.881468 0.226056 0.027739
O O12 0.819121 0.218866 0.890211
O O13 0.343296 0.723312 0.718468
O O14 0.423755 0.726805 0.610921
O O15 0.374693 0.000000 0.618093
O O16 0.750000 0.283313 0.261899
O O17 0.797252 0.000000 0.250079
O O18 0.500000 0.783312 0.500000
O O19 0.487625 0.500000 0.605660
O O20 0.068223 0.500000 0.991772
O O21 0.250000 0.700964 0.213662
O O22 0.179641 0.500000 0.223921
#
# Coordination Sequence:
#
# PCOD9400949 Si02
#       8
#     8   8   8   8   8   8   8   8
#     4   9  18  34  55  75  97 132 179 223 261 310
#     4   8  14  27  45  67  95 124 159 199 240 289
#     4  10  19  31  50  77 106 135 169 209 255 306
#     4  10  21  37  56  77 103 137 177 221 269 317
#     4  10  21  36  54  77 107 143 180 218 261 312
#     4  10  21  35  53  78 105 133 168 214 265 318
#     4   8  14  25  45  69  92 124 162 200 239 284
#     4   9  18  31  46  68 100 133 164 206 259 307
#
# _framework density 22.098348000000001
#
# number of rings (size 3 to 8) (size 9 to 14) (size 15 to 20)
#    0.000    2.750    0.000    2.250    0.000    6.000 
#    0.000    3.750    0.000    3.000    0.000    3.500 
#    0.000    0.000    0.000    0.000    0.000    0.000 
#
# Total GULP energy -356995.736318 kJ/mol
# GULP energy per Si atom -5578.058380 kJ/mol
# Density = 2.204805 g / cm^3
# Si number density = 22.098348 Si / 1000 Ang^3
#
#
#
# Elastic Constant Matrix: (Units=GPa)
#
#
# Indices 1 2 3 4 5 6 
#
# 1 91.7947 -5.6590 49.8890 0.0000 0.0000 0.0000
# 2 -5.6590 51.3427 0.0313 0.0000 0.0000 0.0000
# 3 49.8890 0.0313 156.9180 0.0000 0.0000 0.0000
# 4 0.0000 0.0000 0.0000 10.4279 0.0000 0.0000
# 5 0.0000 0.0000 0.0000 0.0000 53.7757 0.0000
# 6 0.0000 0.0000 0.0000 0.0000 0.0000 14.9700
#
#
#
# Elastic Compliance Matrix: (Units=1/GPa)
#
#
# Indices 1 2 3 4 5 6 
#
# 1 0.013279 0.001466 -0.004222 0.000000 0.000000 0.000000
# 2 0.001466 0.019639 -0.000470 0.000000 0.000000 0.000000
# 3 -0.004222 -0.000470 0.007715 0.000000 0.000000 0.000000
# 4 0.000000 0.000000 0.000000 0.095897 0.000000 0.000000
# 5 0.000000 0.000000 0.000000 0.000000 0.018596 0.000000
# 6 0.000000 0.000000 0.000000 0.000000 0.000000 0.066800
#
#
# Mechanical properties :
#
#
# Convention : Reuss Voigt Hill
#
# Bulk Modulus (GPa) = 29.25598 43.17533 36.21565
# Shear Modulus (GPa) = 20.85320 32.88765 26.87043
#
# Velocity S-wave (km/s) = 3.07523 3.86196 3.49083
# Velocity P-wave (km/s) = 5.08695 6.28224 5.71593
#
# Compressibility (1/GPa) = 0.03418104
#
# Stress axis : x y z
#
# Youngs Moduli (GPa) = 75.30758 50.91943 129.61483
#
# Poissons Ratio (x) = -0.07466 0.54724
# Poissons Ratio (y) = -0.11041 0.06093
# Poissons Ratio (z) = 0.31795 0.02394
#
# Static dielectric constant tensor:
#      x y z
#    x 1.776120 0.000000 0.000000 
#    y 0.000000 1.848710 0.000000 
#    z 0.000000 0.000000 1.821720 
# 
# From -- ./inp_files/19527.got.cif
#   From: 2010.05.17/outbox.cif.g08.bks.cpg/sg51_10_cif.got.tgz:19527.got - 2010.06.03 11:52:47.
