data_PCOD9400859
_publ_section_title
;
Structure prediction by ZEFSAII (Michael W. Deem and Ramdas Pophale) SiO2 
 PCOD9400859
Probable space group: P M M A
;
_chemical_formula_sum "Si O2"
_cell_formula_units_Z 40
_cell_length_a 9.162536
_cell_length_b 7.957622
_cell_length_c 30.204437
_cell_angle_alpha 90.000000
_cell_angle_beta 90.000000
_cell_angle_gamma 90.000000
_cell_volume 2202.265852
_symmetry_space_group_name_H-M "P M M A"
_symmetry_group_IT_number 51
_symmetry_cell_setting 'orthorhombic'
loop_
_space_group_symop_operation_xyz
x,y,z
1/2-x,-y,z
1/2+x,-y,-z
-x,y,-z
-x,-y,-z
1/2+x,y,-z
1/2-x,y,z
x,-y,z
loop_
_atom_site_type_symbol
_atom_site_label
_atom_site_fract_x
_atom_site_fract_y
_atom_site_fract_z
Si Si1 0.072294 0.814521 0.107982
Si Si2 0.572103 0.806581 0.388890
Si Si3 0.917381 0.301496 0.797543
Si Si4 0.583042 0.797198 0.290456
Si Si5 0.073191 0.500000 0.547785
Si Si6 0.927151 0.500000 0.952192
O O1 0.250000 0.807504 0.109995
O O2 0.020841 0.785892 0.158451
O O3 0.028025 0.664405 0.075815
O O4 0.029653 0.000000 0.092483
O O5 0.750000 0.809274 0.387176
O O6 0.523401 0.754629 0.339328
O O7 0.530364 0.667014 0.424614
O O8 0.526191 0.000000 0.398066
O O9 0.750000 0.244976 0.791976
O O10 0.917100 0.500000 0.806963
O O11 0.998561 0.267864 0.751936
O O12 0.750000 0.737208 0.288002
O O13 0.584000 0.000000 0.288920
O O14 0.250000 0.500000 0.543914
O O15 0.000000 0.500000 0.500000
O O16 0.750000 0.500000 0.956007
O O17 0.000000 0.500000 0.000000
#
# Coordination Sequence:
#
# PCOD9400859 Si02
#       6
#     8   8   8   8   4   4
#     4   9  17  32  54  75  99 134 170 203 243 296
#     4   8  16  32  52  73  98 130 168 203 240 297
#     4  10  19  31  49  76 106 136 171 207 244 294
#     4   9  18  32  50  74 102 133 171 209 245 294
#     4  10  20  34  53  74  96 126 163 206 255 298
#     4  10  20  36  55  76 100 126 165 210 253 302
#
# _framework density 18.163112999999999
#
# number of rings (size 3 to 8) (size 9 to 14) (size 15 to 20)
#    0.000    2.800    1.000    1.800    1.400    2.400 
#    0.000    2.000    0.000    2.400    0.000    0.000 
#    0.000    0.000    0.000    0.000    0.000    0.000 
#
# Total GULP energy -222932.001745 kJ/mol
# GULP energy per Si atom -5573.300044 kJ/mol
# Density = 1.812177 g / cm^3
# Si number density = 18.163113 Si / 1000 Ang^3
#
#
#
# Elastic Constant Matrix: (Units=GPa)
#
#
# Indices 1 2 3 4 5 6 
#
# 1 14.3770 19.4338 31.2070 0.0000 0.0000 0.0000
# 2 19.4338 121.3045 91.6779 0.0000 0.0000 0.0000
# 3 31.2070 91.6779 165.6596 0.0000 0.0000 0.0000
# 4 0.0000 0.0000 0.0000 -0.1922 0.0000 0.0000
# 5 0.0000 0.0000 0.0000 0.0000 32.7881 0.0000
# 6 0.0000 0.0000 0.0000 0.0000 0.0000 11.5796
#
#
#
# Elastic Compliance Matrix: (Units=1/GPa)
#
#
# Indices 1 2 3 4 5 6 
#
# 1 0.118598 -0.003636 -0.020329 0.000000 0.000000 0.000000
# 2 -0.003636 0.014282 -0.007219 0.000000 0.000000 0.000000
# 3 -0.020329 -0.007219 0.013861 0.000000 0.000000 0.000000
# 4 0.000000 0.000000 0.000000 -5.203679 0.000000 0.000000
# 5 0.000000 0.000000 0.000000 0.000000 0.030499 0.000000
# 6 0.000000 0.000000 0.000000 0.000000 0.000000 0.086359
#
#
# Mechanical properties :
#
#
# Convention : Reuss Voigt Hill
#
# Bulk Modulus (GPa) = 11.85219 65.10873 38.48046
# Shear Modulus (GPa) = -1.03102 19.43660 9.20279
#
# Velocity S-wave (km/s) = -0.75424 3.27481 2.25339
# Velocity P-wave (km/s) = 2.40439 7.08687 5.29173
#
# Compressibility (1/GPa) = 0.08437257
#
# Stress axis : x y z
#
# Youngs Moduli (GPa) = 8.43186 70.01811 72.14417
#
# Poissons Ratio (x) = 0.25458 1.46664
# Poissons Ratio (y) = 0.03066 0.52080
# Poissons Ratio (z) = 0.17141 0.50545
#
# Static dielectric constant tensor:
#      x y z
#    x 1.617020 0.000000 0.000000 
#    y 0.000000 1.647070 0.000000 
#    z 0.000000 0.000000 1.609310 
# 
# From -- ./inp_files/36077.got.cif
#   From: 2010.05.17/outbox.cif.g08.bks.cpg/sg51_19_cif.got.tgz:36077.got - 2010.06.03 11:52:47.
