data_PCOD9400573
_publ_section_title
;
Structure prediction by ZEFSAII (Michael W. Deem and Ramdas Pophale) SiO2 
 PCOD9400573
Probable space group: P M M A
;
_chemical_formula_sum "Si O2"
_cell_formula_units_Z 64
_cell_length_a 27.681343
_cell_length_b 16.618801
_cell_length_c 5.612539
_cell_angle_alpha 90.000000
_cell_angle_beta 90.000000
_cell_angle_gamma 90.000000
_cell_volume 2581.940417
_symmetry_space_group_name_H-M "P M M A"
_symmetry_group_IT_number 51
_symmetry_cell_setting 'orthorhombic'
loop_
_space_group_symop_operation_xyz
x,y,z
1/2-x,-y,z
1/2+x,-y,-z
-x,y,-z
-x,-y,-z
1/2+x,y,-z
1/2-x,y,z
x,-y,z
loop_
_atom_site_type_symbol
_atom_site_label
_atom_site_fract_x
_atom_site_fract_y
_atom_site_fract_z
Si Si1 0.065631 0.887446 0.885363
Si Si2 0.052597 0.318035 0.418736
Si Si3 0.591460 0.706209 0.082440
Si Si4 0.318959 0.092981 0.894553
Si Si5 0.674152 0.901990 0.603233
Si Si6 0.693104 0.321953 0.957314
Si Si7 0.192370 0.588888 0.539172
Si Si8 0.940583 0.126468 0.615163
O O1 0.063235 0.790173 0.891097
O O2 0.122465 0.910118 0.888029
O O3 0.044651 0.911186 0.633472
O O4 0.045165 0.912057 0.137116
O O5 0.086233 0.332834 0.653374
O O6 0.048413 0.221162 0.389644
O O7 0.000000 0.349114 0.500000
O O8 0.070992 0.340881 0.151190
O O9 0.646486 0.732194 0.021690
O O10 0.304419 0.130534 0.642760
O O11 0.302961 0.000000 0.890572
O O12 0.303494 0.126040 0.149314
O O13 0.618053 0.878293 0.609693
O O14 0.676421 0.000000 0.599587
O O15 0.750000 0.298019 0.959715
O O16 0.680628 0.356048 0.692460
O O17 0.687218 0.382442 0.185716
O O18 0.250000 0.582135 0.511350
O O19 0.170285 0.500000 0.510009
#
# Coordination Sequence:
#
# PCOD9400573 Si02
#       8
#     8   8   8   8   8   8   8   8
#     4   8  14  23  35  52  76 106 138 179 225 268
#     4  10  19  31  46  63  87 120 159 202 242 276
#     4  10  19  31  46  67  95 123 157 196 235 282
#     4   8  12  18  29  46  67  93 130 173 216 264
#     4   8  12  18  29  45  65  90 123 165 213 266
#     4  10  19  31  49  74 105 136 160 186 224 271
#     4   9  17  30  49  74 105 137 162 184 215 262
#     4   8  14  23  35  51  71 100 137 177 224 272
#
# _framework density 24.787558000000001
#
# number of rings (size 3 to 8) (size 9 to 14) (size 15 to 20)
#    0.000    3.125    0.000    1.500    0.000    1.500 
#    0.000    0.000    0.000    0.375    0.000    0.000 
#    0.000   56.500    0.000    0.000    0.000  129.500 
#
# Total GULP energy -356595.208922 kJ/mol
# GULP energy per Si atom -5571.800139 kJ/mol
# Density = 2.473114 g / cm^3
# Si number density = 24.787558 Si / 1000 Ang^3
#
#
#
# Elastic Constant Matrix: (Units=GPa)
#
#
# Indices 1 2 3 4 5 6 
#
# 1 105.4861 -7.2638 61.4061 0.0000 0.0000 0.0000
# 2 -7.2638 14.0305 15.4585 0.0000 0.0000 0.0000
# 3 61.4061 15.4585 279.3739 0.0000 0.0000 0.0000
# 4 0.0000 0.0000 0.0000 2.0719 0.0000 0.0000
# 5 0.0000 0.0000 0.0000 0.0000 -76.5891 0.0000
# 6 0.0000 0.0000 0.0000 0.0000 0.0000 -6.7606
#
#
#
# Elastic Compliance Matrix: (Units=1/GPa)
#
#
# Indices 1 2 3 4 5 6 
#
# 1 0.011996 0.009707 -0.003174 0.000000 0.000000 0.000000
# 2 0.009707 0.083756 -0.006768 0.000000 0.000000 0.000000
# 3 -0.003174 -0.006768 0.004652 0.000000 0.000000 0.000000
# 4 0.000000 0.000000 0.000000 0.482637 0.000000 0.000000
# 5 0.000000 0.000000 0.000000 0.000000 -0.013057 0.000000
# 6 0.000000 0.000000 0.000000 0.000000 0.000000 -0.147915
#
#
# Mechanical properties :
#
#
# Convention : Reuss Voigt Hill
#
# Bulk Modulus (GPa) = 10.00658 59.78803 34.89731
# Shear Modulus (GPa) = 10.96853 5.69709 8.33281
#
# Velocity S-wave (km/s) = 2.10585 1.51768 1.83548
# Velocity P-wave (km/s) = 3.15571 5.21955 4.31290
#
# Compressibility (1/GPa) = 0.09993428
#
# Stress axis : x y z
#
# Youngs Moduli (GPa) = 83.36164 11.93943 214.98291
#
# Poissons Ratio (x) = -0.11590 0.68232
# Poissons Ratio (y) = -0.80922 1.45503
# Poissons Ratio (z) = 0.26458 0.08081
#
# Static dielectric constant tensor:
#      x y z
#    x 2.016680 0.000000 0.000000 
#    y 0.000000 1.930730 0.000000 
#    z 0.000000 0.000000 2.060140 
# 
# From -- ./inp_files/3673.got.cif
#   From: 2010.05.17/outbox.cif.g08.bks.cpg/sg51_2_cif.got.tgz:3673.got - 2010.06.03 11:52:47.
