data_PCOD9400524
_publ_section_title
;
Structure prediction by ZEFSAII (Michael W. Deem and Ramdas Pophale) SiO2 
 PCOD9400524
Probable space group: P M M A
;
_chemical_formula_sum "Si O2"
_cell_formula_units_Z 56
_cell_length_a 7.743492
_cell_length_b 16.286581
_cell_length_c 20.390655
_cell_angle_alpha 90.000000
_cell_angle_beta 90.000000
_cell_angle_gamma 90.000000
_cell_volume 2571.567653
_symmetry_space_group_name_H-M "P M M A"
_symmetry_group_IT_number 51
_symmetry_cell_setting 'orthorhombic'
loop_
_space_group_symop_operation_xyz
x,y,z
1/2-x,-y,z
1/2+x,-y,-z
-x,y,-z
-x,-y,-z
1/2+x,y,-z
1/2-x,y,z
x,-y,z
loop_
_atom_site_type_symbol
_atom_site_label
_atom_site_fract_x
_atom_site_fract_y
_atom_site_fract_z
Si Si1 0.953750 0.588318 0.889515
Si Si2 0.041434 0.366715 0.743841
Si Si3 0.547089 0.817759 0.287481
Si Si4 0.046305 0.412518 0.400977
Si Si5 0.544710 0.768285 0.570996
Si Si6 0.042199 0.233465 0.073264
Si Si7 0.452246 0.089943 0.166285
O O1 0.750000 0.587109 0.905132
O O2 0.027962 0.500000 0.911026
O O3 0.028033 0.673918 0.916567
O O4 0.974549 0.595558 0.810970
O O5 0.250000 0.370378 0.743538
O O6 0.984640 0.271495 0.738054
O O7 0.974848 0.408138 0.677616
O O8 0.750000 0.821725 0.275446
O O9 0.517950 0.817098 0.365336
O O10 0.464469 0.887151 0.242829
O O11 0.250000 0.412814 0.416720
O O12 0.970967 0.500000 0.423583
O O13 0.971545 0.325592 0.425398
O O14 0.500000 0.803170 0.500000
O O15 0.750000 0.762667 0.577244
O O16 0.250000 0.238763 0.081666
O O17 0.974170 0.166408 0.124920
O O18 0.000000 0.206286 0.000000
O O19 0.250000 0.086019 0.148968
O O20 0.528604 0.000000 0.153371
#
# Coordination Sequence:
#
# PCOD9400524 Si02
#       7
#     8   8   8   8   8   8   8
#     4  10  20  34  53  76 106 149 195 234 279 335
#     4  10  19  30  48  76 107 140 183 236 287 331
#     4  10  20  35  57  84 114 147 186 232 283 337
#     4   9  18  31  46  67 100 144 190 235 286 341
#     4  10  20  34  53  77 109 150 194 237 285 341
#     4  10  22  39  58  82 116 153 190 233 281 335
#     4  10  21  39  64  91 116 146 185 228 281 344
#
# _framework density 21.776599000000001
#
# number of rings (size 3 to 8) (size 9 to 14) (size 15 to 20)
#    0.000    2.143    1.429    1.714    0.000    6.286 
#    0.000    0.000    0.000    0.429    0.000    0.000 
#    0.000    0.000    0.000    0.000    0.000    0.000 
#
# Total GULP energy -312666.536847 kJ/mol
# GULP energy per Si atom -5583.331015 kJ/mol
# Density = 2.172703 g / cm^3
# Si number density = 21.776599 Si / 1000 Ang^3
#
#
#
# Elastic Constant Matrix: (Units=GPa)
#
#
# Indices 1 2 3 4 5 6 
#
# 1 41.6697 11.5172 -15.8946 0.0000 0.0000 0.0000
# 2 11.5172 126.8350 44.4184 0.0000 0.0000 0.0000
# 3 -15.8946 44.4184 101.6136 0.0000 0.0000 0.0000
# 4 0.0000 0.0000 0.0000 -1.7348 0.0000 0.0000
# 5 0.0000 0.0000 0.0000 0.0000 19.1041 0.0000
# 6 0.0000 0.0000 0.0000 0.0000 0.0000 -1.4240
#
#
#
# Elastic Compliance Matrix: (Units=1/GPa)
#
#
# Indices 1 2 3 4 5 6 
#
# 1 0.027771 -0.004774 0.006431 0.000000 0.000000 0.000000
# 2 -0.004774 0.010130 -0.005175 0.000000 0.000000 0.000000
# 3 0.006431 -0.005175 0.013109 0.000000 0.000000 0.000000
# 4 0.000000 0.000000 0.000000 -0.576448 0.000000 0.000000
# 5 0.000000 0.000000 0.000000 0.000000 0.052345 0.000000
# 6 0.000000 0.000000 0.000000 0.000000 0.000000 -0.702239
#
#
# Mechanical properties :
#
#
# Convention : Reuss Voigt Hill
#
# Bulk Modulus (GPa) = 22.74072 38.91112 30.82592
# Shear Modulus (GPa) = -4.33411 18.52755 7.09672
#
# Velocity S-wave (km/s) = -1.41230 2.92001 1.80719
# Velocity P-wave (km/s) = 2.79392 5.41071 4.30591
#
# Compressibility (1/GPa) = 0.04397398
#
# Stress axis : x y z
#
# Youngs Moduli (GPa) = 36.00927 98.71668 76.28240
#
# Poissons Ratio (x) = 0.47125 -0.49055
# Poissons Ratio (y) = 0.17190 0.39475
# Poissons Ratio (z) = -0.23156 0.51084
#
# Static dielectric constant tensor:
#      x y z
#    x 1.779880 0.000000 0.000000 
#    y 0.000000 1.841010 0.000000 
#    z 0.000000 0.000000 1.777440 
# 
# From -- ./inp_files/32028.got.cif
#   From: 2010.05.17/outbox.cif.g08.bks.cpg/sg51_17_cif.got.tgz:32028.got - 2010.06.03 11:52:47.
