data_PCOD9400707
_publ_section_title
;
Structure prediction by ZEFSAII (Michael W. Deem and Ramdas Pophale) SiO2 
 PCOD9400707
Probable space group: P M M A
;
_chemical_formula_sum "Si O2"
_cell_formula_units_Z 52
_cell_length_a 13.682019
_cell_length_b 31.492708
_cell_length_c 5.288514
_cell_angle_alpha 90.000000
_cell_angle_beta 90.000000
_cell_angle_gamma 90.000000
_cell_volume 2278.735163
_symmetry_space_group_name_H-M "P M M A"
_symmetry_group_IT_number 51
_symmetry_cell_setting 'orthorhombic'
loop_
_space_group_symop_operation_xyz
x,y,z
1/2-x,-y,z
1/2+x,-y,-z
-x,y,-z
-x,-y,-z
1/2+x,y,-z
1/2-x,y,z
x,-y,z
loop_
_atom_site_type_symbol
_atom_site_label
_atom_site_fract_x
_atom_site_fract_y
_atom_site_fract_z
Si Si1 0.564960 0.000000 0.249526
Si Si2 0.635210 0.907775 0.348471
Si Si3 0.433167 0.362394 0.749725
Si Si4 0.568368 0.454283 0.250168
Si Si5 0.630293 0.227972 0.650131
Si Si6 0.869659 0.864748 0.846716
Si Si7 0.135915 0.729367 0.852110
O O1 0.500000 0.000000 0.500000
O O2 0.623628 0.043837 0.262618
O O3 0.500000 0.000000 0.000000
O O4 0.750000 0.898341 0.365207
O O5 0.598467 0.898406 0.631510
O O6 0.596364 0.877362 0.126459
O O7 0.500000 0.360065 0.500000
O O8 0.379746 0.408371 0.745998
O O9 0.372924 0.319323 0.769174
O O10 0.500000 0.362558 0.000000
O O11 0.500000 0.454266 0.500000
O O12 0.621921 0.500000 0.249799
O O13 0.500000 0.454291 0.000000
O O14 0.750000 0.228328 0.635438
O O15 0.602226 0.181591 0.748103
O O16 0.595969 0.240845 0.371229
O O17 0.598409 0.261542 0.865608
O O18 0.750000 0.865100 0.860262
O O19 0.250000 0.740098 0.869729
#
# Coordination Sequence:
#
# PCOD9400707 Si02
#       7
#     4   8   8   8   8   8   8
#     4  12  25  40  57  78 110 144 166 194 243 302
#     4  10  20  36  59  83 103 128 168 212 245 280
#     4  10  19  31  48  69  96 127 161 204 248 291
#     4   8  14  25  42  64  87 115 155 200 243 287
#     4   9  17  30  50  76 101 128 164 204 244 286
#     4   9  17  31  55  82 102 124 164 214 249 276
#     4  10  19  31  49  72 100 132 165 199 239 294
#
# _framework density 22.819676000000001
#
# number of rings (size 3 to 8) (size 9 to 14) (size 15 to 20)
#    0.000    2.462    0.000    3.000    0.000    3.692 
#    0.000    3.077    0.000   18.923    0.000    0.000 
#    0.000   16.000    0.000    0.000    0.000    2.462 
#
# Total GULP energy -290433.918075 kJ/mol
# GULP energy per Si atom -5585.267655 kJ/mol
# Density = 2.276774 g / cm^3
# Si number density = 22.819676 Si / 1000 Ang^3
#
#
#
# Elastic Constant Matrix: (Units=GPa)
#
#
# Indices 1 2 3 4 5 6 
#
# 1 45.3600 -13.6863 23.0036 0.0000 0.0000 0.0000
# 2 -13.6863 116.1063 29.2787 0.0000 0.0000 0.0000
# 3 23.0036 29.2787 170.0956 0.0000 0.0000 0.0000
# 4 0.0000 0.0000 0.0000 41.9025 0.0000 0.0000
# 5 0.0000 0.0000 0.0000 0.0000 28.1144 0.0000
# 6 0.0000 0.0000 0.0000 0.0000 0.0000 6.5386
#
#
#
# Elastic Compliance Matrix: (Units=1/GPa)
#
#
# Indices 1 2 3 4 5 6 
#
# 1 0.025351 0.004028 -0.004122 0.000000 0.000000 0.000000
# 2 0.004028 0.009644 -0.002205 0.000000 0.000000 0.000000
# 3 -0.004122 -0.002205 0.006816 0.000000 0.000000 0.000000
# 4 0.000000 0.000000 0.000000 0.023865 0.000000 0.000000
# 5 0.000000 0.000000 0.000000 0.000000 0.035569 0.000000
# 6 0.000000 0.000000 0.000000 0.000000 0.000000 0.152937
#
#
# Mechanical properties :
#
#
# Convention : Reuss Voigt Hill
#
# Bulk Modulus (GPa) = 26.87194 45.41709 36.14452
# Shear Modulus (GPa) = 18.43769 34.84218 26.63994
#
# Velocity S-wave (km/s) = 2.84557 3.91173 3.42045
# Velocity P-wave (km/s) = 4.75370 6.35201 5.61007
#
# Compressibility (1/GPa) = 0.03721353
#
# Stress axis : x y z
#
# Youngs Moduli (GPa) = 39.44549 103.69643 146.71428
#
# Poissons Ratio (x) = -0.41767 0.60473
# Poissons Ratio (y) = -0.15888 0.32346
# Poissons Ratio (z) = 0.16259 0.22862
#
# Static dielectric constant tensor:
#      x y z
#    x 1.888720 0.000000 0.000000 
#    y 0.000000 1.871690 0.000000 
#    z 0.000000 0.000000 1.833100 
# 
# From -- ./inp_files/2070.got.cif
#   From: 2010.05.17/outbox.cif.g08.bks.cpg/sg51_2_cif.got.tgz:2070.got - 2010.06.03 11:52:47.
