data_PCOD9400486
_publ_section_title
;
Structure prediction by ZEFSAII (Michael W. Deem and Ramdas Pophale) SiO2 
 PCOD9400486
Probable space group: P M M A
;
_chemical_formula_sum "Si O2"
_cell_formula_units_Z 40
_cell_length_a 26.385505
_cell_length_b 8.981086
_cell_length_c 10.081013
_cell_angle_alpha 90.000000
_cell_angle_beta 90.000000
_cell_angle_gamma 90.000000
_cell_volume 2388.902586
_symmetry_space_group_name_H-M "P M M A"
_symmetry_group_IT_number 51
_symmetry_cell_setting 'orthorhombic'
loop_
_space_group_symop_operation_xyz
x,y,z
1/2-x,-y,z
1/2+x,-y,-z
-x,y,-z
-x,-y,-z
1/2+x,y,-z
1/2-x,y,z
x,-y,z
loop_
_atom_site_type_symbol
_atom_site_label
_atom_site_fract_x
_atom_site_fract_y
_atom_site_fract_z
Si Si1 0.308187 0.820767 0.148136
Si Si2 0.107736 0.319655 0.650380
Si Si3 0.504093 0.329159 0.660877
Si Si4 0.392536 0.821993 0.360337
Si Si5 0.691781 0.320784 0.136394
O O1 0.250000 0.779573 0.181745
O O2 0.347937 0.775315 0.260615
O O3 0.310290 0.000000 0.136670
O O4 0.320304 0.749991 0.005831
O O5 0.107319 0.500000 0.636732
O O6 0.114682 0.249698 0.505340
O O7 0.152051 0.275669 0.750828
O O8 0.051732 0.277687 0.704621
O O9 0.500000 0.329600 0.500000
O O10 0.512412 0.500000 0.703318
O O11 0.552823 0.231559 0.693682
O O12 0.392275 0.000000 0.372774
O O13 0.750000 0.280096 0.170117
O O14 0.689478 0.500000 0.124967
#
# Coordination Sequence:
#
# PCOD9400486 Si02
#       5
#     8   8   8   8   8
#     4   9  19  35  50  66  94 128 157 189 233 281
#     4   9  18  32  49  71  98 124 152 190 235 280
#     4   8  15  29  47  66  93 127 155 184 230 280
#     4  10  19  30  48  73  96 121 157 196 229 269
#     4   9  18  33  52  72  93 120 157 197 233 273
#
# _framework density 16.744088999999999
#
# number of rings (size 3 to 8) (size 9 to 14) (size 15 to 20)
#    0.000    3.000    0.000    1.800    0.000    6.800 
#    0.000    1.000    0.000    6.000    0.000    0.000 
#    0.000    0.000    0.000    0.000    0.000    0.000 
#
# Total GULP energy -222818.652065 kJ/mol
# GULP energy per Si atom -5570.466302 kJ/mol
# Density = 1.670598 g / cm^3
# Si number density = 16.744089 Si / 1000 Ang^3
#
#
#
# Elastic Constant Matrix: (Units=GPa)
#
#
# Indices 1 2 3 4 5 6 
#
# 1 158.2708 43.6033 100.5071 0.0000 0.0000 0.0000
# 2 43.6033 21.3293 32.2637 0.0000 0.0000 0.0000
# 3 100.5071 32.2637 90.2643 0.0000 0.0000 0.0000
# 4 0.0000 0.0000 0.0000 23.3558 0.0000 0.0000
# 5 0.0000 0.0000 0.0000 0.0000 -7.9706 0.0000
# 6 0.0000 0.0000 0.0000 0.0000 0.0000 25.0657
#
#
#
# Elastic Compliance Matrix: (Units=1/GPa)
#
#
# Indices 1 2 3 4 5 6 
#
# 1 0.024789 -0.019428 -0.020658 0.000000 0.000000 0.000000
# 2 -0.019428 0.117298 -0.020294 0.000000 0.000000 0.000000
# 3 -0.020658 -0.020294 0.041334 0.000000 0.000000 0.000000
# 4 0.000000 0.000000 0.000000 0.042816 0.000000 0.000000
# 5 0.000000 0.000000 0.000000 0.000000 -0.125460 0.000000
# 6 0.000000 0.000000 0.000000 0.000000 0.000000 0.039895
#
#
# Mechanical properties :
#
#
# Convention : Reuss Voigt Hill
#
# Bulk Modulus (GPa) = 15.95865 69.17919 42.56892
# Shear Modulus (GPa) = 17.71053 14.32285 16.01669
#
# Velocity S-wave (km/s) = 3.25579 2.92789 3.09618
# Velocity P-wave (km/s) = 4.86674 7.26879 6.18549
#
# Compressibility (1/GPa) = 0.06266194
#
# Stress axis : x y z
#
# Youngs Moduli (GPa) = 40.34062 8.52529 24.19315
#
# Poissons Ratio (x) = 0.16563 0.49977
# Poissons Ratio (y) = 0.78374 0.49097
# Poissons Ratio (z) = 0.83334 0.17301
#
# Static dielectric constant tensor:
#      x y z
#    x 1.594480 0.000000 0.000000 
#    y 0.000000 1.564520 0.000000 
#    z 0.000000 0.000000 1.526460 
# 
# From -- ./inp_files/12095.got.cif
#   From: 2010.05.17/outbox.cif.g08.bks.cpg/sg51_7_cif.got.tgz:12095.got - 2010.06.03 11:52:47.
