data_PCOD9400332
_publ_section_title
;
Structure prediction by ZEFSAII (Michael W. Deem and Ramdas Pophale) SiO2 
 PCOD9400332
Probable space group: P M M A
;
_chemical_formula_sum "Si O2"
_cell_formula_units_Z 64
_cell_length_a 32.564426
_cell_length_b 8.587639
_cell_length_c 12.498316
_cell_angle_alpha 90.000000
_cell_angle_beta 90.000000
_cell_angle_gamma 90.000000
_cell_volume 3495.173251
_symmetry_space_group_name_H-M "P M M A"
_symmetry_group_IT_number 51
_symmetry_cell_setting 'orthorhombic'
loop_
_space_group_symop_operation_xyz
x,y,z
1/2-x,-y,z
1/2+x,-y,-z
-x,y,-z
-x,-y,-z
1/2+x,y,-z
1/2-x,y,z
x,-y,z
loop_
_atom_site_type_symbol
_atom_site_label
_atom_site_fract_x
_atom_site_fract_y
_atom_site_fract_z
Si Si1 0.427913 0.189081 0.113106
Si Si2 0.899445 0.813721 0.270954
Si Si3 0.297006 0.312049 0.104936
Si Si4 0.971318 0.673343 0.602833
Si Si5 0.633438 0.686620 0.061231
Si Si6 0.010453 0.820293 0.795690
Si Si7 0.642761 0.814429 0.720109
Si Si8 0.618760 0.319612 0.504077
O O1 0.475166 0.243698 0.124920
O O2 0.398516 0.237924 0.213523
O O3 0.428331 0.000000 0.110399
O O4 0.405014 0.251818 0.008695
O O5 0.868979 0.759727 0.178060
O O6 0.885506 0.754177 0.386952
O O7 0.944712 0.752440 0.232300
O O8 0.902184 0.000000 0.276231
O O9 0.250000 0.260701 0.094826
O O10 0.297640 0.500000 0.111295
O O11 0.319472 0.245882 0.209345
O O12 0.325865 0.267670 0.004843
O O13 0.975252 0.500000 0.653564
O O14 0.985879 0.804356 0.684017
O O15 0.926220 0.691589 0.557060
O O16 0.000000 0.676737 0.500000
O O17 0.631573 0.500000 0.067610
O O18 0.017238 0.000000 0.826749
O O19 0.645391 0.757194 0.598144
O O20 0.641598 0.000000 0.720487
O O21 0.629935 0.500000 0.492083
#
# Coordination Sequence:
#
# PCOD9400332 Si02
#       8
#     8   8   8   8   8   8   8   8
#     4   9  18  33  51  72 102 139 180 226 272 316
#     4  11  23  36  51  72 104 148 192 231 269 314
#     4   9  19  38  64  90 112 135 166 207 261 326
#     4  10  19  30  45  69 100 136 181 233 275 308
#     4  10  21  37  56  78 105 137 176 222 271 324
#     4  10  20  32  48  70  99 141 189 232 272 316
#     4  10  19  32  54  84 114 140 171 214 265 319
#     4  11  21  33  51  75 107 145 182 222 269 317
#
# _framework density 18.310966000000001
#
# number of rings (size 3 to 8) (size 9 to 14) (size 15 to 20)
#    0.000    2.000    2.500    1.500    0.000    3.500 
#    0.000    2.500    0.000    0.750    0.000    1.750 
#    0.000    0.000    0.000    0.000    0.000    0.000 
#
# Total GULP energy -356830.466933 kJ/mol
# GULP energy per Si atom -5575.476046 kJ/mol
# Density = 1.826929 g / cm^3
# Si number density = 18.310966 Si / 1000 Ang^3
#
#
#
# Elastic Constant Matrix: (Units=GPa)
#
#
# Indices 1 2 3 4 5 6 
#
# 1 71.8658 21.3239 46.8015 0.0000 0.0000 0.0000
# 2 21.3239 26.3679 29.0996 0.0000 0.0000 0.0000
# 3 46.8015 29.0996 110.7704 0.0000 0.0000 0.0000
# 4 0.0000 0.0000 0.0000 31.8749 0.0000 0.0000
# 5 0.0000 0.0000 0.0000 0.0000 10.6921 0.0000
# 6 0.0000 0.0000 0.0000 0.0000 0.0000 16.2641
#
#
#
# Elastic Compliance Matrix: (Units=1/GPa)
#
#
# Indices 1 2 3 4 5 6 
#
# 1 0.020948 -0.010102 -0.006197 0.000000 0.000000 0.000000
# 2 -0.010102 0.058280 -0.011042 0.000000 0.000000 0.000000
# 3 -0.006197 -0.011042 0.014547 0.000000 0.000000 0.000000
# 4 0.000000 0.000000 0.000000 0.031373 0.000000 0.000000
# 5 0.000000 0.000000 0.000000 0.000000 0.093527 0.000000
# 6 0.000000 0.000000 0.000000 0.000000 0.000000 0.061485
#
#
# Mechanical properties :
#
#
# Convention : Reuss Voigt Hill
#
# Bulk Modulus (GPa) = 25.57993 44.82823 35.20408
# Shear Modulus (GPa) = 14.37308 19.21817 16.79563
#
# Velocity S-wave (km/s) = 2.80472 3.24318 3.03189
# Velocity P-wave (km/s) = 4.94861 6.20960 5.61461
#
# Compressibility (1/GPa) = 0.03909314
#
# Stress axis : x y z
#
# Youngs Moduli (GPa) = 47.73765 17.15844 68.74385
#
# Poissons Ratio (x) = 0.17333 0.42600
# Poissons Ratio (y) = 0.48223 0.75909
# Poissons Ratio (z) = 0.29583 0.18947
#
# Static dielectric constant tensor:
#      x y z
#    x 1.643300 0.000000 0.000000 
#    y 0.000000 1.655300 0.000000 
#    z 0.000000 0.000000 1.636950 
# 
# From -- ./inp_files/19502.got.cif
#   From: 2010.05.17/outbox.cif.g08.bks.cpg/sg51_10_cif.got.tgz:19502.got - 2010.06.03 11:52:47.
