data_PCOD9400755
_publ_section_title
;
Structure prediction by ZEFSAII (Michael W. Deem and Ramdas Pophale) SiO2 
 PCOD9400755
Probable space group: P M M A
;
_chemical_formula_sum "Si O2"
_cell_formula_units_Z 64
_cell_length_a 20.126590
_cell_length_b 9.047767
_cell_length_c 20.123966
_cell_angle_alpha 90.000000
_cell_angle_beta 90.000000
_cell_angle_gamma 90.000000
_cell_volume 3664.588231
_symmetry_space_group_name_H-M "P M M A"
_symmetry_group_IT_number 51
_symmetry_cell_setting 'orthorhombic'
loop_
_space_group_symop_operation_xyz
x,y,z
1/2-x,-y,z
1/2+x,-y,-z
-x,y,-z
-x,-y,-z
1/2+x,y,-z
1/2-x,y,z
x,-y,z
loop_
_atom_site_type_symbol
_atom_site_label
_atom_site_fract_x
_atom_site_fract_y
_atom_site_fract_z
Si Si1 0.423200 0.170418 0.525355
Si Si2 0.674415 0.825395 0.728404
Si Si3 0.963819 0.325947 0.344311
Si Si4 0.327197 0.822569 0.026651
Si Si5 0.115785 0.673104 0.395358
Si Si6 0.058967 0.177774 0.797881
Si Si7 0.327526 0.676055 0.883628
Si Si8 0.583433 0.179545 0.849940
O O1 0.500000 0.173636 0.500000
O O2 0.422459 0.259247 0.594161
O O3 0.382440 0.244667 0.465817
O O4 0.404696 0.000000 0.535283
O O5 0.750000 0.810018 0.752044
O O6 0.663389 0.742129 0.659654
O O7 0.624329 0.770752 0.785075
O O8 0.661474 0.000000 0.717434
O O9 0.950633 0.500000 0.336214
O O10 0.950511 0.240089 0.276260
O O11 0.041187 0.308784 0.365328
O O12 0.250000 0.796347 0.046569
O O13 0.378205 0.773068 0.083734
O O14 0.334325 0.000000 0.017342
O O15 0.339361 0.741651 0.957162
O O16 0.127719 0.500000 0.404655
O O17 0.123284 0.245894 0.832501
O O18 0.993182 0.220802 0.840339
O O19 0.062570 0.000000 0.796094
O O20 0.250000 0.704801 0.867626
O O21 0.337893 0.500000 0.883608
O O22 0.586410 0.000000 0.850015
#
# Coordination Sequence:
#
# PCOD9400755 Si02
#       8
#     8   8   8   8   8   8   8   8
#     4   9  17  29  49  74 100 133 175 220 262 308
#     4  10  19  32  51  74 105 147 190 227 266 316
#     4  10  19  32  50  76 109 141 173 214 268 320
#     4   9  17  33  57  80 104 139 183 224 261 310
#     4  10  19  31  48  72 105 141 178 222 266 314
#     4  11  21  34  56  82 110 141 176 222 269 319
#     4  10  22  40  58  77 104 137 174 218 271 330
#     4   9  18  32  52  80 110 139 177 225 270 310
#
# _framework density 17.464445000000001
#
# number of rings (size 3 to 8) (size 9 to 14) (size 15 to 20)
#    0.000    2.250    1.250    2.250    0.000    5.500 
#    0.000    4.375    0.000    2.250    0.000    0.000 
#    0.000    0.000    0.000    0.000    0.000    0.000 
#
# Total GULP energy -357063.675751 kJ/mol
# GULP energy per Si atom -5579.119934 kJ/mol
# Density = 1.742470 g / cm^3
# Si number density = 17.464445 Si / 1000 Ang^3
#
#
#
# Elastic Constant Matrix: (Units=GPa)
#
#
# Indices 1 2 3 4 5 6 
#
# 1 60.2399 46.5486 49.5177 0.0000 0.0000 0.0000
# 2 46.5486 72.5071 53.4328 0.0000 0.0000 0.0000
# 3 49.5177 53.4328 98.2403 0.0000 0.0000 0.0000
# 4 0.0000 0.0000 0.0000 -28.5339 0.0000 0.0000
# 5 0.0000 0.0000 0.0000 0.0000 24.6657 0.0000
# 6 0.0000 0.0000 0.0000 0.0000 0.0000 16.0287
#
#
#
# Elastic Compliance Matrix: (Units=1/GPa)
#
#
# Indices 1 2 3 4 5 6 
#
# 1 0.037845 -0.017087 -0.009782 0.000000 0.000000 0.000000
# 2 -0.017087 0.030733 -0.008103 0.000000 0.000000 0.000000
# 3 -0.009782 -0.008103 0.019517 0.000000 0.000000 0.000000
# 4 0.000000 0.000000 0.000000 -0.035046 0.000000 0.000000
# 5 0.000000 0.000000 0.000000 0.000000 0.040542 0.000000
# 6 0.000000 0.000000 0.000000 0.000000 0.000000 0.062388
#
#
# Mechanical properties :
#
#
# Convention : Reuss Voigt Hill
#
# Bulk Modulus (GPa) = 55.09473 58.88729 56.99101
# Shear Modulus (GPa) = 21.55435 7.86465 14.70950
#
# Velocity S-wave (km/s) = 3.51691 2.12438 2.90531
# Velocity P-wave (km/s) = 6.93591 6.30943 6.63007
#
# Compressibility (1/GPa) = 0.01815056
#
# Stress axis : x y z
#
# Youngs Moduli (GPa) = 26.42384 32.53863 51.23849
#
# Poissons Ratio (x) = 0.55600 0.50120
# Poissons Ratio (y) = 0.45151 0.41517
# Poissons Ratio (z) = 0.25847 0.26365
#
# Static dielectric constant tensor:
#      x y z
#    x 1.591820 0.000000 0.000000 
#    y 0.000000 1.581050 0.000000 
#    z 0.000000 0.000000 1.570280 
# 
# From -- ./inp_files/33837.got.cif
#   From: 2010.05.17/outbox.cif.g08.bks.cpg/sg51_17_cif.got.tgz:33837.got - 2010.06.03 11:52:47.
