data_PCOD9400041
_publ_section_title
;
Structure prediction by ZEFSAII (Michael W. Deem and Ramdas Pophale) SiO2 
 PCOD9400041
Probable space group: P M M A
;
_chemical_formula_sum "Si O2"
_cell_formula_units_Z 64
_cell_length_a 9.019107
_cell_length_b 18.749545
_cell_length_c 27.117920
_cell_angle_alpha 90.000000
_cell_angle_beta 90.000000
_cell_angle_gamma 90.000000
_cell_volume 4585.752881
_symmetry_space_group_name_H-M "P M M A"
_symmetry_group_IT_number 51
_symmetry_cell_setting 'orthorhombic'
loop_
_space_group_symop_operation_xyz
x,y,z
1/2-x,-y,z
1/2+x,-y,-z
-x,y,-z
-x,-y,-z
1/2+x,y,-z
1/2-x,y,z
x,-y,z
loop_
_atom_site_type_symbol
_atom_site_label
_atom_site_fract_x
_atom_site_fract_y
_atom_site_fract_z
Si Si1 0.571571 0.417070 0.947890
Si Si2 0.071142 0.331321 0.149045
Si Si3 0.920356 0.704128 0.301083
Si Si4 0.929160 0.156235 0.352932
Si Si5 0.428104 0.418747 0.247262
Si Si6 0.926016 0.915031 0.552636
Si Si7 0.921155 0.796345 0.199618
Si Si8 0.926315 0.916120 0.742455
O O1 0.750000 0.413829 0.951882
O O2 0.532079 0.500000 0.937686
O O3 0.526472 0.367399 0.902335
O O4 0.500000 0.396921 0.000000
O O5 0.250000 0.324196 0.149835
O O6 0.030137 0.384051 0.194409
O O7 0.997840 0.255101 0.159982
O O8 0.750000 0.684672 0.310758
O O9 0.970959 0.761221 0.341850
O O10 0.924046 0.750405 0.250483
O O11 0.012840 0.633804 0.289538
O O12 0.750000 0.151702 0.351996
O O13 0.995291 0.127377 0.403556
O O14 0.994946 0.109730 0.307895
O O15 0.250000 0.419352 0.248876
O O16 0.481584 0.500000 0.251229
O O17 0.750000 0.900934 0.551568
O O18 0.000000 0.898569 0.500000
O O19 0.946027 0.000000 0.561448
O O20 0.750000 0.810720 0.187618
O O21 0.008199 0.868003 0.213547
O O22 0.750000 0.903675 0.737977
O O23 0.951857 0.000000 0.749785
#
# Coordination Sequence:
#
# PCOD9400041 Si02
#       8
#     8   8   8   8   8   8   8   8
#     4   9  17  28  41  58  81 109 141 176 211 245
#     4   9  16  27  42  57  78 109 140 170 206 246
#     4   8  16  28  39  55  79 106 134 164 200 240
#     4  10  19  30  44  61  83 111 142 174 207 243
#     4   9  16  25  39  59  80 104 136 170 202 239
#     4  10  20  32  45  62  84 110 141 175 209 244
#     4   9  17  28  41  58  80 105 135 170 205 242
#     4  10  19  29  42  61  84 110 140 170 201 242
#
# _framework density 13.956268
#
# number of rings (size 3 to 8) (size 9 to 14) (size 15 to 20)
#    0.000    2.750    0.000    3.000    0.000    9.000 
#    0.000    0.000    0.000    2.250    0.000    0.000 
#    0.000    1.000    0.000    3.250    0.000    4.375 
#
# Total GULP energy -356518.339931 kJ/mol
# GULP energy per Si atom -5570.599061 kJ/mol
# Density = 1.392450 g / cm^3
# Si number density = 13.956268 Si / 1000 Ang^3
#
#
#
# Elastic Constant Matrix: (Units=GPa)
#
#
# Indices 1 2 3 4 5 6 
#
# 1 53.4092 54.1086 42.3469 0.0000 0.0000 0.0000
# 2 54.1086 106.7451 64.0860 0.0000 0.0000 0.0000
# 3 42.3469 64.0860 95.5321 0.0000 0.0000 0.0000
# 4 0.0000 0.0000 0.0000 27.4807 0.0000 0.0000
# 5 0.0000 0.0000 0.0000 0.0000 21.7622 0.0000
# 6 0.0000 0.0000 0.0000 0.0000 0.0000 20.0699
#
#
#
# Elastic Compliance Matrix: (Units=1/GPa)
#
#
# Indices 1 2 3 4 5 6 
#
# 1 0.041191 -0.016605 -0.007120 0.000000 0.000000 0.000000
# 2 -0.016605 0.022379 -0.007652 0.000000 0.000000 0.000000
# 3 -0.007120 -0.007652 0.018757 0.000000 0.000000 0.000000
# 4 0.000000 0.000000 0.000000 0.036389 0.000000 0.000000
# 5 0.000000 0.000000 0.000000 0.000000 0.045951 0.000000
# 6 0.000000 0.000000 0.000000 0.000000 0.000000 0.049826
#
#
# Mechanical properties :
#
#
# Convention : Reuss Voigt Hill
#
# Bulk Modulus (GPa) = 51.08979 64.08548 57.58764
# Shear Modulus (GPa) = 17.61981 20.20553 18.91267
#
# Velocity S-wave (km/s) = 3.55702 3.80909 3.68521
# Velocity P-wave (km/s) = 7.31823 8.08480 7.71105
#
# Compressibility (1/GPa) = 0.01957338
#
# Stress axis : x y z
#
# Youngs Moduli (GPa) = 24.27721 44.68433 53.31375
#
# Poissons Ratio (x) = 0.74199 0.37957
# Poissons Ratio (y) = 0.40313 0.40796
# Poissons Ratio (z) = 0.17284 0.34193
#
# Static dielectric constant tensor:
#      x y z
#    x 1.469920 0.000000 0.000000 
#    y 0.000000 1.456910 0.000000 
#    z 0.000000 0.000000 1.438070 
# 
# From -- ./inp_files/36413.got.cif
#   From: 2010.05.17/outbox.cif.g08.bks.cpg/sg51_19_cif.got.tgz:36413.got - 2010.06.03 11:52:47.
