data_PCOD9400025
_publ_section_title
;
Structure prediction by ZEFSAII (Michael W. Deem and Ramdas Pophale) SiO2 
 PCOD9400025
Probable space group: P M M A
;
_chemical_formula_sum "Si O2"
_cell_formula_units_Z 44
_cell_length_a 8.551582
_cell_length_b 24.719843
_cell_length_c 14.643207
_cell_angle_alpha 90.000000
_cell_angle_beta 90.000000
_cell_angle_gamma 90.000000
_cell_volume 3095.482651
_symmetry_space_group_name_H-M "P M M A"
_symmetry_group_IT_number 51
_symmetry_cell_setting 'orthorhombic'
loop_
_space_group_symop_operation_xyz
x,y,z
1/2-x,-y,z
1/2+x,-y,-z
-x,y,-z
-x,-y,-z
1/2+x,y,-z
1/2-x,y,z
x,-y,z
loop_
_atom_site_type_symbol
_atom_site_label
_atom_site_fract_x
_atom_site_fract_y
_atom_site_fract_z
Si Si1 0.562979 0.562728 0.099070
Si Si2 0.561094 0.058260 0.395736
Si Si3 0.561155 0.500000 0.602689
Si Si4 0.061112 0.394142 0.284448
Si Si5 0.937410 0.288730 0.603626
Si Si6 0.062151 0.824684 0.604250
O O1 0.750000 0.563521 0.097923
O O2 0.511082 0.500000 0.113894
O O3 0.501056 0.598109 0.182511
O O4 0.500000 0.579480 0.000000
O O5 0.500000 0.058150 0.500000
O O6 0.750000 0.058460 0.398140
O O7 0.514161 0.116690 0.355092
O O8 0.511138 0.000000 0.354982
O O9 0.750000 0.500000 0.600699
O O10 0.500000 0.500000 0.500000
O O11 0.509614 0.553725 0.656522
O O12 0.250000 0.394508 0.281848
O O13 0.011051 0.339297 0.334951
O O14 0.750000 0.288149 0.599075
O O15 0.000000 0.294800 0.500000
O O16 0.994896 0.231100 0.642727
O O17 0.250000 0.821347 0.603350
O O18 0.000000 0.825557 0.500000
#
# Coordination Sequence:
#
# PCOD9400025 Si02
#       6
#     8   8   4   8   8   8
#     4  10  20  33  51  71  87 104 125 156 198 245
#     4   8  13  20  30  45  64  87 119 159 200 236
#     4  10  20  32  45  60  81 106 133 168 204 238
#     4  10  20  33  47  62  82 107 134 167 204 241
#     4  10  19  29  41  57  78 107 139 171 204 238
#     4   9  15  23  35  49  68  96 128 164 201 236
#
# _framework density 14.214261
#
# number of rings (size 3 to 8) (size 9 to 14) (size 15 to 20)
#    0.000    2.545    0.909    3.273    0.000    3.636 
#    0.000    0.000    0.000    0.000    0.000    0.000 
#    0.000    0.000    0.000    0.000    0.000    0.909 
#
# Total GULP energy -244948.006385 kJ/mol
# GULP energy per Si atom -5567.000145 kJ/mol
# Density = 1.418191 g / cm^3
# Si number density = 14.214261 Si / 1000 Ang^3
#
#
#
# Elastic Constant Matrix: (Units=GPa)
#
#
# Indices 1 2 3 4 5 6 
#
# 1 20.9865 27.0466 13.4271 0.0000 0.0000 0.0000
# 2 27.0466 161.7768 52.2739 0.0000 0.0000 0.0000
# 3 13.4271 52.2739 68.6358 0.0000 0.0000 0.0000
# 4 0.0000 0.0000 0.0000 1.5928 0.0000 0.0000
# 5 0.0000 0.0000 0.0000 0.0000 18.2124 0.0000
# 6 0.0000 0.0000 0.0000 0.0000 0.0000 15.4823
#
#
#
# Elastic Compliance Matrix: (Units=1/GPa)
#
#
# Indices 1 2 3 4 5 6 
#
# 1 0.062344 -0.008598 -0.005648 0.000000 0.000000 0.000000
# 2 -0.008598 0.009385 -0.005466 0.000000 0.000000 0.000000
# 3 -0.005648 -0.005466 0.019837 0.000000 0.000000 0.000000
# 4 0.000000 0.000000 0.000000 0.627815 0.000000 0.000000
# 5 0.000000 0.000000 0.000000 0.000000 0.054908 0.000000
# 6 0.000000 0.000000 0.000000 0.000000 0.000000 0.064590
#
#
# Mechanical properties :
#
#
# Convention : Reuss Voigt Hill
#
# Bulk Modulus (GPa) = 19.17797 48.54380 33.86088
# Shear Modulus (GPa) = 5.58234 17.63427 11.60830
#
# Velocity S-wave (km/s) = 1.98389 3.52604 2.86084
# Velocity P-wave (km/s) = 4.33233 7.12762 5.89797
#
# Compressibility (1/GPa) = 0.05214317
#
# Stress axis : x y z
#
# Youngs Moduli (GPa) = 16.04002 106.55426 50.41023
#
# Poissons Ratio (x) = 0.91615 0.28471
# Poissons Ratio (y) = 0.13791 0.27552
# Poissons Ratio (z) = 0.09059 0.58239
#
# Static dielectric constant tensor:
#      x y z
#    x 1.484250 0.000000 0.000000 
#    y 0.000000 1.535380 0.000000 
#    z 0.000000 0.000000 1.417390 
# 
# From -- ./inp_files/21969.got.cif
#   From: 2010.05.17/outbox.cif.g08.bks.cpg/sg51_11_cif.got.tgz:21969.got - 2010.06.03 11:52:47.
