data_PCOD9400847
_publ_section_title
;
Structure prediction by ZEFSAII (Michael W. Deem and Ramdas Pophale) SiO2 
 PCOD9400847
Probable space group: P M M A
;
_chemical_formula_sum "Si O2"
_cell_formula_units_Z 64
_cell_length_a 20.048197
_cell_length_b 9.041679
_cell_length_c 20.715297
_cell_angle_alpha 90.000000
_cell_angle_beta 90.000000
_cell_angle_gamma 90.000000
_cell_volume 3755.048667
_symmetry_space_group_name_H-M "P M M A"
_symmetry_group_IT_number 51
_symmetry_cell_setting 'orthorhombic'
loop_
_space_group_symop_operation_xyz
x,y,z
1/2-x,-y,z
1/2+x,-y,-z
-x,y,-z
-x,-y,-z
1/2+x,y,-z
1/2-x,y,z
x,-y,z
loop_
_atom_site_type_symbol
_atom_site_label
_atom_site_fract_x
_atom_site_fract_y
_atom_site_fract_z
Si Si1 0.063713 0.821385 0.733790
Si Si2 0.828153 0.821613 0.894197
Si Si3 0.415964 0.820014 0.227751
Si Si4 0.672290 0.822013 0.161119
Si Si5 0.169010 0.669671 0.972030
Si Si6 0.049501 0.677702 0.595638
Si Si7 0.174278 0.822337 0.347380
Si Si8 0.598103 0.322727 0.541677
O O1 0.124618 0.777614 0.780095
O O2 0.067584 0.754343 0.662398
O O3 0.992928 0.775600 0.765495
O O4 0.063558 0.000000 0.728747
O O5 0.750000 0.782643 0.881921
O O6 0.875890 0.772490 0.835897
O O7 0.830743 0.000000 0.898618
O O8 0.849956 0.752820 0.962303
O O9 0.375859 0.770954 0.291384
O O10 0.414513 0.000000 0.227262
O O11 0.750000 0.781606 0.172166
O O12 0.648883 0.750762 0.093808
O O13 0.669381 0.000000 0.154784
O O14 0.250000 0.671188 0.971590
O O15 0.146750 0.500000 0.972685
O O16 0.053554 0.500000 0.602469
O O17 0.093589 0.721386 0.533379
O O18 0.973389 0.713109 0.574694
O O19 0.250000 0.784679 0.329836
O O20 0.153655 0.753906 0.415425
O O21 0.169272 0.000000 0.351361
O O22 0.605305 0.500000 0.543816
#
# Coordination Sequence:
#
# PCOD9400847 Si02
#       8
#     8   8   8   8   8   8   8   8
#     4  10  19  32  52  76  99 127 162 203 247 293
#     4   9  16  28  48  70  94 128 164 197 236 282
#     4   9  17  30  47  71 100 129 164 200 238 289
#     4   9  18  33  52  73  96 123 158 200 248 301
#     4   9  17  30  49  72  96 123 160 203 242 286
#     4   9  18  33  52  72  96 127 164 204 245 290
#     4  10  19  31  49  74 104 134 165 206 249 287
#     4   9  18  33  51  71  96 129 168 205 241 288
#
# _framework density 17.043721000000001
#
# number of rings (size 3 to 8) (size 9 to 14) (size 15 to 20)
#    0.000    2.750    1.250    1.500    0.000    4.250 
#    0.000    3.750    0.000    7.500    0.000    0.000 
#    0.000    0.000    0.000    0.000    0.000    0.000 
#
# Total GULP energy -356654.993542 kJ/mol
# GULP energy per Si atom -5572.734274 kJ/mol
# Density = 1.700493 g / cm^3
# Si number density = 17.043721 Si / 1000 Ang^3
#
#
#
# Elastic Constant Matrix: (Units=GPa)
#
#
# Indices 1 2 3 4 5 6 
#
# 1 78.4255 23.4751 67.5911 0.0000 0.0000 0.0000
# 2 23.4751 12.4207 35.9217 0.0000 0.0000 0.0000
# 3 67.5911 35.9217 167.6091 0.0000 0.0000 0.0000
# 4 0.0000 0.0000 0.0000 -435.1398 0.0000 0.0000
# 5 0.0000 0.0000 0.0000 0.0000 29.2927 0.0000
# 6 0.0000 0.0000 0.0000 0.0000 0.0000 13.0828
#
#
#
# Elastic Compliance Matrix: (Units=1/GPa)
#
#
# Indices 1 2 3 4 5 6 
#
# 1 0.029363 -0.055898 0.000139 0.000000 0.000000 0.000000
# 2 -0.055898 0.318184 -0.045651 0.000000 0.000000 0.000000
# 3 0.000139 -0.045651 0.015694 0.000000 0.000000 0.000000
# 4 0.000000 0.000000 0.000000 -0.002298 0.000000 0.000000
# 5 0.000000 0.000000 0.000000 0.000000 0.034138 0.000000
# 6 0.000000 0.000000 0.000000 0.000000 0.000000 0.076436
#
#
# Mechanical properties :
#
#
# Convention : Reuss Voigt Hill
#
# Bulk Modulus (GPa) = 6.23359 56.93680 31.58519
# Shear Modulus (GPa) = 6.86991 -69.78838 -31.45923
#
# Velocity S-wave (km/s) = 2.00985 -6.40590 -4.30093
# Velocity P-wave (km/s) = 3.00855 4.60817 2.46819
#
# Compressibility (1/GPa) = 0.16042122
#
# Stress axis : x y z
#
# Youngs Moduli (GPa) = 34.05603 3.14284 63.71804
#
# Poissons Ratio (x) = 0.17568 -0.00884
# Poissons Ratio (y) = 1.90366 2.90878
# Poissons Ratio (z) = -0.00472 0.14347
#
# Static dielectric constant tensor:
#      x y z
#    x 1.575830 0.000000 0.000000 
#    y 0.000000 1.569330 0.000000 
#    z 0.000000 0.000000 1.562040 
# 
# From -- ./inp_files/30648.got.cif
#   From: 2010.05.17/outbox.cif.g08.bks.cpg/sg51_16_cif.got.tgz:30648.got - 2010.06.03 11:52:47.
