data_PCOD9400740
_publ_section_title
;
Structure prediction by ZEFSAII (Michael W. Deem and Ramdas Pophale) SiO2 
 PCOD9400740
Probable space group: P M M A
;
_chemical_formula_sum "Si O2"
_cell_formula_units_Z 56
_cell_length_a 16.252095
_cell_length_b 13.258703
_cell_length_c 12.922450
_cell_angle_alpha 90.000000
_cell_angle_beta 90.000000
_cell_angle_gamma 90.000000
_cell_volume 2784.551504
_symmetry_space_group_name_H-M "P M M A"
_symmetry_group_IT_number 51
_symmetry_cell_setting 'orthorhombic'
loop_
_space_group_symop_operation_xyz
x,y,z
1/2-x,-y,z
1/2+x,-y,-z
-x,y,-z
-x,-y,-z
1/2+x,y,-z
1/2-x,y,z
x,-y,z
loop_
_atom_site_type_symbol
_atom_site_label
_atom_site_fract_x
_atom_site_fract_y
_atom_site_fract_z
Si Si1 0.900870 0.612745 0.007167
Si Si2 0.843259 0.108757 0.509314
Si Si3 0.422839 0.884721 0.077623
Si Si4 0.150577 0.294514 0.207159
Si Si5 0.046165 0.282412 0.399302
Si Si6 0.428992 0.887402 0.693083
Si Si7 0.341941 0.186389 0.889450
O O1 0.878665 0.500000 0.040541
O O2 0.863510 0.635692 0.893706
O O3 0.869220 0.699839 0.083175
O O4 0.000000 0.619071 0.000000
O O5 0.750000 0.112198 0.542862
O O6 0.890347 0.203117 0.552438
O O7 0.852387 0.111416 0.385765
O O8 0.879145 0.000000 0.541787
O O9 0.396823 0.808905 0.169583
O O10 0.433923 0.000000 0.110100
O O11 0.500000 0.856477 0.000000
O O12 0.348078 0.872823 0.997151
O O13 0.250000 0.281752 0.224018
O O14 0.099725 0.334462 0.307778
O O15 0.000000 0.332526 0.500000
O O16 0.981146 0.207827 0.344697
O O17 0.401164 0.866580 0.808440
O O18 0.466001 0.000000 0.684595
O O19 0.250000 0.186239 0.848799
#
# Coordination Sequence:
#
# PCOD9400740 Si02
#       7
#     8   8   8   8   8   8   8
#     4  10  21  39  62  84 108 137 169 208 256 316
#     4   9  17  29  45  68  98 134 180 229 272 312
#     4  10  20  33  49  71 105 146 182 218 262 315
#     4  11  22  35  54  81 110 140 179 224 270 320
#     4  10  20  34  51  70  99 139 183 226 271 316
#     4  10  19  31  48  71 104 147 189 222 256 306
#     4  11  21  32  50  76 106 138 173 213 256 307
#
# _framework density 20.110958
#
# number of rings (size 3 to 8) (size 9 to 14) (size 15 to 20)
#    0.000    1.857    0.000    6.857    0.000    7.714 
#    0.000    0.000    0.000    0.429    0.000    3.000 
#    0.000   10.286    0.000    0.000    0.000    0.000 
#
# Total GULP energy -311971.902870 kJ/mol
# GULP energy per Si atom -5570.926837 kJ/mol
# Density = 2.006519 g / cm^3
# Si number density = 20.110958 Si / 1000 Ang^3
#
#
#
# Elastic Constant Matrix: (Units=GPa)
#
#
# Indices 1 2 3 4 5 6 
#
# 1 93.9297 5.1003 22.1264 0.0000 0.0000 0.0000
# 2 5.1003 44.2325 -13.5877 0.0000 0.0000 0.0000
# 3 22.1264 -13.5877 66.2105 0.0000 0.0000 0.0000
# 4 0.0000 0.0000 0.0000 9.7418 0.0000 0.0000
# 5 0.0000 0.0000 0.0000 0.0000 26.9149 0.0000
# 6 0.0000 0.0000 0.0000 0.0000 0.0000 14.6229
#
#
#
# Elastic Compliance Matrix: (Units=1/GPa)
#
#
# Indices 1 2 3 4 5 6 
#
# 1 0.011863 -0.002760 -0.004531 0.000000 0.000000 0.000000
# 2 -0.002760 0.024771 0.006006 0.000000 0.000000 0.000000
# 3 -0.004531 0.006006 0.017850 0.000000 0.000000 0.000000
# 4 0.000000 0.000000 0.000000 0.102651 0.000000 0.000000
# 5 0.000000 0.000000 0.000000 0.000000 0.037154 0.000000
# 6 0.000000 0.000000 0.000000 0.000000 0.000000 0.068386
#
#
# Mechanical properties :
#
#
# Convention : Reuss Voigt Hill
#
# Bulk Modulus (GPa) = 19.26246 25.73897 22.50072
# Shear Modulus (GPa) = 17.69600 22.97150 20.33375
#
# Velocity S-wave (km/s) = 2.96956 3.38337 3.18319
# Velocity P-wave (km/s) = 4.62132 5.29992 4.97221
#
# Compressibility (1/GPa) = 0.05191444
#
# Stress axis : x y z
#
# Youngs Moduli (GPa) = 84.29259 40.36993 56.02243
#
# Poissons Ratio (x) = 0.11141 0.25383
# Poissons Ratio (y) = 0.23263 -0.33646
# Poissons Ratio (z) = 0.38192 -0.24245
#
# Static dielectric constant tensor:
#      x y z
#    x 1.811870 0.000000 0.000000 
#    y 0.000000 1.690160 0.000000 
#    z 0.000000 0.000000 1.760960 
# 
# From -- ./inp_files/16656.got.cif
#   From: 2010.05.17/outbox.cif.g08.bks.cpg/sg51_9_cif.got.tgz:16656.got - 2010.06.03 11:52:47.
