data_PCOD9400727
_publ_section_title
;
Structure prediction by ZEFSAII (Michael W. Deem and Ramdas Pophale) SiO2 
 PCOD9400727
Probable space group: P M M A
;
_chemical_formula_sum "Si O2"
_cell_formula_units_Z 40
_cell_length_a 8.972697
_cell_length_b 19.076996
_cell_length_c 13.835654
_cell_angle_alpha 90.000000
_cell_angle_beta 90.000000
_cell_angle_gamma 90.000000
_cell_volume 2368.278016
_symmetry_space_group_name_H-M "P M M A"
_symmetry_group_IT_number 51
_symmetry_cell_setting 'orthorhombic'
loop_
_space_group_symop_operation_xyz
x,y,z
1/2-x,-y,z
1/2+x,-y,-z
-x,y,-z
-x,-y,-z
1/2+x,y,-z
1/2-x,y,z
x,-y,z
loop_
_atom_site_type_symbol
_atom_site_label
_atom_site_fract_x
_atom_site_fract_y
_atom_site_fract_z
Si Si1 0.072955 0.711508 0.100084
Si Si2 0.927825 0.655871 0.399680
Si Si3 0.428419 0.580176 0.800708
Si Si4 0.928213 0.211465 0.701074
Si Si5 0.572510 0.081182 0.394509
O O1 0.250000 0.707235 0.089556
O O2 0.039148 0.762727 0.190043
O O3 0.009157 0.635776 0.131005
O O4 0.000000 0.734186 0.000000
O O5 0.750000 0.662983 0.409893
O O6 0.958218 0.603833 0.309972
O O7 0.000000 0.632311 0.500000
O O8 0.999101 0.730228 0.368930
O O9 0.250000 0.585721 0.815154
O O10 0.473690 0.500000 0.816685
O O11 0.750000 0.210849 0.687426
O O12 0.998013 0.136733 0.676603
O O13 0.500000 0.091744 0.500000
O O14 0.750000 0.092516 0.400277
O O15 0.546260 0.000000 0.366931
#
# Coordination Sequence:
#
# PCOD9400727 Si02
#       5
#     8   8   8   8   8
#     4  10  21  36  55  77  98 125 162 205 253 300
#     4  10  19  31  48  70  98 132 168 205 245 291
#     4   9  19  35  52  71  97 129 165 205 249 297
#     4  10  20  34  52  74 100 130 166 206 246 290
#     4  10  20  33  51  77 108 140 170 200 238 284
#
# _framework density 16.88991
#
# number of rings (size 3 to 8) (size 9 to 14) (size 15 to 20)
#    0.000    2.200    0.000    3.000    0.000    5.600 
#    0.000    0.000    0.000    0.600    0.000    0.000 
#    0.000    0.000    0.000    0.000    0.000    0.000 
#
# Total GULP energy -223312.007710 kJ/mol
# GULP energy per Si atom -5582.800193 kJ/mol
# Density = 1.685147 g / cm^3
# Si number density = 16.889910 Si / 1000 Ang^3
#
#
#
# Elastic Constant Matrix: (Units=GPa)
#
#
# Indices 1 2 3 4 5 6 
#
# 1 59.1871 46.6195 36.2155 0.0000 0.0000 0.0000
# 2 46.6195 105.4128 31.7578 0.0000 0.0000 0.0000
# 3 36.2155 31.7578 64.6619 0.0000 0.0000 0.0000
# 4 0.0000 0.0000 0.0000 8.4237 0.0000 0.0000
# 5 0.0000 0.0000 0.0000 0.0000 33.0108 0.0000
# 6 0.0000 0.0000 0.0000 0.0000 0.0000 26.5637
#
#
#
# Elastic Compliance Matrix: (Units=1/GPa)
#
#
# Indices 1 2 3 4 5 6 
#
# 1 0.033729 -0.010828 -0.013573 0.000000 0.000000 0.000000
# 2 -0.010828 0.014610 -0.001111 0.000000 0.000000 0.000000
# 3 -0.013573 -0.001111 0.023613 0.000000 0.000000 0.000000
# 4 0.000000 0.000000 0.000000 0.118712 0.000000 0.000000
# 5 0.000000 0.000000 0.000000 0.000000 0.030293 0.000000
# 6 0.000000 0.000000 0.000000 0.000000 0.000000 0.037645
#
#
# Mechanical properties :
#
#
# Convention : Reuss Voigt Hill
#
# Bulk Modulus (GPa) = 47.78270 50.93860 49.36065
# Shear Modulus (GPa) = 15.79268 21.24425 18.51846
#
# Velocity S-wave (km/s) = 3.06115 3.55040 3.31482
# Velocity P-wave (km/s) = 6.39111 6.85798 6.62866
#
# Compressibility (1/GPa) = 0.02092808
#
# Stress axis : x y z
#
# Youngs Moduli (GPa) = 29.64775 68.44658 42.35019
#
# Poissons Ratio (x) = 0.74113 0.57482
# Poissons Ratio (y) = 0.32102 0.04705
# Poissons Ratio (z) = 0.40241 0.07605
#
# Static dielectric constant tensor:
#      x y z
#    x 1.559100 0.000000 0.000000 
#    y 0.000000 1.555120 0.000000 
#    z 0.000000 0.000000 1.560420 
# 
# From -- ./inp_files/13998.got.cif
#   From: 2010.05.17/outbox.cif.g08.bks.cpg/sg51_7_cif.got.tgz:13998.got - 2010.06.03 11:52:47.
