data_PCOD9400976
_publ_section_title
;
Structure prediction by ZEFSAII (Michael W. Deem and Ramdas Pophale) SiO2 
 PCOD9400976
Probable space group: P M M A
;
_chemical_formula_sum "Si O2"
_cell_formula_units_Z 40
_cell_length_a 8.643279
_cell_length_b 14.122380
_cell_length_c 19.236460
_cell_angle_alpha 90.000000
_cell_angle_beta 90.000000
_cell_angle_gamma 90.000000
_cell_volume 2348.072915
_symmetry_space_group_name_H-M "P M M A"
_symmetry_group_IT_number 51
_symmetry_cell_setting 'orthorhombic'
loop_
_space_group_symop_operation_xyz
x,y,z
1/2-x,-y,z
1/2+x,-y,-z
-x,y,-z
-x,-y,-z
1/2+x,y,-z
1/2-x,y,z
x,-y,z
loop_
_atom_site_type_symbol
_atom_site_label
_atom_site_fract_x
_atom_site_fract_y
_atom_site_fract_z
Si Si1 0.064825 0.388985 0.075244
Si Si2 0.438095 0.105847 0.714185
Si Si3 0.564292 0.608102 0.650038
Si Si4 0.935238 0.211487 0.425235
Si Si5 0.563984 0.703726 0.212655
O O1 0.250000 0.381853 0.075290
O O2 0.023100 0.500000 0.085524
O O3 0.995540 0.329440 0.138306
O O4 0.000000 0.360275 0.000000
O O5 0.250000 0.103669 0.714961
O O6 0.483739 0.141259 0.637166
O O7 0.484101 0.189093 0.767029
O O8 0.494191 0.000000 0.729074
O O9 0.750000 0.614697 0.649128
O O10 0.519555 0.500000 0.634363
O O11 0.495045 0.684824 0.597219
O O12 0.504086 0.637496 0.726428
O O13 0.750000 0.213105 0.427249
O O14 0.000000 0.184413 0.500000
O O15 0.750000 0.698272 0.215417
#
# Coordination Sequence:
#
# PCOD9400976 Si02
#       5
#     8   8   8   8   8
#     4  10  20  33  50  74 105 138 168 199 236 280
#     4   8  16  32  52  73  96 124 160 200 244 292
#     4  10  20  33  49  69  95 129 166 202 240 285
#     4  10  20  33  50  71  96 126 159 200 248 295
#     4  10  19  31  51  76 101 130 162 200 243 287
#
# _framework density 17.035246000000001
#
# number of rings (size 3 to 8) (size 9 to 14) (size 15 to 20)
#    0.000    2.400    0.000    4.200    0.000    6.000 
#    0.000    0.000    0.000   21.600    0.000    0.000 
#    0.000    0.000    0.000    0.000    0.000    0.000 
#
# Total GULP energy -223174.492168 kJ/mol
# GULP energy per Si atom -5579.362304 kJ/mol
# Density = 1.699647 g / cm^3
# Si number density = 17.035246 Si / 1000 Ang^3
#
#
#
# Elastic Constant Matrix: (Units=GPa)
#
#
# Indices 1 2 3 4 5 6 
#
# 1 38.8872 16.7505 20.3002 0.0000 0.0000 0.0000
# 2 16.7505 80.7372 29.8881 0.0000 0.0000 0.0000
# 3 20.3002 29.8881 106.2817 0.0000 0.0000 0.0000
# 4 0.0000 0.0000 0.0000 6.9244 0.0000 0.0000
# 5 0.0000 0.0000 0.0000 0.0000 34.1128 0.0000
# 6 0.0000 0.0000 0.0000 0.0000 0.0000 8.9079
#
#
#
# Elastic Compliance Matrix: (Units=1/GPa)
#
#
# Indices 1 2 3 4 5 6 
#
# 1 0.030008 -0.004581 -0.004443 0.000000 0.000000 0.000000
# 2 -0.004581 0.014524 -0.003210 0.000000 0.000000 0.000000
# 3 -0.004443 -0.003210 0.011160 0.000000 0.000000 0.000000
# 4 0.000000 0.000000 0.000000 0.144417 0.000000 0.000000
# 5 0.000000 0.000000 0.000000 0.000000 0.029314 0.000000
# 6 0.000000 0.000000 0.000000 0.000000 0.000000 0.112260
#
#
# Mechanical properties :
#
#
# Convention : Reuss Voigt Hill
#
# Bulk Modulus (GPa) = 32.02550 39.97596 36.00073
# Shear Modulus (GPa) = 13.27810 20.58685 16.93247
#
# Velocity S-wave (km/s) = 2.79489 3.48010 3.15614
# Velocity P-wave (km/s) = 5.40884 6.29807 5.87032
#
# Compressibility (1/GPa) = 0.03122512
#
# Stress axis : x y z
#
# Youngs Moduli (GPa) = 33.32423 68.84973 89.60377
#
# Poissons Ratio (x) = 0.31539 0.39815
# Poissons Ratio (y) = 0.15265 0.28759
# Poissons Ratio (z) = 0.14807 0.22097
#
# Static dielectric constant tensor:
#      x y z
#    x 1.574950 0.000000 0.000000 
#    y 0.000000 1.578970 0.000000 
#    z 0.000000 0.000000 1.551870 
# 
# From -- ./inp_files/27025.got.cif
#   From: 2010.05.17/outbox.cif.g08.bks.cpg/sg51_14_cif.got.tgz:27025.got - 2010.06.03 11:52:47.
