data_PCOD9400979
_publ_section_title
;
Structure prediction by ZEFSAII (Michael W. Deem and Ramdas Pophale) SiO2 
 PCOD9400979
Probable space group: P M M A
;
_chemical_formula_sum "Si O2"
_cell_formula_units_Z 64
_cell_length_a 15.205857
_cell_length_b 9.341919
_cell_length_c 24.156897
_cell_angle_alpha 90.000000
_cell_angle_beta 90.000000
_cell_angle_gamma 90.000000
_cell_volume 3431.532741
_symmetry_space_group_name_H-M "P M M A"
_symmetry_group_IT_number 51
_symmetry_cell_setting 'orthorhombic'
loop_
_space_group_symop_operation_xyz
x,y,z
1/2-x,-y,z
1/2+x,-y,-z
-x,y,-z
-x,-y,-z
1/2+x,y,-z
1/2-x,y,z
x,-y,z
loop_
_atom_site_type_symbol
_atom_site_label
_atom_site_fract_x
_atom_site_fract_y
_atom_site_fract_z
Si Si1 0.851761 0.328304 0.813489
Si Si2 0.146653 0.831822 0.546303
Si Si3 0.518590 0.328100 0.370799
Si Si4 0.524281 0.326178 0.246468
Si Si5 0.852197 0.830065 0.585069
Si Si6 0.099183 0.337562 0.977450
Si Si7 0.351811 0.674006 0.853567
Si Si8 0.352639 0.842517 0.079683
O O1 0.750000 0.288741 0.801199
O O2 0.853511 0.500000 0.819433
O O3 0.884386 0.260731 0.871411
O O4 0.923911 0.285256 0.768292
O O5 0.250000 0.807375 0.558110
O O6 0.133719 0.805991 0.480790
O O7 0.084473 0.736252 0.583922
O O8 0.127594 0.000000 0.556129
O O9 0.516527 0.500000 0.374089
O O10 0.547451 0.284084 0.308786
O O11 0.422296 0.263687 0.382408
O O12 0.526919 0.500000 0.245114
O O13 0.589575 0.274914 0.198041
O O14 0.750000 0.797088 0.597482
O O15 0.865625 0.000000 0.594985
O O16 0.135690 0.500000 0.981517
O O17 0.108736 0.290111 0.913946
O O18 0.142764 0.229820 0.020090
O O19 0.000000 0.343456 0.000000
O O20 0.250000 0.720069 0.850340
O O21 0.352416 0.500000 0.851287
O O22 0.250000 0.857679 0.092323
O O23 0.394431 0.000000 0.080346
#
# Coordination Sequence:
#
# PCOD9400979 Si02
#       8
#     8   8   8   8   8   8   8   8
#     4   9  17  32  54  73  93 129 174 215 253 301
#     4   9  19  37  59  80 106 145 189 226 262 314
#     4  11  22  33  52  84 116 143 175 223 281 331
#     4   9  19  34  49  71 103 136 172 212 257 310
#     4   9  19  37  59  81 108 146 187 222 262 319
#     4  10  19  31  51  76  97 122 163 212 256 304
#     4   9  17  30  49  71  96 130 172 214 252 297
#     4  10  20  32  47  71 102 129 153 192 253 317
#
# _framework density 18.650558
#
# number of rings (size 3 to 8) (size 9 to 14) (size 15 to 20)
#    0.000    2.500    0.000    3.000    0.000    7.000 
#    0.000    5.000    0.000    3.000    0.000    1.750 
#    0.000    0.000    0.000    0.000    0.000    0.000 
#
# Total GULP energy -356778.549684 kJ/mol
# GULP energy per Si atom -5574.664839 kJ/mol
# Density = 1.860811 g / cm^3
# Si number density = 18.650558 Si / 1000 Ang^3
#
#
#
# Elastic Constant Matrix: (Units=GPa)
#
#
# Indices 1 2 3 4 5 6 
#
# 1 73.9219 17.6623 35.4341 0.0000 0.0000 0.0000
# 2 17.6623 24.9487 15.0058 0.0000 0.0000 0.0000
# 3 35.4341 15.0058 60.9697 0.0000 0.0000 0.0000
# 4 0.0000 0.0000 0.0000 -52.9662 0.0000 0.0000
# 5 0.0000 0.0000 0.0000 0.0000 14.2844 0.0000
# 6 0.0000 0.0000 0.0000 0.0000 0.0000 10.2582
#
#
#
# Elastic Compliance Matrix: (Units=1/GPa)
#
#
# Indices 1 2 3 4 5 6 
#
# 1 0.020175 -0.008487 -0.009636 0.000000 0.000000 0.000000
# 2 -0.008487 0.050617 -0.007525 0.000000 0.000000 0.000000
# 3 -0.009636 -0.007525 0.023854 0.000000 0.000000 0.000000
# 4 0.000000 0.000000 0.000000 -0.018880 0.000000 0.000000
# 5 0.000000 0.000000 0.000000 0.000000 0.070006 0.000000
# 6 0.000000 0.000000 0.000000 0.000000 0.000000 0.097483
#
#
# Mechanical properties :
#
#
# Convention : Reuss Voigt Hill
#
# Bulk Modulus (GPa) = 23.06877 32.89384 27.98131
# Shear Modulus (GPa) = 16.18116 0.43116 8.30616
#
# Velocity S-wave (km/s) = 2.94869 0.48133 2.11264
# Velocity P-wave (km/s) = 4.89784 4.24077 4.58110
#
# Compressibility (1/GPa) = 0.04334864
#
# Stress axis : x y z
#
# Youngs Moduli (GPa) = 49.56726 19.75633 41.92150
#
# Poissons Ratio (x) = 0.16766 0.40397
# Poissons Ratio (y) = 0.42066 0.31548
# Poissons Ratio (z) = 0.47764 0.14868
#
# Static dielectric constant tensor:
#      x y z
#    x 1.397630 0.000000 0.000000 
#    y 0.000000 1.654570 0.000000 
#    z 0.000000 0.000000 1.631210 
# 
# From -- ./inp_files/35715.got.cif
#   From: 2010.05.17/outbox.cif.g08.bks.cpg/sg51_18_cif.got.tgz:35715.got - 2010.06.03 11:52:47.
