data_PCOD9400792
_publ_section_title
;
Structure prediction by ZEFSAII (Michael W. Deem and Ramdas Pophale) SiO2 
 PCOD9400792
Probable space group: P M M A
;
_chemical_formula_sum "Si O2"
_cell_formula_units_Z 48
_cell_length_a 18.958502
_cell_length_b 8.485019
_cell_length_c 16.967008
_cell_angle_alpha 90.000000
_cell_angle_beta 90.000000
_cell_angle_gamma 90.000000
_cell_volume 2729.368044
_symmetry_space_group_name_H-M "P M M A"
_symmetry_group_IT_number 51
_symmetry_cell_setting 'orthorhombic'
loop_
_space_group_symop_operation_xyz
x,y,z
1/2-x,-y,z
1/2+x,-y,-z
-x,y,-z
-x,-y,-z
1/2+x,y,-z
1/2-x,y,z
x,-y,z
loop_
_atom_site_type_symbol
_atom_site_label
_atom_site_fract_x
_atom_site_fract_y
_atom_site_fract_z
Si Si1 0.332417 0.688352 0.519155
Si Si2 0.669345 0.190493 0.651854
Si Si3 0.170438 0.311215 0.837691
Si Si4 0.542794 0.191449 0.756890
Si Si5 0.470318 0.809192 0.915927
Si Si6 0.603178 0.811305 0.321028
O O1 0.250000 0.733668 0.529243
O O2 0.336771 0.500000 0.517358
O O3 0.355225 0.755566 0.434641
O O4 0.374603 0.752594 0.593539
O O5 0.750000 0.245506 0.663100
O O6 0.615485 0.247070 0.718734
O O7 0.669926 0.000000 0.652745
O O8 0.250000 0.258586 0.857938
O O9 0.168394 0.500000 0.840573
O O10 0.151703 0.257734 0.748706
O O11 0.108353 0.245759 0.893343
O O12 0.521409 0.243846 0.844475
O O13 0.476792 0.234212 0.701353
O O14 0.545660 0.000000 0.759132
O O15 0.469421 0.000000 0.915843
O O16 0.500000 0.755660 0.000000
O O17 0.608328 0.000000 0.317688
#
# Coordination Sequence:
#
# PCOD9400792 Si02
#       6
#     8   8   8   8   8   8
#     4  10  20  32  45  65  96 128 159 200 244 283
#     4   9  17  31  50  67  87 122 165 201 235 281
#     4  10  20  33  50  74 104 134 164 201 245 293
#     4   8  16  31  49  71  96 121 154 198 243 283
#     4   9  18  34  55  77 102 131 163 201 246 298
#     4  10  19  31  49  71  97 129 163 200 242 290
#
# _framework density 17.586487999999999
#
# number of rings (size 3 to 8) (size 9 to 14) (size 15 to 20)
#    0.000    2.667    0.000    3.000    0.000    5.333 
#    0.000    8.333    0.000    3.000    0.000    2.333 
#    0.000    0.000    0.000    0.000    0.000    0.000 
#
# Total GULP energy -267637.968293 kJ/mol
# GULP energy per Si atom -5575.791006 kJ/mol
# Density = 1.754646 g / cm^3
# Si number density = 17.586488 Si / 1000 Ang^3
#
#
#
# Elastic Constant Matrix: (Units=GPa)
#
#
# Indices 1 2 3 4 5 6 
#
# 1 117.6207 17.6307 104.5780 0.0000 0.0000 0.0000
# 2 17.6307 15.2058 19.3269 0.0000 0.0000 0.0000
# 3 104.5780 19.3269 149.7902 0.0000 0.0000 0.0000
# 4 0.0000 0.0000 0.0000 3.4798 0.0000 0.0000
# 5 0.0000 0.0000 0.0000 0.0000 21.6607 0.0000
# 6 0.0000 0.0000 0.0000 0.0000 0.0000 15.6851
#
#
#
# Elastic Compliance Matrix: (Units=1/GPa)
#
#
# Indices 1 2 3 4 5 6 
#
# 1 0.023115 -0.007523 -0.015167 0.000000 0.000000 0.000000
# 2 -0.007523 0.081114 -0.005213 0.000000 0.000000 0.000000
# 3 -0.015167 -0.005213 0.017938 0.000000 0.000000 0.000000
# 4 0.000000 0.000000 0.000000 0.287373 0.000000 0.000000
# 5 0.000000 0.000000 0.000000 0.000000 0.046166 0.000000
# 6 0.000000 0.000000 0.000000 0.000000 0.000000 0.063755
#
#
# Mechanical properties :
#
#
# Convention : Reuss Voigt Hill
#
# Bulk Modulus (GPa) = 15.06961 62.85424 38.96192
# Shear Modulus (GPa) = 8.36976 17.57054 12.97015
#
# Velocity S-wave (km/s) = 2.18393 3.16427 2.71865
# Velocity P-wave (km/s) = 3.86611 7.01198 5.66192
#
# Compressibility (1/GPa) = 0.06635873
#
# Stress axis : x y z
#
# Youngs Moduli (GPa) = 43.26161 12.32837 55.74747
#
# Poissons Ratio (x) = 0.09275 0.84555
# Poissons Ratio (y) = 0.32547 0.29063
# Poissons Ratio (z) = 0.65617 0.06427
#
# Static dielectric constant tensor:
#      x y z
#    x 1.608080 0.000000 0.000000 
#    y 0.000000 1.596900 0.000000 
#    z 0.000000 0.000000 1.578200 
# 
# From -- ./inp_files/29394.got.cif
#   From: 2010.05.17/outbox.cif.g08.bks.cpg/sg51_15_cif.got.tgz:29394.got - 2010.06.03 11:52:47.
