data_PCOD9400849
_publ_section_title
;
Structure prediction by ZEFSAII (Michael W. Deem and Ramdas Pophale) SiO2 
 PCOD9400849
Probable space group: P M M A
;
_chemical_formula_sum "Si O2"
_cell_formula_units_Z 52
_cell_length_a 9.086317
_cell_length_b 10.645186
_cell_length_c 30.134674
_cell_angle_alpha 90.000000
_cell_angle_beta 90.000000
_cell_angle_gamma 90.000000
_cell_volume 2914.792450
_symmetry_space_group_name_H-M "P M M A"
_symmetry_group_IT_number 51
_symmetry_cell_setting 'orthorhombic'
loop_
_space_group_symop_operation_xyz
x,y,z
1/2-x,-y,z
1/2+x,-y,-z
-x,y,-z
-x,-y,-z
1/2+x,y,-z
1/2-x,y,z
x,-y,z
loop_
_atom_site_type_symbol
_atom_site_label
_atom_site_fract_x
_atom_site_fract_y
_atom_site_fract_z
Si Si1 0.573268 0.855441 0.951464
Si Si2 0.925147 0.729778 0.614003
Si Si3 0.575150 0.500000 0.547734
Si Si4 0.587128 0.853292 0.457926
Si Si5 0.918502 0.348057 0.794826
Si Si6 0.073202 0.648650 0.887884
Si Si7 0.422295 0.652129 0.704555
O O1 0.750000 0.839249 0.954216
O O2 0.502891 0.746927 0.921115
O O3 0.545707 0.000000 0.935590
O O4 0.500000 0.845966 0.000000
O O5 0.750000 0.738909 0.618670
O O6 0.960384 0.617399 0.579510
O O7 0.996449 0.843277 0.587242
O O8 0.998852 0.705447 0.661137
O O9 0.750000 0.500000 0.540383
O O10 0.500000 0.500000 0.500000
O O11 0.500000 0.798249 0.500000
O O12 0.750000 0.796188 0.453761
O O13 0.605048 0.000000 0.467556
O O14 0.750000 0.302692 0.798300
O O15 0.912845 0.500000 0.792304
O O16 0.011885 0.320555 0.838804
O O17 0.997198 0.305667 0.749670
O O18 0.250000 0.660787 0.889427
O O19 0.038266 0.500000 0.897027
O O20 0.250000 0.684688 0.705504
O O21 0.432869 0.500000 0.702321
#
# Coordination Sequence:
#
# PCOD9400849 Si02
#       7
#     8   8   4   8   8   8   8
#     4  10  21  37  57  81 111 150 194 236 281 336
#     4  11  21  34  51  73 101 132 166 203 247 300
#     4  10  22  34  46  68 100 132 160 196 241 294
#     4  10  21  37  55  74  95 122 161 205 248 297
#     4   9  17  30  50  75 105 140 176 219 266 312
#     4  10  20  34  54  82 114 147 187 234 282 332
#     4  10  19  31  49  74 104 138 173 210 254 309
#
# _framework density 17.840035
#
# number of rings (size 3 to 8) (size 9 to 14) (size 15 to 20)
#    0.000    2.000    0.769    3.231    0.000    8.000 
#    0.000    0.000    0.000    0.923    0.000    0.000 
#    0.000    0.000    0.000    0.000    0.000    0.000 
#
# Total GULP energy -289991.628565 kJ/mol
# GULP energy per Si atom -5576.762088 kJ/mol
# Density = 1.779943 g / cm^3
# Si number density = 17.840035 Si / 1000 Ang^3
#
#
#
# Elastic Constant Matrix: (Units=GPa)
#
#
# Indices 1 2 3 4 5 6 
#
# 1 132.5435 50.6146 80.3004 0.0000 0.0000 0.0000
# 2 50.6146 58.4831 56.7383 0.0000 0.0000 0.0000
# 3 80.3004 56.7383 151.2649 0.0000 0.0000 0.0000
# 4 0.0000 0.0000 0.0000 23.2245 0.0000 0.0000
# 5 0.0000 0.0000 0.0000 0.0000 38.6882 0.0000
# 6 0.0000 0.0000 0.0000 0.0000 0.0000 19.9219
#
#
#
# Elastic Compliance Matrix: (Units=1/GPa)
#
#
# Indices 1 2 3 4 5 6 
#
# 1 0.012719 -0.007007 -0.004124 0.000000 0.000000 0.000000
# 2 -0.007007 0.030741 -0.007811 0.000000 0.000000 0.000000
# 3 -0.004124 -0.007811 0.011730 0.000000 0.000000 0.000000
# 4 0.000000 0.000000 0.000000 0.043058 0.000000 0.000000
# 5 0.000000 0.000000 0.000000 0.000000 0.025848 0.000000
# 6 0.000000 0.000000 0.000000 0.000000 0.000000 0.050196
#
#
# Mechanical properties :
#
#
# Convention : Reuss Voigt Hill
#
# Bulk Modulus (GPa) = 57.78166 79.73311 68.75738
# Shear Modulus (GPa) = 22.94172 26.67613 24.80892
#
# Velocity S-wave (km/s) = 3.58993 3.87110 3.73316
# Velocity P-wave (km/s) = 7.04575 8.04804 7.56351
#
# Compressibility (1/GPa) = 0.01730653
#
# Stress axis : x y z
#
# Youngs Moduli (GPa) = 78.62450 32.52962 85.25258
#
# Poissons Ratio (x) = 0.22793 0.35155
# Poissons Ratio (y) = 0.55092 0.66592
# Poissons Ratio (z) = 0.32422 0.25409
#
# Static dielectric constant tensor:
#      x y z
#    x 1.622990 0.000000 0.000000 
#    y 0.000000 1.772800 0.000000 
#    z 0.000000 0.000000 1.575970 
# 
# From -- ./inp_files/37367.got.cif
#   From: 2010.05.17/outbox.cif.g08.bks.cpg/sg51_19_cif.got.tgz:37367.got - 2010.06.03 11:52:47.
