data_PCOD9400413
_publ_section_title
;
Structure prediction by ZEFSAII (Michael W. Deem and Ramdas Pophale) SiO2 
 PCOD9400413
Probable space group: P M M A
;
_chemical_formula_sum "Si O2"
_cell_formula_units_Z 40
_cell_length_a 15.573146
_cell_length_b 14.269792
_cell_length_c 7.180980
_cell_angle_alpha 90.000000
_cell_angle_beta 90.000000
_cell_angle_gamma 90.000000
_cell_volume 1595.797260
_symmetry_space_group_name_H-M "P M M A"
_symmetry_group_IT_number 51
_symmetry_cell_setting 'orthorhombic'
loop_
_space_group_symop_operation_xyz
x,y,z
1/2-x,-y,z
1/2+x,-y,-z
-x,y,-z
-x,-y,-z
1/2+x,y,-z
1/2-x,y,z
x,-y,z
loop_
_atom_site_type_symbol
_atom_site_label
_atom_site_fract_x
_atom_site_fract_y
_atom_site_fract_z
Si Si1 0.653824 0.000000 0.533965
Si Si2 0.600786 0.400311 0.949609
Si Si3 0.352905 0.601036 0.484391
Si Si4 0.103486 0.200348 0.046116
Si Si5 0.100592 0.803674 0.487546
Si Si6 0.099296 0.000000 0.053182
O O1 0.639330 0.900370 0.435501
O O2 0.596986 0.000000 0.720881
O O3 0.750000 0.000000 0.606757
O O4 0.639489 0.500000 0.011008
O O5 0.609853 0.398774 0.725564
O O6 0.637567 0.301223 0.019232
O O7 0.500000 0.401017 0.000000
O O8 0.250000 0.600816 0.472420
O O9 0.380898 0.500000 0.567928
O O10 0.378767 0.701218 0.568953
O O11 0.122036 0.200614 0.267973
O O12 0.137401 0.098741 0.986561
O O13 0.000000 0.200569 0.000000
O O14 0.000000 0.815641 0.500000
O O15 0.000000 0.000000 0.000000
#
# Coordination Sequence:
#
# PCOD9400413 Si02
#       6
#     4   8   8   8   8   4
#     4  10  19  31  48  71  97 128 166 206 247 291
#     4   8  13  22  38  61  88 116 148 189 231 274
#     4   9  17  29  45  67  95 126 161 203 247 289
#     4   8  14  25  41  62  86 113 144 181 224 270
#     4  10  19  30  46  71  96 121 158 203 244 284
#     4   8  14  25  42  65  90 118 150 192 234 275
#
# _framework density 25.065839
#
# number of rings (size 3 to 8) (size 9 to 14) (size 15 to 20)
#    0.000    3.200    0.000    0.900    0.000    0.400 
#    0.000    0.000    0.000    0.000    0.000  112.000 
#    0.000   54.400    0.000    0.000    0.000    0.000 
#
# Total GULP energy -222921.447706 kJ/mol
# GULP energy per Si atom -5573.036193 kJ/mol
# Density = 2.500879 g / cm^3
# Si number density = 25.065839 Si / 1000 Ang^3
#
#
#
# Elastic Constant Matrix: (Units=GPa)
#
#
# Indices 1 2 3 4 5 6 
#
# 1 45.9734 12.8990 -18.5215 0.0000 0.0000 0.0000
# 2 12.8990 372.9548 13.3646 0.0000 0.0000 0.0000
# 3 -18.5215 13.3646 110.0331 0.0000 0.0000 0.0000
# 4 0.0000 0.0000 0.0000 -29.0736 0.0000 0.0000
# 5 0.0000 0.0000 0.0000 0.0000 -15.2065 0.0000
# 6 0.0000 0.0000 0.0000 0.0000 0.0000 19.1043
#
#
#
# Elastic Compliance Matrix: (Units=1/GPa)
#
#
# Indices 1 2 3 4 5 6 
#
# 1 0.023676 -0.000966 0.004103 0.000000 0.000000 0.000000
# 2 -0.000966 0.002732 -0.000494 0.000000 0.000000 0.000000
# 3 0.004103 -0.000494 0.009839 0.000000 0.000000 0.000000
# 4 0.000000 0.000000 0.000000 -0.034395 0.000000 0.000000
# 5 0.000000 0.000000 0.000000 0.000000 -0.065761 0.000000
# 6 0.000000 0.000000 0.000000 0.000000 0.000000 0.052344
#
#
# Mechanical properties :
#
#
# Convention : Reuss Voigt Hill
#
# Bulk Modulus (GPa) = 24.07831 60.49395 42.28613
# Shear Modulus (GPa) = -1662.99781 29.71278 -816.64252
#
# Velocity S-wave (km/s) = -25.78550 3.44668 -18.06948
# Velocity P-wave (km/s) = 29.61243 6.32660 20.45569
#
# Compressibility (1/GPa) = 0.04153116
#
# Stress axis : x y z
#
# Youngs Moduli (GPa) = 42.23771 365.97675 101.63848
#
# Poissons Ratio (x) = 0.35348 -0.41697
# Poissons Ratio (y) = 0.04080 0.05026
# Poissons Ratio (z) = -0.17328 0.18096
#
# Static dielectric constant tensor:
#      x y z
#    x 1.872560 0.000000 0.000000 
#    y 0.000000 2.131490 0.000000 
#    z 0.000000 0.000000 1.928740 
# 
# From -- ./inp_files/8040.got.cif
#   From: 2010.05.17/outbox.cif.g08.bks.cpg/sg51_5_cif.got.tgz:8040.got - 2010.06.03 11:52:47.
