data_PCOD9400394
_publ_section_title
;
Structure prediction by ZEFSAII (Michael W. Deem and Ramdas Pophale) SiO2 
 PCOD9400394
Probable space group: P M M A
;
_chemical_formula_sum "Si O2"
_cell_formula_units_Z 64
_cell_length_a 9.444015
_cell_length_b 20.550186
_cell_length_c 17.617509
_cell_angle_alpha 90.000000
_cell_angle_beta 90.000000
_cell_angle_gamma 90.000000
_cell_volume 3419.140342
_symmetry_space_group_name_H-M "P M M A"
_symmetry_group_IT_number 51
_symmetry_cell_setting 'orthorhombic'
loop_
_space_group_symop_operation_xyz
x,y,z
1/2-x,-y,z
1/2+x,-y,-z
-x,y,-z
-x,-y,-z
1/2+x,y,-z
1/2-x,y,z
x,-y,z
loop_
_atom_site_type_symbol
_atom_site_label
_atom_site_fract_x
_atom_site_fract_y
_atom_site_fract_z
Si Si1 0.580160 0.427985 0.246613
Si Si2 0.582414 0.397860 0.072840
Si Si3 0.095296 0.923370 0.798228
Si Si4 0.409656 0.872227 0.071063
Si Si5 0.409778 0.724269 0.112416
Si Si6 0.583578 0.700245 0.712555
Si Si7 0.420188 0.796516 0.425746
Si Si8 0.584252 0.924590 0.383201
O O1 0.750000 0.420341 0.253178
O O2 0.541035 0.500000 0.275485
O O3 0.547326 0.426124 0.156064
O O4 0.503463 0.367021 0.285492
O O5 0.750000 0.403208 0.061704
O O6 0.529055 0.323575 0.081579
O O7 0.500000 0.424933 0.000000
O O8 0.250000 0.895104 0.818197
O O9 0.076195 0.917737 0.708179
O O10 0.975764 0.893017 0.849394
O O11 0.097989 0.000000 0.814646
O O12 0.250000 0.895387 0.063988
O O13 0.411518 0.793972 0.073674
O O14 0.500000 0.896014 0.000000
O O15 0.250000 0.695905 0.102012
O O16 0.432300 0.730770 0.203186
O O17 0.750000 0.685314 0.702675
O O18 0.544176 0.751695 0.647300
O O19 0.500000 0.769837 0.500000
O O20 0.250000 0.797757 0.434475
O O21 0.481631 0.869359 0.414752
O O22 0.750000 0.913600 0.404637
O O23 0.549258 0.000000 0.402288
#
# Coordination Sequence:
#
# PCOD9400394 Si02
#       8
#     8   8   8   8   8   8   8   8
#     4   9  19  35  54  78 107 140 181 226 271 321
#     4  10  19  30  46  70 102 139 176 215 261 311
#     4   9  19  36  55  73  95 126 166 212 261 314
#     4  11  22  33  47  68  95 129 170 219 271 319
#     4   9  18  33  51  71  96 127 167 213 260 310
#     4   9  19  36  57  81 108 138 175 220 266 316
#     4  11  23  38  58  86 118 148 179 216 260 314
#     4   9  19  37  60  85 113 145 181 220 263 315
#
# _framework density 18.718154999999999
#
# number of rings (size 3 to 8) (size 9 to 14) (size 15 to 20)
#    0.000    2.375    0.000    3.000    0.000    6.500 
#    0.000    3.750    0.000    0.375    0.000    0.000 
#    0.000    0.000    0.000    0.000    0.000    0.000 
#
# Total GULP energy -357051.661114 kJ/mol
# GULP energy per Si atom -5578.932205 kJ/mol
# Density = 1.867555 g / cm^3
# Si number density = 18.718155 Si / 1000 Ang^3
#
#
#
# Elastic Constant Matrix: (Units=GPa)
#
#
# Indices 1 2 3 4 5 6 
#
# 1 84.5337 40.9261 42.4057 0.0000 0.0000 0.0000
# 2 40.9261 68.9672 37.6624 0.0000 0.0000 0.0000
# 3 42.4057 37.6624 69.7325 0.0000 0.0000 0.0000
# 4 0.0000 0.0000 0.0000 0.3682 0.0000 0.0000
# 5 0.0000 0.0000 0.0000 0.0000 29.6939 0.0000
# 6 0.0000 0.0000 0.0000 0.0000 0.0000 21.1677
#
#
#
# Elastic Compliance Matrix: (Units=1/GPa)
#
#
# Indices 1 2 3 4 5 6 
#
# 1 0.019206 -0.007119 -0.007835 0.000000 0.000000 0.000000
# 2 -0.007119 0.023204 -0.008203 0.000000 0.000000 0.000000
# 3 -0.007835 -0.008203 0.023536 0.000000 0.000000 0.000000
# 4 0.000000 0.000000 0.000000 2.715713 0.000000 0.000000
# 5 0.000000 0.000000 0.000000 0.000000 0.033677 0.000000
# 6 0.000000 0.000000 0.000000 0.000000 0.000000 0.047242
#
#
# Mechanical properties :
#
#
# Convention : Reuss Voigt Hill
#
# Bulk Modulus (GPa) = 50.93753 51.69131 51.31442
# Shear Modulus (GPa) = 1.71501 17.06192 9.38847
#
# Velocity S-wave (km/s) = 0.95824 3.02241 2.24201
# Velocity P-wave (km/s) = 5.33819 6.31312 5.84601
#
# Compressibility (1/GPa) = 0.01963189
#
# Stress axis : x y z
#
# Youngs Moduli (GPa) = 52.06592 43.09651 42.48867
#
# Poissons Ratio (x) = 0.30679 0.33290
# Poissons Ratio (y) = 0.37064 0.34855
# Poissons Ratio (z) = 0.40794 0.35353
#
# Static dielectric constant tensor:
#      x y z
#    x 1.590000 0.000000 0.000000 
#    y 0.000000 1.654770 0.000000 
#    z 0.000000 0.000000 1.655350 
# 
# From -- ./inp_files/28389.got.cif
#   From: 2010.05.17/outbox.cif.g08.bks.cpg/sg51_15_cif.got.tgz:28389.got - 2010.06.03 11:52:47.
