data_PCOD9400726
_publ_section_title
;
Structure prediction by ZEFSAII (Michael W. Deem and Ramdas Pophale) SiO2 
 PCOD9400726
Probable space group: P M M A
;
_chemical_formula_sum "Si O2"
_cell_formula_units_Z 64
_cell_length_a 15.288738
_cell_length_b 9.283202
_cell_length_c 21.978719
_cell_angle_alpha 90.000000
_cell_angle_beta 90.000000
_cell_angle_gamma 90.000000
_cell_volume 3119.405371
_symmetry_space_group_name_H-M "P M M A"
_symmetry_group_IT_number 51
_symmetry_cell_setting 'orthorhombic'
loop_
_space_group_symop_operation_xyz
x,y,z
1/2-x,-y,z
1/2+x,-y,-z
-x,y,-z
-x,-y,-z
1/2+x,y,-z
1/2-x,y,z
x,-y,z
loop_
_atom_site_type_symbol
_atom_site_label
_atom_site_fract_x
_atom_site_fract_y
_atom_site_fract_z
Si Si1 0.356987 0.333150 0.488714
Si Si2 0.085514 0.828715 0.740607
Si Si3 0.145626 0.336957 0.623748
Si Si4 0.098281 0.671727 0.121719
Si Si5 0.852456 0.159709 0.626225
Si Si6 0.600809 0.672254 0.745129
Si Si7 0.392828 0.833391 0.003828
Si Si8 0.089936 0.172725 0.872812
O O1 0.250000 0.329721 0.487455
O O2 0.381956 0.500000 0.480238
O O3 0.385084 0.288232 0.556707
O O4 0.390896 0.238499 0.432885
O O5 0.127546 0.766926 0.679780
O O6 0.131681 0.802546 0.806363
O O7 0.994735 0.743463 0.745292
O O8 0.072718 0.000000 0.735695
O O9 0.250000 0.348379 0.618937
O O10 0.111294 0.500000 0.635292
O O11 0.093169 0.500000 0.115571
O O12 0.140180 0.703818 0.187810
O O13 0.000818 0.739550 0.125709
O O14 0.137760 0.739716 0.060748
O O15 0.750000 0.143429 0.613145
O O16 0.857006 0.256012 0.686403
O O17 0.890298 0.000000 0.636429
O O18 0.597436 0.500000 0.738620
O O19 0.361810 0.791770 0.935968
O O20 0.371043 0.000000 0.015091
O O21 0.500000 0.823841 0.000000
O O22 0.070701 0.000000 0.876452
#
# Coordination Sequence:
#
# PCOD9400726 Si02
#       8
#     8   8   8   8   8   8   8   8
#     4   8  15  30  51  71  92 121 154 187 227 276
#     4  10  19  31  48  70  98 128 158 196 237 275
#     4   9  18  33  52  73  97 125 157 191 229 279
#     4   9  16  24  37  60  86 113 149 190 227 264
#     4  10  20  33  51  75  98 119 150 194 236 274
#     4  10  20  33  48  67  96 131 160 188 230 284
#     4   8  13  22  36  54  80 115 150 183 223 271
#     4   8  15  26  38  56  85 120 152 182 225 276
#
# _framework density 20.516732000000001
#
# number of rings (size 3 to 8) (size 9 to 14) (size 15 to 20)
#    0.000    3.000    0.000    3.000    0.000    5.750 
#    0.000    1.875    0.000    3.750    0.000    0.875 
#    0.000    1.000    0.000    0.000    0.000    0.000 
#
# Total GULP energy -356423.992435 kJ/mol
# GULP energy per Si atom -5569.124882 kJ/mol
# Density = 2.047004 g / cm^3
# Si number density = 20.516732 Si / 1000 Ang^3
#
#
#
# Elastic Constant Matrix: (Units=GPa)
#
#
# Indices 1 2 3 4 5 6 
#
# 1 23.4711 7.2034 14.6248 0.0000 0.0000 0.0000
# 2 7.2034 96.4314 107.0272 0.0000 0.0000 0.0000
# 3 14.6248 107.0272 238.1482 0.0000 0.0000 0.0000
# 4 0.0000 0.0000 0.0000 35.8573 0.0000 0.0000
# 5 0.0000 0.0000 0.0000 0.0000 13.1745 0.0000
# 6 0.0000 0.0000 0.0000 0.0000 0.0000 10.0234
#
#
#
# Elastic Compliance Matrix: (Units=1/GPa)
#
#
# Indices 1 2 3 4 5 6 
#
# 1 0.044317 -0.000578 -0.002462 0.000000 0.000000 0.000000
# 2 -0.000578 0.020698 -0.009266 0.000000 0.000000 0.000000
# 3 -0.002462 -0.009266 0.008515 0.000000 0.000000 0.000000
# 4 0.000000 0.000000 0.000000 0.027888 0.000000 0.000000
# 5 0.000000 0.000000 0.000000 0.000000 0.075904 0.000000
# 6 0.000000 0.000000 0.000000 0.000000 0.000000 0.099766
#
#
# Mechanical properties :
#
#
# Convention : Reuss Voigt Hill
#
# Bulk Modulus (GPa) = 20.44292 68.41794 44.43043
# Shear Modulus (GPa) = 15.72293 27.09073 21.40683
#
# Velocity S-wave (km/s) = 2.77130 3.63770 3.23365
# Velocity P-wave (km/s) = 4.49731 7.14588 5.97032
#
# Compressibility (1/GPa) = 0.04891669
#
# Stress axis : x y z
#
# Youngs Moduli (GPa) = 22.56475 48.31423 117.44431
#
# Poissons Ratio (x) = 0.02795 0.28910
# Poissons Ratio (y) = 0.01305 1.08828
# Poissons Ratio (z) = 0.05554 0.44770
#
# Static dielectric constant tensor:
#      x y z
#    x 1.767640 0.000000 0.000000 
#    y 0.000000 1.700740 0.000000 
#    z 0.000000 0.000000 1.804430 
# 
# From -- ./inp_files/34092.got.cif
#   From: 2010.05.17/outbox.cif.g08.bks.cpg/sg51_18_cif.got.tgz:34092.got - 2010.06.03 11:52:47.
