data_PCOD9400668
_publ_section_title
;
Structure prediction by ZEFSAII (Michael W. Deem and Ramdas Pophale) SiO2 
 PCOD9400668
Probable space group: P M M A
;
_chemical_formula_sum "Si O2"
_cell_formula_units_Z 52
_cell_length_a 8.846564
_cell_length_b 13.862615
_cell_length_c 24.538156
_cell_angle_alpha 90.000000
_cell_angle_beta 90.000000
_cell_angle_gamma 90.000000
_cell_volume 3009.273833
_symmetry_space_group_name_H-M "P M M A"
_symmetry_group_IT_number 51
_symmetry_cell_setting 'orthorhombic'
loop_
_space_group_symop_operation_xyz
x,y,z
1/2-x,-y,z
1/2+x,-y,-z
-x,y,-z
-x,-y,-z
1/2+x,y,-z
1/2-x,y,z
x,-y,z
loop_
_atom_site_type_symbol
_atom_site_label
_atom_site_fract_x
_atom_site_fract_y
_atom_site_fract_z
Si Si1 0.567580 0.391766 0.353832
Si Si2 0.069232 0.000000 0.439814
Si Si3 0.069530 0.888184 0.941224
Si Si4 0.922405 0.886864 0.257571
Si Si5 0.431032 0.184241 0.621646
Si Si6 0.428372 0.213819 0.160870
Si Si7 0.569912 0.390600 0.766714
O O1 0.750000 0.390223 0.352873
O O2 0.519862 0.500000 0.372321
O O3 0.520693 0.295933 0.387421
O O4 0.509696 0.380479 0.291770
O O5 0.000000 0.000000 0.500000
O O6 0.012132 0.097779 0.410068
O O7 0.250000 0.000000 0.441321
O O8 0.250000 0.883802 0.944281
O O9 0.010376 0.819879 0.893552
O O10 0.026624 0.000000 0.928696
O O11 0.000000 0.864253 0.000000
O O12 0.750000 0.861540 0.240846
O O13 0.956610 0.834191 0.314020
O O14 0.033660 0.861072 0.209057
O O15 0.926180 0.000000 0.269153
O O16 0.250000 0.175761 0.611876
O O17 0.250000 0.218446 0.150606
O O18 0.480626 0.314264 0.188129
O O19 0.750000 0.375989 0.758104
O O20 0.545804 0.500000 0.785385
#
# Coordination Sequence:
#
# PCOD9400668 Si02
#       7
#     8   4   8   8   8   8   8
#     4   9  17  30  52  81 111 146 184 221 266 322
#     4  12  26  42  62  84 110 146 191 230 271 324
#     4  10  21  37  55  73  96 129 168 211 261 316
#     4  10  19  31  47  71 106 144 173 206 259 314
#     4  10  19  35  56  80 114 148 180 223 271 318
#     4  11  21  31  48  74 103 135 174 216 260 311
#     4   9  18  31  46  69 105 143 176 214 260 309
#
# _framework density 17.279917999999999
#
# number of rings (size 3 to 8) (size 9 to 14) (size 15 to 20)
#    0.000    2.000    2.308    2.077    0.000    4.923 
#    0.000    0.000    0.000    0.923    0.000    0.000 
#    0.000    0.000    0.000    0.000    0.000    0.000 
#
# Total GULP energy -289945.030371 kJ/mol
# GULP energy per Si atom -5575.865969 kJ/mol
# Density = 1.724059 g / cm^3
# Si number density = 17.279918 Si / 1000 Ang^3
#
#
#
# Elastic Constant Matrix: (Units=GPa)
#
#
# Indices 1 2 3 4 5 6 
#
# 1 31.9876 33.1684 25.6159 0.0000 0.0000 0.0000
# 2 33.1684 141.0653 44.9406 0.0000 0.0000 0.0000
# 3 25.6159 44.9406 46.0552 0.0000 0.0000 0.0000
# 4 0.0000 0.0000 0.0000 10.6846 0.0000 0.0000
# 5 0.0000 0.0000 0.0000 0.0000 27.1038 0.0000
# 6 0.0000 0.0000 0.0000 0.0000 0.0000 18.8982
#
#
#
# Elastic Compliance Matrix: (Units=1/GPa)
#
#
# Indices 1 2 3 4 5 6 
#
# 1 0.058641 -0.004930 -0.027805 0.000000 0.000000 0.000000
# 2 -0.004930 0.010701 -0.007700 0.000000 0.000000 0.000000
# 3 -0.027805 -0.007700 0.044692 0.000000 0.000000 0.000000
# 4 0.000000 0.000000 0.000000 0.093593 0.000000 0.000000
# 5 0.000000 0.000000 0.000000 0.000000 0.036895 0.000000
# 6 0.000000 0.000000 0.000000 0.000000 0.000000 0.052915
#
#
# Mechanical properties :
#
#
# Convention : Reuss Voigt Hill
#
# Bulk Modulus (GPa) = 30.15387 47.39533 38.77460
# Shear Modulus (GPa) = 12.84151 19.02953 15.93552
#
# Velocity S-wave (km/s) = 2.72903 3.32211 3.04007
# Velocity P-wave (km/s) = 5.23624 6.49636 5.90004
#
# Compressibility (1/GPa) = 0.03316323
#
# Stress axis : x y z
#
# Youngs Moduli (GPa) = 17.05303 93.44742 22.37524
#
# Poissons Ratio (x) = 0.46068 0.62215
# Poissons Ratio (y) = 0.08407 0.17230
# Poissons Ratio (z) = 0.47417 0.71957
#
# Static dielectric constant tensor:
#      x y z
#    x 1.575440 0.000000 0.000000 
#    y 0.000000 1.640620 0.000000 
#    z 0.000000 0.000000 1.543030 
# 
# From -- ./inp_files/31722.got.cif
#   From: 2010.05.17/outbox.cif.g08.bks.cpg/sg51_16_cif.got.tgz:31722.got - 2010.06.03 11:52:47.
