data_PCOD9400461
_publ_section_title
;
Structure prediction by ZEFSAII (Michael W. Deem and Ramdas Pophale) SiO2 
 PCOD9400461
Probable space group: P M M A
;
_chemical_formula_sum "Si O2"
_cell_formula_units_Z 48
_cell_length_a 9.136217
_cell_length_b 19.258184
_cell_length_c 16.149439
_cell_angle_alpha 90.000000
_cell_angle_beta 90.000000
_cell_angle_gamma 90.000000
_cell_volume 2841.444505
_symmetry_space_group_name_H-M "P M M A"
_symmetry_group_IT_number 51
_symmetry_cell_setting 'orthorhombic'
loop_
_space_group_symop_operation_xyz
x,y,z
1/2-x,-y,z
1/2+x,-y,-z
-x,y,-z
-x,-y,-z
1/2+x,y,-z
1/2-x,y,z
x,-y,z
loop_
_atom_site_type_symbol
_atom_site_label
_atom_site_fract_x
_atom_site_fract_y
_atom_site_fract_z
Si Si1 0.417394 0.333470 0.081422
Si Si2 0.573822 0.828831 0.254331
Si Si3 0.419959 0.164128 0.084033
Si Si4 0.574533 0.419507 0.585341
Si Si5 0.074713 0.081069 0.584609
Si Si6 0.427889 0.678724 0.261814
O O1 0.250000 0.355269 0.074537
O O2 0.422004 0.248841 0.082001
O O3 0.472493 0.353074 0.172692
O O4 0.500000 0.357756 0.000000
O O5 0.750000 0.825133 0.246200
O O6 0.504218 0.855533 0.168111
O O7 0.536240 0.876459 0.333106
O O8 0.506191 0.752729 0.269848
O O9 0.250000 0.142992 0.085968
O O10 0.500000 0.140476 0.000000
O O11 0.500000 0.396789 0.500000
O O12 0.750000 0.416831 0.575794
O O13 0.533340 0.500000 0.600336
O O14 0.535356 0.371130 0.662354
O O15 0.250000 0.085023 0.574619
O O16 0.000000 0.106759 0.500000
O O17 0.034296 0.000000 0.595083
O O18 0.250000 0.688629 0.259070
#
# Coordination Sequence:
#
# PCOD9400461 Si02
#       6
#     8   8   8   8   8   8
#     4   8  14  24  39  60  86 116 146 177 215 259
#     4  10  19  30  47  72  98 123 154 194 238 279
#     4   9  16  27  44  67  96 127 157 190 230 276
#     4   9  18  33  51  68  88 119 157 193 232 280
#     4   9  19  35  52  69  91 122 159 196 235 282
#     4   9  18  31  46  67  95 123 152 189 233 278
#
# _framework density 16.892814999999999
#
# number of rings (size 3 to 8) (size 9 to 14) (size 15 to 20)
#    0.000    3.000    0.000    2.000    0.000    6.667 
#    0.000    3.333    0.000    1.000    0.000    0.000 
#    0.000    0.000    0.000    0.000    0.000    1.833 
#
# Total GULP energy -267338.800923 kJ/mol
# GULP energy per Si atom -5569.558353 kJ/mol
# Density = 1.685437 g / cm^3
# Si number density = 16.892815 Si / 1000 Ang^3
#
#
#
# Elastic Constant Matrix: (Units=GPa)
#
#
# Indices 1 2 3 4 5 6 
#
# 1 53.2934 27.0255 74.4895 0.0000 0.0000 0.0000
# 2 27.0255 32.8515 65.9130 0.0000 0.0000 0.0000
# 3 74.4895 65.9130 219.3629 0.0000 0.0000 0.0000
# 4 0.0000 0.0000 0.0000 -10.0581 0.0000 0.0000
# 5 0.0000 0.0000 0.0000 0.0000 35.9684 0.0000
# 6 0.0000 0.0000 0.0000 0.0000 0.0000 11.7381
#
#
#
# Elastic Compliance Matrix: (Units=1/GPa)
#
#
# Indices 1 2 3 4 5 6 
#
# 1 0.037956 -0.013509 -0.008830 0.000000 0.000000 0.000000
# 2 -0.013509 0.081458 -0.019889 0.000000 0.000000 0.000000
# 3 -0.008830 -0.019889 0.013533 0.000000 0.000000 0.000000
# 4 0.000000 0.000000 0.000000 -0.099422 0.000000 0.000000
# 5 0.000000 0.000000 0.000000 0.000000 0.027802 0.000000
# 6 0.000000 0.000000 0.000000 0.000000 0.000000 0.085193
#
#
# Mechanical properties :
#
#
# Convention : Reuss Voigt Hill
#
# Bulk Modulus (GPa) = 20.62190 71.15154 45.88672
# Shear Modulus (GPa) = 20.23156 16.73501 18.48328
#
# Velocity S-wave (km/s) = 3.46445 3.15089 3.31138
# Velocity P-wave (km/s) = 5.31387 7.44636 6.46860
#
# Compressibility (1/GPa) = 0.04849213
#
# Stress axis : x y z
#
# Youngs Moduli (GPa) = 26.34626 12.27627 73.89320
#
# Poissons Ratio (x) = 0.16584 0.65245
# Poissons Ratio (y) = 0.35591 1.46965
# Poissons Ratio (z) = 0.23263 0.24416
#
# Static dielectric constant tensor:
#      x y z
#    x 1.571430 0.000000 0.000000 
#    y 0.000000 1.551940 0.000000 
#    z 0.000000 0.000000 1.580810 
# 
# From -- ./inp_files/21065.got.cif
#   From: 2010.05.17/outbox.cif.g08.bks.cpg/sg51_11_cif.got.tgz:21065.got - 2010.06.03 11:52:47.
