data_PCOD9400089
_publ_section_title
;
Structure prediction by ZEFSAII (Michael W. Deem and Ramdas Pophale) SiO2 
 PCOD9400089
Probable space group: P M M A
;
_chemical_formula_sum "Si O2"
_cell_formula_units_Z 64
_cell_length_a 7.929889
_cell_length_b 24.693016
_cell_length_c 19.780629
_cell_angle_alpha 90.000000
_cell_angle_beta 90.000000
_cell_angle_gamma 90.000000
_cell_volume 3873.301853
_symmetry_space_group_name_H-M "P M M A"
_symmetry_group_IT_number 51
_symmetry_cell_setting 'orthorhombic'
loop_
_space_group_symop_operation_xyz
x,y,z
1/2-x,-y,z
1/2+x,-y,-z
-x,y,-z
-x,-y,-z
1/2+x,y,-z
1/2-x,y,z
x,-y,z
loop_
_atom_site_type_symbol
_atom_site_label
_atom_site_fract_x
_atom_site_fract_y
_atom_site_fract_z
Si Si1 0.451445 0.939575 0.787852
Si Si2 0.453496 0.439157 0.577725
Si Si3 0.043573 0.163340 0.706955
Si Si4 0.951717 0.882764 0.925005
Si Si5 0.550470 0.240997 0.926108
Si Si6 0.452379 0.225414 0.577094
Si Si7 0.956464 0.333574 0.345914
Si Si8 0.952022 0.728365 0.216420
O O1 0.250000 0.942058 0.777757
O O2 0.517555 0.893302 0.737081
O O3 0.481264 0.918632 0.863879
O O4 0.520685 0.000000 0.778329
O O5 0.500000 0.427339 0.500000
O O6 0.250000 0.440014 0.581899
O O7 0.515094 0.500000 0.593725
O O8 0.515544 0.391033 0.625793
O O9 0.250000 0.162445 0.707925
O O10 0.990035 0.180568 0.631583
O O11 0.989669 0.213033 0.755410
O O12 0.750000 0.881794 0.920014
O O13 0.019111 0.820706 0.918779
O O14 0.000000 0.902113 0.000000
O O15 0.750000 0.236359 0.925209
O O16 0.498648 0.275875 0.861593
O O17 0.500000 0.261612 0.000000
O O18 0.500000 0.216090 0.500000
O O19 0.250000 0.226241 0.580799
O O20 0.509536 0.284197 0.604856
O O21 0.750000 0.334500 0.346441
O O22 0.010830 0.316376 0.270464
O O23 0.750000 0.728878 0.220512
#
# Coordination Sequence:
#
# PCOD9400089 Si02
#       8
#     8   8   8   8   8   8   8   8
#     4  10  19  31  48  65  79 101 137 175 207 246
#     4   9  16  26  40  59  87 122 157 187 211 243
#     4   8  15  28  44  60  80 104 130 163 208 253
#     4  10  20  32  46  63  85 111 137 167 201 243
#     4  10  19  29  43  64  87 112 140 168 203 250
#     4   9  16  27  43  62  83 107 135 170 208 250
#     4   8  15  26  41  62  86 115 147 176 212 250
#     4   9  15  27  46  61  80 110 140 174 211 250
#
# _framework density 16.523368999999999
#
# number of rings (size 3 to 8) (size 9 to 14) (size 15 to 20)
#    0.000    2.875    1.250    2.625    0.000    1.500 
#    0.000    3.750    0.000    0.375    0.000    0.000 
#    0.000    0.500    0.000    0.875    0.000    1.250 
#
# Total GULP energy -356612.581331 kJ/mol
# GULP energy per Si atom -5572.071583 kJ/mol
# Density = 1.648576 g / cm^3
# Si number density = 16.523369 Si / 1000 Ang^3
#
#
#
# Elastic Constant Matrix: (Units=GPa)
#
#
# Indices 1 2 3 4 5 6 
#
# 1 12.8940 9.2242 2.6999 0.0000 0.0000 0.0000
# 2 9.2242 119.9190 86.4774 0.0000 0.0000 0.0000
# 3 2.6999 86.4774 154.2197 0.0000 0.0000 0.0000
# 4 0.0000 0.0000 0.0000 23.7752 0.0000 0.0000
# 5 0.0000 0.0000 0.0000 0.0000 22.5178 0.0000
# 6 0.0000 0.0000 0.0000 0.0000 0.0000 7.2398
#
#
#
# Elastic Compliance Matrix: (Units=1/GPa)
#
#
# Indices 1 2 3 4 5 6 
#
# 1 0.083233 -0.008985 0.003581 0.000000 0.000000 0.000000
# 2 -0.008985 0.014970 -0.008237 0.000000 0.000000 0.000000
# 3 0.003581 -0.008237 0.011040 0.000000 0.000000 0.000000
# 4 0.000000 0.000000 0.000000 0.042061 0.000000 0.000000
# 5 0.000000 0.000000 0.000000 0.000000 0.044409 0.000000
# 6 0.000000 0.000000 0.000000 0.000000 0.000000 0.138126
#
#
# Mechanical properties :
#
#
# Convention : Reuss Voigt Hill
#
# Bulk Modulus (GPa) = 12.20072 53.75949 32.98011
# Shear Modulus (GPa) = 12.87194 23.28198 18.07696
#
# Velocity S-wave (km/s) = 2.79411 3.75778 3.31119
# Velocity P-wave (km/s) = 4.22011 7.17175 5.88402
#
# Compressibility (1/GPa) = 0.08196236
#
# Stress axis : x y z
#
# Youngs Moduli (GPa) = 12.01441 66.80009 90.57634
#
# Poissons Ratio (x) = 0.60017 -0.32434
# Poissons Ratio (y) = 0.10794 0.74608
# Poissons Ratio (z) = -0.04302 0.55023
#
# Static dielectric constant tensor:
#      x y z
#    x 1.594360 0.000000 0.000000 
#    y 0.000000 1.565230 0.000000 
#    z 0.000000 0.000000 1.511640 
# 
# From -- ./inp_files/32636.got.cif
#   From: 2010.05.17/outbox.cif.g08.bks.cpg/sg51_17_cif.got.tgz:32636.got - 2010.06.03 11:52:47.
