data_PCOD9400205
_publ_section_title
;
Structure prediction by ZEFSAII (Michael W. Deem and Ramdas Pophale) SiO2 
 PCOD9400205
Probable space group: P M M A
;
_chemical_formula_sum "Si O2"
_cell_formula_units_Z 44
_cell_length_a 8.839918
_cell_length_b 18.935223
_cell_length_c 20.013738
_cell_angle_alpha 90.000000
_cell_angle_beta 90.000000
_cell_angle_gamma 90.000000
_cell_volume 3350.015919
_symmetry_space_group_name_H-M "P M M A"
_symmetry_group_IT_number 51
_symmetry_cell_setting 'orthorhombic'
loop_
_space_group_symop_operation_xyz
x,y,z
1/2-x,-y,z
1/2+x,-y,-z
-x,y,-z
-x,-y,-z
1/2+x,y,-z
1/2-x,y,z
x,-y,z
loop_
_atom_site_type_symbol
_atom_site_label
_atom_site_fract_x
_atom_site_fract_y
_atom_site_fract_z
Si Si1 0.567879 0.575805 0.574495
Si Si2 0.067732 0.731722 0.425062
Si Si3 0.068102 0.000000 0.573581
Si Si4 0.424384 0.914126 0.930998
Si Si5 0.568331 0.860643 0.343124
Si Si6 0.930577 0.083468 0.790610
O O1 0.500000 0.575287 0.500000
O O2 0.750000 0.575733 0.570073
O O3 0.522433 0.500000 0.606127
O O4 0.526148 0.653025 0.601926
O O5 0.250000 0.737258 0.428932
O O6 0.000000 0.738816 0.500000
O O7 0.001792 0.792480 0.378432
O O8 0.022960 0.929940 0.614002
O O9 0.000000 0.000000 0.500000
O O10 0.250000 0.000000 0.568744
O O11 0.250000 0.892171 0.927379
O O12 0.512397 0.893986 0.863808
O O13 0.427149 0.000000 0.932756
O O14 0.500000 0.889655 0.000000
O O15 0.750000 0.856138 0.343128
O O16 0.508240 0.873457 0.268596
O O17 0.750000 0.089488 0.786652
O O18 0.970276 0.000000 0.782293
#
# Coordination Sequence:
#
# PCOD9400205 Si02
#       6
#     8   8   4   8   8   8
#     4   8  14  25  41  59  78  98 120 150 190 237
#     4  10  19  30  43  60  79 100 129 164 203 243
#     4  10  22  34  44  54  67  92 129 170 208 244
#     4   9  16  26  41  60  81 102 125 157 194 235
#     4  11  21  33  44  56  75 102 134 168 207 244
#     4  10  19  30  44  60  77 100 130 165 203 242
#
# _framework density 13.134266
#
# number of rings (size 3 to 8) (size 9 to 14) (size 15 to 20)
#    0.000    2.364    0.909    2.727    0.000    6.545 
#    0.000    0.000    0.000    0.000    0.000    0.000 
#    0.000    0.000    0.000    0.000    0.000    0.909 
#
# Total GULP energy -245095.619097 kJ/mol
# GULP energy per Si atom -5570.354979 kJ/mol
# Density = 1.310437 g / cm^3
# Si number density = 13.134266 Si / 1000 Ang^3
#
#
#
# Elastic Constant Matrix: (Units=GPa)
#
#
# Indices 1 2 3 4 5 6 
#
# 1 44.3426 34.0247 32.3982 0.0000 0.0000 0.0000
# 2 34.0247 106.9731 48.4896 0.0000 0.0000 0.0000
# 3 32.3982 48.4896 93.5247 0.0000 0.0000 0.0000
# 4 0.0000 0.0000 0.0000 1.5779 0.0000 0.0000
# 5 0.0000 0.0000 0.0000 0.0000 24.2987 0.0000
# 6 0.0000 0.0000 0.0000 0.0000 0.0000 11.8391
#
#
#
# Elastic Compliance Matrix: (Units=1/GPa)
#
#
# Indices 1 2 3 4 5 6 
#
# 1 0.033907 -0.007138 -0.008045 0.000000 0.000000 0.000000
# 2 -0.007138 0.013723 -0.004642 0.000000 0.000000 0.000000
# 3 -0.008045 -0.004642 0.015886 0.000000 0.000000 0.000000
# 4 0.000000 0.000000 0.000000 0.633735 0.000000 0.000000
# 5 0.000000 0.000000 0.000000 0.000000 0.041155 0.000000
# 6 0.000000 0.000000 0.000000 0.000000 0.000000 0.084466
#
#
# Mechanical properties :
#
#
# Convention : Reuss Voigt Hill
#
# Bulk Modulus (GPa) = 41.90167 52.74062 47.32114
# Shear Modulus (GPa) = 5.74399 16.20501 10.97450
#
# Velocity S-wave (km/s) = 2.09351 3.51635 2.89375
# Velocity P-wave (km/s) = 6.14943 7.53183 6.87546
#
# Compressibility (1/GPa) = 0.02386540
#
# Stress axis : x y z
#
# Youngs Moduli (GPa) = 29.49278 72.87189 62.94847
#
# Poissons Ratio (x) = 0.52016 0.50641
# Poissons Ratio (y) = 0.21052 0.29221
# Poissons Ratio (z) = 0.23727 0.33828
#
# Static dielectric constant tensor:
#      x y z
#    x 1.438680 0.000000 0.000000 
#    y 0.000000 1.446440 0.000000 
#    z 0.000000 0.000000 1.403140 
# 
# From -- ./inp_files/27845.got.cif
#   From: 2010.05.17/outbox.cif.g08.bks.cpg/sg51_14_cif.got.tgz:27845.got - 2010.06.03 11:52:47.
