data_PCOD9400796
_publ_section_title
;
Structure prediction by ZEFSAII (Michael W. Deem and Ramdas Pophale) SiO2 
 PCOD9400796
Probable space group: P M M A
;
_chemical_formula_sum "Si O2"
_cell_formula_units_Z 36
_cell_length_a 9.093092
_cell_length_b 16.374178
_cell_length_c 13.604502
_cell_angle_alpha 90.000000
_cell_angle_beta 90.000000
_cell_angle_gamma 90.000000
_cell_volume 2025.600246
_symmetry_space_group_name_H-M "P M M A"
_symmetry_group_IT_number 51
_symmetry_cell_setting 'orthorhombic'
loop_
_space_group_symop_operation_xyz
x,y,z
1/2-x,-y,z
1/2+x,-y,-z
-x,y,-z
-x,-y,-z
1/2+x,y,-z
1/2-x,y,z
x,-y,z
loop_
_atom_site_type_symbol
_atom_site_label
_atom_site_fract_x
_atom_site_fract_y
_atom_site_fract_z
Si Si1 0.926867 0.500000 0.893715
Si Si2 0.425638 0.093200 0.689355
Si Si3 0.426114 0.674856 0.191583
Si Si4 0.075232 0.831030 0.900300
Si Si5 0.575307 0.751044 0.599432
O O1 0.750000 0.500000 0.904029
O O2 0.967492 0.416784 0.837616
O O3 0.000000 0.500000 0.000000
O O4 0.250000 0.103354 0.674055
O O5 0.454388 0.113595 0.804310
O O6 0.511741 0.159697 0.626106
O O7 0.465613 0.000000 0.667289
O O8 0.250000 0.685094 0.176940
O O9 0.509644 0.742107 0.126616
O O10 0.457738 0.695659 0.305262
O O11 0.250000 0.825808 0.913674
O O12 0.000000 0.861057 0.000000
O O13 0.500000 0.721326 0.500000
O O14 0.750000 0.755201 0.587045
#
# Coordination Sequence:
#
# PCOD9400796 Si02
#       5
#     4   8   8   8   8
#     4  10  20  34  53  78 106 134 165 202 243 288
#     4   9  19  35  52  72  99 130 167 210 251 294
#     4   9  19  35  53  74 101 132 167 206 247 293
#     4  10  19  31  49  72 100 134 169 205 247 296
#     4  10  20  35  55  76  99 130 166 205 251 299
#
# _framework density 17.772508999999999
#
# number of rings (size 3 to 8) (size 9 to 14) (size 15 to 20)
#    0.000    2.444    0.000    2.000    0.000    5.778 
#    0.000    0.556    0.000    0.000    0.000    0.000 
#    0.000    0.000    0.000    0.000    0.000    0.000 
#
# Total GULP energy -200934.897936 kJ/mol
# GULP energy per Si atom -5581.524943 kJ/mol
# Density = 1.773206 g / cm^3
# Si number density = 17.772509 Si / 1000 Ang^3
#
#
#
# Elastic Constant Matrix: (Units=GPa)
#
#
# Indices 1 2 3 4 5 6 
#
# 1 32.1443 20.2230 36.5819 0.0000 0.0000 0.0000
# 2 20.2230 91.9389 19.8313 0.0000 0.0000 0.0000
# 3 36.5819 19.8313 88.8730 0.0000 0.0000 0.0000
# 4 0.0000 0.0000 0.0000 5.6725 0.0000 0.0000
# 5 0.0000 0.0000 0.0000 0.0000 36.6049 0.0000
# 6 0.0000 0.0000 0.0000 0.0000 0.0000 21.6570
#
#
#
# Elastic Compliance Matrix: (Units=1/GPa)
#
#
# Indices 1 2 3 4 5 6 
#
# 1 0.064832 -0.008934 -0.024693 0.000000 0.000000 0.000000
# 2 -0.008934 0.012658 0.000853 0.000000 0.000000 0.000000
# 3 -0.024693 0.000853 0.021226 0.000000 0.000000 0.000000
# 4 0.000000 0.000000 0.000000 0.176289 0.000000 0.000000
# 5 0.000000 0.000000 0.000000 0.000000 0.027319 0.000000
# 6 0.000000 0.000000 0.000000 0.000000 0.000000 0.046174
#
#
# Mechanical properties :
#
#
# Convention : Reuss Voigt Hill
#
# Bulk Modulus (GPa) = 30.14958 40.69206 35.42082
# Shear Modulus (GPa) = 11.76189 21.87488 16.81838
#
# Velocity S-wave (km/s) = 2.57534 3.51212 3.07956
# Velocity P-wave (km/s) = 5.08372 6.27634 5.71124
#
# Compressibility (1/GPa) = 0.03316796
#
# Stress axis : x y z
#
# Youngs Moduli (GPa) = 15.42447 79.00140 47.11291
#
# Poissons Ratio (x) = 0.70582 1.16334
# Poissons Ratio (y) = 0.13781 -0.04019
# Poissons Ratio (z) = 0.38087 -0.06739
#
# Static dielectric constant tensor:
#      x y z
#    x 1.590550 0.000000 0.000000 
#    y 0.000000 1.584710 0.000000 
#    z 0.000000 0.000000 1.605890 
# 
# From -- ./inp_files/20318.got.cif
#   From: 2010.05.17/outbox.cif.g08.bks.cpg/sg51_11_cif.got.tgz:20318.got - 2010.06.03 11:52:47.
