data_PCOD9400790
_publ_section_title
;
Structure prediction by ZEFSAII (Michael W. Deem and Ramdas Pophale) SiO2 
 PCOD9400790
Probable space group: P M M A
;
_chemical_formula_sum "Si O2"
_cell_formula_units_Z 48
_cell_length_a 8.822424
_cell_length_b 24.312158
_cell_length_c 14.097617
_cell_angle_alpha 90.000000
_cell_angle_beta 90.000000
_cell_angle_gamma 90.000000
_cell_volume 3023.828409
_symmetry_space_group_name_H-M "P M M A"
_symmetry_group_IT_number 51
_symmetry_cell_setting 'orthorhombic'
loop_
_space_group_symop_operation_xyz
x,y,z
1/2-x,-y,z
1/2+x,-y,-z
-x,y,-z
-x,-y,-z
1/2+x,y,-z
1/2-x,y,z
x,-y,z
loop_
_atom_site_type_symbol
_atom_site_label
_atom_site_fract_x
_atom_site_fract_y
_atom_site_fract_z
Si Si1 0.067479 0.062492 0.896644
Si Si2 0.569106 0.563182 0.397207
Si Si3 0.431013 0.338435 0.286408
Si Si4 0.567565 0.169073 0.217439
Si Si5 0.932145 0.729391 0.897184
Si Si6 0.431909 0.226551 0.396164
O O1 0.250000 0.063448 0.904159
O O2 0.023970 0.109015 0.821386
O O3 0.021136 0.000000 0.871688
O O4 0.000000 0.075458 0.000000
O O5 0.500000 0.577344 0.500000
O O6 0.750000 0.565577 0.403912
O O7 0.524477 0.500000 0.375585
O O8 0.511434 0.606715 0.320904
O O9 0.250000 0.346076 0.291919
O O10 0.468364 0.317464 0.180713
O O11 0.470799 0.287423 0.355829
O O12 0.750000 0.173188 0.220368
O O13 0.502491 0.214508 0.144736
O O14 0.499415 0.184266 0.319534
O O15 0.750000 0.734920 0.901413
O O16 0.000000 0.717954 0.000000
O O17 0.500000 0.219040 0.500000
O O18 0.250000 0.222194 0.397702
#
# Coordination Sequence:
#
# PCOD9400790 Si02
#       6
#     8   8   8   8   8   8
#     4   9  18  31  47  69  96 125 157 193 233 278
#     4  10  20  32  48  71  97 125 156 191 231 275
#     4   9  19  33  49  70  95 124 155 190 232 277
#     4  10  19  31  49  71  96 127 159 193 236 281
#     4  10  20  33  49  71  98 126 158 195 236 281
#     4  10  20  33  49  71  98 125 157 195 236 282
#
# _framework density 15.873915999999999
#
# number of rings (size 3 to 8) (size 9 to 14) (size 15 to 20)
#    0.000    2.333    0.000    4.000    0.000    9.000 
#    0.000    0.000    0.000    1.000    0.000    0.000 
#    0.000    0.000    0.000    0.000    0.000    0.000 
#
# Total GULP energy -267784.880186 kJ/mol
# GULP energy per Si atom -5578.851671 kJ/mol
# Density = 1.583779 g / cm^3
# Si number density = 15.873916 Si / 1000 Ang^3
#
#
#
# Elastic Constant Matrix: (Units=GPa)
#
#
# Indices 1 2 3 4 5 6 
#
# 1 46.1843 43.1405 50.2966 0.0000 0.0000 0.0000
# 2 43.1405 99.8169 80.9723 0.0000 0.0000 0.0000
# 3 50.2966 80.9723 145.6729 0.0000 0.0000 0.0000
# 4 0.0000 0.0000 0.0000 21.1978 0.0000 0.0000
# 5 0.0000 0.0000 0.0000 0.0000 30.9756 0.0000
# 6 0.0000 0.0000 0.0000 0.0000 0.0000 24.0977
#
#
#
# Elastic Compliance Matrix: (Units=1/GPa)
#
#
# Indices 1 2 3 4 5 6 
#
# 1 0.040630 -0.011255 -0.007772 0.000000 0.000000 0.000000
# 2 -0.011255 0.021363 -0.007989 0.000000 0.000000 0.000000
# 3 -0.007772 -0.007989 0.013989 0.000000 0.000000 0.000000
# 4 0.000000 0.000000 0.000000 0.047175 0.000000 0.000000
# 5 0.000000 0.000000 0.000000 0.000000 0.032283 0.000000
# 6 0.000000 0.000000 0.000000 0.000000 0.000000 0.041498
#
#
# Mechanical properties :
#
#
# Convention : Reuss Voigt Hill
#
# Bulk Modulus (GPa) = 45.55844 71.16586 58.36215
# Shear Modulus (GPa) = 19.35833 23.07187 21.21510
#
# Velocity S-wave (km/s) = 3.49593 3.81654 3.65975
# Velocity P-wave (km/s) = 6.71252 8.02188 7.39623
#
# Compressibility (1/GPa) = 0.02194983
#
# Stress axis : x y z
#
# Youngs Moduli (GPa) = 24.61235 46.80916 71.48654
#
# Poissons Ratio (x) = 0.52685 0.55560
# Poissons Ratio (y) = 0.27702 0.57108
# Poissons Ratio (z) = 0.19129 0.37394
#
# Static dielectric constant tensor:
#      x y z
#    x 1.529800 0.000000 0.000000 
#    y 0.000000 1.528450 0.000000 
#    z 0.000000 0.000000 1.507340 
# 
# From -- ./inp_files/21986.got.cif
#   From: 2010.05.17/outbox.cif.g08.bks.cpg/sg51_11_cif.got.tgz:21986.got - 2010.06.03 11:52:47.
