data_PCOD9400495
_publ_section_title
;
Structure prediction by ZEFSAII (Michael W. Deem and Ramdas Pophale) SiO2 
 PCOD9400495
Probable space group: P M M A
;
_chemical_formula_sum "Si O2"
_cell_formula_units_Z 48
_cell_length_a 8.623725
_cell_length_b 16.280155
_cell_length_c 19.740634
_cell_angle_alpha 90.000000
_cell_angle_beta 90.000000
_cell_angle_gamma 90.000000
_cell_volume 2771.497754
_symmetry_space_group_name_H-M "P M M A"
_symmetry_group_IT_number 51
_symmetry_cell_setting 'orthorhombic'
loop_
_space_group_symop_operation_xyz
x,y,z
1/2-x,-y,z
1/2+x,-y,-z
-x,y,-z
-x,-y,-z
1/2+x,y,-z
1/2-x,y,z
x,-y,z
loop_
_atom_site_type_symbol
_atom_site_label
_atom_site_fract_x
_atom_site_fract_y
_atom_site_fract_z
Si Si1 0.435986 0.739768 0.576326
Si Si2 0.562767 0.593268 0.325295
Si Si3 0.937187 0.911936 0.076848
Si Si4 0.435616 0.593712 0.175017
Si Si5 0.935962 0.910395 0.576970
Si Si6 0.063808 0.267999 0.923543
O O1 0.500000 0.731968 0.500000
O O2 0.250000 0.741944 0.573236
O O3 0.486370 0.662617 0.621602
O O4 0.494868 0.826658 0.606517
O O5 0.750000 0.595642 0.321260
O O6 0.517585 0.500000 0.345055
O O7 0.495678 0.609663 0.250930
O O8 0.750000 0.912077 0.075113
O O9 0.984337 0.822656 0.104492
O O10 0.986829 0.000000 0.107977
O O11 0.000000 0.912337 0.000000
O O12 0.250000 0.597461 0.174386
O O13 0.482892 0.500000 0.157324
O O14 0.502180 0.659677 0.123260
O O15 0.750000 0.904182 0.574988
O O16 0.000000 0.911966 0.500000
O O17 0.977071 0.000000 0.607339
O O18 0.250000 0.271026 0.925958
O O19 0.000000 0.275609 0.000000
#
# Coordination Sequence:
#
# PCOD9400495 Si02
#       6
#     8   8   8   8   8   8
#     4  10  19  30  48  74 101 128 159 197 240 283
#     4   9  19  36  54  71  94 126 162 197 237 288
#     4   8  14  25  42  66  95 125 156 189 227 273
#     4  10  21  36  53  72  94 124 162 201 243 291
#     4   9  16  26  42  65  94 127 160 195 236 281
#     4  10  19  31  50  75 102 130 160 198 241 282
#
# _framework density 17.319154999999999
#
# number of rings (size 3 to 8) (size 9 to 14) (size 15 to 20)
#    0.000    2.667    0.000    3.000    0.000    4.667 
#    0.000    0.000    0.000    1.000    0.000    2.333 
#    0.000    0.000    0.000    0.000    0.000    0.000 
#
# Total GULP energy -267279.299581 kJ/mol
# GULP energy per Si atom -5568.318741 kJ/mol
# Density = 1.727974 g / cm^3
# Si number density = 17.319155 Si / 1000 Ang^3
#
#
#
# Elastic Constant Matrix: (Units=GPa)
#
#
# Indices 1 2 3 4 5 6 
#
# 1 34.0548 45.0835 20.8080 0.0000 0.0000 0.0000
# 2 45.0835 208.7147 86.2183 0.0000 0.0000 0.0000
# 3 20.8080 86.2183 51.8181 0.0000 0.0000 0.0000
# 4 0.0000 0.0000 0.0000 -2.3612 0.0000 0.0000
# 5 0.0000 0.0000 0.0000 0.0000 21.7297 0.0000
# 6 0.0000 0.0000 0.0000 0.0000 0.0000 13.7184
#
#
#
# Elastic Compliance Matrix: (Units=1/GPa)
#
#
# Indices 1 2 3 4 5 6 
#
# 1 0.041628 -0.006674 -0.005612 0.000000 0.000000 0.000000
# 2 -0.006674 0.016393 -0.024596 0.000000 0.000000 0.000000
# 3 -0.005612 -0.024596 0.062477 0.000000 0.000000 0.000000
# 4 0.000000 0.000000 0.000000 -0.423513 0.000000 0.000000
# 5 0.000000 0.000000 0.000000 0.000000 0.046020 0.000000
# 6 0.000000 0.000000 0.000000 0.000000 0.000000 0.072895
#
#
# Mechanical properties :
#
#
# Convention : Reuss Voigt Hill
#
# Bulk Modulus (GPa) = 21.39763 66.53413 43.96588
# Shear Modulus (GPa) = -52.76696 16.11591 -18.32553
#
# Velocity S-wave (km/s) = -5.52572 3.05376 -3.25639
# Velocity P-wave (km/s) = 5.32256 7.13679 3.36186
#
# Compressibility (1/GPa) = 0.04673416
#
# Stress axis : x y z
#
# Youngs Moduli (GPa) = 24.02203 61.00038 16.00588
#
# Poissons Ratio (x) = 0.40709 0.08983
# Poissons Ratio (y) = 0.16031 0.39369
# Poissons Ratio (z) = 0.13482 1.50039
#
# Static dielectric constant tensor:
#      x y z
#    x 1.585060 0.000000 0.000000 
#    y 0.000000 1.658000 0.000000 
#    z 0.000000 0.000000 1.542770 
# 
# From -- ./inp_files/31578.got.cif
#   From: 2010.05.17/outbox.cif.g08.bks.cpg/sg51_16_cif.got.tgz:31578.got - 2010.06.03 11:52:47.
