data_PCOD9400122
_publ_section_title
;
Structure prediction by ZEFSAII (Michael W. Deem and Ramdas Pophale) SiO2 
 PCOD9400122
Probable space group: P M M A
;
_chemical_formula_sum "Si O2"
_cell_formula_units_Z 64
_cell_length_a 9.252585
_cell_length_b 20.144387
_cell_length_c 20.391686
_cell_angle_alpha 90.000000
_cell_angle_beta 90.000000
_cell_angle_gamma 90.000000
_cell_volume 3800.758494
_symmetry_space_group_name_H-M "P M M A"
_symmetry_group_IT_number 51
_symmetry_cell_setting 'orthorhombic'
loop_
_space_group_symop_operation_xyz
x,y,z
1/2-x,-y,z
1/2+x,-y,-z
-x,y,-z
-x,-y,-z
1/2+x,y,-z
1/2-x,y,z
x,-y,z
loop_
_atom_site_type_symbol
_atom_site_label
_atom_site_fract_x
_atom_site_fract_y
_atom_site_fract_z
Si Si1 0.920804 0.390898 0.563999
Si Si2 0.576608 0.574268 0.712419
Si Si3 0.919516 0.705395 0.246554
Si Si4 0.581352 0.891125 0.434341
Si Si5 0.924006 0.826075 0.813135
Si Si6 0.915435 0.262696 0.399449
Si Si7 0.576276 0.076015 0.930437
Si Si8 0.418817 0.074180 0.303618
O O1 0.750000 0.396752 0.555808
O O2 0.960411 0.421554 0.634660
O O3 0.000000 0.418485 0.500000
O O4 0.970916 0.314373 0.571536
O O5 0.750000 0.584476 0.716942
O O6 0.542547 0.500000 0.735932
O O7 0.494755 0.633553 0.748781
O O8 0.750000 0.699463 0.231924
O O9 0.932672 0.735157 0.320619
O O10 0.997581 0.756240 0.197670
O O11 0.500000 0.912165 0.500000
O O12 0.750000 0.907270 0.438435
O O13 0.566643 0.811310 0.425787
O O14 0.511268 0.920494 0.369094
O O15 0.750000 0.817003 0.813774
O O16 0.965224 0.868854 0.876969
O O17 0.960242 0.872062 0.750455
O O18 0.750000 0.284944 0.413900
O O19 0.750000 0.079171 0.938083
O O20 0.541797 0.000000 0.909068
O O21 0.500000 0.087084 0.000000
O O22 0.250000 0.085104 0.320517
O O23 0.431212 0.000000 0.275521
#
# Coordination Sequence:
#
# PCOD9400122 Si02
#       8
#     8   8   8   8   8   8   8   8
#     4  10  19  29  44  65  88 117 154 196 246 305
#     4   9  19  35  51  68  94 129 166 204 252 311
#     4  10  19  32  51  76 102 126 162 210 256 300
#     4  11  22  35  49  66  88 118 157 205 261 316
#     4  10  19  33  55  79 105 138 174 211 252 299
#     4   9  18  32  47  65  89 116 151 199 252 305
#     4   9  18  33  53  80 115 152 186 217 251 296
#     4  10  21  36  53  72  93 122 163 209 257 307
#
# _framework density 16.838744999999999
#
# number of rings (size 3 to 8) (size 9 to 14) (size 15 to 20)
#    0.000    2.250    1.250    1.875    0.000    6.000 
#    0.000    0.000    0.000    2.250    0.000    0.000 
#    0.000    0.500    0.000    1.625    0.000    2.000 
#
# Total GULP energy -357176.782816 kJ/mol
# GULP energy per Si atom -5580.887231 kJ/mol
# Density = 1.680042 g / cm^3
# Si number density = 16.838745 Si / 1000 Ang^3
#
#
#
# Elastic Constant Matrix: (Units=GPa)
#
#
# Indices 1 2 3 4 5 6 
#
# 1 50.9868 53.9614 40.1813 0.0000 0.0000 0.0000
# 2 53.9614 115.1565 52.7303 0.0000 0.0000 0.0000
# 3 40.1813 52.7303 76.5999 0.0000 0.0000 0.0000
# 4 0.0000 0.0000 0.0000 42.8810 0.0000 0.0000
# 5 0.0000 0.0000 0.0000 0.0000 23.0452 0.0000
# 6 0.0000 0.0000 0.0000 0.0000 0.0000 17.9174
#
#
#
# Elastic Compliance Matrix: (Units=1/GPa)
#
#
# Indices 1 2 3 4 5 6 
#
# 1 0.047310 -0.015779 -0.013955 0.000000 0.000000 0.000000
# 2 -0.015779 0.017944 -0.004075 0.000000 0.000000 0.000000
# 3 -0.013955 -0.004075 0.023180 0.000000 0.000000 0.000000
# 4 0.000000 0.000000 0.000000 0.023320 0.000000 0.000000
# 5 0.000000 0.000000 0.000000 0.000000 0.043393 0.000000
# 6 0.000000 0.000000 0.000000 0.000000 0.000000 0.055812
#
#
# Mechanical properties :
#
#
# Convention : Reuss Voigt Hill
#
# Bulk Modulus (GPa) = 48.04028 59.60991 53.82510
# Shear Modulus (GPa) = 17.51214 23.16004 20.33609
#
# Velocity S-wave (km/s) = 3.22839 3.71266 3.47896
# Velocity P-wave (km/s) = 6.51830 7.33865 6.94060
#
# Compressibility (1/GPa) = 0.02081587
#
# Stress axis : x y z
#
# Youngs Moduli (GPa) = 21.13719 55.72941 43.14010
#
# Poissons Ratio (x) = 0.87936 0.60201
# Poissons Ratio (y) = 0.33353 0.17580
# Poissons Ratio (z) = 0.29496 0.22711
#
# Static dielectric constant tensor:
#      x y z
#    x 1.562330 0.000000 0.000000 
#    y 0.000000 1.582580 0.000000 
#    z 0.000000 0.000000 1.545340 
# 
# From -- ./inp_files/28408.got.cif
#   From: 2010.05.17/outbox.cif.g08.bks.cpg/sg51_15_cif.got.tgz:28408.got - 2010.06.03 11:52:47.
