data_PCOD9400142
_publ_section_title
;
Structure prediction by ZEFSAII (Michael W. Deem and Ramdas Pophale) SiO2 
 PCOD9400142
Probable space group: P M M A
;
_chemical_formula_sum "Si O2"
_cell_formula_units_Z 48
_cell_length_a 32.313480
_cell_length_b 8.521230
_cell_length_c 7.174751
_cell_angle_alpha 90.000000
_cell_angle_beta 90.000000
_cell_angle_gamma 90.000000
_cell_volume 1975.571958
_symmetry_space_group_name_H-M "P M M A"
_symmetry_group_IT_number 51
_symmetry_cell_setting 'orthorhombic'
loop_
_space_group_symop_operation_xyz
x,y,z
1/2-x,-y,z
1/2+x,-y,-z
-x,y,-z
-x,-y,-z
1/2+x,y,-z
1/2-x,y,z
x,-y,z
loop_
_atom_site_type_symbol
_atom_site_label
_atom_site_fract_x
_atom_site_fract_y
_atom_site_fract_z
Si Si1 0.847758 0.668009 0.124441
Si Si2 0.545932 0.000000 0.580372
Si Si3 0.434200 0.330506 0.384751
Si Si4 0.053352 0.667657 0.811892
Si Si5 0.065974 0.000000 0.841968
Si Si6 0.201135 0.000000 0.304936
Si Si7 0.337976 0.000000 0.895769
Si Si8 0.837758 0.671898 0.674966
O O1 0.830995 0.500000 0.191812
O O2 0.896877 0.666285 0.160567
O O3 0.829969 0.831946 0.198815
O O4 0.841874 0.673248 0.900828
O O5 0.500000 0.000000 0.500000
O O6 0.554039 0.839857 0.692023
O O7 0.573101 0.000000 0.386949
O O8 0.444225 0.500000 0.295278
O O9 0.453947 0.331796 0.590109
O O10 0.384577 0.327184 0.400892
O O11 0.037994 0.500000 0.882498
O O12 0.041997 0.839386 0.882564
O O13 0.111969 0.000000 0.930839
O O14 0.183777 0.165821 0.379393
O O15 0.250000 0.000000 0.320687
O O16 0.186961 0.000000 0.088069
O O17 0.819207 0.500000 0.627722
#
# Coordination Sequence:
#
# PCOD9400142 Si02
#       8
#     8   4   8   8   4   4   4   8
#     4   8  13  22  38  61  84 105 136 179 219 253
#     4  10  19  29  44  69  97 122 152 196 247 287
#     4   9  17  29  45  66  90 118 154 192 227 270
#     4   8  13  22  38  61  83 104 138 182 221 255
#     4   8  14  25  40  59  83 113 146 180 219 269
#     4  10  19  29  44  69  97 120 147 188 234 275
#     4   8  14  25  40  59  83 113 147 180 217 263
#     4   9  17  29  45  66  91 119 152 188 225 269
#
# _framework density 24.296762000000001
#
# number of rings (size 3 to 8) (size 9 to 14) (size 15 to 20)
#    0.000    3.333    0.000    0.500    0.000    0.667 
#    0.000    0.000    0.000    0.000    0.000   74.667 
#    0.000  105.333    0.000    0.000    0.000    0.000 
#
# Total GULP energy -267611.933789 kJ/mol
# GULP energy per Si atom -5575.248621 kJ/mol
# Density = 2.424146 g / cm^3
# Si number density = 24.296762 Si / 1000 Ang^3
#
#
#
# Elastic Constant Matrix: (Units=GPa)
#
#
# Indices 1 2 3 4 5 6 
#
# 1 32.2419 51.2609 32.5736 0.0000 0.0000 0.0000
# 2 51.2609 367.3832 17.7745 0.0000 0.0000 0.0000
# 3 32.5736 17.7745 93.5980 0.0000 0.0000 0.0000
# 4 0.0000 0.0000 0.0000 -21.8524 0.0000 0.0000
# 5 0.0000 0.0000 0.0000 0.0000 2.1439 0.0000
# 6 0.0000 0.0000 0.0000 0.0000 0.0000 20.8167
#
#
#
# Elastic Compliance Matrix: (Units=1/GPa)
#
#
# Indices 1 2 3 4 5 6 
#
# 1 0.065256 -0.008081 -0.021176 0.000000 0.000000 0.000000
# 2 -0.008081 0.003748 0.002100 0.000000 0.000000 0.000000
# 3 -0.021176 0.002100 0.017655 0.000000 0.000000 0.000000
# 4 0.000000 0.000000 0.000000 -0.045762 0.000000 0.000000
# 5 0.000000 0.000000 0.000000 0.000000 0.466429 0.000000
# 6 0.000000 0.000000 0.000000 0.000000 0.000000 0.048038
#
#
# Mechanical properties :
#
#
# Convention : Reuss Voigt Hill
#
# Bulk Modulus (GPa) = 30.91481 77.38233 54.14857
# Shear Modulus (GPa) = 8.05856 26.32927 17.19391
#
# Velocity S-wave (km/s) = 1.82316 3.29546 2.66308
# Velocity P-wave (km/s) = 4.14528 6.81161 5.63832
#
# Compressibility (1/GPa) = 0.03234696
#
# Stress axis : x y z
#
# Youngs Moduli (GPa) = 15.32419 266.82135 56.64262
#
# Poissons Ratio (x) = 2.15610 1.19944
# Poissons Ratio (y) = 0.12383 -0.11898
# Poissons Ratio (z) = 0.32450 -0.56045
#
# Static dielectric constant tensor:
#      x y z
#    x 1.825280 0.000000 0.000000 
#    y 0.000000 2.071350 0.000000 
#    z 0.000000 0.000000 1.931130 
# 
# From -- ./inp_files/12995.got.cif
#   From: 2010.05.17/outbox.cif.g08.bks.cpg/sg51_7_cif.got.tgz:12995.got - 2010.06.03 11:52:47.
