data_PCOD9400357
_publ_section_title
;
Structure prediction by ZEFSAII (Michael W. Deem and Ramdas Pophale) SiO2 
 PCOD9400357
Probable space group: P M M A
;
_chemical_formula_sum "Si O2"
_cell_formula_units_Z 64
_cell_length_a 9.047138
_cell_length_b 14.524321
_cell_length_c 27.492588
_cell_angle_alpha 90.000000
_cell_angle_beta 90.000000
_cell_angle_gamma 90.000000
_cell_volume 3612.623289
_symmetry_space_group_name_H-M "P M M A"
_symmetry_group_IT_number 51
_symmetry_cell_setting 'orthorhombic'
loop_
_space_group_symop_operation_xyz
x,y,z
1/2-x,-y,z
1/2+x,-y,-z
-x,y,-z
-x,-y,-z
1/2+x,y,-z
1/2-x,y,z
x,-y,z
loop_
_atom_site_type_symbol
_atom_site_label
_atom_site_fract_x
_atom_site_fract_y
_atom_site_fract_z
Si Si1 0.573027 0.309954 0.751016
Si Si2 0.426754 0.099266 0.256512
Si Si3 0.582310 0.870084 0.355225
Si Si4 0.579308 0.610770 0.155771
Si Si5 0.427092 0.609134 0.951312
Si Si6 0.421119 0.361046 0.449272
Si Si7 0.419311 0.648374 0.650945
Si Si8 0.580068 0.863336 0.548788
O O1 0.750000 0.310409 0.744878
O O2 0.522652 0.202466 0.758178
O O3 0.521739 0.359737 0.799796
O O4 0.502537 0.358338 0.702989
O O5 0.250000 0.099817 0.251799
O O6 0.476116 0.098665 0.312435
O O7 0.479357 0.000000 0.235077
O O8 0.750000 0.900262 0.347505
O O9 0.585349 0.758993 0.355314
O O10 0.514193 0.897210 0.406128
O O11 0.750000 0.640285 0.164045
O O12 0.581179 0.500000 0.153301
O O13 0.529921 0.645321 0.102198
O O14 0.250000 0.616362 0.954747
O O15 0.464282 0.500000 0.950743
O O16 0.500000 0.649132 0.000000
O O17 0.500000 0.389731 0.500000
O O18 0.250000 0.390201 0.448977
O O19 0.500932 0.387565 0.398284
O O20 0.421325 0.248978 0.450084
O O21 0.250000 0.614899 0.653985
O O22 0.500000 0.891974 0.500000
O O23 0.750000 0.891398 0.551204
#
# Coordination Sequence:
#
# PCOD9400357 Si02
#       8
#     8   8   8   8   8   8   8   8
#     4  10  19  30  46  68  92 120 157 198 235 275
#     4   9  18  32  47  62  83 112 145 184 232 280
#     4   9  16  25  38  56  75  97 131 173 215 263
#     4   9  18  32  48  68  99 137 168 193 228 273
#     4   8  14  25  42  65  94 129 166 198 226 259
#     4   9  15  22  33  51  75 102 135 176 221 271
#     4   9  16  26  39  55  79 111 143 179 227 278
#     4   9  15  22  33  49  70  96 126 162 206 257
#
# _framework density 17.715657
#
# number of rings (size 3 to 8) (size 9 to 14) (size 15 to 20)
#    0.000    3.000    0.000    2.625    0.000    7.500 
#    0.000    1.250    0.000    0.375    0.000    0.000 
#    0.000    1.000    0.000    3.000    0.000    5.875 
#
# Total GULP energy -356379.966363 kJ/mol
# GULP energy per Si atom -5568.436974 kJ/mol
# Density = 1.767534 g / cm^3
# Si number density = 17.715657 Si / 1000 Ang^3
#
#
#
# Elastic Constant Matrix: (Units=GPa)
#
#
# Indices 1 2 3 4 5 6 
#
# 1 42.1186 0.1601 43.2763 0.0000 0.0000 0.0000
# 2 0.1601 44.0011 9.9297 0.0000 0.0000 0.0000
# 3 43.2763 9.9297 132.2492 0.0000 0.0000 0.0000
# 4 0.0000 0.0000 0.0000 4.4532 0.0000 0.0000
# 5 0.0000 0.0000 0.0000 0.0000 28.5009 0.0000
# 6 0.0000 0.0000 0.0000 0.0000 0.0000 5.7996
#
#
#
# Elastic Compliance Matrix: (Units=1/GPa)
#
#
# Indices 1 2 3 4 5 6 
#
# 1 0.036053 0.002575 -0.011991 0.000000 0.000000 0.000000
# 2 0.002575 0.023302 -0.002592 0.000000 0.000000 0.000000
# 3 -0.011991 -0.002592 0.011680 0.000000 0.000000 0.000000
# 4 0.000000 0.000000 0.000000 0.224558 0.000000 0.000000
# 5 0.000000 0.000000 0.000000 0.000000 0.035087 0.000000
# 6 0.000000 0.000000 0.000000 0.000000 0.000000 0.172425
#
#
# Mechanical properties :
#
#
# Convention : Reuss Voigt Hill
#
# Bulk Modulus (GPa) = 21.26813 36.12235 28.69524
# Shear Modulus (GPa) = 9.21158 18.75094 13.98126
#
# Velocity S-wave (km/s) = 2.28275 3.25690 2.81232
# Velocity P-wave (km/s) = 4.35652 5.88026 5.17478
#
# Compressibility (1/GPa) = 0.04701871
#
# Stress axis : x y z
#
# Youngs Moduli (GPa) = 27.73656 42.91419 85.61625
#
# Poissons Ratio (x) = -0.11050 1.02664
# Poissons Ratio (y) = -0.07142 0.22193
# Poissons Ratio (z) = 0.33259 0.11124
#
# Static dielectric constant tensor:
#      x y z
#    x 1.598710 0.000000 0.000000 
#    y 0.000000 1.722130 0.000000 
#    z 0.000000 0.000000 1.580160 
# 
# From -- ./inp_files/36436.got.cif
#   From: 2010.05.17/outbox.cif.g08.bks.cpg/sg51_19_cif.got.tgz:36436.got - 2010.06.03 11:52:47.
