data_PCOD9400552
_publ_section_title
;
Structure prediction by ZEFSAII (Michael W. Deem and Ramdas Pophale) SiO2 
 PCOD9400552
Probable space group: P M M A
;
_chemical_formula_sum "Si O2"
_cell_formula_units_Z 64
_cell_length_a 7.764304
_cell_length_b 14.956672
_cell_length_c 26.852631
_cell_angle_alpha 90.000000
_cell_angle_beta 90.000000
_cell_angle_gamma 90.000000
_cell_volume 3118.346313
_symmetry_space_group_name_H-M "P M M A"
_symmetry_group_IT_number 51
_symmetry_cell_setting 'orthorhombic'
loop_
_space_group_symop_operation_xyz
x,y,z
1/2-x,-y,z
1/2+x,-y,-z
-x,y,-z
-x,-y,-z
1/2+x,y,-z
1/2-x,y,z
x,-y,z
loop_
_atom_site_type_symbol
_atom_site_label
_atom_site_fract_x
_atom_site_fract_y
_atom_site_fract_z
Si Si1 0.542431 0.217108 0.445953
Si Si2 0.039822 0.895874 0.758039
Si Si3 0.447715 0.608364 0.300105
Si Si4 0.954686 0.899335 0.943332
Si Si5 0.451346 0.600177 0.590092
Si Si6 0.453462 0.600478 0.809807
Si Si7 0.540045 0.895855 0.351921
Si Si8 0.543885 0.220713 0.149338
O O1 0.500000 0.179101 0.500000
O O2 0.750000 0.220863 0.441838
O O3 0.472735 0.318621 0.441345
O O4 0.478204 0.160217 0.399029
O O5 0.250000 0.894190 0.758551
O O6 0.985300 0.863351 0.703052
O O7 0.976639 0.838569 0.804540
O O8 0.989974 0.000000 0.763208
O O9 0.250000 0.636811 0.302273
O O10 0.453747 0.500000 0.299120
O O11 0.537050 0.631199 0.352065
O O12 0.526602 0.634657 0.247241
O O13 0.750000 0.904268 0.939936
O O14 0.013149 0.829202 0.902237
O O15 0.025501 0.000000 0.933787
O O16 0.000000 0.875016 0.000000
O O17 0.250000 0.592522 0.577767
O O18 0.527529 0.500000 0.585160
O O19 0.250000 0.592062 0.819041
O O20 0.528364 0.500000 0.814060
O O21 0.524494 0.678290 0.845051
O O22 0.750000 0.893169 0.352238
O O23 0.491208 0.000000 0.356318
O O24 0.750000 0.226110 0.155741
#
# Coordination Sequence:
#
# PCOD9400552 Si02
#       8
#     8   8   8   8   8   8   8   8
#     4  10  21  34  50  69  91 119 157 202 246 298
#     4   8  14  25  44  72 101 126 159 203 247 297
#     4   9  17  29  46  69  96 128 166 207 251 300
#     4  10  21  37  57  81 112 147 181 221 267 314
#     4   9  18  32  49  68  91 121 155 194 244 303
#     4   9  18  31  47  72 108 146 181 218 259 304
#     4   8  15  29  48  69  93 122 157 199 244 292
#     4  10  19  30  52  81 108 142 182 221 260 306
#
# _framework density 20.523696999999999
#
# number of rings (size 3 to 8) (size 9 to 14) (size 15 to 20)
#    0.000    2.875    0.000    1.875    1.750    4.250 
#    0.000    0.000    0.000    0.375    0.000    1.750 
#    0.000    0.000    0.000    0.000    0.000    0.000 
#
# Total GULP energy -356958.194125 kJ/mol
# GULP energy per Si atom -5577.471783 kJ/mol
# Density = 2.047698 g / cm^3
# Si number density = 20.523697 Si / 1000 Ang^3
#
#
#
# Elastic Constant Matrix: (Units=GPa)
#
#
# Indices 1 2 3 4 5 6 
#
# 1 28.1086 5.2535 -4.9939 0.0000 0.0000 0.0000
# 2 5.2535 89.0812 78.5998 0.0000 0.0000 0.0000
# 3 -4.9939 78.5998 122.5875 0.0000 0.0000 0.0000
# 4 0.0000 0.0000 0.0000 27.3073 0.0000 0.0000
# 5 0.0000 0.0000 0.0000 0.0000 14.0069 0.0000
# 6 0.0000 0.0000 0.0000 0.0000 0.0000 3.8450
#
#
#
# Elastic Compliance Matrix: (Units=1/GPa)
#
#
# Indices 1 2 3 4 5 6 
#
# 1 0.038377 -0.008388 0.006942 0.000000 0.000000 0.000000
# 2 -0.008388 0.027683 -0.018091 0.000000 0.000000 0.000000
# 3 0.006942 -0.018091 0.020040 0.000000 0.000000 0.000000
# 4 0.000000 0.000000 0.000000 0.036620 0.000000 0.000000
# 5 0.000000 0.000000 0.000000 0.000000 0.071393 0.000000
# 6 0.000000 0.000000 0.000000 0.000000 0.000000 0.260076
#
#
# Mechanical properties :
#
#
# Convention : Reuss Voigt Hill
#
# Bulk Modulus (GPa) = 21.26547 44.16625 32.71586
# Shear Modulus (GPa) = 9.82433 19.75969 14.79201
#
# Velocity S-wave (km/s) = 2.19025 3.10623 2.68755
# Velocity P-wave (km/s) = 4.09636 5.86781 5.06021
#
# Compressibility (1/GPa) = 0.04702459
#
# Stress axis : x y z
#
# Youngs Moduli (GPa) = 26.05703 36.12307 49.90033
#
# Poissons Ratio (x) = 0.30301 -0.34639
# Poissons Ratio (y) = 0.21857 0.90277
# Poissons Ratio (z) = -0.18088 0.65352
#
# Static dielectric constant tensor:
#      x y z
#    x 1.751560 0.000000 0.000000 
#    y 0.000000 1.784710 0.000000 
#    z 0.000000 0.000000 1.728610 
# 
# From -- ./inp_files/34939.got.cif
#   From: 2010.05.17/outbox.cif.g08.bks.cpg/sg51_18_cif.got.tgz:34939.got - 2010.06.03 11:52:47.
