data_PCOD9400431
_publ_section_title
;
Structure prediction by ZEFSAII (Michael W. Deem and Ramdas Pophale) SiO2 
 PCOD9400431
Probable space group: P M M A
;
_chemical_formula_sum "Si O2"
_cell_formula_units_Z 64
_cell_length_a 8.385720
_cell_length_b 15.045951
_cell_length_c 28.982326
_cell_angle_alpha 90.000000
_cell_angle_beta 90.000000
_cell_angle_gamma 90.000000
_cell_volume 3656.732886
_symmetry_space_group_name_H-M "P M M A"
_symmetry_group_IT_number 51
_symmetry_cell_setting 'orthorhombic'
loop_
_space_group_symop_operation_xyz
x,y,z
1/2-x,-y,z
1/2+x,-y,-z
-x,y,-z
-x,-y,-z
1/2+x,y,-z
1/2-x,y,z
x,-y,z
loop_
_atom_site_type_symbol
_atom_site_label
_atom_site_fract_x
_atom_site_fract_y
_atom_site_fract_z
Si Si1 0.557363 0.398321 0.948592
Si Si2 0.942632 0.600276 0.677566
Si Si3 0.942841 0.101872 0.551327
Si Si4 0.942354 0.899027 0.175354
Si Si5 0.558220 0.896255 0.280797
Si Si6 0.558625 0.221713 0.635298
Si Si7 0.059148 0.602505 0.780669
Si Si8 0.440373 0.722377 0.135572
O O1 0.750000 0.397909 0.948393
O O2 0.505435 0.500000 0.938112
O O3 0.500159 0.329901 0.909720
O O4 0.500000 0.376291 0.000000
O O5 0.750000 0.599073 0.676333
O O6 0.999719 0.500000 0.667426
O O7 0.000392 0.678015 0.643773
O O8 0.993989 0.622973 0.729748
O O9 0.750000 0.102523 0.551675
O O10 0.002355 0.169110 0.590545
O O11 0.000000 0.124707 0.500000
O O12 0.994148 0.000000 0.561332
O O13 0.750000 0.899027 0.175580
O O14 0.993043 0.877093 0.228117
O O15 0.000991 0.822878 0.141459
O O16 0.994829 0.000000 0.164906
O O17 0.750000 0.885953 0.282706
O O18 0.481648 0.834473 0.319095
O O19 0.521631 0.000000 0.289948
O O20 0.750000 0.225784 0.631003
O O21 0.250000 0.608452 0.779378
O O22 0.013658 0.500000 0.791208
O O23 0.995142 0.667445 0.819637
O O24 0.250000 0.722475 0.134224
#
# Coordination Sequence:
#
# PCOD9400431 Si02
#       8
#     8   8   8   8   8   8   8   8
#     4   9  19  35  53  74 100 127 155 192 240 291
#     4   9  18  32  48  67  94 127 160 195 236 279
#     4   9  18  32  48  67  91 116 145 185 232 282
#     4   9  19  35  51  69  98 134 169 204 239 278
#     4   9  18  31  46  67  96 127 157 190 230 276
#     4  10  19  30  47  70  93 120 155 193 233 277
#     4  10  20  32  47  70 100 133 167 200 235 280
#     4  11  21  32  50  75 101 129 162 201 244 290
#
# _framework density 17.501961000000001
#
# number of rings (size 3 to 8) (size 9 to 14) (size 15 to 20)
#    0.000    2.500    0.000    3.000    0.000    6.750 
#    0.000    3.750    0.000    0.750    0.000    0.000 
#    0.000    0.000    0.000    0.000    0.000    0.000 
#
# Total GULP energy -357058.839817 kJ/mol
# GULP energy per Si atom -5579.044372 kJ/mol
# Density = 1.746213 g / cm^3
# Si number density = 17.501961 Si / 1000 Ang^3
#
#
#
# Elastic Constant Matrix: (Units=GPa)
#
#
# Indices 1 2 3 4 5 6 
#
# 1 4.6943 17.6421 12.9317 0.0000 0.0000 0.0000
# 2 17.6421 134.1738 108.4358 0.0000 0.0000 0.0000
# 3 12.9317 108.4358 112.5027 0.0000 0.0000 0.0000
# 4 0.0000 0.0000 0.0000 32.3579 0.0000 0.0000
# 5 0.0000 0.0000 0.0000 0.0000 22.0904 0.0000
# 6 0.0000 0.0000 0.0000 0.0000 0.0000 22.1176
#
#
#
# Elastic Compliance Matrix: (Units=1/GPa)
#
#
# Indices 1 2 3 4 5 6 
#
# 1 0.434057 -0.075781 0.023149 0.000000 0.000000 0.000000
# 2 -0.075781 0.046948 -0.036540 0.000000 0.000000 0.000000
# 3 0.023149 -0.036540 0.041447 0.000000 0.000000 0.000000
# 4 0.000000 0.000000 0.000000 0.030904 0.000000 0.000000
# 5 0.000000 0.000000 0.000000 0.000000 0.045268 0.000000
# 6 0.000000 0.000000 0.000000 0.000000 0.000000 0.045213
#
#
# Mechanical properties :
#
#
# Convention : Reuss Voigt Hill
#
# Bulk Modulus (GPa) = 2.90607 58.82111 30.86359
# Shear Modulus (GPa) = 5.33682 22.80394 14.07038
#
# Velocity S-wave (km/s) = 1.74811 3.61354 2.83844
# Velocity P-wave (km/s) = 2.39553 7.14783 5.33057
#
# Compressibility (1/GPa) = 0.34410733
#
# Stress axis : x y z
#
# Youngs Moduli (GPa) = 2.30384 21.30000 24.12696
#
# Poissons Ratio (x) = 1.61414 -0.55851
# Poissons Ratio (y) = 0.17459 0.88161
# Poissons Ratio (z) = -0.05333 0.77831
#
# Static dielectric constant tensor:
#      x y z
#    x 1.602670 0.000000 0.000000 
#    y 0.000000 1.622680 0.000000 
#    z 0.000000 0.000000 1.568510 
# 
# From -- ./inp_files/34944.got.cif
#   From: 2010.05.17/outbox.cif.g08.bks.cpg/sg51_18_cif.got.tgz:34944.got - 2010.06.03 11:52:47.
