data_PCOD9400325
_publ_section_title
;
Structure prediction by ZEFSAII (Michael W. Deem and Ramdas Pophale) SiO2 
 PCOD9400325
Probable space group: P M M A
;
_chemical_formula_sum "Si O2"
_cell_formula_units_Z 64
_cell_length_a 7.593117
_cell_length_b 21.500203
_cell_length_c 17.937556
_cell_angle_alpha 90.000000
_cell_angle_beta 90.000000
_cell_angle_gamma 90.000000
_cell_volume 2928.369819
_symmetry_space_group_name_H-M "P M M A"
_symmetry_group_IT_number 51
_symmetry_cell_setting 'orthorhombic'
loop_
_space_group_symop_operation_xyz
x,y,z
1/2-x,-y,z
1/2+x,-y,-z
-x,y,-z
-x,-y,-z
1/2+x,y,-z
1/2-x,y,z
x,-y,z
loop_
_atom_site_type_symbol
_atom_site_label
_atom_site_fract_x
_atom_site_fract_y
_atom_site_fract_z
Si Si1 0.039924 0.096657 0.418327
Si Si2 0.543331 0.066907 0.250806
Si Si3 0.538367 0.635542 0.579060
Si Si4 0.951114 0.569509 0.106160
Si Si5 0.461457 0.293615 0.918428
Si Si6 0.958953 0.232093 0.614528
Si Si7 0.048264 0.572346 0.273428
Si Si8 0.963269 0.794998 0.216351
O O1 0.250000 0.096169 0.410121
O O2 0.968356 0.167473 0.416148
O O3 0.000000 0.070174 0.500000
O O4 0.970531 0.068849 0.341064
O O5 0.750000 0.066597 0.231939
O O6 0.472299 0.132812 0.219506
O O7 0.467361 0.000000 0.226257
O O8 0.500000 0.604560 0.500000
O O9 0.750000 0.636232 0.586383
O O10 0.466923 0.705734 0.579064
O O11 0.470566 0.605656 0.654958
O O12 0.750000 0.567264 0.078247
O O13 0.029160 0.500000 0.090945
O O14 0.033710 0.635166 0.081551
O O15 0.949584 0.577067 0.195634
O O16 0.250000 0.298920 0.908889
O O17 0.524714 0.248972 0.851436
O O18 0.500000 0.266624 0.000000
O O19 0.750000 0.231020 0.600642
O O20 0.986049 0.233268 0.703567
O O21 0.250000 0.594066 0.259616
O O22 0.056523 0.500000 0.292703
O O23 0.750000 0.796986 0.213333
#
# Coordination Sequence:
#
# PCOD9400325 Si02
#       8
#     8   8   8   8   8   8   8   8
#     4  10  19  30  45  67  97 130 163 201 244 289
#     4   9  18  33  52  72  94 124 162 202 245 289
#     4  10  20  31  43  62  89 120 157 202 247 289
#     4   9  18  33  52  74 100 129 161 195 230 274
#     4  10  21  35  52  77 106 132 158 190 230 278
#     4   9  18  31  47  68  92 121 159 200 242 287
#     4   9  18  32  48  66  89 119 157 199 241 286
#     4   9  18  33  53  75  97 123 158 198 236 280
#
# _framework density 21.855163000000001
#
# number of rings (size 3 to 8) (size 9 to 14) (size 15 to 20)
#    0.000    2.625    0.000    1.500    0.000    3.500 
#    0.000    0.000    0.000    0.375    0.000    0.000 
#    0.000    0.000    0.000    0.000    0.000    0.000 
#
# Total GULP energy -356928.323244 kJ/mol
# GULP energy per Si atom -5577.005051 kJ/mol
# Density = 2.180542 g / cm^3
# Si number density = 21.855163 Si / 1000 Ang^3
#
#
#
# Elastic Constant Matrix: (Units=GPa)
#
#
# Indices 1 2 3 4 5 6 
#
# 1 55.0594 2.3040 -13.3539 0.0000 0.0000 0.0000
# 2 2.3040 91.3173 63.4826 0.0000 0.0000 0.0000
# 3 -13.3539 63.4826 110.1142 0.0000 0.0000 0.0000
# 4 0.0000 0.0000 0.0000 -1.6537 0.0000 0.0000
# 5 0.0000 0.0000 0.0000 0.0000 17.4986 0.0000
# 6 0.0000 0.0000 0.0000 0.0000 0.0000 -0.9571
#
#
#
# Elastic Compliance Matrix: (Units=1/GPa)
#
#
# Indices 1 2 3 4 5 6 
#
# 1 0.019376 -0.003542 0.004392 0.000000 0.000000 0.000000
# 2 -0.003542 0.018923 -0.011339 0.000000 0.000000 0.000000
# 3 0.004392 -0.011339 0.016151 0.000000 0.000000 0.000000
# 4 0.000000 0.000000 0.000000 -0.604706 0.000000 0.000000
# 5 0.000000 0.000000 0.000000 0.000000 0.057147 0.000000
# 6 0.000000 0.000000 0.000000 0.000000 0.000000 -1.044818
#
#
# Mechanical properties :
#
#
# Convention : Reuss Voigt Hill
#
# Bulk Modulus (GPa) = 29.87628 40.15071 35.01350
# Shear Modulus (GPa) = -3.32051 16.58143 6.63046
#
# Velocity S-wave (km/s) = -1.23395 2.75743 1.74368
# Velocity P-wave (km/s) = 3.41608 5.34313 4.48435
#
# Compressibility (1/GPa) = 0.03347137
#
# Stress axis : x y z
#
# Youngs Moduli (GPa) = 51.61138 52.84625 61.91528
#
# Poissons Ratio (x) = 0.18718 -0.27191
# Poissons Ratio (y) = 0.18280 0.70205
# Poissons Ratio (z) = -0.22666 0.59922
#
# Static dielectric constant tensor:
#      x y z
#    x 1.805550 0.000000 0.000000 
#    y 0.000000 1.861060 0.000000 
#    z 0.000000 0.000000 1.779520 
# 
# From -- ./inp_files/22293.got.cif
#   From: 2010.05.17/outbox.cif.g08.bks.cpg/sg51_12_cif.got.tgz:22293.got - 2010.06.03 11:52:47.
