data_PCOD9400787
_publ_section_title
;
Structure prediction by ZEFSAII (Michael W. Deem and Ramdas Pophale) SiO2 
 PCOD9400787
Probable space group: P M M A
;
_chemical_formula_sum "Si O2"
_cell_formula_units_Z 64
_cell_length_a 9.398190
_cell_length_b 21.686007
_cell_length_c 14.774650
_cell_angle_alpha 90.000000
_cell_angle_beta 90.000000
_cell_angle_gamma 90.000000
_cell_volume 3011.209806
_symmetry_space_group_name_H-M "P M M A"
_symmetry_group_IT_number 51
_symmetry_cell_setting 'orthorhombic'
loop_
_space_group_symop_operation_xyz
x,y,z
1/2-x,-y,z
1/2+x,-y,-z
-x,y,-z
-x,-y,-z
1/2+x,y,-z
1/2-x,y,z
x,-y,z
loop_
_atom_site_type_symbol
_atom_site_label
_atom_site_fract_x
_atom_site_fract_y
_atom_site_fract_z
Si Si1 0.589112 0.313636 0.857038
Si Si2 0.086904 0.689747 0.365158
Si Si3 0.914164 0.432043 0.144638
Si Si4 0.411117 0.191813 0.642451
Si Si5 0.421179 0.069078 0.403328
Si Si6 0.908528 0.800473 0.145442
Si Si7 0.585439 0.569142 0.365298
Si Si8 0.078551 0.065213 0.904661
O O1 0.750000 0.314995 0.888058
O O2 0.589507 0.311653 0.745942
O O3 0.507265 0.374936 0.885687
O O4 0.510365 0.252347 0.889606
O O5 0.250000 0.693553 0.395680
O O6 0.997833 0.749778 0.395318
O O7 0.012285 0.626013 0.393782
O O8 0.750000 0.425004 0.117008
O O9 0.965755 0.500000 0.117060
O O10 0.915029 0.430889 0.254983
O O11 0.250000 0.183783 0.604758
O O12 0.502129 0.128738 0.639193
O O13 0.394488 0.208605 0.747544
O O14 0.500000 0.066372 0.500000
O O15 0.250000 0.078222 0.410494
O O16 0.442504 0.000000 0.362285
O O17 0.750000 0.796145 0.104989
O O18 0.964746 0.869886 0.136495
O O19 0.750000 0.578324 0.392973
O O20 0.539597 0.500000 0.392913
O O21 0.250000 0.066852 0.914614
O O22 0.044872 0.000000 0.856740
O O23 0.000000 0.063190 0.000000
#
# Coordination Sequence:
#
# PCOD9400787 Si02
#       8
#     8   8   8   8   8   8   8   8
#     4   9  16  24  36  56  83 114 148 188 230 270
#     4   9  16  25  37  56  85 118 151 189 232 276
#     4   8  13  21  33  49  73 109 149 184 221 269
#     4  10  19  31  49  71  95 125 159 194 233 277
#     4  10  21  37  55  74  97 124 154 190 232 278
#     4   9  18  31  47  67  93 125 157 190 230 279
#     4   8  13  21  33  50  75 110 151 190 227 271
#     4   9  18  33  51  70  92 119 152 190 232 277
#
# _framework density 21.253916
#
# number of rings (size 3 to 8) (size 9 to 14) (size 15 to 20)
#    0.000    3.000    0.000    2.250    0.000    5.750 
#    0.000    3.750    0.000    1.500    0.000    0.000 
#    0.000    1.000    0.000    3.500    0.000    7.625 
#
# Total GULP energy -356764.244549 kJ/mol
# GULP energy per Si atom -5574.441321 kJ/mol
# Density = 2.120554 g / cm^3
# Si number density = 21.253916 Si / 1000 Ang^3
#
#
#
# Elastic Constant Matrix: (Units=GPa)
#
#
# Indices 1 2 3 4 5 6 
#
# 1 135.9499 130.4069 8.6033 0.0000 0.0000 0.0000
# 2 130.4069 241.0882 6.2025 0.0000 0.0000 0.0000
# 3 8.6033 6.2025 30.7366 0.0000 0.0000 0.0000
# 4 0.0000 0.0000 0.0000 102.6311 0.0000 0.0000
# 5 0.0000 0.0000 0.0000 0.0000 7.3385 0.0000
# 6 0.0000 0.0000 0.0000 0.0000 0.0000 134.7268
#
#
#
# Elastic Compliance Matrix: (Units=1/GPa)
#
#
# Indices 1 2 3 4 5 6 
#
# 1 0.015501 -0.008316 -0.002661 0.000000 0.000000 0.000000
# 2 -0.008316 0.008631 0.000586 0.000000 0.000000 0.000000
# 3 -0.002661 0.000586 0.033161 0.000000 0.000000 0.000000
# 4 0.000000 0.000000 0.000000 0.009744 0.000000 0.000000
# 5 0.000000 0.000000 0.000000 0.000000 0.136267 0.000000
# 6 0.000000 0.000000 0.000000 0.000000 0.000000 0.007422
#
#
# Mechanical properties :
#
#
# Convention : Reuss Voigt Hill
#
# Bulk Modulus (GPa) = 27.38866 77.57778 52.48322
# Shear Modulus (GPa) = 20.51883 66.44343 43.48113
#
# Velocity S-wave (km/s) = 3.11048 5.59729 4.52795
# Velocity P-wave (km/s) = 5.08080 8.85169 7.21689
#
# Compressibility (1/GPa) = 0.03651147
#
# Stress axis : x y z
#
# Youngs Moduli (GPa) = 64.51079 115.85918 30.15596
#
# Poissons Ratio (x) = 0.96352 0.08024
# Poissons Ratio (y) = 0.53649 -0.01767
# Poissons Ratio (z) = 0.17164 -0.06790
#
# Static dielectric constant tensor:
#      x y z
#    x 1.736040 0.000000 0.000000 
#    y 0.000000 1.786390 0.000000 
#    z 0.000000 0.000000 1.766200 
# 
# From -- ./inp_files/32412.got.cif
#   From: 2010.05.17/outbox.cif.g08.bks.cpg/sg51_17_cif.got.tgz:32412.got - 2010.06.03 11:52:47.
