data_PCOD9400457
_publ_section_title
;
Structure prediction by ZEFSAII (Michael W. Deem and Ramdas Pophale) SiO2 
 PCOD9400457
Probable space group: P M M A
;
_chemical_formula_sum "Si O2"
_cell_formula_units_Z 48
_cell_length_a 8.679835
_cell_length_b 31.549123
_cell_length_c 9.825572
_cell_angle_alpha 90.000000
_cell_angle_beta 90.000000
_cell_angle_gamma 90.000000
_cell_volume 2690.646251
_symmetry_space_group_name_H-M "P M M A"
_symmetry_group_IT_number 51
_symmetry_cell_setting 'orthorhombic'
loop_
_space_group_symop_operation_xyz
x,y,z
1/2-x,-y,z
1/2+x,-y,-z
-x,y,-z
-x,-y,-z
1/2+x,y,-z
1/2-x,y,z
x,-y,z
loop_
_atom_site_type_symbol
_atom_site_label
_atom_site_fract_x
_atom_site_fract_y
_atom_site_fract_z
Si Si1 0.564193 0.290976 0.850729
Si Si2 0.064212 0.194379 0.149578
Si Si3 0.434937 0.633732 0.347231
Si Si4 0.934220 0.049750 0.147733
Si Si5 0.934746 0.453727 0.345847
Si Si6 0.065057 0.119058 0.348276
O O1 0.750000 0.291597 0.855840
O O2 0.516453 0.242685 0.816530
O O3 0.515073 0.326228 0.742611
O O4 0.500000 0.300719 0.000000
O O5 0.250000 0.193380 0.142307
O O6 0.014965 0.160388 0.261734
O O7 0.000000 0.183912 0.000000
O O8 0.500000 0.637633 0.500000
O O9 0.250000 0.632376 0.353750
O O10 0.494956 0.589176 0.285731
O O11 0.750000 0.054348 0.146571
O O12 0.005803 0.078560 0.264618
O O13 0.971497 0.000000 0.167735
O O14 0.000000 0.062447 0.000000
O O15 0.750000 0.450116 0.350944
O O16 0.973694 0.500000 0.284459
O O17 0.000000 0.454666 0.500000
O O18 0.250000 0.118409 0.353179
O O19 0.000000 0.119836 0.500000
#
# Coordination Sequence:
#
# PCOD9400457 Si02
#       6
#     8   8   8   8   8   8
#     4   9  19  35  53  74 100 131 168 207 250 301
#     4   9  19  36  56  77 101 132 171 212 253 302
#     4  10  19  30  47  72 100 129 162 202 247 296
#     4  10  21  38  60  84 110 142 180 220 261 308
#     4   9  16  26  42  65  93 125 161 201 244 291
#     4  11  23  37  55  80 111 144 177 217 264 312
#
# _framework density 17.839580999999999
#
# number of rings (size 3 to 8) (size 9 to 14) (size 15 to 20)
#    0.000    2.333    0.000    3.500    0.000    7.000 
#    0.000    0.000    0.000    0.500    0.000    0.000 
#    0.000    0.000    0.000    0.000    0.000    0.000 
#
# Total GULP energy -267748.165414 kJ/mol
# GULP energy per Si atom -5578.086779 kJ/mol
# Density = 1.779898 g / cm^3
# Si number density = 17.839581 Si / 1000 Ang^3
#
#
#
# Elastic Constant Matrix: (Units=GPa)
#
#
# Indices 1 2 3 4 5 6 
#
# 1 41.6815 46.1374 35.0259 0.0000 0.0000 0.0000
# 2 46.1374 145.0084 103.5159 0.0000 0.0000 0.0000
# 3 35.0259 103.5159 119.1413 0.0000 0.0000 0.0000
# 4 0.0000 0.0000 0.0000 50.0706 0.0000 0.0000
# 5 0.0000 0.0000 0.0000 0.0000 29.0621 0.0000
# 6 0.0000 0.0000 0.0000 0.0000 0.0000 27.1373
#
#
#
# Elastic Compliance Matrix: (Units=1/GPa)
#
#
# Indices 1 2 3 4 5 6 
#
# 1 0.037167 -0.010600 -0.001717 0.000000 0.000000 0.000000
# 2 -0.010600 0.021182 -0.015288 0.000000 0.000000 0.000000
# 3 -0.001717 -0.015288 0.022181 0.000000 0.000000 0.000000
# 4 0.000000 0.000000 0.000000 0.019972 0.000000 0.000000
# 5 0.000000 0.000000 0.000000 0.000000 0.034409 0.000000
# 6 0.000000 0.000000 0.000000 0.000000 0.000000 0.036850
#
#
# Mechanical properties :
#
#
# Convention : Reuss Voigt Hill
#
# Bulk Modulus (GPa) = 39.49285 75.02108 57.25697
# Shear Modulus (GPa) = 21.23945 29.33079 25.28512
#
# Velocity S-wave (km/s) = 3.45422 4.05920 3.76887
# Velocity P-wave (km/s) = 6.17209 8.00712 7.14873
#
# Compressibility (1/GPa) = 0.02532104
#
# Stress axis : x y z
#
# Youngs Moduli (GPa) = 26.90531 47.20954 45.08352
#
# Poissons Ratio (x) = 0.50041 0.07741
# Poissons Ratio (y) = 0.28519 0.68923
# Poissons Ratio (z) = 0.04620 0.72173
#
# Static dielectric constant tensor:
#      x y z
#    x 1.601240 0.000000 0.000000 
#    y 0.000000 1.650360 0.000000 
#    z 0.000000 0.000000 1.566430 
# 
# From -- ./inp_files/6089.got.cif
#   From: 2010.05.17/outbox.cif.g08.bks.cpg/sg51_4_cif.got.tgz:6089.got - 2010.06.03 11:52:47.
