data_PCOD9400848
_publ_section_title
;
Structure prediction by ZEFSAII (Michael W. Deem and Ramdas Pophale) SiO2 
 PCOD9400848
Probable space group: P M M A
;
_chemical_formula_sum "Si O2"
_cell_formula_units_Z 64
_cell_length_a 20.119932
_cell_length_b 9.214435
_cell_length_c 19.904056
_cell_angle_alpha 90.000000
_cell_angle_beta 90.000000
_cell_angle_gamma 90.000000
_cell_volume 3690.088689
_symmetry_space_group_name_H-M "P M M A"
_symmetry_group_IT_number 51
_symmetry_cell_setting 'orthorhombic'
loop_
_space_group_symop_operation_xyz
x,y,z
1/2-x,-y,z
1/2+x,-y,-z
-x,y,-z
-x,-y,-z
1/2+x,y,-z
1/2-x,y,z
x,-y,z
loop_
_atom_site_type_symbol
_atom_site_label
_atom_site_fract_x
_atom_site_fract_y
_atom_site_fract_z
Si Si1 0.827350 0.172648 0.377610
Si Si2 0.577088 0.332669 0.024889
Si Si3 0.115517 0.168959 0.104638
Si Si4 0.915395 0.325885 0.644814
Si Si5 0.037485 0.170067 0.845019
Si Si6 0.326058 0.173937 0.464134
Si Si7 0.326030 0.670666 0.228393
Si Si8 0.942712 0.326034 0.297306
O O1 0.750000 0.201304 0.361530
O O2 0.836533 0.204465 0.456923
O O3 0.877716 0.264193 0.333289
O O4 0.838969 0.000000 0.368194
O O5 0.596783 0.500000 0.033652
O O6 0.577797 0.245285 0.094464
O O7 0.500000 0.331771 0.000000
O O8 0.617000 0.254437 0.965473
O O9 0.161118 0.240172 0.161154
O O10 0.040104 0.180038 0.133535
O O11 0.130364 0.000000 0.094436
O O12 0.909631 0.500000 0.637672
O O13 0.879946 0.250268 0.582400
O O14 0.875184 0.283384 0.712186
O O15 0.992280 0.289746 0.657739
O O16 0.048244 0.252834 0.775356
O O17 0.054059 0.000000 0.838845
O O18 0.250000 0.218726 0.446831
O O19 0.329730 0.000000 0.455587
O O20 0.250000 0.686377 0.250886
O O21 0.338625 0.500000 0.214570
O O22 0.940380 0.500000 0.290047
#
# Coordination Sequence:
#
# PCOD9400848 Si02
#       8
#     8   8   8   8   8   8   8   8
#     4   9  20  40  61  80 105 138 176 219 272 332
#     4   9  17  29  49  74 102 136 173 215 262 312
#     4  10  19  31  49  74 104 137 178 226 267 311
#     4  10  21  35  52  77 111 145 180 224 272 320
#     4  10  19  32  51  77 108 140 175 217 267 317
#     4   9  19  36  57  79 105 141 184 226 267 318
#     4  10  20  34  51  71 103 149 191 224 267 323
#     4  11  22  35  55  82 112 143 178 223 271 322
#
# _framework density 17.343758000000001
#
# number of rings (size 3 to 8) (size 9 to 14) (size 15 to 20)
#    0.000    2.250    1.250    2.625    0.000    6.250 
#    0.000    3.750    0.000    0.750    0.000    0.000 
#    0.000    0.000    0.000    0.000    0.000    0.000 
#
# Total GULP energy -357135.260695 kJ/mol
# GULP energy per Si atom -5580.238448 kJ/mol
# Density = 1.730428 g / cm^3
# Si number density = 17.343758 Si / 1000 Ang^3
#
#
#
# Elastic Constant Matrix: (Units=GPa)
#
#
# Indices 1 2 3 4 5 6 
#
# 1 64.6827 50.8768 49.1167 0.0000 0.0000 0.0000
# 2 50.8768 87.5999 60.4638 0.0000 0.0000 0.0000
# 3 49.1167 60.4638 91.0151 0.0000 0.0000 0.0000
# 4 0.0000 0.0000 0.0000 39.1211 0.0000 0.0000
# 5 0.0000 0.0000 0.0000 0.0000 22.8874 0.0000
# 6 0.0000 0.0000 0.0000 0.0000 0.0000 23.6455
#
#
#
# Elastic Compliance Matrix: (Units=1/GPa)
#
#
# Indices 1 2 3 4 5 6 
#
# 1 0.032096 -0.012347 -0.009118 0.000000 0.000000 0.000000
# 2 -0.012347 0.025833 -0.010498 0.000000 0.000000 0.000000
# 3 -0.009118 -0.010498 0.022882 0.000000 0.000000 0.000000
# 4 0.000000 0.000000 0.000000 0.025562 0.000000 0.000000
# 5 0.000000 0.000000 0.000000 0.000000 0.043692 0.000000
# 6 0.000000 0.000000 0.000000 0.000000 0.000000 0.042291
#
#
# Mechanical properties :
#
#
# Convention : Reuss Voigt Hill
#
# Bulk Modulus (GPa) = 59.22894 62.69025 60.95960
# Shear Modulus (GPa) = 19.09052 22.65350 20.87201
#
# Velocity S-wave (km/s) = 3.32130 3.61799 3.47281
# Velocity P-wave (km/s) = 6.99516 7.32648 7.16273
#
# Compressibility (1/GPa) = 0.01688364
#
# Stress axis : x y z
#
# Youngs Moduli (GPa) = 31.15685 38.71054 43.70262
#
# Poissons Ratio (x) = 0.47797 0.39848
# Poissons Ratio (y) = 0.38470 0.45880
# Poissons Ratio (z) = 0.28409 0.40639
#
# Static dielectric constant tensor:
#      x y z
#    x 1.578670 0.000000 0.000000 
#    y 0.000000 1.578710 0.000000 
#    z 0.000000 0.000000 1.564200 
# 
# From -- ./inp_files/30547.got.cif
#   From: 2010.05.17/outbox.cif.g08.bks.cpg/sg51_16_cif.got.tgz:30547.got - 2010.06.03 11:52:47.
