data_PCOD9400642
_publ_section_title
;
Structure prediction by ZEFSAII (Michael W. Deem and Ramdas Pophale) SiO2 
 PCOD9400642
Probable space group: P M M A
;
_chemical_formula_sum "Si O2"
_cell_formula_units_Z 56
_cell_length_a 7.724732
_cell_length_b 19.147002
_cell_length_c 19.488828
_cell_angle_alpha 90.000000
_cell_angle_beta 90.000000
_cell_angle_gamma 90.000000
_cell_volume 2882.504052
_symmetry_space_group_name_H-M "P M M A"
_symmetry_group_IT_number 51
_symmetry_cell_setting 'orthorhombic'
loop_
_space_group_symop_operation_xyz
x,y,z
1/2-x,-y,z
1/2+x,-y,-z
-x,y,-z
-x,-y,-z
1/2+x,y,-z
1/2-x,y,z
x,-y,z
loop_
_atom_site_type_symbol
_atom_site_label
_atom_site_fract_x
_atom_site_fract_y
_atom_site_fract_z
Si Si1 0.452563 0.283112 0.716907
Si Si2 0.041498 0.806685 0.077003
Si Si3 0.550913 0.860635 0.783917
Si Si4 0.456417 0.645787 0.076981
Si Si5 0.538033 0.076967 0.644070
Si Si6 0.953402 0.423221 0.216102
Si Si7 0.456186 0.779617 0.422249
O O1 0.250000 0.278264 0.736432
O O2 0.545900 0.218208 0.753595
O O3 0.524740 0.357142 0.741972
O O4 0.468371 0.270882 0.635805
O O5 0.250000 0.804328 0.083314
O O6 0.974021 0.853424 0.139989
O O7 0.978912 0.726193 0.084255
O O8 0.000000 0.830314 0.000000
O O9 0.750000 0.883562 0.791655
O O10 0.476661 0.906715 0.721938
O O11 0.250000 0.646626 0.084945
O O12 0.530764 0.597697 0.136426
O O13 0.500000 0.622754 0.000000
O O14 0.750000 0.077966 0.645092
O O15 0.482454 0.141713 0.596937
O O16 0.483008 0.000000 0.621832
O O17 0.750000 0.426684 0.233447
O O18 0.029289 0.500000 0.228370
O O19 0.500000 0.762222 0.500000
O O20 0.250000 0.778406 0.413843
#
# Coordination Sequence:
#
# PCOD9400642 Si02
#       7
#     8   8   8   8   8   8   8
#     4  10  19  32  52  74  97 125 160 198 240 287
#     4   9  17  27  42  65  91 121 160 206 251 288
#     4   9  16  29  48  69  95 126 163 206 244 284
#     4  10  19  31  47  67  95 128 166 207 251 299
#     4   8  15  28  48  74 102 132 162 192 231 279
#     4  10  21  35  50  70  97 129 164 203 248 296
#     4  10  20  34  54  78 105 131 160 194 230 276
#
# _framework density 19.427554000000001
#
# number of rings (size 3 to 8) (size 9 to 14) (size 15 to 20)
#    0.000    2.571    1.429    2.143    0.000    2.571 
#    0.000    0.000    0.000   11.143    0.000    0.000 
#    0.000    0.000    0.000    0.000    0.000    0.000 
#
# Total GULP energy -312276.641291 kJ/mol
# GULP energy per Si atom -5576.368594 kJ/mol
# Density = 1.938334 g / cm^3
# Si number density = 19.427554 Si / 1000 Ang^3
#
#
#
# Elastic Constant Matrix: (Units=GPa)
#
#
# Indices 1 2 3 4 5 6 
#
# 1 36.9219 -4.5922 -15.9096 0.0000 0.0000 0.0000
# 2 -4.5922 55.5093 15.6097 0.0000 0.0000 0.0000
# 3 -15.9096 15.6097 92.5613 0.0000 0.0000 0.0000
# 4 0.0000 0.0000 0.0000 -19.5027 0.0000 0.0000
# 5 0.0000 0.0000 0.0000 0.0000 17.5371 0.0000
# 6 0.0000 0.0000 0.0000 0.0000 0.0000 4.5070
#
#
#
# Elastic Compliance Matrix: (Units=1/GPa)
#
#
# Indices 1 2 3 4 5 6 
#
# 1 0.029310 0.001058 0.004859 0.000000 0.000000 0.000000
# 2 0.001058 0.018950 -0.003014 0.000000 0.000000 0.000000
# 3 0.004859 -0.003014 0.012147 0.000000 0.000000 0.000000
# 4 0.000000 0.000000 0.000000 -0.051275 0.000000 0.000000
# 5 0.000000 0.000000 0.000000 0.000000 0.057022 0.000000
# 6 0.000000 0.000000 0.000000 0.000000 0.000000 0.221877
#
#
# Mechanical properties :
#
#
# Convention : Reuss Voigt Hill
#
# Bulk Modulus (GPa) = 15.10245 19.46757 17.28501
# Shear Modulus (GPa) = 16.43143 13.16724 14.79934
#
# Velocity S-wave (km/s) = 2.91138 2.60621 2.76301
# Velocity P-wave (km/s) = 4.36946 4.37022 4.36984
#
# Compressibility (1/GPa) = 0.06621444
#
# Stress axis : x y z
#
# Youngs Moduli (GPa) = 34.11837 52.77024 82.32389
#
# Poissons Ratio (x) = -0.05585 -0.40004
# Poissons Ratio (y) = -0.03611 0.24811
# Poissons Ratio (z) = -0.16579 0.15904
#
# Static dielectric constant tensor:
#      x y z
#    x 1.808550 0.000000 0.000000 
#    y 0.000000 1.686660 0.000000 
#    z 0.000000 0.000000 1.686750 
# 
# From -- ./inp_files/32269.got.cif
#   From: 2010.05.17/outbox.cif.g08.bks.cpg/sg51_17_cif.got.tgz:32269.got - 2010.06.03 11:52:47.
