data_PCOD9400717
_publ_section_title
;
Structure prediction by ZEFSAII (Michael W. Deem and Ramdas Pophale) SiO2 
 PCOD9400717
Probable space group: P M M A
;
_chemical_formula_sum "Si O2"
_cell_formula_units_Z 52
_cell_length_a 9.338332
_cell_length_b 19.912611
_cell_length_c 15.843455
_cell_angle_alpha 90.000000
_cell_angle_beta 90.000000
_cell_angle_gamma 90.000000
_cell_volume 2946.099528
_symmetry_space_group_name_H-M "P M M A"
_symmetry_group_IT_number 51
_symmetry_cell_setting 'orthorhombic'
loop_
_space_group_symop_operation_xyz
x,y,z
1/2-x,-y,z
1/2+x,-y,-z
-x,y,-z
-x,-y,-z
1/2+x,y,-z
1/2-x,y,z
x,-y,z
loop_
_atom_site_type_symbol
_atom_site_label
_atom_site_fract_x
_atom_site_fract_y
_atom_site_fract_z
Si Si1 0.584885 0.768882 0.248739
Si Si2 0.588600 0.420298 0.578934
Si Si3 0.085797 0.232958 0.083190
Si Si4 0.915554 0.606951 0.251616
Si Si5 0.079858 0.000000 0.588868
Si Si6 0.084095 0.396781 0.084069
Si Si7 0.077961 0.148583 0.590067
O O1 0.750000 0.790502 0.236183
O O2 0.489976 0.789791 0.169136
O O3 0.584401 0.688120 0.250512
O O4 0.535401 0.798415 0.338236
O O5 0.500000 0.391158 0.500000
O O6 0.750000 0.392379 0.585431
O O7 0.602511 0.500000 0.563833
O O8 0.500363 0.412778 0.664658
O O9 0.250000 0.211563 0.079307
O O10 0.084556 0.314903 0.083614
O O11 0.000000 0.211813 0.000000
O O12 0.750000 0.584675 0.252661
O O13 0.998917 0.583010 0.168203
O O14 0.046125 0.926681 0.626007
O O15 0.000000 0.000000 0.500000
O O16 0.250000 0.000000 0.575015
O O17 0.250000 0.418162 0.084591
O O18 0.000000 0.418171 0.000000
O O19 0.250000 0.153990 0.576818
O O20 0.000000 0.156993 0.500000
#
# Coordination Sequence:
#
# PCOD9400717 Si02
#       7
#     8   8   8   8   4   8   8
#     4   9  18  30  43  65  96 124 150 183 225 271
#     4  10  21  37  55  72  90 116 153 194 231 269
#     4   9  16  26  42  63  88 119 152 186 223 265
#     4  10  19  31  48  70  96 124 152 185 227 273
#     4   8  14  26  44  62  81 112 153 190 223 260
#     4   9  16  27  44  67  94 123 154 186 222 267
#     4   9  17  29  44  63  89 120 153 188 224 264
#
# _framework density 17.650455000000001
#
# number of rings (size 3 to 8) (size 9 to 14) (size 15 to 20)
#    0.000    2.769    0.000    1.846    0.000    6.462 
#    0.000    1.538    0.000    0.462    0.000    0.538 
#    0.000    0.000    0.000    0.000    0.000    0.000 
#
# Total GULP energy -289801.024572 kJ/mol
# GULP energy per Si atom -5573.096626 kJ/mol
# Density = 1.761028 g / cm^3
# Si number density = 17.650455 Si / 1000 Ang^3
#
#
#
# Elastic Constant Matrix: (Units=GPa)
#
#
# Indices 1 2 3 4 5 6 
#
# 1 146.6392 13.9521 96.1499 0.0000 0.0000 0.0000
# 2 13.9521 33.7806 20.4337 0.0000 0.0000 0.0000
# 3 96.1499 20.4337 161.1705 0.0000 0.0000 0.0000
# 4 0.0000 0.0000 0.0000 33.9643 0.0000 0.0000
# 5 0.0000 0.0000 0.0000 0.0000 33.5061 0.0000
# 6 0.0000 0.0000 0.0000 0.0000 0.0000 6.1065
#
#
#
# Elastic Compliance Matrix: (Units=1/GPa)
#
#
# Indices 1 2 3 4 5 6 
#
# 1 0.011213 -0.000633 -0.006609 0.000000 0.000000 0.000000
# 2 -0.000633 0.032097 -0.003692 0.000000 0.000000 0.000000
# 3 -0.006609 -0.003692 0.010616 0.000000 0.000000 0.000000
# 4 0.000000 0.000000 0.000000 0.029443 0.000000 0.000000
# 5 0.000000 0.000000 0.000000 0.000000 0.029845 0.000000
# 6 0.000000 0.000000 0.000000 0.000000 0.000000 0.163760
#
#
# Mechanical properties :
#
#
# Convention : Reuss Voigt Hill
#
# Bulk Modulus (GPa) = 31.19365 66.96243 49.07804
# Shear Modulus (GPa) = 16.15359 28.78570 22.46964
#
# Velocity S-wave (km/s) = 3.02850 4.04279 3.57183
# Velocity P-wave (km/s) = 5.47179 7.73386 6.69900
#
# Compressibility (1/GPa) = 0.03205780
#
# Stress axis : x y z
#
# Youngs Moduli (GPa) = 89.17927 31.15523 94.20146
#
# Poissons Ratio (x) = 0.01973 0.62260
# Poissons Ratio (y) = 0.05649 0.34775
# Poissons Ratio (z) = 0.58941 0.11501
#
# Static dielectric constant tensor:
#      x y z
#    x 1.606780 0.000000 0.000000 
#    y 0.000000 1.628600 0.000000 
#    z 0.000000 0.000000 1.577070 
# 
# From -- ./inp_files/21650.got.cif
#   From: 2010.05.17/outbox.cif.g08.bks.cpg/sg51_11_cif.got.tgz:21650.got - 2010.06.03 11:52:47.
