data_PCOD9400217
_publ_section_title
;
Structure prediction by ZEFSAII (Michael W. Deem and Ramdas Pophale) SiO2 
 PCOD9400217
Probable space group: P M M A
;
_chemical_formula_sum "Si O2"
_cell_formula_units_Z 64
_cell_length_a 8.447703
_cell_length_b 32.853976
_cell_length_c 14.757334
_cell_angle_alpha 90.000000
_cell_angle_beta 90.000000
_cell_angle_gamma 90.000000
_cell_volume 4095.759799
_symmetry_space_group_name_H-M "P M M A"
_symmetry_group_IT_number 51
_symmetry_cell_setting 'orthorhombic'
loop_
_space_group_symop_operation_xyz
x,y,z
1/2-x,-y,z
1/2+x,-y,-z
-x,y,-z
-x,-y,-z
1/2+x,y,-z
1/2-x,y,z
x,-y,z
loop_
_atom_site_type_symbol
_atom_site_label
_atom_site_fract_x
_atom_site_fract_y
_atom_site_fract_z
Si Si1 0.558861 0.631432 0.896270
Si Si2 0.560661 0.797416 0.215203
Si Si3 0.441611 0.543867 0.104275
Si Si4 0.441546 0.876705 0.897545
Si Si5 0.439097 0.172049 0.402104
Si Si6 0.940899 0.044838 0.214297
Si Si7 0.439572 0.922707 0.401945
Si Si8 0.059923 0.279205 0.103515
O O1 0.750000 0.631396 0.895672
O O2 0.506366 0.587705 0.855839
O O3 0.508229 0.675826 0.861163
O O4 0.500000 0.631122 0.000000
O O5 0.750000 0.797623 0.214783
O O6 0.505013 0.837181 0.158920
O O7 0.501822 0.802536 0.317613
O O8 0.501547 0.757044 0.165592
O O9 0.250000 0.543858 0.104158
O O10 0.493650 0.500000 0.143887
O O11 0.500000 0.543855 0.000000
O O12 0.250000 0.876810 0.897479
O O13 0.497673 0.917872 0.847842
O O14 0.500000 0.874662 0.000000
O O15 0.500000 0.186040 0.500000
O O16 0.250000 0.172468 0.401975
O O17 0.491524 0.124697 0.391158
O O18 0.750000 0.045446 0.211946
O O19 0.993844 0.052861 0.317095
O O20 0.994913 0.000000 0.184415
O O21 0.500000 0.936859 0.500000
O O22 0.250000 0.924115 0.400884
O O23 0.250000 0.278022 0.101472
O O24 0.000000 0.274392 0.000000
#
# Coordination Sequence:
#
# PCOD9400217 Si02
#       8
#     8   8   8   8   8   8   8   8
#     4   8  14  23  34  49  73 105 140 183 228 268
#     4  11  21  34  52  72  94 120 150 186 224 265
#     4   8  12  18  29  45  65  93 133 179 225 268
#     4  10  22  37  53  72  93 118 149 185 223 260
#     4  10  20  34  54  78 100 122 145 176 215 261
#     4  10  21  38  56  73  96 124 152 183 220 262
#     4  10  20  34  55  79 102 125 148 176 212 257
#     4  10  19  30  43  62  89 120 156 193 232 275
#
# _framework density 15.625916
#
# number of rings (size 3 to 8) (size 9 to 14) (size 15 to 20)
#    0.000    2.375    1.250    1.875    0.000    4.750 
#    0.000    0.000    0.000    0.000    0.000    0.000 
#    0.000    0.000    0.000    0.000    0.000    0.625 
#
# Total GULP energy -356603.293535 kJ/mol
# GULP energy per Si atom -5571.926461 kJ/mol
# Density = 1.559035 g / cm^3
# Si number density = 15.625916 Si / 1000 Ang^3
#
#
#
# Elastic Constant Matrix: (Units=GPa)
#
#
# Indices 1 2 3 4 5 6 
#
# 1 16.0947 22.8654 11.7903 0.0000 0.0000 0.0000
# 2 22.8654 159.5298 60.2040 0.0000 0.0000 0.0000
# 3 11.7903 60.2040 79.6572 0.0000 0.0000 0.0000
# 4 0.0000 0.0000 0.0000 3.0812 0.0000 0.0000
# 5 0.0000 0.0000 0.0000 0.0000 23.2404 0.0000
# 6 0.0000 0.0000 0.0000 0.0000 0.0000 14.9097
#
#
#
# Elastic Compliance Matrix: (Units=1/GPa)
#
#
# Indices 1 2 3 4 5 6 
#
# 1 0.079102 -0.009680 -0.004392 0.000000 0.000000 0.000000
# 2 -0.009680 0.009954 -0.006091 0.000000 0.000000 0.000000
# 3 -0.004392 -0.006091 0.017807 0.000000 0.000000 0.000000
# 4 0.000000 0.000000 0.000000 0.324547 0.000000 0.000000
# 5 0.000000 0.000000 0.000000 0.000000 0.043028 0.000000
# 6 0.000000 0.000000 0.000000 0.000000 0.000000 0.067070
#
#
# Mechanical properties :
#
#
# Convention : Reuss Voigt Hill
#
# Bulk Modulus (GPa) = 15.02905 49.44457 32.23681
# Shear Modulus (GPa) = 8.27796 18.94108 13.60952
#
# Velocity S-wave (km/s) = 2.30414 3.48538 2.95440
# Velocity P-wave (km/s) = 4.08873 6.92160 5.68446
#
# Compressibility (1/GPa) = 0.06653781
#
# Stress axis : x y z
#
# Youngs Moduli (GPa) = 12.64193 100.45839 56.15752
#
# Poissons Ratio (x) = 0.97246 0.24664
# Poissons Ratio (y) = 0.12238 0.34203
# Poissons Ratio (z) = 0.05552 0.61185
#
# Static dielectric constant tensor:
#      x y z
#    x 1.537900 0.000000 0.000000 
#    y 0.000000 1.586110 0.000000 
#    z 0.000000 0.000000 1.476190 
# 
# From -- ./inp_files/22580.got.cif
#   From: 2010.05.17/outbox.cif.g08.bks.cpg/sg51_12_cif.got.tgz:22580.got - 2010.06.03 11:52:47.
