data_PCOD9400667
_publ_section_title
;
Structure prediction by ZEFSAII (Michael W. Deem and Ramdas Pophale) SiO2 
 PCOD9400667
Probable space group: P M M A
;
_chemical_formula_sum "Si O2"
_cell_formula_units_Z 56
_cell_length_a 8.574404
_cell_length_b 20.742714
_cell_length_c 15.815445
_cell_angle_alpha 90.000000
_cell_angle_beta 90.000000
_cell_angle_gamma 90.000000
_cell_volume 2812.878269
_symmetry_space_group_name_H-M "P M M A"
_symmetry_group_IT_number 51
_symmetry_cell_setting 'orthorhombic'
loop_
_space_group_symop_operation_xyz
x,y,z
1/2-x,-y,z
1/2+x,-y,-z
-x,y,-z
-x,-y,-z
1/2+x,y,-z
1/2-x,y,z
x,-y,z
loop_
_atom_site_type_symbol
_atom_site_label
_atom_site_fract_x
_atom_site_fract_y
_atom_site_fract_z
Si Si1 0.436664 0.928979 0.228055
Si Si2 0.938646 0.244551 0.364427
Si Si3 0.437484 0.427876 0.232552
Si Si4 0.063252 0.385768 0.588266
Si Si5 0.563325 0.794277 0.175416
Si Si6 0.937270 0.103104 0.412139
Si Si7 0.436487 0.672845 0.090205
O O1 0.250000 0.923321 0.229131
O O2 0.505679 0.867915 0.178227
O O3 0.497472 0.925176 0.324881
O O4 0.479212 0.000000 0.194338
O O5 0.750000 0.246149 0.367233
O O6 0.995634 0.311459 0.402418
O O7 0.983768 0.235953 0.266555
O O8 0.987780 0.178442 0.408350
O O9 0.250000 0.422143 0.239880
O O10 0.473778 0.500000 0.201550
O O11 0.507901 0.418933 0.325679
O O12 0.492458 0.373702 0.166363
O O13 0.250000 0.386366 0.585672
O O14 0.000000 0.412764 0.500000
O O15 0.750000 0.793969 0.170114
O O16 0.493171 0.745638 0.107631
O O17 0.750000 0.098970 0.410129
O O18 0.000000 0.075492 0.500000
O O19 0.250000 0.671412 0.089478
O O20 0.500000 0.650601 0.000000
#
# Coordination Sequence:
#
# PCOD9400667 Si02
#       7
#     8   8   8   8   8   8   8
#     4  10  21  36  54  79 112 153 199 243 293 357
#     4   8  16  30  50  77 108 144 188 242 297 349
#     4  10  23  43  63  87 122 162 204 250 300 355
#     4  11  21  35  56  84 118 158 206 253 302 356
#     4  10  19  36  61  88 119 152 193 245 296 353
#     4  10  19  31  47  71 105 147 195 250 304 357
#     4  11  23  40  66  97 126 158 196 244 301 362
#
# _framework density 19.908434
#
# number of rings (size 3 to 8) (size 9 to 14) (size 15 to 20)
#    0.000    2.000    1.429    3.429    0.000    2.857 
#    0.000    1.429    0.000    0.429    0.000    0.000 
#    0.000    0.000    0.000    0.000    0.000    0.000 
#
# Total GULP energy -312649.519509 kJ/mol
# GULP energy per Si atom -5583.027134 kJ/mol
# Density = 1.986312 g / cm^3
# Si number density = 19.908434 Si / 1000 Ang^3
#
#
#
# Elastic Constant Matrix: (Units=GPa)
#
#
# Indices 1 2 3 4 5 6 
#
# 1 49.3070 30.3905 26.4057 0.0000 0.0000 0.0000
# 2 30.3905 115.5264 41.9870 0.0000 0.0000 0.0000
# 3 26.4057 41.9870 96.9165 0.0000 0.0000 0.0000
# 4 0.0000 0.0000 0.0000 -9.0885 0.0000 0.0000
# 5 0.0000 0.0000 0.0000 0.0000 29.2716 0.0000
# 6 0.0000 0.0000 0.0000 0.0000 0.0000 17.9475
#
#
#
# Elastic Compliance Matrix: (Units=1/GPa)
#
#
# Indices 1 2 3 4 5 6 
#
# 1 0.026026 -0.005067 -0.004896 0.000000 0.000000 0.000000
# 2 -0.005067 0.011260 -0.003498 0.000000 0.000000 0.000000
# 3 -0.004896 -0.003498 0.013167 0.000000 0.000000 0.000000
# 4 0.000000 0.000000 0.000000 -0.110030 0.000000 0.000000
# 5 0.000000 0.000000 0.000000 0.000000 0.034163 0.000000
# 6 0.000000 0.000000 0.000000 0.000000 0.000000 0.055718
#
#
# Mechanical properties :
#
#
# Convention : Reuss Voigt Hill
#
# Bulk Modulus (GPa) = 42.49445 51.03515 46.76480
# Shear Modulus (GPa) = 76.83995 18.49057 47.66526
#
# Velocity S-wave (km/s) = 6.21936 3.05090 4.89839
# Velocity P-wave (km/s) = 8.54197 6.17262 7.45206
#
# Compressibility (1/GPa) = 0.02353248
#
# Stress axis : x y z
#
# Youngs Moduli (GPa) = 38.42292 88.80849 75.94543
#
# Poissons Ratio (x) = 0.45000 0.37181
# Poissons Ratio (y) = 0.19469 0.26563
# Poissons Ratio (z) = 0.18811 0.31062
#
# Static dielectric constant tensor:
#      x y z
#    x 1.663210 0.000000 0.000000 
#    y 0.000000 1.737380 0.000000 
#    z 0.000000 0.000000 1.690370 
# 
# From -- ./inp_files/21737.got.cif
#   From: 2010.05.17/outbox.cif.g08.bks.cpg/sg51_11_cif.got.tgz:21737.got - 2010.06.03 11:52:47.
