data_PCOD9400261
_publ_section_title
;
Structure prediction by ZEFSAII (Michael W. Deem and Ramdas Pophale) SiO2 
 PCOD9400261
Probable space group: P M M A
;
_chemical_formula_sum "Si O2"
_cell_formula_units_Z 64
_cell_length_a 31.939611
_cell_length_b 8.614836
_cell_length_c 12.796443
_cell_angle_alpha 90.000000
_cell_angle_beta 90.000000
_cell_angle_gamma 90.000000
_cell_volume 3520.999012
_symmetry_space_group_name_H-M "P M M A"
_symmetry_group_IT_number 51
_symmetry_cell_setting 'orthorhombic'
loop_
_space_group_symop_operation_xyz
x,y,z
1/2-x,-y,z
1/2+x,-y,-z
-x,y,-z
-x,-y,-z
1/2+x,y,-z
1/2-x,y,z
x,-y,z
loop_
_atom_site_type_symbol
_atom_site_label
_atom_site_fract_x
_atom_site_fract_y
_atom_site_fract_z
Si Si1 0.034731 0.828095 0.913297
Si Si2 0.429675 0.313831 0.336866
Si Si3 0.388625 0.685580 0.687977
Si Si4 0.143451 0.814851 0.483664
Si Si5 0.519167 0.177449 0.326978
Si Si6 0.297933 0.812788 0.297634
Si Si7 0.870406 0.687312 0.849014
Si Si8 0.118359 0.678557 0.919809
O O1 0.015212 0.821795 0.798942
O O2 0.068166 0.693215 0.925976
O O3 0.055390 0.000000 0.922371
O O4 0.000000 0.816658 0.000000
O O5 0.428324 0.500000 0.341160
O O6 0.396892 0.244345 0.419216
O O7 0.476623 0.259226 0.363051
O O8 0.410697 0.265078 0.222432
O O9 0.391013 0.500000 0.693967
O O10 0.357936 0.738652 0.596862
O O11 0.435222 0.746275 0.657697
O O12 0.374469 0.745686 0.803120
O O13 0.183231 0.774735 0.411714
O O14 0.141040 0.000000 0.493982
O O15 0.520467 0.000000 0.364605
O O16 0.250000 0.763238 0.285542
O O17 0.329573 0.738919 0.214553
O O18 0.299893 0.000000 0.286862
O O19 0.872183 0.500000 0.854548
O O20 0.868039 0.747481 0.968393
O O21 0.132549 0.500000 0.917427
#
# Coordination Sequence:
#
# PCOD9400261 Si02
#       8
#     8   8   8   8   8   8   8   8
#     4   9  17  27  40  61  90 125 166 209 246 281
#     4  10  19  31  48  71  99 130 168 212 256 299
#     4  10  20  34  50  69  97 134 175 213 247 286
#     4  10  20  35  54  74  98 128 163 204 250 298
#     4  10  19  30  44  65  95 131 173 215 254 294
#     4   9  19  36  58  83 106 126 151 190 243 299
#     4   9  18  32  51  77 105 132 162 197 242 296
#     4   9  18  31  47  68  96 130 164 198 237 281
#
# _framework density 18.176659000000001
#
# number of rings (size 3 to 8) (size 9 to 14) (size 15 to 20)
#    0.000    2.500    0.000    2.250    0.000    3.500 
#    0.000    2.500    0.000    0.750    0.000    3.500 
#    0.000    0.000    0.000    0.000    0.000    0.000 
#
# Total GULP energy -356540.771507 kJ/mol
# GULP energy per Si atom -5570.949555 kJ/mol
# Density = 1.813529 g / cm^3
# Si number density = 18.176659 Si / 1000 Ang^3
#
#
#
# Elastic Constant Matrix: (Units=GPa)
#
#
# Indices 1 2 3 4 5 6 
#
# 1 44.4763 7.9923 22.5766 0.0000 0.0000 0.0000
# 2 7.9923 26.4277 12.4357 0.0000 0.0000 0.0000
# 3 22.5766 12.4357 104.2927 0.0000 0.0000 0.0000
# 4 0.0000 0.0000 0.0000 14.4495 0.0000 0.0000
# 5 0.0000 0.0000 0.0000 0.0000 14.7643 0.0000
# 6 0.0000 0.0000 0.0000 0.0000 0.0000 15.4764
#
#
#
# Elastic Compliance Matrix: (Units=1/GPa)
#
#
# Indices 1 2 3 4 5 6 
#
# 1 0.025999 -0.005524 -0.004969 0.000000 0.000000 0.000000
# 2 -0.005524 0.041262 -0.003724 0.000000 0.000000 0.000000
# 3 -0.004969 -0.003724 0.011108 0.000000 0.000000 0.000000
# 4 0.000000 0.000000 0.000000 0.069207 0.000000 0.000000
# 5 0.000000 0.000000 0.000000 0.000000 0.067731 0.000000
# 6 0.000000 0.000000 0.000000 0.000000 0.000000 0.064615
#
#
# Mechanical properties :
#
#
# Convention : Reuss Voigt Hill
#
# Bulk Modulus (GPa) = 20.02653 29.02289 24.52471
# Shear Modulus (GPa) = 15.38452 17.75083 16.56767
#
# Velocity S-wave (km/s) = 2.91243 3.12841 3.02235
# Velocity P-wave (km/s) = 4.72772 5.38990 5.06963
#
# Compressibility (1/GPa) = 0.04993377
#
# Stress axis : x y z
#
# Youngs Moduli (GPa) = 38.46285 24.23526 90.02347
#
# Poissons Ratio (x) = 0.13388 0.44736
# Poissons Ratio (y) = 0.21248 0.33526
# Poissons Ratio (z) = 0.19114 0.09026
#
# Static dielectric constant tensor:
#      x y z
#    x 1.592930 0.000000 0.000000 
#    y 0.000000 1.652770 0.000000 
#    z 0.000000 0.000000 1.679890 
# 
# From -- ./inp_files/19451.got.cif
#   From: 2010.05.17/outbox.cif.g08.bks.cpg/sg51_10_cif.got.tgz:19451.got - 2010.06.03 11:52:47.
