data_PCOD9400699
_publ_section_title
;
Structure prediction by ZEFSAII (Michael W. Deem and Ramdas Pophale) SiO2 
 PCOD9400699
Probable space group: P M M A
;
_chemical_formula_sum "Si O2"
_cell_formula_units_Z 64
_cell_length_a 29.055013
_cell_length_b 9.015394
_cell_length_c 15.986025
_cell_angle_alpha 90.000000
_cell_angle_beta 90.000000
_cell_angle_gamma 90.000000
_cell_volume 4187.417593
_symmetry_space_group_name_H-M "P M M A"
_symmetry_group_IT_number 51
_symmetry_cell_setting 'orthorhombic'
loop_
_space_group_symop_operation_xyz
x,y,z
1/2-x,-y,z
1/2+x,-y,-z
-x,y,-z
-x,-y,-z
1/2+x,y,-z
1/2-x,y,z
x,-y,z
loop_
_atom_site_type_symbol
_atom_site_label
_atom_site_fract_x
_atom_site_fract_y
_atom_site_fract_z
Si Si1 0.802863 0.823054 0.898733
Si Si2 0.698170 0.675854 0.079396
Si Si3 0.445226 0.823557 0.999444
Si Si4 0.555745 0.321768 0.330500
Si Si5 0.393712 0.678235 0.157286
Si Si6 0.444102 0.828685 0.497385
Si Si7 0.103581 0.321833 0.840587
Si Si8 0.948084 0.322111 0.674667
O O1 0.750000 0.787749 0.874667
O O2 0.842140 0.741877 0.846181
O O3 0.808888 0.000000 0.895129
O O4 0.808742 0.767263 0.994292
O O5 0.750000 0.704271 0.110369
O O6 0.695030 0.500000 0.058437
O O7 0.657397 0.708851 0.143508
O O8 0.421112 0.745751 0.078469
O O9 0.436889 0.000000 0.003508
O O10 0.500000 0.797649 0.000000
O O11 0.424067 0.757138 0.914736
O O12 0.557824 0.500000 0.338381
O O13 0.571452 0.250622 0.417648
O O14 0.585197 0.276051 0.250055
O O15 0.502061 0.281608 0.314983
O O16 0.393084 0.500000 0.149982
O O17 0.419613 0.719469 0.243058
O O18 0.500000 0.820478 0.500000
O O19 0.430413 0.750794 0.410914
O O20 0.430638 0.000000 0.497130
O O21 0.096578 0.500000 0.847918
O O22 0.946149 0.500000 0.665782
#
# Coordination Sequence:
#
# PCOD9400699 Si02
#       8
#     8   8   8   8   8   8   8   8
#     4  10  20  33  49  69  94 124 158 198 244 288
#     4   9  17  30  48  69  92 120 157 199 239 277
#     4  11  23  34  44  63  95 132 164 195 233 278
#     4   9  17  30  47  67  93 124 158 193 233 282
#     4  11  21  33  50  71  94 125 163 200 238 283
#     4   9  17  29  46  68  92 119 152 192 238 282
#     4  10  19  31  48  69  92 125 162 196 234 278
#     4   9  18  31  47  67  92 123 157 194 234 279
#
# _framework density 15.283882999999999
#
# number of rings (size 3 to 8) (size 9 to 14) (size 15 to 20)
#    0.000    2.250    1.250    2.250    0.000    5.750 
#    0.000    2.500    0.000    0.000    0.000    0.875 
#    0.000    5.000    0.000    0.000    0.000    0.000 
#
# Total GULP energy -356922.590922 kJ/mol
# GULP energy per Si atom -5576.915483 kJ/mol
# Density = 1.524910 g / cm^3
# Si number density = 15.283883 Si / 1000 Ang^3
#
#
#
# Elastic Constant Matrix: (Units=GPa)
#
#
# Indices 1 2 3 4 5 6 
#
# 1 83.8771 39.7730 57.4823 0.0000 0.0000 0.0000
# 2 39.7730 40.3441 46.6613 0.0000 0.0000 0.0000
# 3 57.4823 46.6613 129.8200 0.0000 0.0000 0.0000
# 4 0.0000 0.0000 0.0000 -14.8630 0.0000 0.0000
# 5 0.0000 0.0000 0.0000 0.0000 8.9454 0.0000
# 6 0.0000 0.0000 0.0000 0.0000 0.0000 19.1537
#
#
#
# Elastic Compliance Matrix: (Units=1/GPa)
#
#
# Indices 1 2 3 4 5 6 
#
# 1 0.023294 -0.018886 -0.003526 0.000000 0.000000 0.000000
# 2 -0.018886 0.057735 -0.012389 0.000000 0.000000 0.000000
# 3 -0.003526 -0.012389 0.013717 0.000000 0.000000 0.000000
# 4 0.000000 0.000000 0.000000 -0.067281 0.000000 0.000000
# 5 0.000000 0.000000 0.000000 0.000000 0.111790 0.000000
# 6 0.000000 0.000000 0.000000 0.000000 0.000000 0.052209
#
#
# Mechanical properties :
#
#
# Convention : Reuss Voigt Hill
#
# Bulk Modulus (GPa) = 39.77190 60.20827 49.99008
# Shear Modulus (GPa) = 18.55649 9.98886 14.27267
#
# Velocity S-wave (km/s) = 3.48820 2.55925 3.05919
# Velocity P-wave (km/s) = 6.50400 6.94347 6.72733
#
# Compressibility (1/GPa) = 0.02514338
#
# Stress axis : x y z
#
# Youngs Moduli (GPa) = 42.92919 17.32059 72.90097
#
# Poissons Ratio (x) = 0.32712 0.25705
# Poissons Ratio (y) = 0.81078 0.90318
# Poissons Ratio (z) = 0.15137 0.21459
#
# Static dielectric constant tensor:
#      x y z
#    x 1.511170 0.000000 0.000000 
#    y 0.000000 1.510770 0.000000 
#    z 0.000000 0.000000 1.481820 
# 
# From -- ./inp_files/26573.got.cif
#   From: 2010.05.17/outbox.cif.g08.bks.cpg/sg51_14_cif.got.tgz:26573.got - 2010.06.03 11:52:47.
