data_PCOD9400585
_publ_section_title
;
Structure prediction by ZEFSAII (Michael W. Deem and Ramdas Pophale) SiO2 
 PCOD9400585
Probable space group: P M M A
;
_chemical_formula_sum "Si O2"
_cell_formula_units_Z 64
_cell_length_a 8.520487
_cell_length_b 32.229075
_cell_length_c 14.767276
_cell_angle_alpha 90.000000
_cell_angle_beta 90.000000
_cell_angle_gamma 90.000000
_cell_volume 4055.203482
_symmetry_space_group_name_H-M "P M M A"
_symmetry_group_IT_number 51
_symmetry_cell_setting 'orthorhombic'
loop_
_space_group_symop_operation_xyz
x,y,z
1/2-x,-y,z
1/2+x,-y,-z
-x,y,-z
-x,-y,-z
1/2+x,y,-z
1/2-x,y,z
x,-y,z
loop_
_atom_site_type_symbol
_atom_site_label
_atom_site_fract_x
_atom_site_fract_y
_atom_site_fract_z
Si Si1 0.061000 0.160819 0.597323
Si Si2 0.063346 0.713759 0.214130
Si Si3 0.560586 0.455453 0.103226
Si Si4 0.439794 0.047028 0.898910
Si Si5 0.938483 0.207508 0.102124
Si Si6 0.938880 0.364212 0.103249
Si Si7 0.438139 0.257656 0.598109
Si Si8 0.941514 0.125847 0.213348
O O1 0.250000 0.160128 0.595729
O O2 0.013412 0.209129 0.609477
O O3 0.006492 0.134882 0.684159
O O4 0.000000 0.146483 0.500000
O O5 0.250000 0.714959 0.211865
O O6 0.997899 0.753452 0.159595
O O7 0.003633 0.672479 0.164669
O O8 0.004360 0.717348 0.317101
O O9 0.750000 0.455470 0.102395
O O10 0.509430 0.500000 0.144292
O O11 0.512278 0.410172 0.138899
O O12 0.500000 0.455735 0.000000
O O13 0.250000 0.047727 0.900705
O O14 0.494090 0.082657 0.830354
O O15 0.489264 0.000000 0.875204
O O16 0.500000 0.056056 0.000000
O O17 0.750000 0.208529 0.101419
O O18 0.988729 0.164767 0.150806
O O19 0.000000 0.209419 0.000000
O O20 0.750000 0.362079 0.101228
O O21 0.000000 0.359757 0.000000
O O22 0.500000 0.271303 0.500000
O O23 0.250000 0.259204 0.599383
O O24 0.750000 0.125531 0.214234
#
# Coordination Sequence:
#
# PCOD9400585 Si02
#       8
#     8   8   8   8   8   8   8   8
#     4   9  17  31  49  69  91 117 147 186 229 273
#     4  12  23  34  47  66  93 127 163 196 232 280
#     4   8  14  25  42  63  86 115 154 198 240 280
#     4   9  17  30  49  71  94 121 152 186 227 275
#     4  11  21  34  47  64  91 124 158 195 234 276
#     4  10  19  31  46  65  93 129 165 200 239 284
#     4  10  19  34  53  72  93 120 153 195 238 280
#     4   9  17  31  49  68  93 121 151 188 231 276
#
# _framework density 15.782192999999999
#
# number of rings (size 3 to 8) (size 9 to 14) (size 15 to 20)
#    0.000    2.250    1.250    3.000    0.000    1.000 
#    0.000    1.250    0.000    0.375    0.000    0.000 
#    0.000    0.500    0.000    1.375    0.000    2.250 
#
# Total GULP energy -356806.075077 kJ/mol
# GULP energy per Si atom -5575.094923 kJ/mol
# Density = 1.574627 g / cm^3
# Si number density = 15.782193 Si / 1000 Ang^3
#
#
#
# Elastic Constant Matrix: (Units=GPa)
#
#
# Indices 1 2 3 4 5 6 
#
# 1 38.4668 27.2145 28.5811 0.0000 0.0000 0.0000
# 2 27.2145 134.3153 80.8051 0.0000 0.0000 0.0000
# 3 28.5811 80.8051 128.3859 0.0000 0.0000 0.0000
# 4 0.0000 0.0000 0.0000 8.4670 0.0000 0.0000
# 5 0.0000 0.0000 0.0000 0.0000 25.0125 0.0000
# 6 0.0000 0.0000 0.0000 0.0000 0.0000 4.0443
#
#
#
# Elastic Compliance Matrix: (Units=1/GPa)
#
#
# Indices 1 2 3 4 5 6 
#
# 1 0.032171 -0.003556 -0.004923 0.000000 0.000000 0.000000
# 2 -0.003556 0.012375 -0.006997 0.000000 0.000000 0.000000
# 3 -0.004923 -0.006997 0.013289 0.000000 0.000000 0.000000
# 4 0.000000 0.000000 0.000000 0.118105 0.000000 0.000000
# 5 0.000000 0.000000 0.000000 0.000000 0.039980 0.000000
# 6 0.000000 0.000000 0.000000 0.000000 0.000000 0.247263
#
#
# Mechanical properties :
#
#
# Convention : Reuss Voigt Hill
#
# Bulk Modulus (GPa) = 37.20095 63.81882 50.50988
# Shear Modulus (GPa) = 9.93843 18.47593 14.20718
#
# Velocity S-wave (km/s) = 2.51215 3.42523 3.00359
# Velocity P-wave (km/s) = 5.66014 7.49453 6.64098
#
# Compressibility (1/GPa) = 0.02688104
#
# Stress axis : x y z
#
# Youngs Moduli (GPa) = 31.08421 80.80610 75.24981
#
# Poissons Ratio (x) = 0.28737 0.37049
# Poissons Ratio (y) = 0.11054 0.52654
# Poissons Ratio (z) = 0.15304 0.56542
#
# Static dielectric constant tensor:
#      x y z
#    x 1.532860 0.000000 0.000000 
#    y 0.000000 1.550140 0.000000 
#    z 0.000000 0.000000 1.513950 
# 
# From -- ./inp_files/22597.got.cif
#   From: 2010.05.17/outbox.cif.g08.bks.cpg/sg51_12_cif.got.tgz:22597.got - 2010.06.03 11:52:47.
