data_PCOD9400894
_publ_section_title
;
Structure prediction by ZEFSAII (Michael W. Deem and Ramdas Pophale) SiO2 
 PCOD9400894
Probable space group: P M M A
;
_chemical_formula_sum "Si O2"
_cell_formula_units_Z 48
_cell_length_a 10.395871
_cell_length_b 14.137050
_cell_length_c 19.577404
_cell_angle_alpha 90.000000
_cell_angle_beta 90.000000
_cell_angle_gamma 90.000000
_cell_volume 2877.231318
_symmetry_space_group_name_H-M "P M M A"
_symmetry_group_IT_number 51
_symmetry_cell_setting 'orthorhombic'
loop_
_space_group_symop_operation_xyz
x,y,z
1/2-x,-y,z
1/2+x,-y,-z
-x,y,-z
-x,-y,-z
1/2+x,y,-z
1/2-x,y,z
x,-y,z
loop_
_atom_site_type_symbol
_atom_site_label
_atom_site_fract_x
_atom_site_fract_y
_atom_site_fract_z
Si Si1 0.594574 0.392967 0.287524
Si Si2 0.399554 0.890059 0.938972
Si Si3 0.392442 0.115171 0.448458
Si Si4 0.898890 0.615205 0.441122
Si Si5 0.097834 0.784783 0.799453
Si Si6 0.606405 0.886525 0.707942
O O1 0.750000 0.398186 0.289824
O O2 0.545691 0.500000 0.277226
O O3 0.558608 0.357657 0.363877
O O4 0.563076 0.320525 0.226816
O O5 0.250000 0.881131 0.961258
O O6 0.421456 0.816306 0.877625
O O7 0.415063 0.000000 0.914800
O O8 0.500000 0.875700 0.000000
O O9 0.500000 0.148111 0.500000
O O10 0.250000 0.144696 0.469908
O O11 0.413852 0.143728 0.370434
O O12 0.393995 0.000000 0.448820
O O13 0.750000 0.645525 0.452928
O O14 0.896127 0.500000 0.439865
O O15 0.000000 0.642059 0.500000
O O16 0.250000 0.798961 0.785076
O O17 0.007103 0.850734 0.754632
O O18 0.750000 0.854409 0.729403
O O19 0.607656 0.000000 0.708684
#
# Coordination Sequence:
#
# PCOD9400894 Si02
#       6
#     8   8   8   8   8   8
#     4   8  15  29  48  69  94 125 160 198 242 287
#     4   9  18  32  50  74 101 125 151 185 226 275
#     4   8  14  25  40  57  79 112 154 193 227 268
#     4   8  13  23  41  63  86 115 153 196 240 284
#     4  10  19  31  50  74  96 120 156 198 232 271
#     4   9  18  31  45  64  93 125 153 186 235 289
#
# _framework density 16.682704999999999
#
# number of rings (size 3 to 8) (size 9 to 14) (size 15 to 20)
#    0.000    3.333    0.000    2.500    0.000    2.333 
#    0.000    5.000    0.000    6.000    0.000    0.000 
#    0.000    0.000    0.000    0.000    0.000    0.000 
#
# Total GULP energy -267220.519466 kJ/mol
# GULP energy per Si atom -5567.094156 kJ/mol
# Density = 1.664473 g / cm^3
# Si number density = 16.682705 Si / 1000 Ang^3
#
#
#
# Elastic Constant Matrix: (Units=GPa)
#
#
# Indices 1 2 3 4 5 6 
#
# 1 83.2614 32.7291 71.6414 0.0000 0.0000 0.0000
# 2 32.7291 72.0604 49.8746 0.0000 0.0000 0.0000
# 3 71.6414 49.8746 102.5443 0.0000 0.0000 0.0000
# 4 0.0000 0.0000 0.0000 45.4030 0.0000 0.0000
# 5 0.0000 0.0000 0.0000 0.0000 30.9501 0.0000
# 6 0.0000 0.0000 0.0000 0.0000 0.0000 7.0919
#
#
#
# Elastic Compliance Matrix: (Units=1/GPa)
#
#
# Indices 1 2 3 4 5 6 
#
# 1 0.030197 0.001336 -0.021746 0.000000 0.000000 0.000000
# 2 0.001336 0.020978 -0.011137 0.000000 0.000000 0.000000
# 3 -0.021746 -0.011137 0.030361 0.000000 0.000000 0.000000
# 4 0.000000 0.000000 0.000000 0.022025 0.000000 0.000000
# 5 0.000000 0.000000 0.000000 0.000000 0.032310 0.000000
# 6 0.000000 0.000000 0.000000 0.000000 0.000000 0.141007
#
#
# Mechanical properties :
#
#
# Convention : Reuss Voigt Hill
#
# Bulk Modulus (GPa) = 54.22303 62.92847 58.57575
# Shear Modulus (GPa) = 14.44588 23.59705 19.02147
#
# Velocity S-wave (km/s) = 2.94584 3.76501 3.38033
# Velocity P-wave (km/s) = 6.64408 7.53015 7.10095
#
# Compressibility (1/GPa) = 0.01844235
#
# Stress axis : x y z
#
# Youngs Moduli (GPa) = 33.11633 47.66812 32.93667
#
# Poissons Ratio (x) = -0.06369 0.71625
# Poissons Ratio (y) = -0.04425 0.36681
# Poissons Ratio (z) = 0.72016 0.53087
#
# Static dielectric constant tensor:
#      x y z
#    x 1.557910 0.000000 0.000000 
#    y 0.000000 1.607680 0.000000 
#    z 0.000000 0.000000 1.548940 
# 
# From -- ./inp_files/23235.got.cif
#   From: 2010.05.17/outbox.cif.g08.bks.cpg/sg51_12_cif.got.tgz:23235.got - 2010.06.03 11:52:47.
