data_PCOD9400150
_publ_section_title
;
Structure prediction by ZEFSAII (Michael W. Deem and Ramdas Pophale) SiO2 
 PCOD9400150
Probable space group: P M M A
;
_chemical_formula_sum "Si O2"
_cell_formula_units_Z 48
_cell_length_a 8.703005
_cell_length_b 14.076853
_cell_length_c 24.938214
_cell_angle_alpha 90.000000
_cell_angle_beta 90.000000
_cell_angle_gamma 90.000000
_cell_volume 3055.203591
_symmetry_space_group_name_H-M "P M M A"
_symmetry_group_IT_number 51
_symmetry_cell_setting 'orthorhombic'
loop_
_space_group_symop_operation_xyz
x,y,z
1/2-x,-y,z
1/2+x,-y,-z
-x,y,-z
-x,-y,-z
1/2+x,y,-z
1/2-x,y,z
x,-y,z
loop_
_atom_site_type_symbol
_atom_site_label
_atom_site_fract_x
_atom_site_fract_y
_atom_site_fract_z
Si Si1 0.564670 0.387340 0.826673
Si Si2 0.934426 0.298700 0.280016
Si Si3 0.436680 0.894081 0.665586
Si Si4 0.566034 0.790076 0.442661
Si Si5 0.565692 0.608432 0.614078
Si Si6 0.566153 0.612539 0.944884
O O1 0.750000 0.379431 0.823398
O O2 0.528558 0.500000 0.822314
O O3 0.488983 0.332125 0.777895
O O4 0.516007 0.352273 0.886124
O O5 0.750000 0.304881 0.284245
O O6 0.982329 0.190645 0.294456
O O7 0.007216 0.364116 0.326487
O O8 0.250000 0.896498 0.666388
O O9 0.481265 0.859879 0.605862
O O10 0.492910 0.000000 0.677609
O O11 0.500000 0.817874 0.500000
O O12 0.750000 0.788370 0.444674
O O13 0.506284 0.685932 0.425646
O O14 0.750000 0.616114 0.612626
O O15 0.522359 0.500000 0.601447
O O16 0.750000 0.619502 0.947055
O O17 0.526964 0.500000 0.944411
O O18 0.500000 0.653945 0.000000
#
# Coordination Sequence:
#
# PCOD9400150 Si02
#       6
#     8   8   8   8   8   8
#     4   9  17  28  41  59  88 125 155 178 211 254
#     4  10  19  29  45  68  89 111 143 182 217 253
#     4   8  16  32  50  66  86 111 137 170 216 263
#     4  10  20  33  50  70  90 112 139 173 210 251
#     4  10  20  33  48  64  86 118 148 175 211 251
#     4   8  14  24  37  54  79 114 153 186 214 244
#
# _framework density 15.710900000000001
#
# number of rings (size 3 to 8) (size 9 to 14) (size 15 to 20)
#    0.000    2.833    0.000    4.000    0.000    5.000 
#    0.000    1.667    0.000   17.500    0.000    0.000 
#    0.000    0.667    0.000    1.500    0.000    2.333 
#
# Total GULP energy -267406.415990 kJ/mol
# GULP energy per Si atom -5570.967000 kJ/mol
# Density = 1.567514 g / cm^3
# Si number density = 15.710900 Si / 1000 Ang^3
#
#
#
# Elastic Constant Matrix: (Units=GPa)
#
#
# Indices 1 2 3 4 5 6 
#
# 1 22.6126 11.4967 15.3079 0.0000 0.0000 0.0000
# 2 11.4967 64.0603 17.6083 0.0000 0.0000 0.0000
# 3 15.3079 17.6083 100.4796 0.0000 0.0000 0.0000
# 4 0.0000 0.0000 0.0000 8.8257 0.0000 0.0000
# 5 0.0000 0.0000 0.0000 0.0000 29.0922 0.0000
# 6 0.0000 0.0000 0.0000 0.0000 0.0000 4.6562
#
#
#
# Elastic Compliance Matrix: (Units=1/GPa)
#
#
# Indices 1 2 3 4 5 6 
#
# 1 0.052614 -0.007606 -0.006683 0.000000 0.000000 0.000000
# 2 -0.007606 0.017500 -0.001908 0.000000 0.000000 0.000000
# 3 -0.006683 -0.001908 0.011305 0.000000 0.000000 0.000000
# 4 0.000000 0.000000 0.000000 0.113305 0.000000 0.000000
# 5 0.000000 0.000000 0.000000 0.000000 0.034373 0.000000
# 6 0.000000 0.000000 0.000000 0.000000 0.000000 0.214765
#
#
# Mechanical properties :
#
#
# Convention : Reuss Voigt Hill
#
# Bulk Modulus (GPa) = 20.39750 30.66427 25.53088
# Shear Modulus (GPa) = 10.15029 18.03082 14.09056
#
# Velocity S-wave (km/s) = 2.54454 3.39139 2.99802
# Velocity P-wave (km/s) = 4.65233 5.90725 5.31694
#
# Compressibility (1/GPa) = 0.04902563
#
# Stress axis : x y z
#
# Youngs Moduli (GPa) = 19.00635 57.14390 88.45843
#
# Poissons Ratio (x) = 0.43461 0.59115
# Poissons Ratio (y) = 0.14455 0.16878
# Poissons Ratio (z) = 0.12702 0.10903
#
# Static dielectric constant tensor:
#      x y z
#    x 1.530290 0.000000 0.000000 
#    y 0.000000 1.515060 0.000000 
#    z 0.000000 0.000000 1.536320 
# 
# From -- ./inp_files/34640.got.cif
#   From: 2010.05.17/outbox.cif.g08.bks.cpg/sg51_18_cif.got.tgz:34640.got - 2010.06.03 11:52:47.
