data_PCOD9400567
_publ_section_title
;
Structure prediction by ZEFSAII (Michael W. Deem and Ramdas Pophale) SiO2 
 PCOD9400567
Probable space group: P M M A
;
_chemical_formula_sum "Si O2"
_cell_formula_units_Z 48
_cell_length_a 7.570973
_cell_length_b 18.142016
_cell_length_c 16.035790
_cell_angle_alpha 90.000000
_cell_angle_beta 90.000000
_cell_angle_gamma 90.000000
_cell_volume 2202.559266
_symmetry_space_group_name_H-M "P M M A"
_symmetry_group_IT_number 51
_symmetry_cell_setting 'orthorhombic'
loop_
_space_group_symop_operation_xyz
x,y,z
1/2-x,-y,z
1/2+x,-y,-z
-x,y,-z
-x,-y,-z
1/2+x,y,-z
1/2-x,y,z
x,-y,z
loop_
_atom_site_type_symbol
_atom_site_label
_atom_site_fract_x
_atom_site_fract_y
_atom_site_fract_z
Si Si1 0.467395 0.711400 0.219445
Si Si2 0.051821 0.000000 0.103561
Si Si3 0.538473 0.416819 0.904565
Si Si4 0.555552 0.706510 0.594100
Si Si5 0.459135 0.127089 0.588640
Si Si6 0.961916 0.835828 0.908696
Si Si7 0.963940 0.000000 0.288143
O O1 0.250000 0.714743 0.222529
O O2 0.523342 0.643804 0.160781
O O3 0.532286 0.697310 0.314342
O O4 0.523577 0.785889 0.169482
O O5 0.966271 0.919902 0.087200
O O6 0.060197 0.000000 0.202168
O O7 0.250000 0.000000 0.066407
O O8 0.750000 0.419455 0.895989
O O9 0.469646 0.500000 0.891119
O O10 0.500000 0.395944 0.000000
O O11 0.500000 0.683138 0.500000
O O12 0.750000 0.674548 0.603470
O O13 0.556369 0.795344 0.589444
O O14 0.500000 0.090808 0.500000
O O15 0.250000 0.141700 0.594478
O O16 0.512038 0.072581 0.660956
O O17 0.750000 0.841580 0.899932
O O18 0.000000 0.801522 0.000000
O O19 0.750000 0.000000 0.277596
#
# Coordination Sequence:
#
# PCOD9400567 Si02
#       7
#     8   4   8   8   8   8   4
#     4   9  18  32  51  74 100 130 163 199 241 292
#     4  10  21  34  48  64  88 126 164 197 239 289
#     4   9  17  31  52  78 106 134 163 196 239 291
#     4  10  19  33  51  70  95 127 162 201 242 285
#     4  10  19  31  45  64  89 117 153 199 250 298
#     4  10  20  34  50  70  95 125 163 202 243 290
#     4  10  21  32  44  64  88 114 153 203 247 291
#
# _framework density 21.792829000000001
#
# number of rings (size 3 to 8) (size 9 to 14) (size 15 to 20)
#    0.000    2.333    0.000    4.000    0.000    3.333 
#    0.000    3.333    0.000    0.500    0.000    0.000 
#    0.000    0.000    0.000    0.000    0.000    0.667 
#
# Total GULP energy -267588.436463 kJ/mol
# GULP energy per Si atom -5574.759093 kJ/mol
# Density = 2.174323 g / cm^3
# Si number density = 21.792829 Si / 1000 Ang^3
#
#
#
# Elastic Constant Matrix: (Units=GPa)
#
#
# Indices 1 2 3 4 5 6 
#
# 1 47.3330 5.0754 7.0413 0.0000 0.0000 0.0000
# 2 5.0754 86.9541 67.9877 0.0000 0.0000 0.0000
# 3 7.0413 67.9877 202.2255 0.0000 0.0000 0.0000
# 4 0.0000 0.0000 0.0000 8.8687 0.0000 0.0000
# 5 0.0000 0.0000 0.0000 0.0000 21.1387 0.0000
# 6 0.0000 0.0000 0.0000 0.0000 0.0000 0.9849
#
#
#
# Elastic Compliance Matrix: (Units=1/GPa)
#
#
# Indices 1 2 3 4 5 6 
#
# 1 0.021289 -0.000899 -0.000439 0.000000 0.000000 0.000000
# 2 -0.000899 0.015639 -0.005227 0.000000 0.000000 0.000000
# 3 -0.000439 -0.005227 0.006717 0.000000 0.000000 0.000000
# 4 0.000000 0.000000 0.000000 0.112756 0.000000 0.000000
# 5 0.000000 0.000000 0.000000 0.000000 0.047307 0.000000
# 6 0.000000 0.000000 0.000000 0.000000 0.000000 1.015351
#
#
# Mechanical properties :
#
#
# Convention : Reuss Voigt Hill
#
# Bulk Modulus (GPa) = 32.77011 55.19126 43.98069
# Shear Modulus (GPa) = 4.02460 23.29234 13.65847
#
# Velocity S-wave (km/s) = 1.36043 3.27281 2.50620
# Velocity P-wave (km/s) = 4.18777 6.29779 5.34788
#
# Compressibility (1/GPa) = 0.03051561
#
# Stress axis : x y z
#
# Youngs Moduli (GPa) = 46.97344 63.94109 148.86656
#
# Poissons Ratio (x) = 0.05751 0.06533
# Poissons Ratio (y) = 0.04225 0.77807
# Poissons Ratio (z) = 0.02061 0.33419
#
# Static dielectric constant tensor:
#      x y z
#    x 1.860860 0.000000 0.000000 
#    y 0.000000 1.774210 0.000000 
#    z 0.000000 0.000000 1.837100 
# 
# From -- ./inp_files/21246.got.cif
#   From: 2010.05.17/outbox.cif.g08.bks.cpg/sg51_11_cif.got.tgz:21246.got - 2010.06.03 11:52:47.
