data_PCOD9400014
_publ_section_title
;
Structure prediction by ZEFSAII (Michael W. Deem and Ramdas Pophale) SiO2 
 PCOD9400014
Probable space group: P M M A
;
_chemical_formula_sum "Si O2"
_cell_formula_units_Z 64
_cell_length_a 27.922359
_cell_length_b 7.732051
_cell_length_c 17.820198
_cell_angle_alpha 90.000000
_cell_angle_beta 90.000000
_cell_angle_gamma 90.000000
_cell_volume 3847.329138
_symmetry_space_group_name_H-M "P M M A"
_symmetry_group_IT_number 51
_symmetry_cell_setting 'orthorhombic'
loop_
_space_group_symop_operation_xyz
x,y,z
1/2-x,-y,z
1/2+x,-y,-z
-x,y,-z
-x,-y,-z
1/2+x,y,-z
1/2-x,y,z
x,-y,z
loop_
_atom_site_type_symbol
_atom_site_label
_atom_site_fract_x
_atom_site_fract_y
_atom_site_fract_z
Si Si1 0.964796 0.291332 0.324205
Si Si2 0.057240 0.700379 0.516303
Si Si3 0.367772 0.698952 0.217208
Si Si4 0.954600 0.201170 0.885612
Si Si5 0.391905 0.297809 0.983460
Si Si6 0.195653 0.712119 0.083941
Si Si7 0.558877 0.795240 0.158529
Si Si8 0.425947 0.286726 0.353966
O O1 0.965968 0.500000 0.329683
O O2 0.939251 0.224286 0.400125
O O3 0.939994 0.243853 0.246561
O O4 0.020738 0.234759 0.325781
O O5 0.072902 0.500000 0.520417
O O6 0.079700 0.773367 0.439986
O O7 0.000000 0.699464 0.500000
O O8 0.354441 0.500000 0.231720
O O9 0.415241 0.704211 0.165136
O O10 0.326624 0.773258 0.163477
O O11 0.385586 0.774488 0.296030
O O12 0.007436 0.272532 0.871440
O O13 0.954169 0.000000 0.862850
O O14 0.935454 0.212321 0.970416
O O15 0.395033 0.500000 0.000803
O O16 0.399813 0.274105 0.895462
O O17 0.342050 0.234431 0.019471
O O18 0.250000 0.768806 0.072544
O O19 0.195725 0.500000 0.085203
O O20 0.558982 0.000000 0.148429
O O21 0.425879 0.500000 0.353946
#
# Coordination Sequence:
#
# PCOD9400014 Si02
#       8
#     8   8   8   8   8   8   8   8
#     4   9  15  24  39  55  76 107 141 172 196 226
#     4   7  11  19  33  54  76 101 132 170 203 218
#     4   9  15  24  42  63  79 104 138 166 192 232
#     4  10  19  29  39  54  81 110 132 161 203 237
#     4  10  20  31  45  60  73  99 137 167 195 239
#     4   8  15  28  44  62  82  99 121 160 206 244
#     4  11  21  29  38  55  83 111 133 165 207 237
#     4   8  12  20  36  58  80 100 134 173 196 222
#
# _framework density 16.634916
#
# number of rings (size 3 to 8) (size 9 to 14) (size 15 to 20)
#    0.000    3.000    1.250    3.750    0.000    3.000 
#    0.000    0.000    0.000   13.500    0.000    0.000 
#    0.000    1.000    0.000   10.500    0.000    0.625 
#
# Total GULP energy -356325.414591 kJ/mol
# GULP energy per Si atom -5567.584603 kJ/mol
# Density = 1.659705 g / cm^3
# Si number density = 16.634916 Si / 1000 Ang^3
#
#
#
# Elastic Constant Matrix: (Units=GPa)
#
#
# Indices 1 2 3 4 5 6 
#
# 1 65.7104 4.1507 56.0626 0.0000 0.0000 0.0000
# 2 4.1507 29.7719 -1.4961 0.0000 0.0000 0.0000
# 3 56.0626 -1.4961 148.5452 0.0000 0.0000 0.0000
# 4 0.0000 0.0000 0.0000 -13.5289 0.0000 0.0000
# 5 0.0000 0.0000 0.0000 0.0000 14.3115 0.0000
# 6 0.0000 0.0000 0.0000 0.0000 0.0000 25.8030
#
#
#
# Elastic Compliance Matrix: (Units=1/GPa)
#
#
# Indices 1 2 3 4 5 6 
#
# 1 0.022829 -0.003618 -0.008652 0.000000 0.000000 0.000000
# 2 -0.003618 0.034179 0.001710 0.000000 0.000000 0.000000
# 3 -0.008652 0.001710 0.010015 0.000000 0.000000 0.000000
# 4 0.000000 0.000000 0.000000 -0.073916 0.000000 0.000000
# 5 0.000000 0.000000 0.000000 0.000000 0.069874 0.000000
# 6 0.000000 0.000000 0.000000 0.000000 0.000000 0.038755
#
#
# Mechanical properties :
#
#
# Convention : Reuss Voigt Hill
#
# Bulk Modulus (GPa) = 21.78564 40.16244 30.97404
# Shear Modulus (GPa) = 36.19087 17.67115 26.93101
#
# Velocity S-wave (km/s) = 4.66939 3.26282 4.02798
# Velocity P-wave (km/s) = 6.49582 6.19601 6.34769
#
# Compressibility (1/GPa) = 0.04590180
#
# Stress axis : x y z
#
# Youngs Moduli (GPa) = 43.80452 29.25780 99.85393
#
# Poissons Ratio (x) = 0.10584 0.86396
# Poissons Ratio (y) = 0.15846 -0.17070
# Poissons Ratio (z) = 0.37901 -0.05002
#
# Static dielectric constant tensor:
#      x y z
#    x 1.534690 0.000000 0.000000 
#    y 0.000000 1.612150 0.000000 
#    z 0.000000 0.000000 1.622960 
# 
# From -- ./inp_files/30998.got.cif
#   From: 2010.05.17/outbox.cif.g08.bks.cpg/sg51_16_cif.got.tgz:30998.got - 2010.06.03 11:52:47.
