data_PCOD9400878
_publ_section_title
;
Structure prediction by ZEFSAII (Michael W. Deem and Ramdas Pophale) SiO2 
 PCOD9400878
Probable space group: P M M A
;
_chemical_formula_sum "Si O2"
_cell_formula_units_Z 48
_cell_length_a 18.641798
_cell_length_b 7.568580
_cell_length_c 17.106818
_cell_angle_alpha 90.000000
_cell_angle_beta 90.000000
_cell_angle_gamma 90.000000
_cell_volume 2413.634130
_symmetry_space_group_name_H-M "P M M A"
_symmetry_group_IT_number 51
_symmetry_cell_setting 'orthorhombic'
loop_
_space_group_symop_operation_xyz
x,y,z
1/2-x,-y,z
1/2+x,-y,-z
-x,y,-z
-x,-y,-z
1/2+x,y,-z
1/2-x,y,z
x,-y,z
loop_
_atom_site_type_symbol
_atom_site_label
_atom_site_fract_x
_atom_site_fract_y
_atom_site_fract_z
Si Si1 0.109291 0.705133 0.318789
Si Si2 0.918222 0.712733 0.511728
Si Si3 0.043227 0.214536 0.754073
Si Si4 0.169042 0.788362 0.645008
Si Si5 0.828278 0.794529 0.844193
Si Si6 0.523338 0.216266 0.914344
O O1 0.130175 0.500000 0.319540
O O2 0.114461 0.778744 0.406322
O O3 0.153227 0.789215 0.248008
O O4 0.025568 0.720833 0.294821
O O5 0.922684 0.500000 0.519054
O O6 0.869656 0.753620 0.437381
O O7 0.000000 0.777840 0.500000
O O8 0.115800 0.276790 0.713048
O O9 0.029789 0.267506 0.843757
O O10 0.041177 0.000000 0.751177
O O11 0.250000 0.718202 0.647290
O O12 0.173096 0.000000 0.653897
O O13 0.750000 0.714870 0.858596
O O14 0.897454 0.720092 0.888980
O O15 0.824883 0.000000 0.866897
O O16 0.524637 0.000000 0.914716
O O17 0.500000 0.274645 0.000000
#
# Coordination Sequence:
#
# PCOD9400878 Si02
#       6
#     8   8   8   8   8   8
#     4  10  19  31  50  72  94 123 163 203 241 288
#     4  10  20  34  50  70  96 127 166 208 246 287
#     4   9  17  31  50  70  96 129 161 196 239 287
#     4  10  21  34  48  70  99 130 165 202 241 286
#     4   9  18  32  49  71 101 132 161 197 244 294
#     4   8  14  27  49  74  96 122 159 197 234 282
#
# _framework density 19.887025000000001
#
# number of rings (size 3 to 8) (size 9 to 14) (size 15 to 20)
#    0.000    2.667    1.667    1.500    0.000    3.000 
#    0.000    4.167    0.000   13.000    0.000    0.000 
#    0.000    5.333    0.000    0.000    0.000    0.000 
#
# Total GULP energy -267743.414268 kJ/mol
# GULP energy per Si atom -5577.987797 kJ/mol
# Density = 1.984176 g / cm^3
# Si number density = 19.887025 Si / 1000 Ang^3
#
#
#
# Elastic Constant Matrix: (Units=GPa)
#
#
# Indices 1 2 3 4 5 6 
#
# 1 143.9769 -4.3143 87.3313 0.0000 0.0000 0.0000
# 2 -4.3143 44.9648 -2.7085 0.0000 0.0000 0.0000
# 3 87.3313 -2.7085 175.1131 0.0000 0.0000 0.0000
# 4 0.0000 0.0000 0.0000 62.4267 0.0000 0.0000
# 5 0.0000 0.0000 0.0000 0.0000 15.1643 0.0000
# 6 0.0000 0.0000 0.0000 0.0000 0.0000 13.3937
#
#
#
# Elastic Compliance Matrix: (Units=1/GPa)
#
#
# Indices 1 2 3 4 5 6 
#
# 1 0.009977 0.000658 -0.004966 0.000000 0.000000 0.000000
# 2 0.000658 0.022304 0.000017 0.000000 0.000000 0.000000
# 3 -0.004966 0.000017 0.008187 0.000000 0.000000 0.000000
# 4 0.000000 0.000000 0.000000 0.016019 0.000000 0.000000
# 5 0.000000 0.000000 0.000000 0.000000 0.065944 0.000000
# 6 0.000000 0.000000 0.000000 0.000000 0.000000 0.074662
#
#
# Mechanical properties :
#
#
# Convention : Reuss Voigt Hill
#
# Bulk Modulus (GPa) = 31.36082 58.29686 44.82884
# Shear Modulus (GPa) = 23.11565 37.11338 30.11451
#
# Velocity S-wave (km/s) = 3.41302 4.32465 3.89560
# Velocity P-wave (km/s) = 5.59780 7.36984 6.54407
#
# Compressibility (1/GPa) = 0.03188693
#
# Stress axis : x y z
#
# Youngs Moduli (GPa) = 100.22813 44.83544 122.14088
#
# Poissons Ratio (x) = -0.02951 0.60650
# Poissons Ratio (y) = -0.06597 -0.00204
# Poissons Ratio (z) = 0.49769 -0.00075
#
# Static dielectric constant tensor:
#      x y z
#    x 1.701770 0.000000 0.000000 
#    y 0.000000 1.747210 0.000000 
#    z 0.000000 0.000000 1.683260 
# 
# From -- ./inp_files/30020.got.cif
#   From: 2010.05.17/outbox.cif.g08.bks.cpg/sg51_16_cif.got.tgz:30020.got - 2010.06.03 11:52:47.
