data_PCOD9400618
_publ_section_title
;
Structure prediction by ZEFSAII (Michael W. Deem and Ramdas Pophale) SiO2 
 PCOD9400618
Probable space group: P M M A
;
_chemical_formula_sum "Si O2"
_cell_formula_units_Z 48
_cell_length_a 8.317273
_cell_length_b 25.251752
_cell_length_c 14.028885
_cell_angle_alpha 90.000000
_cell_angle_beta 90.000000
_cell_angle_gamma 90.000000
_cell_volume 2946.426604
_symmetry_space_group_name_H-M "P M M A"
_symmetry_group_IT_number 51
_symmetry_cell_setting 'orthorhombic'
loop_
_space_group_symop_operation_xyz
x,y,z
1/2-x,-y,z
1/2+x,-y,-z
-x,y,-z
-x,-y,-z
1/2+x,y,-z
1/2-x,y,z
x,-y,z
loop_
_atom_site_type_symbol
_atom_site_label
_atom_site_fract_x
_atom_site_fract_y
_atom_site_fract_z
Si Si1 0.053931 0.719850 0.704574
Si Si2 0.055205 0.172422 0.609567
Si Si3 0.558760 0.335632 0.105049
Si Si4 0.944277 0.056942 0.389898
Si Si5 0.442554 0.388433 0.605644
Si Si6 0.557979 0.440858 0.797081
O O1 0.250000 0.826886 0.610178
O O2 0.997246 0.776748 0.668297
O O3 0.998556 0.702524 0.809852
O O4 0.007811 0.671730 0.634040
O O5 0.250000 0.278973 0.705535
O O6 0.002286 0.114446 0.647865
O O7 0.000000 0.177307 0.500000
O O8 0.750000 0.332910 0.105910
O O9 0.510049 0.394993 0.135517
O O10 0.500000 0.322465 0.000000
O O11 0.750000 0.056831 0.387560
O O12 0.000000 0.056906 0.500000
O O13 0.999079 0.000000 0.348409
O O14 0.500000 0.401737 0.500000
O O15 0.250000 0.391047 0.609828
O O16 0.510871 0.425472 0.688984
O O17 0.750000 0.440009 0.804927
O O18 0.499382 0.500000 0.819738
#
# Coordination Sequence:
#
# PCOD9400618 Si02
#       6
#     8   8   8   8   8   8
#     4   8  16  29  44  63  85 110 140 175 213 252
#     4   9  15  24  38  57  84 115 145 175 206 241
#     4  10  20  35  53  70  88 109 135 169 214 263
#     4   8  13  20  31  49  75 109 145 176 204 235
#     4  10  19  31  47  66  90 119 149 179 213 252
#     4  10  21  36  52  70  90 112 141 174 208 250
#
# _framework density 16.29092
#
# number of rings (size 3 to 8) (size 9 to 14) (size 15 to 20)
#    0.000    2.833    0.000    3.000    0.000    2.000 
#    0.000    4.167    0.000    0.000    0.000    0.000 
#    0.000    0.667    0.000    0.500    0.000    1.333 
#
# Total GULP energy -267332.267443 kJ/mol
# GULP energy per Si atom -5569.422238 kJ/mol
# Density = 1.625384 g / cm^3
# Si number density = 16.290920 Si / 1000 Ang^3
#
#
#
# Elastic Constant Matrix: (Units=GPa)
#
#
# Indices 1 2 3 4 5 6 
#
# 1 16.3100 6.7644 4.1923 0.0000 0.0000 0.0000
# 2 6.7644 126.8709 22.7676 0.0000 0.0000 0.0000
# 3 4.1923 22.7676 59.4929 0.0000 0.0000 0.0000
# 4 0.0000 0.0000 0.0000 12.0597 0.0000 0.0000
# 5 0.0000 0.0000 0.0000 0.0000 21.7286 0.0000
# 6 0.0000 0.0000 0.0000 0.0000 0.0000 11.6404
#
#
#
# Elastic Compliance Matrix: (Units=1/GPa)
#
#
# Indices 1 2 3 4 5 6 
#
# 1 0.063334 -0.002766 -0.003405 0.000000 0.000000 0.000000
# 2 -0.002766 0.008584 -0.003090 0.000000 0.000000 0.000000
# 3 -0.003405 -0.003090 0.018231 0.000000 0.000000 0.000000
# 4 0.000000 0.000000 0.000000 0.082921 0.000000 0.000000
# 5 0.000000 0.000000 0.000000 0.000000 0.046022 0.000000
# 6 0.000000 0.000000 0.000000 0.000000 0.000000 0.085908
#
#
# Mechanical properties :
#
#
# Convention : Reuss Voigt Hill
#
# Bulk Modulus (GPa) = 13.96090 30.01360 21.98725
# Shear Modulus (GPa) = 14.39271 20.34903 17.37087
#
# Velocity S-wave (km/s) = 2.97556 3.53810 3.26895
# Velocity P-wave (km/s) = 4.51593 5.92911 5.27011
#
# Compressibility (1/GPa) = 0.07162863
#
# Stress axis : x y z
#
# Youngs Moduli (GPa) = 15.78919 116.49518 54.85096
#
# Poissons Ratio (x) = 0.32221 0.18674
# Poissons Ratio (y) = 0.04367 0.16950
# Poissons Ratio (z) = 0.05375 0.35999
#
# Static dielectric constant tensor:
#      x y z
#    x 1.557670 0.000000 0.000000 
#    y 0.000000 1.600420 0.000000 
#    z 0.000000 0.000000 1.511440 
# 
# From -- ./inp_files/14421.got.cif
#   From: 2010.05.17/outbox.cif.g08.bks.cpg/sg51_8_cif.got.tgz:14421.got - 2010.06.03 11:52:47.
