data_PCOD9400530
_publ_section_title
;
Structure prediction by ZEFSAII (Michael W. Deem and Ramdas Pophale) SiO2 
 PCOD9400530
Probable space group: P M M A
;
_chemical_formula_sum "Si O2"
_cell_formula_units_Z 30
_cell_length_a 27.180855
_cell_length_b 8.552823
_cell_length_c 4.128616
_cell_angle_alpha 90.000000
_cell_angle_beta 90.000000
_cell_angle_gamma 90.000000
_cell_volume 959.791920
_symmetry_space_group_name_H-M "P M M A"
_symmetry_group_IT_number 51
_symmetry_cell_setting 'orthorhombic'
loop_
_space_group_symop_operation_xyz
x,y,z
1/2-x,-y,z
1/2+x,-y,-z
-x,y,-z
-x,-y,-z
1/2+x,y,-z
1/2-x,y,z
x,-y,z
loop_
_atom_site_type_symbol
_atom_site_label
_atom_site_fract_x
_atom_site_fract_y
_atom_site_fract_z
Si Si1 0.750000 0.323183 0.276996
Si Si2 0.049517 0.000000 0.710449
Si Si3 0.250000 0.000000 0.147403
Si Si4 0.450342 0.666443 0.715161
Si Si5 0.850151 0.332161 0.701805
Si Si6 0.645361 0.000000 0.744629
O O1 0.750000 0.500000 0.120591
O O2 0.750000 0.165427 0.054097
O O3 0.800311 0.323599 0.489212
O O4 0.049113 0.165796 0.892011
O O5 0.099634 0.000000 0.499185
O O6 0.000000 0.000000 0.500000
O O7 0.298291 0.000000 0.372688
O O8 0.500000 0.666076 0.500000
O O9 0.450229 0.500000 0.896277
O O10 0.400423 0.666221 0.505678
O O11 0.848696 0.500000 0.875081
O O12 0.854280 0.171527 0.905360
#
# Coordination Sequence:
#
# PCOD9400530 Si02
#       6
#     4   4   2   8   8   4
#     4  10  21  35  49  67  97 138 174 198 230 288
#     4   8  14  25  41  65  93 117 146 188 240 289
#     4  12  24  34  46  70 106 138 164 196 240 292
#     4   8  13  22  40  69  95 111 139 191 246 282
#     4   9  17  31  51  72  94 124 165 207 243 284
#     4  10  19  30  49  75  99 123 157 208 256 288
#
# _framework density 31.256777
#
# number of rings (size 3 to 8) (size 9 to 14) (size 15 to 20)
#    0.000    2.933    0.000    1.600    0.000    1.067 
#    0.000    0.000    0.000    0.000    0.000   59.733 
#    0.000   98.133    0.000    0.000    0.000    0.000 
#
# Total GULP energy -167769.116340 kJ/mol
# GULP energy per Si atom -5592.303878 kJ/mol
# Density = 3.118564 g / cm^3
# Si number density = 31.256777 Si / 1000 Ang^3
#
#
#
# Elastic Constant Matrix: (Units=GPa)
#
#
# Indices 1 2 3 4 5 6 
#
# 1 384.0456 -13.4888 96.1872 0.0000 0.0000 0.0000
# 2 -13.4888 478.1640 55.7185 0.0000 0.0000 0.0000
# 3 96.1872 55.7185 75.1414 0.0000 0.0000 0.0000
# 4 0.0000 0.0000 0.0000 3.2233 0.0000 0.0000
# 5 0.0000 0.0000 0.0000 0.0000 107.5033 0.0000
# 6 0.0000 0.0000 0.0000 0.0000 0.0000 36.0114
#
#
#
# Elastic Compliance Matrix: (Units=1/GPa)
#
#
# Indices 1 2 3 4 5 6 
#
# 1 0.004091 0.000794 -0.005825 0.000000 0.000000 0.000000
# 2 0.000794 0.002443 -0.002828 0.000000 0.000000 0.000000
# 3 -0.005825 -0.002828 0.022863 0.000000 0.000000 0.000000
# 4 0.000000 0.000000 0.000000 0.310244 0.000000 0.000000
# 5 0.000000 0.000000 0.000000 0.000000 0.009302 0.000000
# 6 0.000000 0.000000 0.000000 0.000000 0.000000 0.027769
#
#
# Mechanical properties :
#
#
# Convention : Reuss Voigt Hill
#
# Bulk Modulus (GPa) = 73.11336 134.90943 104.01140
# Shear Modulus (GPa) = 12.59476 82.60987 47.60231
#
# Velocity S-wave (km/s) = 2.00953 5.14653 3.90672
# Velocity P-wave (km/s) = 5.36901 8.86403 7.32794
#
# Compressibility (1/GPa) = 0.01367739
#
# Stress axis : x y z
#
# Youngs Moduli (GPa) = 244.45189 409.27901 43.73953
#
# Poissons Ratio (x) = -0.32506 0.25480
# Poissons Ratio (y) = -0.19415 0.12371
# Poissons Ratio (z) = 1.42404 1.15761
#
# Static dielectric constant tensor:
#      x y z
#    x 2.350520 0.000000 0.000000 
#    y 0.000000 2.407960 0.000000 
#    z 0.000000 0.000000 2.302560 
# 
# From -- ./inp_files/3787.got.cif
#   From: 2010.05.17/outbox.cif.g08.bks.cpg/sg51_2_cif.got.tgz:3787.got - 2010.06.03 11:52:47.
