data_PCOD9400559
_publ_section_title
;
Structure prediction by ZEFSAII (Michael W. Deem and Ramdas Pophale) SiO2 
 PCOD9400559
Probable space group: P M M A
;
_chemical_formula_sum "Si O2"
_cell_formula_units_Z 56
_cell_length_a 23.014283
_cell_length_b 8.927990
_cell_length_c 18.124453
_cell_angle_alpha 90.000000
_cell_angle_beta 90.000000
_cell_angle_gamma 90.000000
_cell_volume 3724.054711
_symmetry_space_group_name_H-M "P M M A"
_symmetry_group_IT_number 51
_symmetry_cell_setting 'orthorhombic'
loop_
_space_group_symop_operation_xyz
x,y,z
1/2-x,-y,z
1/2+x,-y,-z
-x,y,-z
-x,-y,-z
1/2+x,y,-z
1/2-x,y,z
x,-y,z
loop_
_atom_site_type_symbol
_atom_site_label
_atom_site_fract_x
_atom_site_fract_y
_atom_site_fract_z
Si Si1 0.066505 0.672764 0.469629
Si Si2 0.026965 0.677860 0.173100
Si Si3 0.528844 0.177744 0.673823
Si Si4 0.596742 0.820035 0.127913
Si Si5 0.682414 0.679684 0.243409
Si Si6 0.905934 0.319687 0.372264
Si Si7 0.433664 0.827670 0.030754
O O1 0.079719 0.500000 0.451051
O O2 0.102758 0.720484 0.541690
O O3 0.000000 0.676379 0.500000
O O4 0.066857 0.771389 0.396482
O O5 0.022808 0.500000 0.178340
O O6 0.048225 0.747277 0.249861
O O7 0.962587 0.745274 0.157817
O O8 0.065833 0.727186 0.103307
O O9 0.463637 0.238798 0.657577
O O10 0.527602 0.000000 0.680642
O O11 0.649273 0.762781 0.177525
O O12 0.590297 0.000000 0.132289
O O13 0.602827 0.780850 0.041099
O O14 0.750000 0.719530 0.247982
O O15 0.677944 0.500000 0.232003
O O16 0.647472 0.713806 0.318668
O O17 0.916723 0.500000 0.370471
O O18 0.420239 0.000000 0.050206
O O19 0.500000 0.825886 0.000000
#
# Coordination Sequence:
#
# PCOD9400559 Si02
#       7
#     8   8   8   8   8   8   8
#     4   8  15  27  41  57  80 111 144 175 213 260
#     4  11  19  27  42  63  87 115 146 176 212 261
#     4  11  19  26  40  62  87 114 144 177 214 258
#     4  10  19  31  45  61  84 115 146 182 223 258
#     4  10  20  32  47  66  87 116 154 189 218 253
#     4   9  17  30  44  58  82 115 146 181 221 257
#     4   8  16  29  42  59  84 111 142 176 214 260
#
# _framework density 15.037373000000001
#
# number of rings (size 3 to 8) (size 9 to 14) (size 15 to 20)
#    0.000    2.429    1.429    4.714    0.000    6.000 
#    0.000    0.000    0.000    0.000    0.000    0.000 
#    0.000    1.143    0.000    6.000    0.000    3.000 
#
# Total GULP energy -312025.297450 kJ/mol
# GULP energy per Si atom -5571.880312 kJ/mol
# Density = 1.500315 g / cm^3
# Si number density = 15.037373 Si / 1000 Ang^3
#
#
#
# Elastic Constant Matrix: (Units=GPa)
#
#
# Indices 1 2 3 4 5 6 
#
# 1 46.7588 23.3041 45.7443 0.0000 0.0000 0.0000
# 2 23.3041 73.5076 69.8844 0.0000 0.0000 0.0000
# 3 45.7443 69.8844 155.4115 0.0000 0.0000 0.0000
# 4 0.0000 0.0000 0.0000 37.7399 0.0000 0.0000
# 5 0.0000 0.0000 0.0000 0.0000 12.6207 0.0000
# 6 0.0000 0.0000 0.0000 0.0000 0.0000 -15.9515
#
#
#
# Elastic Compliance Matrix: (Units=1/GPa)
#
#
# Indices 1 2 3 4 5 6 
#
# 1 0.030196 -0.001962 -0.008006 0.000000 0.000000 0.000000
# 2 -0.001962 0.023890 -0.010165 0.000000 0.000000 0.000000
# 3 -0.008006 -0.010165 0.013362 0.000000 0.000000 0.000000
# 4 0.000000 0.000000 0.000000 0.026497 0.000000 0.000000
# 5 0.000000 0.000000 0.000000 0.000000 0.079235 0.000000
# 6 0.000000 0.000000 0.000000 0.000000 0.000000 -0.062690
#
#
# Mechanical properties :
#
#
# Convention : Reuss Voigt Hill
#
# Bulk Modulus (GPa) = 36.78841 61.50484 49.14662
# Shear Modulus (GPa) = 31.28568 15.99816 23.64192
#
# Velocity S-wave (km/s) = 4.56623 3.26528 3.96941
# Velocity P-wave (km/s) = 7.23314 7.43008 7.33228
#
# Compressibility (1/GPa) = 0.02718248
#
# Stress axis : x y z
#
# Youngs Moduli (GPa) = 33.11669 41.85784 74.83842
#
# Poissons Ratio (x) = 0.08212 0.59915
# Poissons Ratio (y) = 0.06497 0.76076
# Poissons Ratio (z) = 0.26513 0.42550
#
# Static dielectric constant tensor:
#      x y z
#    x 1.464610 0.000000 0.000000 
#    y 0.000000 1.501650 0.000000 
#    z 0.000000 0.000000 1.541610 
# 
# From -- ./inp_files/30769.got.cif
#   From: 2010.05.17/outbox.cif.g08.bks.cpg/sg51_16_cif.got.tgz:30769.got - 2010.06.03 11:52:47.
