data_PCOD9400855
_publ_section_title
;
Structure prediction by ZEFSAII (Michael W. Deem and Ramdas Pophale) SiO2 
 PCOD9400855
Probable space group: P M M A
;
_chemical_formula_sum "Si O2"
_cell_formula_units_Z 48
_cell_length_a 8.661618
_cell_length_b 31.585529
_cell_length_c 9.842048
_cell_angle_alpha 90.000000
_cell_angle_beta 90.000000
_cell_angle_gamma 90.000000
_cell_volume 2692.605075
_symmetry_space_group_name_H-M "P M M A"
_symmetry_group_IT_number 51
_symmetry_cell_setting 'orthorhombic'
loop_
_space_group_symop_operation_xyz
x,y,z
1/2-x,-y,z
1/2+x,-y,-z
-x,y,-z
-x,-y,-z
1/2+x,y,-z
1/2-x,y,z
x,-y,z
loop_
_atom_site_type_symbol
_atom_site_label
_atom_site_fract_x
_atom_site_fract_y
_atom_site_fract_z
Si Si1 0.935614 0.861781 0.846904
Si Si2 0.935311 0.381099 0.151652
Si Si3 0.063722 0.045450 0.153775
Si Si4 0.935183 0.209265 0.350447
Si Si5 0.435923 0.306302 0.649091
Si Si6 0.934651 0.450340 0.647589
O O1 0.750000 0.859681 0.850939
O O2 0.982195 0.908538 0.789769
O O3 0.000317 0.824187 0.756049
O O4 0.000000 0.858592 0.000000
O O5 0.750000 0.381577 0.146912
O O6 0.986181 0.339837 0.237892
O O7 0.994074 0.421544 0.235540
O O8 0.000000 0.380473 0.000000
O O9 0.250000 0.045389 0.149054
O O10 0.014821 0.000000 0.216313
O O11 0.000000 0.045276 0.000000
O O12 0.750000 0.207354 0.352395
O O13 0.981763 0.257888 0.318398
O O14 0.000000 0.199723 0.500000
O O15 0.500000 0.317104 0.500000
O O16 0.250000 0.307563 0.641774
O O17 0.750000 0.445938 0.646638
O O18 0.972766 0.500000 0.667332
O O19 0.000000 0.437548 0.500000
#
# Coordination Sequence:
#
# PCOD9400855 Si02
#       6
#     8   8   8   8   8   8
#     4  10  19  31  49  75 104 134 169 210 257 306
#     4  11  23  38  56  81 112 144 178 217 264 312
#     4   8  14  25  42  65  94 127 163 204 249 298
#     4  10  20  36  55  76 103 135 172 212 258 310
#     4   9  20  37  57  79 102 133 173 215 258 309
#     4  10  21  38  60  85 112 144 182 221 261 308
#
# _framework density 17.826602000000001
#
# number of rings (size 3 to 8) (size 9 to 14) (size 15 to 20)
#    0.000    2.333    0.000    2.500    0.000    6.000 
#    0.000    1.667    0.000    0.500    0.000    0.000 
#    0.000    0.000    0.000    0.000    0.000    0.000 
#
# Total GULP energy -267687.679541 kJ/mol
# GULP energy per Si atom -5576.826657 kJ/mol
# Density = 1.778603 g / cm^3
# Si number density = 17.826602 Si / 1000 Ang^3
#
#
#
# Elastic Constant Matrix: (Units=GPa)
#
#
# Indices 1 2 3 4 5 6 
#
# 1 41.4648 46.3021 38.1679 0.0000 0.0000 0.0000
# 2 46.3021 144.8669 106.8796 0.0000 0.0000 0.0000
# 3 38.1679 106.8796 125.6789 0.0000 0.0000 0.0000
# 4 0.0000 0.0000 0.0000 20.8699 0.0000 0.0000
# 5 0.0000 0.0000 0.0000 0.0000 31.9893 0.0000
# 6 0.0000 0.0000 0.0000 0.0000 0.0000 21.7231
#
#
#
# Elastic Compliance Matrix: (Units=1/GPa)
#
#
# Indices 1 2 3 4 5 6 
#
# 1 0.037990 -0.009744 -0.003251 0.000000 0.000000 0.000000
# 2 -0.009744 0.021026 -0.014922 0.000000 0.000000 0.000000
# 3 -0.003251 -0.014922 0.021634 0.000000 0.000000 0.000000
# 4 0.000000 0.000000 0.000000 0.047916 0.000000 0.000000
# 5 0.000000 0.000000 0.000000 0.000000 0.031260 0.000000
# 6 0.000000 0.000000 0.000000 0.000000 0.000000 0.046034
#
#
# Mechanical properties :
#
#
# Convention : Reuss Voigt Hill
#
# Bulk Modulus (GPa) = 40.29559 77.18997 58.74278
# Shear Modulus (GPa) = 18.52084 22.96054 20.74069
#
# Velocity S-wave (km/s) = 3.22676 3.59276 3.41467
# Velocity P-wave (km/s) = 6.04449 7.78492 6.96925
#
# Compressibility (1/GPa) = 0.02481661
#
# Stress axis : x y z
#
# Youngs Moduli (GPa) = 26.32287 47.55955 46.22336
#
# Poissons Ratio (x) = 0.46340 0.15028
# Poissons Ratio (y) = 0.25648 0.68975
# Poissons Ratio (z) = 0.08558 0.70969
#
# Static dielectric constant tensor:
#      x y z
#    x 1.602940 0.000000 0.000000 
#    y 0.000000 1.652050 0.000000 
#    z 0.000000 0.000000 1.559380 
# 
# From -- ./inp_files/6040.got.cif
#   From: 2010.05.17/outbox.cif.g08.bks.cpg/sg51_4_cif.got.tgz:6040.got - 2010.06.03 11:52:47.
