data_PCOD9400798
_publ_section_title
;
Structure prediction by ZEFSAII (Michael W. Deem and Ramdas Pophale) SiO2 
 PCOD9400798
Probable space group: P M M A
;
_chemical_formula_sum "Si O2"
_cell_formula_units_Z 56
_cell_length_a 22.183435
_cell_length_b 8.376801
_cell_length_c 17.176089
_cell_angle_alpha 90.000000
_cell_angle_beta 90.000000
_cell_angle_gamma 90.000000
_cell_volume 3191.767702
_symmetry_space_group_name_H-M "P M M A"
_symmetry_group_IT_number 51
_symmetry_cell_setting 'orthorhombic'
loop_
_space_group_symop_operation_xyz
x,y,z
1/2-x,-y,z
1/2+x,-y,-z
-x,y,-z
-x,-y,-z
1/2+x,y,-z
1/2-x,y,z
x,-y,z
loop_
_atom_site_type_symbol
_atom_site_label
_atom_site_fract_x
_atom_site_fract_y
_atom_site_fract_z
Si Si1 0.981108 0.811468 0.120282
Si Si2 0.513876 0.807302 0.298964
Si Si3 0.061532 0.689714 0.543100
Si Si4 0.909759 0.688880 0.983314
Si Si5 0.375516 0.192225 0.299898
Si Si6 0.817974 0.307294 0.858827
Si Si7 0.182304 0.807173 0.459096
O O1 0.971931 0.762356 0.209616
O O2 0.036151 0.721065 0.078236
O O3 0.995622 0.000000 0.119929
O O4 0.925505 0.777999 0.062915
O O5 0.554251 0.733154 0.366293
O O6 0.444490 0.758435 0.314563
O O7 0.517655 0.000000 0.304491
O O8 0.062466 0.500000 0.532730
O O9 0.124258 0.755594 0.509083
O O10 0.000000 0.751562 0.500000
O O11 0.906950 0.500000 0.998763
O O12 0.850717 0.744744 0.937807
O O13 0.354068 0.253316 0.216897
O O14 0.332954 0.245184 0.370597
O O15 0.374763 0.000000 0.297767
O O16 0.750000 0.248168 0.853514
O O17 0.817868 0.500000 0.859666
O O18 0.250000 0.752340 0.481765
O O19 0.183221 0.000000 0.459910
#
# Coordination Sequence:
#
# PCOD9400798 Si02
#       7
#     8   8   8   8   8   8   8
#     4  10  19  32  51  75 101 129 166 212 261 304
#     4  10  20  34  55  79 106 139 173 219 269 315
#     4  11  23  36  54  81 110 142 180 223 270 320
#     4  10  19  31  49  72 100 135 172 208 252 306
#     4  10  19  33  53  78 107 140 178 215 259 314
#     4  10  21  34  48  71 106 144 176 209 253 308
#     4  10  21  37  57  79 106 143 183 222 266 321
#
# _framework density 17.545137
#
# number of rings (size 3 to 8) (size 9 to 14) (size 15 to 20)
#    0.000    1.857    2.857    2.571    0.000    4.571 
#    0.000    0.000    0.000    0.857    0.000    4.000 
#    0.000    0.000    0.000    0.000    0.000    0.000 
#
# Total GULP energy -312423.230548 kJ/mol
# GULP energy per Si atom -5578.986260 kJ/mol
# Density = 1.750520 g / cm^3
# Si number density = 17.545137 Si / 1000 Ang^3
#
#
#
# Elastic Constant Matrix: (Units=GPa)
#
#
# Indices 1 2 3 4 5 6 
#
# 1 106.4278 13.1378 48.4847 0.0000 0.0000 0.0000
# 2 13.1378 10.8616 8.4661 0.0000 0.0000 0.0000
# 3 48.4847 8.4661 97.4979 0.0000 0.0000 0.0000
# 4 0.0000 0.0000 0.0000 3.7508 0.0000 0.0000
# 5 0.0000 0.0000 0.0000 0.0000 24.6999 0.0000
# 6 0.0000 0.0000 0.0000 0.0000 0.0000 19.8713
#
#
#
# Elastic Compliance Matrix: (Units=1/GPa)
#
#
# Indices 1 2 3 4 5 6 
#
# 1 0.013433 -0.011842 -0.005652 0.000000 0.000000 0.000000
# 2 -0.011842 0.109191 -0.003592 0.000000 0.000000 0.000000
# 3 -0.005652 -0.003592 0.013379 0.000000 0.000000 0.000000
# 4 0.000000 0.000000 0.000000 0.266609 0.000000 0.000000
# 5 0.000000 0.000000 0.000000 0.000000 0.040486 0.000000
# 6 0.000000 0.000000 0.000000 0.000000 0.000000 0.050324
#
#
# Mechanical properties :
#
#
# Convention : Reuss Voigt Hill
#
# Bulk Modulus (GPa) = 10.65755 39.44051 25.04903
# Shear Modulus (GPa) = 8.82034 19.31099 14.06567
#
# Velocity S-wave (km/s) = 2.24458 3.32120 2.83448
# Velocity P-wave (km/s) = 3.57842 6.10208 5.00202
#
# Compressibility (1/GPa) = 0.09383020
#
# Stress axis : x y z
#
# Youngs Moduli (GPa) = 74.44614 9.15824 74.74383
#
# Poissons Ratio (x) = 0.10845 0.42242
# Poissons Ratio (y) = 0.88161 0.26852
# Poissons Ratio (z) = 0.42074 0.03290
#
# Static dielectric constant tensor:
#      x y z
#    x 1.612330 0.000000 0.000000 
#    y 0.000000 1.607440 0.000000 
#    z 0.000000 0.000000 1.589330 
# 
# From -- ./inp_files/30377.got.cif
#   From: 2010.05.17/outbox.cif.g08.bks.cpg/sg51_16_cif.got.tgz:30377.got - 2010.06.03 11:52:47.
