data_PCOD9400050
_publ_section_title
;
Structure prediction by ZEFSAII (Michael W. Deem and Ramdas Pophale) SiO2 
 PCOD9400050
Probable space group: P M M A
;
_chemical_formula_sum "Si O2"
_cell_formula_units_Z 56
_cell_length_a 17.355713
_cell_length_b 12.492623
_cell_length_c 16.289792
_cell_angle_alpha 90.000000
_cell_angle_beta 90.000000
_cell_angle_gamma 90.000000
_cell_volume 3531.926302
_symmetry_space_group_name_H-M "P M M A"
_symmetry_group_IT_number 51
_symmetry_cell_setting 'orthorhombic'
loop_
_space_group_symop_operation_xyz
x,y,z
1/2-x,-y,z
1/2+x,-y,-z
-x,y,-z
-x,-y,-z
1/2+x,y,-z
1/2-x,y,z
x,-y,z
loop_
_atom_site_type_symbol
_atom_site_label
_atom_site_fract_x
_atom_site_fract_y
_atom_site_fract_z
Si Si1 0.109167 0.000000 0.062313
Si Si2 0.443390 0.000000 0.870581
Si Si3 0.164604 0.230680 0.033800
Si Si4 0.426520 0.375092 0.146007
Si Si5 0.836875 0.807667 0.160161
Si Si6 0.336203 0.629944 0.310417
Si Si7 0.516023 0.630169 0.592033
Si Si8 0.582265 0.625794 0.249157
O O1 0.155441 0.110344 0.068433
O O2 0.035707 0.000000 0.123094
O O3 0.081173 0.000000 0.966930
O O4 0.403298 0.896642 0.830430
O O5 0.250000 0.272831 0.055276
O O6 0.096206 0.301088 0.070745
O O7 0.159308 0.226829 0.935391
O O8 0.416409 0.500000 0.125271
O O9 0.367773 0.346256 0.219693
O O10 0.511120 0.362847 0.184776
O O11 0.750000 0.850460 0.173137
O O12 0.853446 0.706808 0.218028
O O13 0.250000 0.669765 0.324188
O O14 0.334675 0.500000 0.315376
O O15 0.401065 0.666980 0.374212
O O16 0.500000 0.667780 0.500000
O O17 0.518194 0.500000 0.590346
O O18 0.452513 0.655328 0.661545
O O19 0.604215 0.500000 0.250277
#
# Coordination Sequence:
#
# PCOD9400050 Si02
#       8
#     4   4   8   8   8   8   8   8
#     4   9  17  29  45  63  81 105 143 191 234 261
#     4   9  17  31  49  63  78 107 150 193 224 253
#     4  10  19  29  42  61  87 117 147 182 223 262
#     4   9  17  28  42  60  83 114 150 182 211 251
#     4  10  20  32  45  62  86 116 150 186 221 258
#     4   8  13  22  37  57  80 104 134 174 212 245
#     4   8  14  26  43  61  83 112 142 171 209 259
#     4   9  18  31  45  63  88 116 144 177 220 265
#
# _framework density 15.855370000000001
#
# number of rings (size 3 to 8) (size 9 to 14) (size 15 to 20)
#    0.000    3.000    0.000    3.429    0.000    5.143 
#    0.000    3.571    0.000    2.571    0.000    0.500 
#    0.000    0.000    0.000   12.286    0.000    1.714 
#
# Total GULP energy -311767.873778 kJ/mol
# GULP energy per Si atom -5567.283460 kJ/mol
# Density = 1.581928 g / cm^3
# Si number density = 15.855370 Si / 1000 Ang^3
#
#
#
# Elastic Constant Matrix: (Units=GPa)
#
#
# Indices 1 2 3 4 5 6 
#
# 1 45.7305 6.7936 17.0512 0.0000 0.0000 0.0000
# 2 6.7936 34.2537 13.6631 0.0000 0.0000 0.0000
# 3 17.0512 13.6631 30.1942 0.0000 0.0000 0.0000
# 4 0.0000 0.0000 0.0000 -1.0066 0.0000 0.0000
# 5 0.0000 0.0000 0.0000 0.0000 12.6408 0.0000
# 6 0.0000 0.0000 0.0000 0.0000 0.0000 20.0977
#
#
#
# Elastic Compliance Matrix: (Units=1/GPa)
#
#
# Indices 1 2 3 4 5 6 
#
# 1 0.027723 0.000911 -0.016068 0.000000 0.000000 0.000000
# 2 0.000911 0.035654 -0.016648 0.000000 0.000000 0.000000
# 3 -0.016068 -0.016648 0.049726 0.000000 0.000000 0.000000
# 4 0.000000 0.000000 0.000000 -0.993482 0.000000 0.000000
# 5 0.000000 0.000000 0.000000 0.000000 0.079109 0.000000
# 6 0.000000 0.000000 0.000000 0.000000 0.000000 0.049757
#
#
# Mechanical properties :
#
#
# Convention : Reuss Voigt Hill
#
# Bulk Modulus (GPa) = 20.20490 20.57711 20.39101
# Shear Modulus (GPa) = -7.44706 11.19109 1.87202
#
# Velocity S-wave (km/s) = -2.16958 2.65962 1.08777
# Velocity P-wave (km/s) = 2.54850 4.73683 3.80345
#
# Compressibility (1/GPa) = 0.04949295
#
# Stress axis : x y z
#
# Youngs Moduli (GPa) = 36.07109 28.04752 20.11027
#
# Poissons Ratio (x) = -0.02554 0.32313
# Poissons Ratio (y) = -0.03285 0.33479
# Poissons Ratio (z) = 0.57958 0.46693
#
# Static dielectric constant tensor:
#      x y z
#    x 1.556730 0.000000 0.000000 
#    y 0.000000 1.525610 0.000000 
#    z 0.000000 0.000000 1.518580 
# 
# From -- ./inp_files/25294.got.cif
#   From: 2010.05.17/outbox.cif.g08.bks.cpg/sg51_13_cif.got.tgz:25294.got - 2010.06.03 11:52:47.
