data_PCOD9400468
_publ_section_title
;
Structure prediction by ZEFSAII (Michael W. Deem and Ramdas Pophale) SiO2 
 PCOD9400468
Probable space group: P M M A
;
_chemical_formula_sum "Si O2"
_cell_formula_units_Z 64
_cell_length_a 26.216993
_cell_length_b 7.536487
_cell_length_c 14.922179
_cell_angle_alpha 90.000000
_cell_angle_beta 90.000000
_cell_angle_gamma 90.000000
_cell_volume 2948.384217
_symmetry_space_group_name_H-M "P M M A"
_symmetry_group_IT_number 51
_symmetry_cell_setting 'orthorhombic'
loop_
_space_group_symop_operation_xyz
x,y,z
1/2-x,-y,z
1/2+x,-y,-z
-x,y,-z
-x,-y,-z
1/2+x,y,-z
1/2-x,y,z
x,-y,z
loop_
_atom_site_type_symbol
_atom_site_label
_atom_site_fract_x
_atom_site_fract_y
_atom_site_fract_z
Si Si1 0.195493 0.786896 0.183834
Si Si2 0.163935 0.781905 0.990044
Si Si3 0.587061 0.711518 0.726678
Si Si4 0.519431 0.714603 0.209493
Si Si5 0.053226 0.798088 0.977164
Si Si6 0.442251 0.282585 0.472101
Si Si7 0.397683 0.288095 0.651890
Si Si8 0.193405 0.212068 0.789924
O O1 0.250000 0.724453 0.222575
O O2 0.143290 0.743749 0.235301
O O3 0.196643 0.000000 0.182106
O O4 0.192856 0.728420 0.079754
O O5 0.106125 0.718508 0.006093
O O6 0.181327 0.722271 0.891323
O O7 0.163901 0.000000 0.987266
O O8 0.580842 0.500000 0.723432
O O9 0.539355 0.774232 0.787730
O O10 0.575825 0.777730 0.625980
O O11 0.521611 0.500000 0.199613
O O12 0.551674 0.798666 0.129885
O O13 0.549590 0.763134 0.299107
O O14 0.051705 0.000000 0.011969
O O15 0.000000 0.707220 0.000000
O O16 0.500000 0.230790 0.500000
O O17 0.442793 0.500000 0.469660
O O18 0.403095 0.223762 0.550092
O O19 0.397977 0.500000 0.647044
O O20 0.350027 0.245668 0.715945
O O21 0.250000 0.276320 0.763496
O O22 0.195747 0.000000 0.798046
#
# Coordination Sequence:
#
# PCOD9400468 Si02
#       8
#     8   8   8   8   8   8   8   8
#     4  10  21  38  58  78 104 141 183 225 265 306
#     4   9  17  32  53  76 101 136 183 221 254 306
#     4  10  20  35  57  83 108 137 175 219 267 318
#     4  10  19  31  50  78 109 137 165 209 269 320
#     4  10  19  30  47  73 105 141 177 214 256 308
#     4   9  16  32  58  82 105 137 176 214 257 317
#     4  10  19  33  55  81 107 135 172 217 264 312
#     4  10  20  35  55  77 104 142 183 220 261 310
#
# _framework density 21.706806
#
# number of rings (size 3 to 8) (size 9 to 14) (size 15 to 20)
#    0.000    2.250    2.500    1.125    0.000    3.750 
#    0.000    2.500    0.000    6.000    0.000    0.000 
#    0.000    0.000    0.000    0.000    0.000    0.000 
#
# Total GULP energy -357021.124375 kJ/mol
# GULP energy per Si atom -5578.455068 kJ/mol
# Density = 2.165740 g / cm^3
# Si number density = 21.706806 Si / 1000 Ang^3
#
#
#
# Elastic Constant Matrix: (Units=GPa)
#
#
# Indices 1 2 3 4 5 6 
#
# 1 174.3512 4.1840 49.9258 0.0000 0.0000 0.0000
# 2 4.1840 52.0349 3.1209 0.0000 0.0000 0.0000
# 3 49.9258 3.1209 92.2089 0.0000 0.0000 0.0000
# 4 0.0000 0.0000 0.0000 14.2708 0.0000 0.0000
# 5 0.0000 0.0000 0.0000 0.0000 17.5658 0.0000
# 6 0.0000 0.0000 0.0000 0.0000 0.0000 12.1632
#
#
#
# Elastic Compliance Matrix: (Units=1/GPa)
#
#
# Indices 1 2 3 4 5 6 
#
# 1 0.006794 -0.000326 -0.003667 0.000000 0.000000 0.000000
# 2 -0.000326 0.019273 -0.000476 0.000000 0.000000 0.000000
# 3 -0.003667 -0.000476 0.012847 0.000000 0.000000 0.000000
# 4 0.000000 0.000000 0.000000 0.070073 0.000000 0.000000
# 5 0.000000 0.000000 0.000000 0.000000 0.056929 0.000000
# 6 0.000000 0.000000 0.000000 0.000000 0.000000 0.082215
#
#
# Mechanical properties :
#
#
# Convention : Reuss Voigt Hill
#
# Bulk Modulus (GPa) = 33.36179 48.11737 40.73958
# Shear Modulus (GPa) = 18.72243 26.22426 22.47334
#
# Velocity S-wave (km/s) = 2.94005 3.47956 3.22112
# Velocity P-wave (km/s) = 5.18920 6.19340 5.71341
#
# Compressibility (1/GPa) = 0.02997441
#
# Stress axis : x y z
#
# Youngs Moduli (GPa) = 147.19946 51.88709 77.84134
#
# Poissons Ratio (x) = 0.01693 0.28546
# Poissons Ratio (y) = 0.04803 0.03702
# Poissons Ratio (z) = 0.53982 0.02468
#
# Static dielectric constant tensor:
#      x y z
#    x 1.823880 0.000000 0.000000 
#    y 0.000000 1.838720 0.000000 
#    z 0.000000 0.000000 1.832710 
# 
# From -- ./inp_files/26232.got.cif
#   From: 2010.05.17/outbox.cif.g08.bks.cpg/sg51_14_cif.got.tgz:26232.got - 2010.06.03 11:52:47.
