data_PCOD9400057
_publ_section_title
;
Structure prediction by ZEFSAII (Michael W. Deem and Ramdas Pophale) SiO2 
 PCOD9400057
Probable space group: P M M A
;
_chemical_formula_sum "Si O2"
_cell_formula_units_Z 36
_cell_length_a 8.221385
_cell_length_b 19.103148
_cell_length_c 14.840058
_cell_angle_alpha 90.000000
_cell_angle_beta 90.000000
_cell_angle_gamma 90.000000
_cell_volume 2330.695432
_symmetry_space_group_name_H-M "P M M A"
_symmetry_group_IT_number 51
_symmetry_cell_setting 'orthorhombic'
loop_
_space_group_symop_operation_xyz
x,y,z
1/2-x,-y,z
1/2+x,-y,-z
-x,y,-z
-x,-y,-z
1/2+x,y,-z
1/2-x,y,z
x,-y,z
loop_
_atom_site_type_symbol
_atom_site_label
_atom_site_fract_x
_atom_site_fract_y
_atom_site_fract_z
Si Si1 0.445992 0.581109 0.901683
Si Si2 0.555326 0.228366 0.603859
Si Si3 0.946498 0.924831 0.604457
Si Si4 0.446519 0.500000 0.603071
Si Si5 0.946351 0.363152 0.287230
O O1 0.250000 0.580161 0.900206
O O2 0.500972 0.500000 0.891277
O O3 0.502640 0.625277 0.815587
O O4 0.500000 0.606119 0.000000
O O5 0.500000 0.237910 0.500000
O O6 0.750000 0.228012 0.603228
O O7 0.497366 0.151436 0.637879
O O8 0.497789 0.291703 0.665660
O O9 0.750000 0.924935 0.608469
O O10 0.000000 0.925325 0.500000
O O11 0.002977 0.000000 0.643656
O O12 0.250000 0.500000 0.606150
O O13 0.500000 0.500000 0.500000
O O14 0.502909 0.569929 0.654358
O O15 0.750000 0.365124 0.286672
#
# Coordination Sequence:
#
# PCOD9400057 Si02
#       5
#     8   8   8   4   8
#     4   9  17  31  49  66  83 105 135 175 220 260
#     4  10  19  29  42  62  87 115 147 179 211 249
#     4   8  14  25  40  57  79 108 140 173 208 246
#     4  10  20  32  43  56  78 112 149 178 203 238
#     4  10  19  32  46  60  84 114 143 176 214 252
#
# _framework density 15.446033999999999
#
# number of rings (size 3 to 8) (size 9 to 14) (size 15 to 20)
#    0.000    2.667    1.111    1.333    0.000    4.444 
#    0.000    0.000    0.000    0.000    0.000    0.000 
#    0.000    0.889    0.000    2.000    0.000    3.556 
#
# Total GULP energy -200442.150523 kJ/mol
# GULP energy per Si atom -5567.837515 kJ/mol
# Density = 1.541088 g / cm^3
# Si number density = 15.446034 Si / 1000 Ang^3
#
#
#
# Elastic Constant Matrix: (Units=GPa)
#
#
# Indices 1 2 3 4 5 6 
#
# 1 9.4689 14.4053 13.1822 0.0000 0.0000 0.0000
# 2 14.4053 164.7213 77.8106 0.0000 0.0000 0.0000
# 3 13.1822 77.8106 112.1087 0.0000 0.0000 0.0000
# 4 0.0000 0.0000 0.0000 4.1854 0.0000 0.0000
# 5 0.0000 0.0000 0.0000 0.0000 19.8042 0.0000
# 6 0.0000 0.0000 0.0000 0.0000 0.0000 10.6557
#
#
#
# Elastic Compliance Matrix: (Units=1/GPa)
#
#
# Indices 1 2 3 4 5 6 
#
# 1 0.130389 -0.006190 -0.011036 0.000000 0.000000 0.000000
# 2 -0.006190 0.009326 -0.005745 0.000000 0.000000 0.000000
# 3 -0.011036 -0.005745 0.014205 0.000000 0.000000 0.000000
# 4 0.000000 0.000000 0.000000 0.238926 0.000000 0.000000
# 5 0.000000 0.000000 0.000000 0.000000 0.050494 0.000000
# 6 0.000000 0.000000 0.000000 0.000000 0.000000 0.093847
#
#
# Mechanical properties :
#
#
# Convention : Reuss Voigt Hill
#
# Bulk Modulus (GPa) = 9.26103 55.23278 32.24691
# Shear Modulus (GPa) = 8.07597 18.98912 13.53254
#
# Velocity S-wave (km/s) = 2.28907 3.51006 2.96314
# Velocity P-wave (km/s) = 3.60489 7.22935 5.71221
#
# Compressibility (1/GPa) = 0.10797940
#
# Stress axis : x y z
#
# Youngs Moduli (GPa) = 7.66933 107.22727 70.39818
#
# Poissons Ratio (x) = 0.66373 0.77688
# Poissons Ratio (y) = 0.04747 0.40444
# Poissons Ratio (z) = 0.08464 0.61602
#
# Static dielectric constant tensor:
#      x y z
#    x 1.546640 0.000000 0.000000 
#    y 0.000000 1.559550 0.000000 
#    z 0.000000 0.000000 0.524090 
# 
# From -- ./inp_files/20760.got.cif
#   From: 2010.05.17/outbox.cif.g08.bks.cpg/sg51_11_cif.got.tgz:20760.got - 2010.06.03 11:52:47.
