data_PCOD9400981
_publ_section_title
;
Structure prediction by ZEFSAII (Michael W. Deem and Ramdas Pophale) SiO2 
 PCOD9400981
Probable space group: P M M A
;
_chemical_formula_sum "Si O2"
_cell_formula_units_Z 64
_cell_length_a 14.623005
_cell_length_b 9.038045
_cell_length_c 28.814103
_cell_angle_alpha 90.000000
_cell_angle_beta 90.000000
_cell_angle_gamma 90.000000
_cell_volume 3808.169164
_symmetry_space_group_name_H-M "P M M A"
_symmetry_group_IT_number 51
_symmetry_cell_setting 'orthorhombic'
loop_
_space_group_symop_operation_xyz
x,y,z
1/2-x,-y,z
1/2+x,-y,-z
-x,y,-z
-x,-y,-z
1/2+x,y,-z
1/2-x,y,z
x,-y,z
loop_
_atom_site_type_symbol
_atom_site_label
_atom_site_fract_x
_atom_site_fract_y
_atom_site_fract_z
Si Si1 0.856136 0.676459 0.927527
Si Si2 0.026178 0.822899 0.615906
Si Si3 0.143662 0.177176 0.796057
Si Si4 0.356941 0.676062 0.426485
Si Si5 0.141860 0.174631 0.974548
Si Si6 0.523847 0.178211 0.115392
Si Si7 0.857905 0.173654 0.475669
Si Si8 0.356922 0.676770 0.696879
O O1 0.750000 0.717143 0.919127
O O2 0.863750 0.500000 0.926888
O O3 0.925613 0.748584 0.891408
O O4 0.880391 0.737028 0.978816
O O5 0.083199 0.786061 0.569101
O O6 0.078344 0.752261 0.659211
O O7 0.925592 0.757348 0.608129
O O8 0.023731 0.000000 0.620228
O O9 0.250000 0.205464 0.808752
O O10 0.077492 0.220946 0.838043
O O11 0.124010 0.260673 0.748208
O O12 0.134989 0.000000 0.788826
O O13 0.250000 0.711226 0.418017
O O14 0.368752 0.500000 0.423804
O O15 0.378470 0.732381 0.478590
O O16 0.250000 0.192780 0.964967
O O17 0.084261 0.219437 0.929702
O O18 0.125253 0.000000 0.983354
O O19 0.515543 0.000000 0.115249
O O20 0.750000 0.190481 0.465047
O O21 0.874575 0.000000 0.486416
O O22 0.250000 0.711578 0.686535
O O23 0.367497 0.500000 0.695959
#
# Coordination Sequence:
#
# PCOD9400981 Si02
#       8
#     8   8   8   8   8   8   8   8
#     4  10  21  34  46  65  97 135 171 206 245 287
#     4  11  21  33  53  77 101 134 174 212 251 296
#     4   9  18  34  55  78 104 130 157 195 245 300
#     4  10  21  35  50  71 102 138 173 211 255 299
#     4   9  17  30  48  71 100 131 163 200 242 290
#     4  10  19  31  51  76  98 126 165 204 244 291
#     4   9  18  32  49  72 103 136 170 207 248 297
#     4  10  21  36  54  78 107 135 163 199 246 300
#
# _framework density 16.805976000000001
#
# number of rings (size 3 to 8) (size 9 to 14) (size 15 to 20)
#    0.000    2.250    0.000    3.000    0.000    9.250 
#    0.000    1.250    0.000    4.500    0.000    3.500 
#    0.000    0.000    0.000    0.000    0.000    0.000 
#
# Total GULP energy -357320.852201 kJ/mol
# GULP energy per Si atom -5583.138316 kJ/mol
# Density = 1.676772 g / cm^3
# Si number density = 16.805976 Si / 1000 Ang^3
#
#
#
# Elastic Constant Matrix: (Units=GPa)
#
#
# Indices 1 2 3 4 5 6 
#
# 1 109.9250 58.1743 93.5735 0.0000 0.0000 0.0000
# 2 58.1743 47.5113 58.3771 0.0000 0.0000 0.0000
# 3 93.5735 58.3771 116.5312 0.0000 0.0000 0.0000
# 4 0.0000 0.0000 0.0000 257.9926 0.0000 0.0000
# 5 0.0000 0.0000 0.0000 0.0000 33.2720 0.0000
# 6 0.0000 0.0000 0.0000 0.0000 0.0000 25.0072
#
#
#
# Elastic Compliance Matrix: (Units=1/GPa)
#
#
# Indices 1 2 3 4 5 6 
#
# 1 0.035973 -0.022249 -0.017740 0.000000 0.000000 0.000000
# 2 -0.022249 0.068505 -0.016452 0.000000 0.000000 0.000000
# 3 -0.017740 -0.016452 0.031068 0.000000 0.000000 0.000000
# 4 0.000000 0.000000 0.000000 0.003876 0.000000 0.000000
# 5 0.000000 0.000000 0.000000 0.000000 0.030055 0.000000
# 6 0.000000 0.000000 0.000000 0.000000 0.000000 0.039989
#
#
# Mechanical properties :
#
#
# Convention : Reuss Voigt Hill
#
# Bulk Modulus (GPa) = 44.12397 77.13526 60.62961
# Shear Modulus (GPa) = 15.15595 67.51054 41.33324
#
# Velocity S-wave (km/s) = 3.00629 6.34490 4.96465
# Velocity P-wave (km/s) = 6.19373 9.98370 8.30772
#
# Compressibility (1/GPa) = 0.02266342
#
# Stress axis : x y z
#
# Youngs Moduli (GPa) = 27.79851 14.59751 32.18715
#
# Poissons Ratio (x) = 0.32478 0.57101
# Poissons Ratio (y) = 0.61850 0.52954
# Poissons Ratio (z) = 0.49315 0.24016
#
# Static dielectric constant tensor:
#      x y z
#    x 1.578610 0.000000 0.000000 
#    y 0.000000 1.558240 0.000000 
#    z 0.000000 0.000000 1.532880 
# 
# From -- ./inp_files/35702.got.cif
#   From: 2010.05.17/outbox.cif.g08.bks.cpg/sg51_18_cif.got.tgz:35702.got - 2010.06.03 11:52:47.
