data_PCOD9400472
_publ_section_title
;
Structure prediction by ZEFSAII (Michael W. Deem and Ramdas Pophale) SiO2 
 PCOD9400472
Probable space group: P M M A
;
_chemical_formula_sum "Si O2"
_cell_formula_units_Z 56
_cell_length_a 16.300127
_cell_length_b 7.490730
_cell_length_c 20.795672
_cell_angle_alpha 90.000000
_cell_angle_beta 90.000000
_cell_angle_gamma 90.000000
_cell_volume 2539.148439
_symmetry_space_group_name_H-M "P M M A"
_symmetry_group_IT_number 51
_symmetry_cell_setting 'orthorhombic'
loop_
_space_group_symop_operation_xyz
x,y,z
1/2-x,-y,z
1/2+x,-y,-z
-x,y,-z
-x,-y,-z
1/2+x,y,-z
1/2-x,y,z
x,-y,z
loop_
_atom_site_type_symbol
_atom_site_label
_atom_site_fract_x
_atom_site_fract_y
_atom_site_fract_z
Si Si1 0.105205 0.294135 0.734295
Si Si2 0.509874 0.296705 0.929859
Si Si3 0.424344 0.710994 0.455748
Si Si4 0.250000 0.714778 0.501183
Si Si5 0.250000 0.715850 0.651425
Si Si6 0.061903 0.285958 0.206097
Si Si7 0.657520 0.788345 0.670646
Si Si8 0.338221 0.215249 0.872131
O O1 0.088593 0.500000 0.715853
O O2 0.165295 0.213768 0.681372
O O3 0.157832 0.283564 0.799371
O O4 0.018448 0.213940 0.756109
O O5 0.540581 0.500000 0.940114
O O6 0.559724 0.219882 0.868094
O O7 0.416604 0.297975 0.905336
O O8 0.500000 0.209332 0.000000
O O9 0.500000 0.780789 0.500000
O O10 0.422961 0.500000 0.469872
O O11 0.335928 0.788190 0.475755
O O12 0.415202 0.726242 0.378059
O O13 0.250000 0.500000 0.488698
O O14 0.250000 0.742351 0.576618
O O15 0.250000 0.500000 0.664082
O O16 0.051354 0.500000 0.199800
O O17 0.135648 0.253620 0.255219
O O18 0.750000 0.717926 0.655033
O O19 0.660206 0.000000 0.664332
O O20 0.250000 0.260357 0.901173
O O21 0.346477 0.000000 0.871662
#
# Coordination Sequence:
#
# PCOD9400472 Si02
#       8
#     8   8   8   4   4   8   8   8
#     4   9  17  30  51  77 107 142 177 218 267 320
#     4   9  19  37  59  82 109 141 181 230 282 335
#     4  10  21  37  61  87 112 147 193 243 298 354
#     4   9  18  32  51  81 113 140 179 234 289 341
#     4   9  16  26  47  77 109 138 169 214 267 321
#     4   9  19  34  57  86 109 136 182 231 279 335
#     4  11  24  41  60  81 112 153 196 241 290 345
#     4  10  19  30  47  74 109 145 181 215 255 318
#
# _framework density 22.054638000000001
#
# number of rings (size 3 to 8) (size 9 to 14) (size 15 to 20)
#    0.000    2.429    1.429    1.714    2.000    4.571 
#    0.000    0.714    0.000    5.143    0.000    0.000 
#    0.000    0.000    0.000    0.000    0.000    0.000 
#
# Total GULP energy -311900.635612 kJ/mol
# GULP energy per Si atom -5569.654207 kJ/mol
# Density = 2.200444 g / cm^3
# Si number density = 22.054638 Si / 1000 Ang^3
#
#
#
# Elastic Constant Matrix: (Units=GPa)
#
#
# Indices 1 2 3 4 5 6 
#
# 1 80.0760 2.8541 52.9820 0.0000 0.0000 0.0000
# 2 2.8541 71.4142 -1.0553 0.0000 0.0000 0.0000
# 3 52.9820 -1.0553 124.1600 0.0000 0.0000 0.0000
# 4 0.0000 0.0000 0.0000 181.6003 0.0000 0.0000
# 5 0.0000 0.0000 0.0000 0.0000 4.4273 0.0000
# 6 0.0000 0.0000 0.0000 0.0000 0.0000 15.2039
#
#
#
# Elastic Compliance Matrix: (Units=1/GPa)
#
#
# Indices 1 2 3 4 5 6 
#
# 1 0.017448 -0.000807 -0.007452 0.000000 0.000000 0.000000
# 2 -0.000807 0.014042 0.000464 0.000000 0.000000 0.000000
# 3 -0.007452 0.000464 0.011238 0.000000 0.000000 0.000000
# 4 0.000000 0.000000 0.000000 0.005507 0.000000 0.000000
# 5 0.000000 0.000000 0.000000 0.000000 0.225873 0.000000
# 6 0.000000 0.000000 0.000000 0.000000 0.000000 0.065772
#
#
# Mechanical properties :
#
#
# Convention : Reuss Voigt Hill
#
# Bulk Modulus (GPa) = 36.85107 42.80131 39.82619
# Shear Modulus (GPa) = 13.71679 54.97093 34.34386
#
# Velocity S-wave (km/s) = 2.49659 4.99790 3.95044
# Velocity P-wave (km/s) = 5.00558 7.26322 6.23740
#
# Compressibility (1/GPa) = 0.02713625
#
# Stress axis : x y z
#
# Youngs Moduli (GPa) = 57.31441 71.21521 88.98314
#
# Poissons Ratio (x) = 0.05750 0.66312
# Poissons Ratio (y) = 0.04628 -0.04128
# Poissons Ratio (z) = 0.42712 -0.03304
#
# Static dielectric constant tensor:
#      x y z
#    x 1.837220 0.000000 0.000000 
#    y 0.000000 1.828100 0.000000 
#    z 0.000000 0.000000 1.856060 
# 
# From -- ./inp_files/33575.got.cif
#   From: 2010.05.17/outbox.cif.g08.bks.cpg/sg51_17_cif.got.tgz:33575.got - 2010.06.03 11:52:47.
