data_PCOD9400437
_publ_section_title
;
Structure prediction by ZEFSAII (Michael W. Deem and Ramdas Pophale) SiO2 
 PCOD9400437
Probable space group: P M M A
;
_chemical_formula_sum "Si O2"
_cell_formula_units_Z 48
_cell_length_a 15.324896
_cell_length_b 7.337481
_cell_length_c 20.241022
_cell_angle_alpha 90.000000
_cell_angle_beta 90.000000
_cell_angle_gamma 90.000000
_cell_volume 2276.024656
_symmetry_space_group_name_H-M "P M M A"
_symmetry_group_IT_number 51
_symmetry_cell_setting 'orthorhombic'
loop_
_space_group_symop_operation_xyz
x,y,z
1/2-x,-y,z
1/2+x,-y,-z
-x,y,-z
-x,-y,-z
1/2+x,y,-z
1/2-x,y,z
x,-y,z
loop_
_atom_site_type_symbol
_atom_site_label
_atom_site_fract_x
_atom_site_fract_y
_atom_site_fract_z
Si Si1 0.941089 0.222228 0.063121
Si Si2 0.250000 0.778239 0.977975
Si Si3 0.436965 0.214930 0.180464
Si Si4 0.350116 0.278189 0.440032
Si Si5 0.750000 0.777669 0.867608
Si Si6 0.150692 0.722014 0.589310
Si Si7 0.513094 0.719195 0.669146
O O1 0.840981 0.282314 0.054584
O O2 0.008992 0.285383 0.871135
O O3 0.938451 0.000000 0.063355
O O4 0.000000 0.274132 0.000000
O O5 0.250000 0.727337 0.055250
O O6 0.250000 0.000000 0.976230
O O7 0.339618 0.286471 0.166089
O O8 0.464782 0.236003 0.255916
O O9 0.431754 0.000000 0.166468
O O10 0.250000 0.222877 0.428747
O O11 0.351486 0.500000 0.439564
O O12 0.375353 0.224065 0.514608
O O13 0.414141 0.215180 0.382749
O O14 0.750000 0.000000 0.864773
O O15 0.250000 0.780890 0.601253
O O16 0.151422 0.500000 0.589623
O O17 0.080610 0.783137 0.642739
O O18 0.512702 0.500000 0.664923
#
# Coordination Sequence:
#
# PCOD9400437 Si02
#       7
#     8   4   8   8   4   8   8
#     4   9  15  26  45  68  91 114 150 195 229 260
#     4   9  14  24  46  71  87 108 151 202 234 253
#     4  10  20  32  46  69  98 124 149 183 229 279
#     4   8  14  25  44  70  93 113 148 198 235 259
#     4   9  16  28  47  69  93 120 149 184 230 277
#     4   8  14  27  47  68  89 117 157 198 229 261
#     4  10  19  30  47  70  95 124 153 185 228 275
#
# _framework density 21.089403000000001
#
# number of rings (size 3 to 8) (size 9 to 14) (size 15 to 20)
#    0.000    3.000    1.667    1.500    1.167    2.000 
#    1.500    0.000    0.000    2.500    0.000    2.333 
#    0.000    0.000    0.000    0.000    0.000    0.000 
#
# Total GULP energy -267976.598237 kJ/mol
# GULP energy per Si atom -5582.845797 kJ/mol
# Density = 2.104140 g / cm^3
# Si number density = 21.089403 Si / 1000 Ang^3
#
#
#
# Elastic Constant Matrix: (Units=GPa)
#
#
# Indices 1 2 3 4 5 6 
#
# 1 218.0689 5.1527 147.4985 0.0000 0.0000 0.0000
# 2 5.1527 78.0114 -2.3790 0.0000 0.0000 0.0000
# 3 147.4985 -2.3790 183.1512 0.0000 0.0000 0.0000
# 4 0.0000 0.0000 0.0000 16.3294 0.0000 0.0000
# 5 0.0000 0.0000 0.0000 0.0000 12.2555 0.0000
# 6 0.0000 0.0000 0.0000 0.0000 0.0000 -12.4626
#
#
#
# Elastic Compliance Matrix: (Units=1/GPa)
#
#
# Indices 1 2 3 4 5 6 
#
# 1 0.010138 -0.000919 -0.008176 0.000000 0.000000 0.000000
# 2 -0.000919 0.012907 0.000908 0.000000 0.000000 0.000000
# 3 -0.008176 0.000908 0.012056 0.000000 0.000000 0.000000
# 4 0.000000 0.000000 0.000000 0.061239 0.000000 0.000000
# 5 0.000000 0.000000 0.000000 0.000000 0.081596 0.000000
# 6 0.000000 0.000000 0.000000 0.000000 0.000000 -0.080240
#
#
# Mechanical properties :
#
#
# Convention : Reuss Voigt Hill
#
# Bulk Modulus (GPa) = 53.40111 86.64178 70.02145
# Shear Modulus (GPa) = 41.55811 25.15507 33.35659
#
# Velocity S-wave (km/s) = 4.44392 3.45741 3.98134
# Velocity P-wave (km/s) = 7.19080 7.55715 7.37625
#
# Compressibility (1/GPa) = 0.01872620
#
# Stress axis : x y z
#
# Youngs Moduli (GPa) = 98.64208 77.47726 82.94391
#
# Poissons Ratio (x) = 0.07120 0.67816
# Poissons Ratio (y) = 0.09065 -0.07529
# Poissons Ratio (z) = 0.80651 -0.07033
#
# Static dielectric constant tensor:
#      x y z
#    x 1.747230 0.000000 0.000000 
#    y 0.000000 1.851230 0.000000 
#    z 0.000000 0.000000 1.700960 
# 
# From -- ./inp_files/24094.got.cif
#   From: 2010.05.17/outbox.cif.g08.bks.cpg/sg51_13_cif.got.tgz:24094.got - 2010.06.03 11:52:47.
