data_PCOD9400804
_publ_section_title
;
Structure prediction by ZEFSAII (Michael W. Deem and Ramdas Pophale) SiO2 
 PCOD9400804
Probable space group: P M M A
;
_chemical_formula_sum "Si O2"
_cell_formula_units_Z 64
_cell_length_a 9.285677
_cell_length_b 17.518675
_cell_length_c 21.326642
_cell_angle_alpha 90.000000
_cell_angle_beta 90.000000
_cell_angle_gamma 90.000000
_cell_volume 3469.263663
_symmetry_space_group_name_H-M "P M M A"
_symmetry_group_IT_number 51
_symmetry_cell_setting 'orthorhombic'
loop_
_space_group_symop_operation_xyz
x,y,z
1/2-x,-y,z
1/2+x,-y,-z
-x,y,-z
-x,-y,-z
1/2+x,y,-z
1/2-x,y,z
x,-y,z
loop_
_atom_site_type_symbol
_atom_site_label
_atom_site_fract_x
_atom_site_fract_y
_atom_site_fract_z
Si Si1 0.919565 0.743472 0.937452
Si Si2 0.417958 0.374781 0.563665
Si Si3 0.583351 0.809057 0.437517
Si Si4 0.415477 0.883716 0.777993
Si Si5 0.580321 0.915197 0.655288
Si Si6 0.415132 0.916588 0.099747
Si Si7 0.580746 0.293333 0.190881
Si Si8 0.924580 0.413692 0.296359
O O1 0.750000 0.725792 0.938941
O O2 0.933107 0.836435 0.935762
O O3 0.991860 0.710944 0.873902
O O4 0.000000 0.716204 0.000000
O O5 0.500000 0.398418 0.500000
O O6 0.250000 0.397398 0.558002
O O7 0.424428 0.282570 0.567373
O O8 0.474666 0.402217 0.631531
O O9 0.500000 0.832149 0.500000
O O10 0.750000 0.830676 0.440629
O O11 0.506776 0.850712 0.380709
O O12 0.250000 0.904673 0.765496
O O13 0.521815 0.913992 0.725565
O O14 0.469928 0.912964 0.844715
O O15 0.425121 0.791751 0.780478
O O16 0.750000 0.900354 0.653149
O O17 0.553811 0.000000 0.628403
O O18 0.250000 0.913407 0.124739
O O19 0.428209 0.000000 0.067893
O O20 0.750000 0.309534 0.177121
O O21 0.527954 0.352777 0.243922
O O22 0.750000 0.405586 0.299648
O O23 0.958573 0.500000 0.276794
#
# Coordination Sequence:
#
# PCOD9400804 Si02
#       8
#     8   8   8   8   8   8   8   8
#     4  10  20  34  53  77 104 137 176 217 262 310
#     4   9  18  33  53  79 109 140 174 209 246 295
#     4  10  20  35  53  70  91 122 162 207 252 301
#     4  10  19  31  49  72  97 128 168 210 251 299
#     4  11  23  35  47  66  93 125 163 210 261 308
#     4   9  18  32  48  69 101 137 170 208 255 303
#     4   9  18  34  55  78 104 135 173 216 259 307
#     4   9  17  31  54  82 110 140 172 207 251 303
#
# _framework density 18.447717999999998
#
# number of rings (size 3 to 8) (size 9 to 14) (size 15 to 20)
#    0.000    2.375    0.000    2.625    0.000    7.000 
#    0.000    0.625    0.000    1.500    0.000    0.000 
#    0.000    0.000    0.000    0.000    0.000    0.000 
#
# Total GULP energy -356843.121019 kJ/mol
# GULP energy per Si atom -5575.673766 kJ/mol
# Density = 1.840573 g / cm^3
# Si number density = 18.447718 Si / 1000 Ang^3
#
#
#
# Elastic Constant Matrix: (Units=GPa)
#
#
# Indices 1 2 3 4 5 6 
#
# 1 70.0571 35.2631 44.3501 0.0000 0.0000 0.0000
# 2 35.2631 63.3610 45.0469 0.0000 0.0000 0.0000
# 3 44.3501 45.0469 99.6868 0.0000 0.0000 0.0000
# 4 0.0000 0.0000 0.0000 -25.1285 0.0000 0.0000
# 5 0.0000 0.0000 0.0000 0.0000 30.6929 0.0000
# 6 0.0000 0.0000 0.0000 0.0000 0.0000 12.4664
#
#
#
# Elastic Compliance Matrix: (Units=1/GPa)
#
#
# Indices 1 2 3 4 5 6 
#
# 1 0.022253 -0.007877 -0.006341 0.000000 0.000000 0.000000
# 2 -0.007877 0.026041 -0.008263 0.000000 0.000000 0.000000
# 3 -0.006341 -0.008263 0.016586 0.000000 0.000000 0.000000
# 4 0.000000 0.000000 0.000000 -0.039795 0.000000 0.000000
# 5 0.000000 0.000000 0.000000 0.000000 0.032581 0.000000
# 6 0.000000 0.000000 0.000000 0.000000 0.000000 0.080216
#
#
# Mechanical properties :
#
#
# Convention : Reuss Voigt Hill
#
# Bulk Modulus (GPa) = 50.20357 53.60281 51.90319
# Shear Modulus (GPa) = 26.38760 10.83580 18.61170
#
# Velocity S-wave (km/s) = 3.78616 2.42622 3.17975
# Velocity P-wave (km/s) = 6.81076 6.08017 6.45581
#
# Compressibility (1/GPa) = 0.01991890
#
# Stress axis : x y z
#
# Youngs Moduli (GPa) = 44.93800 38.40087 60.29007
#
# Poissons Ratio (x) = 0.30247 0.38229
# Poissons Ratio (y) = 0.35396 0.49819
# Poissons Ratio (z) = 0.28495 0.31732
#
# Static dielectric constant tensor:
#      x y z
#    x 1.614130 0.000000 0.000000 
#    y 0.000000 1.644190 0.000000 
#    z 0.000000 0.000000 1.661010 
# 
# From -- ./inp_files/32332.got.cif
#   From: 2010.05.17/outbox.cif.g08.bks.cpg/sg51_17_cif.got.tgz:32332.got - 2010.06.03 11:52:47.
