data_PCOD9400334
_publ_section_title
;
Structure prediction by ZEFSAII (Michael W. Deem and Ramdas Pophale) SiO2 
 PCOD9400334
Probable space group: P M M A
;
_chemical_formula_sum "Si O2"
_cell_formula_units_Z 64
_cell_length_a 22.207904
_cell_length_b 7.825744
_cell_length_c 18.338617
_cell_angle_alpha 90.000000
_cell_angle_beta 90.000000
_cell_angle_gamma 90.000000
_cell_volume 3187.130077
_symmetry_space_group_name_H-M "P M M A"
_symmetry_group_IT_number 51
_symmetry_cell_setting 'orthorhombic'
loop_
_space_group_symop_operation_xyz
x,y,z
1/2-x,-y,z
1/2+x,-y,-z
-x,y,-z
-x,-y,-z
1/2+x,y,-z
1/2-x,y,z
x,-y,z
loop_
_atom_site_type_symbol
_atom_site_label
_atom_site_fract_x
_atom_site_fract_y
_atom_site_fract_z
Si Si1 0.816333 0.205396 0.584144
Si Si2 0.529677 0.698450 0.421148
Si Si3 0.445969 0.696790 0.951104
Si Si4 0.855632 0.793830 0.265402
Si Si5 0.073034 0.703193 0.315497
Si Si6 0.682714 0.705396 0.102131
Si Si7 0.017313 0.799117 0.794645
Si Si8 0.161645 0.805712 0.578466
O O1 0.750000 0.253390 0.609659
O O2 0.865169 0.257064 0.643898
O O3 0.823064 0.273477 0.500609
O O4 0.820522 0.000000 0.577878
O O5 0.500000 0.695874 0.500000
O O6 0.544501 0.500000 0.403041
O O7 0.478766 0.770626 0.369065
O O8 0.589567 0.806045 0.421853
O O9 0.438540 0.500000 0.976089
O O10 0.377472 0.769586 0.940909
O O11 0.472016 0.701667 0.869439
O O12 0.500000 0.775397 0.000000
O O13 0.826541 0.742827 0.188421
O O14 0.825920 0.728679 0.341005
O O15 0.926530 0.744023 0.257502
O O16 0.853077 0.000000 0.270182
O O17 0.068392 0.500000 0.312015
O O18 0.048806 0.771103 0.238675
O O19 0.750000 0.767133 0.080642
O O20 0.682194 0.500000 0.094224
O O21 0.025956 0.000000 0.808396
O O22 0.184769 0.000000 0.578047
#
# Coordination Sequence:
#
# PCOD9400334 Si02
#       8
#     8   8   8   8   8   8   8   8
#     4  10  22  37  50  66  92 131 176 221 270 317
#     4  10  19  30  45  70  98 124 159 207 262 307
#     4   9  18  34  56  81 110 142 173 207 250 307
#     4   9  18  30  46  72 103 135 169 206 248 300
#     4  11  21  33  52  74  97 128 166 212 260 309
#     4   9  18  32  50  74 104 138 173 207 247 296
#     4  10  19  32  52  80 108 132 164 206 256 308
#     4  10  19  31  48  69  95 129 170 214 257 307
#
# _framework density 20.080760999999999
#
# number of rings (size 3 to 8) (size 9 to 14) (size 15 to 20)
#    0.000    2.250    2.500    0.750    0.000    3.000 
#    0.000    1.250    0.000    0.750    0.000    1.750 
#    0.000    0.000    0.000    0.000    0.000    0.000 
#
# Total GULP energy -356448.302254 kJ/mol
# GULP energy per Si atom -5569.504723 kJ/mol
# Density = 2.003506 g / cm^3
# Si number density = 20.080761 Si / 1000 Ang^3
#
#
#
# Elastic Constant Matrix: (Units=GPa)
#
#
# Indices 1 2 3 4 5 6 
#
# 1 155.1768 11.7716 45.4761 0.0000 0.0000 0.0000
# 2 11.7716 32.7906 2.6282 0.0000 0.0000 0.0000
# 3 45.4761 2.6282 54.2385 0.0000 0.0000 0.0000
# 4 0.0000 0.0000 0.0000 14.1045 0.0000 0.0000
# 5 0.0000 0.0000 0.0000 0.0000 5.4593 0.0000
# 6 0.0000 0.0000 0.0000 0.0000 0.0000 7.8123
#
#
#
# Elastic Compliance Matrix: (Units=1/GPa)
#
#
# Indices 1 2 3 4 5 6 
#
# 1 0.008753 -0.002564 -0.007215 0.000000 0.000000 0.000000
# 2 -0.002564 0.031367 0.000630 0.000000 0.000000 0.000000
# 3 -0.007215 0.000630 0.024456 0.000000 0.000000 0.000000
# 4 0.000000 0.000000 0.000000 0.070899 0.000000 0.000000
# 5 0.000000 0.000000 0.000000 0.000000 0.183172 0.000000
# 6 0.000000 0.000000 0.000000 0.000000 0.000000 0.128003
#
#
# Mechanical properties :
#
#
# Convention : Reuss Voigt Hill
#
# Bulk Modulus (GPa) = 21.60874 40.21753 30.91314
# Shear Modulus (GPa) = 10.40857 17.63057 14.01957
#
# Velocity S-wave (km/s) = 2.27917 2.96629 2.64514
# Velocity P-wave (km/s) = 4.20838 5.63944 4.97562
#
# Compressibility (1/GPa) = 0.04627756
#
# Stress axis : x y z
#
# Youngs Moduli (GPa) = 114.24481 31.88112 40.89011
#
# Poissons Ratio (x) = 0.08174 0.29501
# Poissons Ratio (y) = 0.29293 -0.02576
# Poissons Ratio (z) = 0.82425 -0.02008
#
# Static dielectric constant tensor:
#      x y z
#    x 1.746850 0.000000 0.000000 
#    y 0.000000 1.737660 0.000000 
#    z 0.000000 0.000000 1.748710 
# 
# From -- ./inp_files/30597.got.cif
#   From: 2010.05.17/outbox.cif.g08.bks.cpg/sg51_16_cif.got.tgz:30597.got - 2010.06.03 11:52:47.
