data_PCOD9400687
_publ_section_title
;
Structure prediction by ZEFSAII (Michael W. Deem and Ramdas Pophale) SiO2 
 PCOD9400687
Probable space group: P M M A
;
_chemical_formula_sum "Si O2"
_cell_formula_units_Z 40
_cell_length_a 21.865142
_cell_length_b 7.716141
_cell_length_c 13.104845
_cell_angle_alpha 90.000000
_cell_angle_beta 90.000000
_cell_angle_gamma 90.000000
_cell_volume 2210.977616
_symmetry_space_group_name_H-M "P M M A"
_symmetry_group_IT_number 51
_symmetry_cell_setting 'orthorhombic'
loop_
_space_group_symop_operation_xyz
x,y,z
1/2-x,-y,z
1/2+x,-y,-z
-x,y,-z
-x,-y,-z
1/2+x,y,-z
1/2-x,y,z
x,-y,z
loop_
_atom_site_type_symbol
_atom_site_label
_atom_site_fract_x
_atom_site_fract_y
_atom_site_fract_z
Si Si1 0.550820 0.292710 0.636616
Si Si2 0.586134 0.287730 0.418509
Si Si3 0.951578 0.207341 0.861067
Si Si4 0.681153 0.706609 0.251369
Si Si5 0.413154 0.790558 0.920907
O O1 0.548599 0.500000 0.629682
O O2 0.588125 0.232955 0.537080
O O3 0.480510 0.231476 0.623059
O O4 0.573080 0.249322 0.749449
O O5 0.586745 0.500000 0.415934
O O6 0.639625 0.224867 0.344603
O O7 0.021929 0.270349 0.873025
O O8 0.954352 0.000000 0.868667
O O9 0.914730 0.267860 0.960951
O O10 0.750000 0.776926 0.247839
O O11 0.685470 0.500000 0.266130
O O12 0.643147 0.734105 0.147858
O O13 0.413555 0.000000 0.919566
#
# Coordination Sequence:
#
# PCOD9400687 Si02
#       5
#     8   8   8   8   8
#     4   9  15  26  46  66  89 120 149 182 223 271
#     4   8  15  27  42  65  93 118 147 180 223 270
#     4   9  17  29  45  67  94 119 147 188 230 267
#     4  10  19  31  48  68  91 118 151 190 224 263
#     4   9  18  31  45  64  93 124 151 182 226 274
#
# _framework density 18.091543999999999
#
# number of rings (size 3 to 8) (size 9 to 14) (size 15 to 20)
#    0.000    3.000    2.000    2.400    0.000    1.200 
#    0.000    5.000    0.000    1.200    0.000    2.800 
#    0.000    0.000    0.000    0.000    0.000    0.000 
#
# Total GULP energy -222824.748472 kJ/mol
# GULP energy per Si atom -5570.618712 kJ/mol
# Density = 1.805037 g / cm^3
# Si number density = 18.091544 Si / 1000 Ang^3
#
#
#
# Elastic Constant Matrix: (Units=GPa)
#
#
# Indices 1 2 3 4 5 6 
#
# 1 109.2967 7.2263 79.2345 0.0000 0.0000 0.0000
# 2 7.2263 24.2625 0.4297 0.0000 0.0000 0.0000
# 3 79.2345 0.4297 191.1165 0.0000 0.0000 0.0000
# 4 0.0000 0.0000 0.0000 26.0364 0.0000 0.0000
# 5 0.0000 0.0000 0.0000 0.0000 17.6224 0.0000
# 6 0.0000 0.0000 0.0000 0.0000 0.0000 10.6565
#
#
#
# Elastic Compliance Matrix: (Units=1/GPa)
#
#
# Indices 1 2 3 4 5 6 
#
# 1 0.013441 -0.003905 -0.005564 0.000000 0.000000 0.000000
# 2 -0.003905 0.042352 0.001524 0.000000 0.000000 0.000000
# 3 -0.005564 0.001524 0.007536 0.000000 0.000000 0.000000
# 4 0.000000 0.000000 0.000000 0.038408 0.000000 0.000000
# 5 0.000000 0.000000 0.000000 0.000000 0.056746 0.000000
# 6 0.000000 0.000000 0.000000 0.000000 0.000000 0.093839
#
#
# Mechanical properties :
#
#
# Convention : Reuss Voigt Hill
#
# Bulk Modulus (GPa) = 21.07972 55.38406 38.23189
# Shear Modulus (GPa) = 17.60415 26.71541 22.15978
#
# Velocity S-wave (km/s) = 3.12277 3.84693 3.50361
# Velocity P-wave (km/s) = 4.96783 7.10010 6.12743
#
# Compressibility (1/GPa) = 0.04743896
#
# Stress axis : x y z
#
# Youngs Moduli (GPa) = 74.39953 23.61170 132.70321
#
# Poissons Ratio (x) = 0.09220 0.73832
# Poissons Ratio (y) = 0.29051 -0.20219
# Poissons Ratio (z) = 0.41393 -0.03598
#
# Static dielectric constant tensor:
#      x y z
#    x 1.595890 0.000000 0.000000 
#    y 0.000000 1.674300 0.000000 
#    z 0.000000 0.000000 1.662600 
# 
# From -- ./inp_files/10641.got.cif
#   From: 2010.05.17/outbox.cif.g08.bks.cpg/sg51_6_cif.got.tgz:10641.got - 2010.06.03 11:52:47.
