data_PCOD9400320
_publ_section_title
;
Structure prediction by ZEFSAII (Michael W. Deem and Ramdas Pophale) SiO2 
 PCOD9400320
Probable space group: P M M A
;
_chemical_formula_sum "Si O2"
_cell_formula_units_Z 48
_cell_length_a 7.800148
_cell_length_b 14.285536
_cell_length_c 24.724227
_cell_angle_alpha 90.000000
_cell_angle_beta 90.000000
_cell_angle_gamma 90.000000
_cell_volume 2755.003185
_symmetry_space_group_name_H-M "P M M A"
_symmetry_group_IT_number 51
_symmetry_cell_setting 'orthorhombic'
loop_
_space_group_symop_operation_xyz
x,y,z
1/2-x,-y,z
1/2+x,-y,-z
-x,y,-z
-x,-y,-z
1/2+x,y,-z
1/2-x,y,z
x,-y,z
loop_
_atom_site_type_symbol
_atom_site_label
_atom_site_fract_x
_atom_site_fract_y
_atom_site_fract_z
Si Si1 0.043435 0.895002 0.724529
Si Si2 0.460183 0.789126 0.833026
Si Si3 0.953783 0.604441 0.223186
Si Si4 0.456215 0.607332 0.439723
Si Si5 0.045753 0.708316 0.332779
Si Si6 0.543809 0.892757 0.060226
O O1 0.250000 0.898175 0.725979
O O2 0.987696 0.856740 0.783450
O O3 0.995436 0.815615 0.681415
O O4 0.979757 0.000000 0.714220
O O5 0.250000 0.788091 0.833193
O O6 0.520179 0.685068 0.817060
O O7 0.518452 0.829164 0.890385
O O8 0.750000 0.598658 0.213907
O O9 0.026423 0.500000 0.217919
O O10 0.977726 0.644872 0.283545
O O11 0.500000 0.640606 0.500000
O O12 0.250000 0.604227 0.436305
O O13 0.519852 0.500000 0.434109
O O14 0.519628 0.670868 0.390334
O O15 0.250000 0.698275 0.332167
O O16 0.750000 0.896193 0.064193
O O17 0.479868 0.000000 0.065551
O O18 0.500000 0.859226 0.000000
#
# Coordination Sequence:
#
# PCOD9400320 Si02
#       6
#     8   8   8   8   8   8
#     4   9  17  30  48  68  89 115 149 185 217 255
#     4   8  14  26  44  64  85 111 143 178 216 255
#     4   9  17  29  46  67  88 113 148 184 215 255
#     4   9  18  31  46  65  89 117 147 178 214 256
#     4  10  19  30  45  67  95 121 143 174 220 269
#     4   9  16  26  41  60  82 109 140 175 216 260
#
# _framework density 17.422847000000001
#
# number of rings (size 3 to 8) (size 9 to 14) (size 15 to 20)
#    0.000    3.000    0.000    2.500    0.000    4.667 
#    0.000    5.000    0.000    5.000    0.000    0.000 
#    0.000    0.000    0.000    0.000    0.000    0.000 
#
# Total GULP energy -267491.344535 kJ/mol
# GULP energy per Si atom -5572.736344 kJ/mol
# Density = 1.738319 g / cm^3
# Si number density = 17.422847 Si / 1000 Ang^3
#
#
#
# Elastic Constant Matrix: (Units=GPa)
#
#
# Indices 1 2 3 4 5 6 
#
# 1 20.3051 3.0353 0.0965 0.0000 0.0000 0.0000
# 2 3.0353 135.6116 92.9737 0.0000 0.0000 0.0000
# 3 0.0965 92.9737 163.5176 0.0000 0.0000 0.0000
# 4 0.0000 0.0000 0.0000 34.5988 0.0000 0.0000
# 5 0.0000 0.0000 0.0000 0.0000 20.1060 0.0000
# 6 0.0000 0.0000 0.0000 0.0000 0.0000 11.6661
#
#
#
# Elastic Compliance Matrix: (Units=1/GPa)
#
#
# Indices 1 2 3 4 5 6 
#
# 1 0.049511 -0.001783 0.000985 0.000000 0.000000 0.000000
# 2 -0.001783 0.012149 -0.006907 0.000000 0.000000 0.000000
# 3 0.000985 -0.006907 0.010042 0.000000 0.000000 0.000000
# 4 0.000000 0.000000 0.000000 0.028903 0.000000 0.000000
# 5 0.000000 0.000000 0.000000 0.000000 0.049736 0.000000
# 6 0.000000 0.000000 0.000000 0.000000 0.000000 0.085719
#
#
# Mechanical properties :
#
#
# Convention : Reuss Voigt Hill
#
# Bulk Modulus (GPa) = 17.76479 56.84947 37.30713
# Shear Modulus (GPa) = 18.50250 28.16277 23.33263
#
# Velocity S-wave (km/s) = 3.26232 4.02484 3.66347
# Velocity P-wave (km/s) = 4.94052 7.36880 6.27327
#
# Compressibility (1/GPa) = 0.05629114
#
# Stress axis : x y z
#
# Youngs Moduli (GPa) = 20.19770 82.31060 99.58127
#
# Poissons Ratio (x) = 0.14678 -0.09806
# Poissons Ratio (y) = 0.03602 0.68778
# Poissons Ratio (z) = -0.01989 0.56850
#
# Static dielectric constant tensor:
#      x y z
#    x 1.637700 0.000000 0.000000 
#    y 0.000000 1.618460 0.000000 
#    z 0.000000 0.000000 1.578490 
# 
# From -- ./inp_files/31588.got.cif
#   From: 2010.05.17/outbox.cif.g08.bks.cpg/sg51_16_cif.got.tgz:31588.got - 2010.06.03 11:52:47.
