data_PCOD9400314
_publ_section_title
;
Structure prediction by ZEFSAII (Michael W. Deem and Ramdas Pophale) SiO2 
 PCOD9400314
Probable space group: P M M A
;
_chemical_formula_sum "Si O2"
_cell_formula_units_Z 64
_cell_length_a 8.707416
_cell_length_b 14.199007
_cell_length_c 30.397749
_cell_angle_alpha 90.000000
_cell_angle_beta 90.000000
_cell_angle_gamma 90.000000
_cell_volume 3758.276180
_symmetry_space_group_name_H-M "P M M A"
_symmetry_group_IT_number 51
_symmetry_cell_setting 'orthorhombic'
loop_
_space_group_symop_operation_xyz
x,y,z
1/2-x,-y,z
1/2+x,-y,-z
-x,y,-z
-x,-y,-z
1/2+x,y,-z
1/2-x,y,z
x,-y,z
loop_
_atom_site_type_symbol
_atom_site_label
_atom_site_fract_x
_atom_site_fract_y
_atom_site_fract_z
Si Si1 0.068239 0.397795 0.870370
Si Si2 0.565202 0.609137 0.360491
Si Si3 0.575066 0.614008 0.545342
Si Si4 0.067713 0.795792 0.125279
Si Si5 0.575654 0.606124 0.774906
Si Si6 0.435117 0.109256 0.217970
Si Si7 0.576612 0.112095 0.044612
Si Si8 0.072001 0.250564 0.714601
O O1 0.250000 0.392553 0.860685
O O2 0.041599 0.500000 0.892470
O O3 0.013381 0.300362 0.890632
O O4 0.969415 0.398530 0.825616
O O5 0.750000 0.606998 0.356478
O O6 0.511862 0.500000 0.351459
O O7 0.518020 0.633549 0.410263
O O8 0.508705 0.692322 0.327985
O O9 0.500000 0.648674 0.500000
O O10 0.750000 0.647136 0.549398
O O11 0.578946 0.500000 0.542276
O O12 0.250000 0.781706 0.127740
O O13 0.016071 0.833376 0.173681
O O14 0.023859 0.869040 0.087651
O O15 0.750000 0.643547 0.769595
O O16 0.572432 0.500000 0.757272
O O17 0.451207 0.669137 0.751265
O O18 0.250000 0.109647 0.217808
O O19 0.491545 0.161368 0.262323
O O20 0.486010 0.000000 0.215642
O O21 0.750000 0.148823 0.050444
O O22 0.587362 0.000000 0.039392
O O23 0.500000 0.150504 0.000000
O O24 0.250000 0.228074 0.707104
#
# Coordination Sequence:
#
# PCOD9400314 Si02
#       8
#     8   8   8   8   8   8   8   8
#     4  10  20  33  50  74 103 133 168 208 246 287
#     4   9  18  31  45  65  96 132 169 208 250 297
#     4   9  16  26  42  64  91 126 166 206 248 294
#     4  11  21  35  57  81 106 137 172 208 251 302
#     4  10  19  30  45  66  94 129 166 202 242 288
#     4  10  22  38  53  71  98 133 171 210 253 302
#     4  10  21  37  58  84 112 139 169 208 255 306
#     4  11  21  32  48  69  96 130 168 211 256 299
#
# _framework density 17.029084000000001
#
# number of rings (size 3 to 8) (size 9 to 14) (size 15 to 20)
#    0.000    2.000    1.250    3.000    0.000    6.500 
#    0.000    1.250    0.000    0.375    0.000    0.000 
#    0.000    0.500    0.000    1.625    0.000    2.375 
#
# Total GULP energy -356374.848511 kJ/mol
# GULP energy per Si atom -5568.357008 kJ/mol
# Density = 1.699033 g / cm^3
# Si number density = 17.029084 Si / 1000 Ang^3
#
#
#
# Elastic Constant Matrix: (Units=GPa)
#
#
# Indices 1 2 3 4 5 6 
#
# 1 35.0961 22.1329 14.1159 0.0000 0.0000 0.0000
# 2 22.1329 73.7024 20.3660 0.0000 0.0000 0.0000
# 3 14.1159 20.3660 76.5648 0.0000 0.0000 0.0000
# 4 0.0000 0.0000 0.0000 13.9687 0.0000 0.0000
# 5 0.0000 0.0000 0.0000 0.0000 23.7311 0.0000
# 6 0.0000 0.0000 0.0000 0.0000 0.0000 19.5635
#
#
#
# Elastic Compliance Matrix: (Units=1/GPa)
#
#
# Indices 1 2 3 4 5 6 
#
# 1 0.036301 -0.009770 -0.004094 0.000000 0.000000 0.000000
# 2 -0.009770 0.017274 -0.002794 0.000000 0.000000 0.000000
# 3 -0.004094 -0.002794 0.014559 0.000000 0.000000 0.000000
# 4 0.000000 0.000000 0.000000 0.071589 0.000000 0.000000
# 5 0.000000 0.000000 0.000000 0.000000 0.042139 0.000000
# 6 0.000000 0.000000 0.000000 0.000000 0.000000 0.051116
#
#
# Mechanical properties :
#
#
# Convention : Reuss Voigt Hill
#
# Bulk Modulus (GPa) = 28.72008 33.17700 30.94854
# Shear Modulus (GPa) = 17.99222 20.03590 19.01406
#
# Velocity S-wave (km/s) = 3.25400 3.43384 3.34513
# Velocity P-wave (km/s) = 5.56956 5.93688 5.75615
#
# Compressibility (1/GPa) = 0.03481884
#
# Stress axis : x y z
#
# Youngs Moduli (GPa) = 27.54735 57.89058 68.68758
#
# Poissons Ratio (x) = 0.56559 0.28120
# Poissons Ratio (y) = 0.26914 0.19188
# Poissons Ratio (z) = 0.11278 0.16172
#
# Static dielectric constant tensor:
#      x y z
#    x 1.606750 0.000000 0.000000 
#    y 0.000000 1.630060 0.000000 
#    z 0.000000 0.000000 1.571950 
# 
# From -- ./inp_files/37522.got.cif
#   From: 2010.05.17/outbox.cif.g08.bks.cpg/sg51_19_cif.got.tgz:37522.got - 2010.06.03 11:52:47.
