data_PCOD9400765
_publ_section_title
;
Structure prediction by ZEFSAII (Michael W. Deem and Ramdas Pophale) SiO2 
 PCOD9400765
Probable space group: P M M A
;
_chemical_formula_sum "Si O2"
_cell_formula_units_Z 64
_cell_length_a 8.716809
_cell_length_b 20.913496
_cell_length_c 18.066983
_cell_angle_alpha 90.000000
_cell_angle_beta 90.000000
_cell_angle_gamma 90.000000
_cell_volume 3293.592033
_symmetry_space_group_name_H-M "P M M A"
_symmetry_group_IT_number 51
_symmetry_cell_setting 'orthorhombic'
loop_
_space_group_symop_operation_xyz
x,y,z
1/2-x,-y,z
1/2+x,-y,-z
-x,y,-z
-x,-y,-z
1/2+x,y,-z
1/2-x,y,z
x,-y,z
loop_
_atom_site_type_symbol
_atom_site_label
_atom_site_fract_x
_atom_site_fract_y
_atom_site_fract_z
Si Si1 0.429655 0.139151 0.428200
Si Si2 0.932550 0.295192 0.210890
Si Si3 0.077716 0.924670 0.708464
Si Si4 0.430547 0.402615 0.422951
Si Si5 0.433691 0.789125 0.077489
Si Si6 0.069063 0.729480 0.618483
Si Si7 0.564501 0.570485 0.743889
Si Si8 0.564821 0.927827 0.870359
O O1 0.500000 0.104926 0.500000
O O2 0.250000 0.149830 0.437456
O O3 0.465958 0.102706 0.352908
O O4 0.520931 0.205178 0.418969
O O5 0.750000 0.295803 0.200452
O O6 0.964212 0.267386 0.293306
O O7 0.007008 0.252035 0.147120
O O8 0.994069 0.368189 0.215283
O O9 0.250000 0.896127 0.703106
O O10 0.009555 0.917298 0.790025
O O11 0.090058 0.000000 0.695670
O O12 0.500000 0.426509 0.500000
O O13 0.250000 0.413454 0.426187
O O14 0.471283 0.327851 0.415645
O O15 0.485493 0.428057 0.342879
O O16 0.250000 0.786299 0.076512
O O17 0.480100 0.864173 0.085248
O O18 0.500000 0.764423 0.000000
O O19 0.250000 0.716083 0.609207
O O20 0.750000 0.577040 0.744547
O O21 0.525314 0.500000 0.773962
O O22 0.750000 0.927935 0.864491
O O23 0.519400 0.000000 0.896333
#
# Coordination Sequence:
#
# PCOD9400765 Si02
#       8
#     8   8   8   8   8   8   8   8
#     4  12  24  36  51  71  98 133 175 226 281 332
#     4  10  21  37  59  85 113 146 185 230 277 330
#     4  10  21  37  56  77 101 132 173 220 269 323
#     4  10  19  31  48  73 108 147 186 228 276 327
#     4  11  23  38  59  87 120 154 186 224 270 323
#     4  10  20  35  54  76 103 136 178 225 272 325
#     4   9  19  36  57  81 110 147 191 236 283 336
#     4   9  19  37  60  86 116 151 189 226 268 321
#
# _framework density 19.431671999999999
#
# number of rings (size 3 to 8) (size 9 to 14) (size 15 to 20)
#    0.000    1.875    0.000    4.125    0.000    6.750 
#    0.000    0.000    0.000    0.375    0.000    0.000 
#    0.000    0.000    0.000    0.000    0.000    0.000 
#
# Total GULP energy -357335.348927 kJ/mol
# GULP energy per Si atom -5583.364827 kJ/mol
# Density = 1.938745 g / cm^3
# Si number density = 19.431672 Si / 1000 Ang^3
#
#
#
# Elastic Constant Matrix: (Units=GPa)
#
#
# Indices 1 2 3 4 5 6 
#
# 1 31.6057 21.9453 24.7385 0.0000 0.0000 0.0000
# 2 21.9453 75.9437 54.5375 0.0000 0.0000 0.0000
# 3 24.7385 54.5375 86.7486 0.0000 0.0000 0.0000
# 4 0.0000 0.0000 0.0000 -54.6443 0.0000 0.0000
# 5 0.0000 0.0000 0.0000 0.0000 27.1883 0.0000
# 6 0.0000 0.0000 0.0000 0.0000 0.0000 16.2058
#
#
#
# Elastic Compliance Matrix: (Units=1/GPa)
#
#
# Indices 1 2 3 4 5 6 
#
# 1 0.042427 -0.006511 -0.008006 0.000000 0.000000 0.000000
# 2 -0.006511 0.025005 -0.013863 0.000000 0.000000 0.000000
# 3 -0.008006 -0.013863 0.022526 0.000000 0.000000 0.000000
# 4 0.000000 0.000000 0.000000 -0.018300 0.000000 0.000000
# 5 0.000000 0.000000 0.000000 0.000000 0.036780 0.000000
# 6 0.000000 0.000000 0.000000 0.000000 0.000000 0.061706
#
#
# Mechanical properties :
#
#
# Convention : Reuss Voigt Hill
#
# Bulk Modulus (GPa) = 30.12233 44.08230 37.10231
# Shear Modulus (GPa) = 21.01096 3.95507 12.48302
#
# Velocity S-wave (km/s) = 3.29184 1.42821 2.53732
# Velocity P-wave (km/s) = 5.47573 5.04527 5.26490
#
# Compressibility (1/GPa) = 0.03319797
#
# Stress axis : x y z
#
# Youngs Moduli (GPa) = 23.56993 39.99225 44.39240
#
# Poissons Ratio (x) = 0.26038 0.35540
# Poissons Ratio (y) = 0.15346 0.61543
# Poissons Ratio (z) = 0.18870 0.55443
#
# Static dielectric constant tensor:
#      x y z
#    x 1.646560 0.000000 0.000000 
#    y 0.000000 1.705710 0.000000 
#    z 0.000000 0.000000 1.676210 
# 
# From -- ./inp_files/28499.got.cif
#   From: 2010.05.17/outbox.cif.g08.bks.cpg/sg51_15_cif.got.tgz:28499.got - 2010.06.03 11:52:47.
