data_PCOD9400255
_publ_section_title
;
Structure prediction by ZEFSAII (Michael W. Deem and Ramdas Pophale) SiO2 
 PCOD9400255
Probable space group: P M M A
;
_chemical_formula_sum "Si O2"
_cell_formula_units_Z 64
_cell_length_a 8.709328
_cell_length_b 31.896557
_cell_length_c 14.736704
_cell_angle_alpha 90.000000
_cell_angle_beta 90.000000
_cell_angle_gamma 90.000000
_cell_volume 4093.820664
_symmetry_space_group_name_H-M "P M M A"
_symmetry_group_IT_number 51
_symmetry_cell_setting 'orthorhombic'
loop_
_space_group_symop_operation_xyz
x,y,z
1/2-x,-y,z
1/2+x,-y,-z
-x,y,-z
-x,-y,-z
1/2+x,y,-z
1/2-x,y,z
x,-y,z
loop_
_atom_site_type_symbol
_atom_site_label
_atom_site_fract_x
_atom_site_fract_y
_atom_site_fract_z
Si Si1 0.565044 0.862661 0.897477
Si Si2 0.933738 0.548665 0.099147
Si Si3 0.065614 0.752975 0.596260
Si Si4 0.565148 0.216254 0.208609
Si Si5 0.066014 0.655026 0.596834
Si Si6 0.564919 0.045013 0.897829
Si Si7 0.566300 0.378310 0.780667
Si Si8 0.065486 0.703743 0.101370
O O1 0.750000 0.859740 0.901300
O O2 0.498737 0.825842 0.836098
O O3 0.520599 0.909216 0.860910
O O4 0.500000 0.858586 0.000000
O O5 0.750000 0.552172 0.096658
O O6 0.974167 0.500000 0.117341
O O7 0.001303 0.580247 0.172422
O O8 0.000000 0.559551 0.000000
O O9 0.250000 0.753993 0.591157
O O10 0.017833 0.777845 0.686220
O O11 0.019571 0.704082 0.608513
O O12 0.000000 0.767717 0.500000
O O13 0.750000 0.216553 0.204175
O O14 0.502148 0.255926 0.152579
O O15 0.250000 0.653111 0.595954
O O16 0.000000 0.641108 0.500000
O O17 0.000747 0.629480 0.681114
O O18 0.750000 0.044983 0.901753
O O19 0.517123 0.000000 0.855657
O O20 0.500000 0.044744 0.000000
O O21 0.750000 0.380251 0.776619
O O22 0.523586 0.338095 0.842726
O O23 0.250000 0.706971 0.098186
O O24 0.000000 0.701542 0.000000
#
# Coordination Sequence:
#
# PCOD9400255 Si02
#       8
#     8   8   8   8   8   8   8   8
#     4  10  19  30  44  64  91 127 164 199 239 283
#     4  10  21  37  57  80 106 136 168 204 246 292
#     4   9  19  33  51  71  92 122 157 199 242 283
#     4  11  21  34  48  66  94 128 162 195 237 284
#     4  10  19  34  54  77 103 130 163 204 247 291
#     4   8  14  25  41  60  83 113 153 198 240 281
#     4  11  22  35  54  79 103 132 167 204 246 291
#     4  11  23  35  48  68  96 130 166 201 236 277
#
# _framework density 15.633319
#
# number of rings (size 3 to 8) (size 9 to 14) (size 15 to 20)
#    0.000    2.000    1.250    3.000    0.000    5.250 
#    0.000    0.000    0.000    0.375    0.000    0.000 
#    0.000    0.500    0.000    1.125    0.000    2.000 
#
# Total GULP energy -357011.393575 kJ/mol
# GULP energy per Si atom -5578.303025 kJ/mol
# Density = 1.559774 g / cm^3
# Si number density = 15.633319 Si / 1000 Ang^3
#
#
#
# Elastic Constant Matrix: (Units=GPa)
#
#
# Indices 1 2 3 4 5 6 
#
# 1 41.9776 38.5633 40.3251 0.0000 0.0000 0.0000
# 2 38.5633 113.1631 78.2621 0.0000 0.0000 0.0000
# 3 40.3251 78.2621 137.5738 0.0000 0.0000 0.0000
# 4 0.0000 0.0000 0.0000 -0.5399 0.0000 0.0000
# 5 0.0000 0.0000 0.0000 0.0000 26.4517 0.0000
# 6 0.0000 0.0000 0.0000 0.0000 0.0000 11.9319
#
#
#
# Elastic Compliance Matrix: (Units=1/GPa)
#
#
# Indices 1 2 3 4 5 6 
#
# 1 0.037592 -0.008556 -0.006151 0.000000 0.000000 0.000000
# 2 -0.008556 0.016516 -0.006887 0.000000 0.000000 0.000000
# 3 -0.006151 -0.006887 0.012990 0.000000 0.000000 0.000000
# 4 0.000000 0.000000 0.000000 -1.852276 0.000000 0.000000
# 5 0.000000 0.000000 0.000000 0.000000 0.037805 0.000000
# 6 0.000000 0.000000 0.000000 0.000000 0.000000 0.083809
#
#
# Mechanical properties :
#
#
# Convention : Reuss Voigt Hill
#
# Bulk Modulus (GPa) = 41.82781 67.44617 54.63699
# Shear Modulus (GPa) = -3.10096 16.60634 6.75269
#
# Velocity S-wave (km/s) = -1.40992 3.26274 2.08058
# Velocity P-wave (km/s) = 4.91560 7.57827 6.38723
#
# Compressibility (1/GPa) = 0.02390754
#
# Stress axis : x y z
#
# Youngs Moduli (GPa) = 26.60160 60.54804 76.98241
#
# Poissons Ratio (x) = 0.51806 0.47355
# Poissons Ratio (y) = 0.22761 0.53021
# Poissons Ratio (z) = 0.16364 0.41702
#
# Static dielectric constant tensor:
#      x y z
#    x 1.524800 0.000000 0.000000 
#    y 0.000000 1.535830 0.000000 
#    z 0.000000 0.000000 1.498280 
# 
# From -- ./inp_files/22565.got.cif
#   From: 2010.05.17/outbox.cif.g08.bks.cpg/sg51_12_cif.got.tgz:22565.got - 2010.06.03 11:52:47.
