data_PCOD9400872
_publ_section_title
;
Structure prediction by ZEFSAII (Michael W. Deem and Ramdas Pophale) SiO2 
 PCOD9400872
Probable space group: P M M A
;
_chemical_formula_sum "Si O2"
_cell_formula_units_Z 40
_cell_length_a 28.553973
_cell_length_b 7.553861
_cell_length_c 7.308024
_cell_angle_alpha 90.000000
_cell_angle_beta 90.000000
_cell_angle_gamma 90.000000
_cell_volume 1576.287743
_symmetry_space_group_name_H-M "P M M A"
_symmetry_group_IT_number 51
_symmetry_cell_setting 'orthorhombic'
loop_
_space_group_symop_operation_xyz
x,y,z
1/2-x,-y,z
1/2+x,-y,-z
-x,y,-z
-x,-y,-z
1/2+x,y,-z
1/2-x,y,z
x,-y,z
loop_
_atom_site_type_symbol
_atom_site_label
_atom_site_fract_x
_atom_site_fract_y
_atom_site_fract_z
Si Si1 0.304713 0.710908 0.564680
Si Si2 0.376450 0.247323 0.278334
Si Si3 0.944473 0.712681 0.022598
Si Si4 0.453064 0.300704 0.581138
Si Si5 0.804441 0.788340 0.010440
O O1 0.250000 0.751978 0.533668
O O2 0.338253 0.814973 0.428108
O O3 0.433500 0.772806 0.770802
O O4 0.314524 0.746741 0.777792
O O5 0.312165 0.500000 0.530814
O O6 0.414689 0.185733 0.128471
O O7 0.414144 0.316427 0.426643
O O8 0.338479 0.311343 0.127660
O O9 0.934386 0.500000 0.994285
O O10 0.000000 0.736583 0.000000
O O11 0.500000 0.214265 0.500000
O O12 0.468089 0.500000 0.638016
O O13 0.750000 0.744100 0.977991
O O14 0.810615 0.000000 0.980357
#
# Coordination Sequence:
#
# PCOD9400872 Si02
#       5
#     8   8   8   8   8
#     4  10  22  39  61  94 130 161 201 260 327 385
#     4  12  21  34  60  91 125 161 207 258 315 370
#     4  10  19  32  52  84 127 170 208 251 305 368
#     4  10  19  31  49  82 126 169 210 252 304 368
#     4  10  24  46  68  91 123 167 218 264 313 384
#
# _framework density 25.376076000000001
#
# number of rings (size 3 to 8) (size 9 to 14) (size 15 to 20)
#    0.000    1.600    2.000    3.600    0.000    4.800 
#    0.000    4.000    0.000    1.200    0.000    0.000 
#    0.000    0.000    0.000    0.000    0.000    0.000 
#
# Total GULP energy -222780.454825 kJ/mol
# GULP energy per Si atom -5569.511371 kJ/mol
# Density = 2.531832 g / cm^3
# Si number density = 25.376076 Si / 1000 Ang^3
#
#
#
# Elastic Constant Matrix: (Units=GPa)
#
#
# Indices 1 2 3 4 5 6 
#
# 1 197.0788 36.8882 106.4509 0.0000 0.0000 0.0000
# 2 36.8882 105.5915 34.5304 0.0000 0.0000 0.0000
# 3 106.4509 34.5304 234.1145 0.0000 0.0000 0.0000
# 4 0.0000 0.0000 0.0000 -49.7698 0.0000 0.0000
# 5 0.0000 0.0000 0.0000 0.0000 77.9141 0.0000
# 6 0.0000 0.0000 0.0000 0.0000 0.0000 -40.2145
#
#
#
# Elastic Compliance Matrix: (Units=1/GPa)
#
#
# Indices 1 2 3 4 5 6 
#
# 1 0.006934 -0.001462 -0.002937 0.000000 0.000000 0.000000
# 2 -0.001462 0.010259 -0.000848 0.000000 0.000000 0.000000
# 3 -0.002937 -0.000848 0.005732 0.000000 0.000000 0.000000
# 4 0.000000 0.000000 0.000000 -0.020093 0.000000 0.000000
# 5 0.000000 0.000000 0.000000 0.000000 0.012835 0.000000
# 6 0.000000 0.000000 0.000000 0.000000 0.000000 -0.024867
#
#
# Mechanical properties :
#
#
# Convention : Reuss Voigt Hill
#
# Bulk Modulus (GPa) = 80.45187 99.16929 89.81058
# Shear Modulus (GPa) = 919.25133 21.51367 470.38250
#
# Velocity S-wave (km/s) = 19.05355 2.91485 13.62964
# Velocity P-wave (km/s) = 22.71173 7.10585 16.82730
#
# Compressibility (1/GPa) = 0.01242979
#
# Stress axis : x y z
#
# Youngs Moduli (GPa) = 144.20923 97.47911 174.45418
#
# Poissons Ratio (x) = 0.14251 0.51244
# Poissons Ratio (y) = 0.21082 0.14800
# Poissons Ratio (z) = 0.42360 0.08270
#
# Static dielectric constant tensor:
#      x y z
#    x 1.931670 0.000000 0.000000 
#    y 0.000000 2.230830 0.000000 
#    z 0.000000 0.000000 1.952680 
# 
# From -- ./inp_files/10637.got.cif
#   From: 2010.05.17/outbox.cif.g08.bks.cpg/sg51_6_cif.got.tgz:10637.got - 2010.06.03 11:52:47.
