data_PCOD9400106
_publ_section_title
;
Structure prediction by ZEFSAII (Michael W. Deem and Ramdas Pophale) SiO2 
 PCOD9400106
Probable space group: P M M A
;
_chemical_formula_sum "Si O2"
_cell_formula_units_Z 64
_cell_length_a 17.959460
_cell_length_b 9.288296
_cell_length_c 22.343863
_cell_angle_alpha 90.000000
_cell_angle_beta 90.000000
_cell_angle_gamma 90.000000
_cell_volume 3727.241914
_symmetry_space_group_name_H-M "P M M A"
_symmetry_group_IT_number 51
_symmetry_cell_setting 'orthorhombic'
loop_
_space_group_symop_operation_xyz
x,y,z
1/2-x,-y,z
1/2+x,-y,-z
-x,y,-z
-x,-y,-z
1/2+x,y,-z
1/2-x,y,z
x,-y,z
loop_
_atom_site_type_symbol
_atom_site_label
_atom_site_fract_x
_atom_site_fract_y
_atom_site_fract_z
Si Si1 0.836260 0.326573 0.231375
Si Si2 0.659761 0.667710 0.860724
Si Si3 0.334758 0.329649 0.374540
Si Si4 0.840827 0.165298 0.980593
Si Si5 0.550989 0.832939 0.314323
Si Si6 0.387729 0.831317 0.257819
Si Si7 0.469469 0.172311 0.434078
Si Si8 0.659203 0.333626 0.098095
O O1 0.750000 0.282817 0.238251
O O2 0.838600 0.500000 0.232370
O O3 0.887195 0.261588 0.282531
O O4 0.862934 0.283080 0.164511
O O5 0.750000 0.674445 0.857310
O O6 0.638279 0.500000 0.858542
O O7 0.636893 0.740679 0.923279
O O8 0.627723 0.755205 0.804891
O O9 0.250000 0.310833 0.395352
O O10 0.349329 0.500000 0.367715
O O11 0.344467 0.251565 0.310550
O O12 0.394636 0.257577 0.418310
O O13 0.750000 0.165977 0.981535
O O14 0.864824 0.000000 0.975041
O O15 0.865746 0.236472 0.042885
O O16 0.474193 0.822154 0.276915
O O17 0.528722 0.790722 0.381935
O O18 0.574115 0.000000 0.314642
O O19 0.366838 0.000000 0.256005
O O20 0.500000 0.201654 0.500000
O O21 0.455400 0.000000 0.428427
O O22 0.750000 0.333684 0.098517
O O23 0.636356 0.500000 0.089469
#
# Coordination Sequence:
#
# PCOD9400106 Si02
#       8
#     8   8   8   8   8   8   8   8
#     4   9  18  32  51  75 100 127 160 198 243 296
#     4  10  19  29  43  66  96 129 165 205 249 295
#     4  10  20  33  51  78 108 135 169 211 251 294
#     4   9  16  25  39  62  91 123 160 200 244 293
#     4   9  19  34  52  75  99 125 159 199 243 290
#     4  10  20  33  49  70  98 132 169 207 248 295
#     4   9  19  37  58  78 103 137 175 209 244 293
#     4   8  14  26  43  63  89 120 155 196 240 287
#
# _framework density 17.170873
#
# number of rings (size 3 to 8) (size 9 to 14) (size 15 to 20)
#    0.000    2.750    0.000    3.375    0.000    8.250 
#    0.000    1.875    0.000    4.500    0.000    5.250 
#    0.000    0.000    0.000    0.000    0.000    0.000 
#
# Total GULP energy -356841.665940 kJ/mol
# GULP energy per Si atom -5575.651030 kJ/mol
# Density = 1.713179 g / cm^3
# Si number density = 17.170873 Si / 1000 Ang^3
#
#
#
# Elastic Constant Matrix: (Units=GPa)
#
#
# Indices 1 2 3 4 5 6 
#
# 1 42.5055 45.1106 58.3193 0.0000 0.0000 0.0000
# 2 45.1106 101.0682 83.5066 0.0000 0.0000 0.0000
# 3 58.3193 83.5066 159.4910 0.0000 0.0000 0.0000
# 4 0.0000 0.0000 0.0000 29.8984 0.0000 0.0000
# 5 0.0000 0.0000 0.0000 0.0000 14.6646 0.0000
# 6 0.0000 0.0000 0.0000 0.0000 0.0000 23.4003
#
#
#
# Elastic Compliance Matrix: (Units=1/GPa)
#
#
# Indices 1 2 3 4 5 6 
#
# 1 0.057222 -0.014544 -0.013309 0.000000 0.000000 0.000000
# 2 -0.014544 0.021135 -0.005748 0.000000 0.000000 0.000000
# 3 -0.013309 -0.005748 0.014146 0.000000 0.000000 0.000000
# 4 0.000000 0.000000 0.000000 0.033447 0.000000 0.000000
# 5 0.000000 0.000000 0.000000 0.000000 0.068191 0.000000
# 6 0.000000 0.000000 0.000000 0.000000 0.000000 0.042734
#
#
# Mechanical properties :
#
#
# Convention : Reuss Voigt Hill
#
# Bulk Modulus (GPa) = 39.52315 75.21529 57.36922
# Shear Modulus (GPa) = 15.99949 21.33455 18.66702
#
# Velocity S-wave (km/s) = 3.05582 3.52871 3.30075
# Velocity P-wave (km/s) = 5.95972 7.77827 6.92892
#
# Compressibility (1/GPa) = 0.02530163
#
# Stress axis : x y z
#
# Youngs Moduli (GPa) = 17.47577 47.31513 70.69291
#
# Poissons Ratio (x) = 0.68817 0.94082
# Poissons Ratio (y) = 0.25417 0.40631
# Poissons Ratio (z) = 0.23258 0.27195
#
# Static dielectric constant tensor:
#      x y z
#    x 1.574340 0.000000 0.000000 
#    y 0.000000 1.574640 0.000000 
#    z 0.000000 0.000000 1.569160 
# 
# From -- ./inp_files/33796.got.cif
#   From: 2010.05.17/outbox.cif.g08.bks.cpg/sg51_17_cif.got.tgz:33796.got - 2010.06.03 11:52:47.
