data_PCOD9400624
_publ_section_title
;
Structure prediction by ZEFSAII (Michael W. Deem and Ramdas Pophale) SiO2 
 PCOD9400624
Probable space group: P M M A
;
_chemical_formula_sum "Si O2"
_cell_formula_units_Z 64
_cell_length_a 22.121740
_cell_length_b 7.489377
_cell_length_c 17.383640
_cell_angle_alpha 90.000000
_cell_angle_beta 90.000000
_cell_angle_gamma 90.000000
_cell_volume 2880.087590
_symmetry_space_group_name_H-M "P M M A"
_symmetry_group_IT_number 51
_symmetry_cell_setting 'orthorhombic'
loop_
_space_group_symop_operation_xyz
x,y,z
1/2-x,-y,z
1/2+x,-y,-z
-x,y,-z
-x,-y,-z
1/2+x,y,-z
1/2-x,y,z
x,-y,z
loop_
_atom_site_type_symbol
_atom_site_label
_atom_site_fract_x
_atom_site_fract_y
_atom_site_fract_z
Si Si1 0.379207 0.217681 0.734869
Si Si2 0.005756 0.209529 0.330569
Si Si3 0.317287 0.782532 0.582127
Si Si4 0.888347 0.710304 0.788144
Si Si5 0.582227 0.797972 0.532339
Si Si6 0.818492 0.213150 0.937871
Si Si7 0.684131 0.715908 0.648598
Si Si8 0.319821 0.217510 0.889422
O O1 0.443257 0.282622 0.702158
O O2 0.328763 0.260150 0.671252
O O3 0.361588 0.280203 0.819713
O O4 0.382693 0.000000 0.737888
O O5 0.054778 0.220340 0.261246
O O6 0.028464 0.282992 0.414229
O O7 0.997531 0.000000 0.346012
O O8 0.250000 0.721417 0.557614
O O9 0.376901 0.716405 0.535893
O O10 0.317797 0.000000 0.574112
O O11 0.896090 0.500000 0.783917
O O12 0.869997 0.752599 0.874848
O O13 0.830197 0.760228 0.736600
O O14 0.633754 0.804813 0.597704
O O15 0.566223 0.000000 0.508865
O O16 0.750000 0.279680 0.918154
O O17 0.813598 0.000000 0.942715
O O18 0.834439 0.277785 0.023877
O O19 0.750000 0.774162 0.625505
O O20 0.679627 0.500000 0.639822
O O21 0.250000 0.265167 0.874163
O O22 0.322560 0.000000 0.889333
#
# Coordination Sequence:
#
# PCOD9400624 Si02
#       8
#     8   8   8   8   8   8   8   8
#     4   9  16  27  45  67  91 121 157 196 235 276
#     4   9  18  31  46  66  93 126 162 195 229 272
#     4   9  16  25  41  68  97 121 149 190 239 285
#     4  10  19  31  47  66  91 124 160 194 228 274
#     4   9  17  28  42  64  95 125 151 183 225 273
#     4   9  17  29  47  72  98 120 146 187 238 286
#     4   9  17  28  42  61  86 117 152 187 222 263
#     4   8  14  26  45  69  95 120 148 188 239 287
#
# _framework density 22.221544999999999
#
# number of rings (size 3 to 8) (size 9 to 14) (size 15 to 20)
#    0.000    3.000    0.000    2.250    0.000    4.000 
#    0.000    3.125    0.000    5.250    0.000    3.500 
#    0.000    3.000    0.000    0.000    0.000    0.000 
#
# Total GULP energy -356685.518420 kJ/mol
# GULP energy per Si atom -5573.211225 kJ/mol
# Density = 2.217097 g / cm^3
# Si number density = 22.221545 Si / 1000 Ang^3
#
#
#
# Elastic Constant Matrix: (Units=GPa)
#
#
# Indices 1 2 3 4 5 6 
#
# 1 103.3754 3.6905 57.3459 0.0000 0.0000 0.0000
# 2 3.6905 56.8126 1.9060 0.0000 0.0000 0.0000
# 3 57.3459 1.9060 156.7804 0.0000 0.0000 0.0000
# 4 0.0000 0.0000 0.0000 41.7024 0.0000 0.0000
# 5 0.0000 0.0000 0.0000 0.0000 34.9502 0.0000
# 6 0.0000 0.0000 0.0000 0.0000 0.0000 -38.8637
#
#
#
# Elastic Compliance Matrix: (Units=1/GPa)
#
#
# Indices 1 2 3 4 5 6 
#
# 1 0.012159 -0.000641 -0.004440 0.000000 0.000000 0.000000
# 2 -0.000641 0.017643 0.000020 0.000000 0.000000 0.000000
# 3 -0.004440 0.000020 0.008002 0.000000 0.000000 0.000000
# 4 0.000000 0.000000 0.000000 0.023979 0.000000 0.000000
# 5 0.000000 0.000000 0.000000 0.000000 0.028612 0.000000
# 6 0.000000 0.000000 0.000000 0.000000 0.000000 -0.025731
#
#
# Mechanical properties :
#
#
# Convention : Reuss Voigt Hill
#
# Bulk Modulus (GPa) = 36.12378 49.20591 42.66485
# Shear Modulus (GPa) = 59.51427 24.49285 42.00356
#
# Velocity S-wave (km/s) = 5.18077 3.32356 4.35238
# Velocity P-wave (km/s) = 7.21655 6.07614 6.67076
#
# Compressibility (1/GPa) = 0.02768260
#
# Stress axis : x y z
#
# Youngs Moduli (GPa) = 82.24208 56.68064 124.96830
#
# Poissons Ratio (x) = 0.03633 0.55482
# Poissons Ratio (y) = 0.05271 -0.00249
# Poissons Ratio (z) = 0.36513 -0.00113
#
# Static dielectric constant tensor:
#      x y z
#    x 1.857470 0.000000 0.000000 
#    y 0.000000 1.808560 0.000000 
#    z 0.000000 0.000000 1.845650 
# 
# From -- ./inp_files/26341.got.cif
#   From: 2010.05.17/outbox.cif.g08.bks.cpg/sg51_14_cif.got.tgz:26341.got - 2010.06.03 11:52:47.
