data_PCOD9400666
_publ_section_title
;
Structure prediction by ZEFSAII (Michael W. Deem and Ramdas Pophale) SiO2 
 PCOD9400666
Probable space group: P M M A
;
_chemical_formula_sum "Si O2"
_cell_formula_units_Z 64
_cell_length_a 8.606164
_cell_length_b 21.142022
_cell_length_c 18.121148
_cell_angle_alpha 90.000000
_cell_angle_beta 90.000000
_cell_angle_gamma 90.000000
_cell_volume 3297.173841
_symmetry_space_group_name_H-M "P M M A"
_symmetry_group_IT_number 51
_symmetry_cell_setting 'orthorhombic'
loop_
_space_group_symop_operation_xyz
x,y,z
1/2-x,-y,z
1/2+x,-y,-z
-x,y,-z
-x,-y,-z
1/2+x,y,-z
1/2-x,y,z
x,-y,z
loop_
_atom_site_type_symbol
_atom_site_label
_atom_site_fract_x
_atom_site_fract_y
_atom_site_fract_z
Si Si1 0.569711 0.357383 0.071598
Si Si2 0.436270 0.202570 0.286882
Si Si3 0.425389 0.425629 0.204124
Si Si4 0.562221 0.930724 0.242861
Si Si5 0.932063 0.096521 0.077323
Si Si6 0.438436 0.708317 0.422182
Si Si7 0.438308 0.429429 0.376582
Si Si8 0.566951 0.772609 0.881560
O O1 0.750000 0.344470 0.061091
O O2 0.539878 0.394803 0.146580
O O3 0.474453 0.292872 0.081163
O O4 0.500000 0.391853 0.000000
O O5 0.250000 0.199022 0.291919
O O6 0.500462 0.130977 0.284885
O O7 0.489755 0.248115 0.353175
O O8 0.472829 0.230731 0.205798
O O9 0.250000 0.398305 0.195510
O O10 0.416758 0.500000 0.189070
O O11 0.470232 0.419879 0.289596
O O12 0.750000 0.926800 0.241842
O O13 0.507824 0.927702 0.156871
O O14 0.518088 0.000000 0.272724
O O15 0.750000 0.083990 0.075690
O O16 0.968118 0.171068 0.083450
O O17 0.000000 0.073136 0.000000
O O18 0.500000 0.733334 0.500000
O O19 0.250000 0.707534 0.421857
O O20 0.493599 0.635142 0.414228
O O21 0.250000 0.431404 0.383704
O O22 0.495657 0.500000 0.399068
O O23 0.750000 0.787313 0.888580
#
# Coordination Sequence:
#
# PCOD9400666 Si02
#       8
#     8   8   8   8   8   8   8   8
#     4  12  24  35  48  68  96 129 167 214 266 314
#     4   9  19  35  56  79 104 137 175 217 260 309
#     4   9  18  35  57  75  92 122 166 212 258 308
#     4   9  19  35  54  77 105 137 175 221 270 316
#     4  10  19  31  47  71 105 140 173 210 256 307
#     4  10  20  34  53  81 114 143 173 208 250 302
#     4   8  15  31  56  81 106 140 177 210 248 300
#     4  10  19  34  54  73  95 127 171 216 259 307
#
# _framework density 19.410563
#
# number of rings (size 3 to 8) (size 9 to 14) (size 15 to 20)
#    0.000    2.375    0.000    3.750    0.000    4.750 
#    0.000    1.875    0.000    1.125    0.000    0.000 
#    0.000    0.000    0.000    0.000    0.000    0.000 
#
# Total GULP energy -357024.872160 kJ/mol
# GULP energy per Si atom -5578.513627 kJ/mol
# Density = 1.936638 g / cm^3
# Si number density = 19.410563 Si / 1000 Ang^3
#
#
#
# Elastic Constant Matrix: (Units=GPa)
#
#
# Indices 1 2 3 4 5 6 
#
# 1 16.5415 9.3112 15.2759 0.0000 0.0000 0.0000
# 2 9.3112 83.7252 55.3575 0.0000 0.0000 0.0000
# 3 15.2759 55.3575 87.1016 0.0000 0.0000 0.0000
# 4 0.0000 0.0000 0.0000 -68.6893 0.0000 0.0000
# 5 0.0000 0.0000 0.0000 0.0000 24.4310 0.0000
# 6 0.0000 0.0000 0.0000 0.0000 0.0000 12.2560
#
#
#
# Elastic Compliance Matrix: (Units=1/GPa)
#
#
# Indices 1 2 3 4 5 6 
#
# 1 0.072154 0.000591 -0.013030 0.000000 0.000000 0.000000
# 2 0.000591 0.020605 -0.013199 0.000000 0.000000 0.000000
# 3 -0.013030 -0.013199 0.022155 0.000000 0.000000 0.000000
# 4 0.000000 0.000000 0.000000 -0.014558 0.000000 0.000000
# 5 0.000000 0.000000 0.000000 0.000000 0.040932 0.000000
# 6 0.000000 0.000000 0.000000 0.000000 0.000000 0.081593
#
#
# Mechanical properties :
#
#
# Convention : Reuss Voigt Hill
#
# Bulk Modulus (GPa) = 15.71400 38.58417 27.14908
# Shear Modulus (GPa) = 16.92792 0.76111 8.84451
#
# Velocity S-wave (km/s) = 2.95633 0.62687 2.13692
# Velocity P-wave (km/s) = 4.44594 4.52162 4.48394
#
# Compressibility (1/GPa) = 0.06363753
#
# Stress axis : x y z
#
# Youngs Moduli (GPa) = 13.85918 48.53125 45.13680
#
# Poissons Ratio (x) = -0.02867 0.58813
# Poissons Ratio (y) = -0.00819 0.59577
# Poissons Ratio (z) = 0.18058 0.64058
#
# Static dielectric constant tensor:
#      x y z
#    x 1.677630 0.000000 0.000000 
#    y 0.000000 1.703980 0.000000 
#    z 0.000000 0.000000 1.688110 
# 
# From -- ./inp_files/28465.got.cif
#   From: 2010.05.17/outbox.cif.g08.bks.cpg/sg51_15_cif.got.tgz:28465.got - 2010.06.03 11:52:47.
