data_PCOD9400998
_publ_section_title
;
Structure prediction by ZEFSAII (Michael W. Deem and Ramdas Pophale) SiO2 
 PCOD9400998
Probable space group: P M M A
;
_chemical_formula_sum "Si O2"
_cell_formula_units_Z 64
_cell_length_a 19.188823
_cell_length_b 9.001403
_cell_length_c 22.529578
_cell_angle_alpha 90.000000
_cell_angle_beta 90.000000
_cell_angle_gamma 90.000000
_cell_volume 3891.451300
_symmetry_space_group_name_H-M "P M M A"
_symmetry_group_IT_number 51
_symmetry_cell_setting 'orthorhombic'
loop_
_space_group_symop_operation_xyz
x,y,z
1/2-x,-y,z
1/2+x,-y,-z
-x,y,-z
-x,-y,-z
1/2+x,y,-z
1/2-x,y,z
x,-y,z
loop_
_atom_site_type_symbol
_atom_site_label
_atom_site_fract_x
_atom_site_fract_y
_atom_site_fract_z
Si Si1 0.983036 0.324867 0.434208
Si Si2 0.051189 0.673925 0.317451
Si Si3 0.169857 0.678793 0.227578
Si Si4 0.911795 0.822456 0.880757
Si Si5 0.168799 0.323433 0.770318
Si Si6 0.584442 0.329331 0.003986
Si Si7 0.087600 0.175745 0.669876
Si Si8 0.923907 0.822228 0.127381
O O1 0.965069 0.500000 0.437710
O O2 0.924098 0.238724 0.396715
O O3 0.000000 0.270833 0.500000
O O4 0.048945 0.312180 0.389050
O O5 0.035429 0.500000 0.304365
O O6 0.121404 0.714406 0.284207
O O7 0.985402 0.774054 0.298706
O O8 0.250000 0.722736 0.235501
O O9 0.167538 0.500000 0.219682
O O10 0.135387 0.755732 0.170923
O O11 0.993406 0.786205 0.867973
O O12 0.905871 0.000000 0.883595
O O13 0.891910 0.751804 0.944120
O O14 0.156969 0.500000 0.769253
O O15 0.147585 0.254528 0.706987
O O16 0.120178 0.249437 0.819959
O O17 0.608303 0.500000 0.006340
O O18 0.601525 0.242742 0.064270
O O19 0.500000 0.330384 0.000000
O O20 0.250000 0.295524 0.783014
O O21 0.094836 0.000000 0.670255
O O22 0.917161 0.000000 0.128270
#
# Coordination Sequence:
#
# PCOD9400998 Si02
#       8
#     8   8   8   8   8   8   8   8
#     4   8  15  30  53  79 106 135 168 207 249 293
#     4   8  16  31  50  73 100 132 168 207 250 296
#     4  10  20  33  49  70  98 132 170 211 253 297
#     4  10  20  33  51  75 102 130 164 207 255 306
#     4  11  23  37  52  72 101 137 175 212 252 302
#     4   9  17  31  52  76  99 128 165 206 252 301
#     4  10  19  31  51  78 105 132 167 208 253 299
#     4  10  20  34  54  78 103 129 163 208 258 307
#
# _framework density 16.446306
#
# number of rings (size 3 to 8) (size 9 to 14) (size 15 to 20)
#    0.750    1.750    0.000    3.000    0.000    7.000 
#    0.000    0.625    0.000    4.500    0.000    3.500 
#    0.000    0.000    0.000    0.000    0.000    0.000 
#
# Total GULP energy -356390.640443 kJ/mol
# GULP energy per Si atom -5568.603757 kJ/mol
# Density = 1.640887 g / cm^3
# Si number density = 16.446306 Si / 1000 Ang^3
#
#
#
# Elastic Constant Matrix: (Units=GPa)
#
#
# Indices 1 2 3 4 5 6 
#
# 1 45.8039 30.2031 23.1064 0.0000 0.0000 0.0000
# 2 30.2031 59.5482 30.6528 0.0000 0.0000 0.0000
# 3 23.1064 30.6528 90.8241 0.0000 0.0000 0.0000
# 4 0.0000 0.0000 0.0000 15.0844 0.0000 0.0000
# 5 0.0000 0.0000 0.0000 0.0000 3.9746 0.0000
# 6 0.0000 0.0000 0.0000 0.0000 0.0000 14.1094
#
#
#
# Elastic Compliance Matrix: (Units=1/GPa)
#
#
# Indices 1 2 3 4 5 6 
#
# 1 0.033644 -0.015320 -0.003389 0.000000 0.000000 0.000000
# 2 -0.015320 0.027300 -0.005316 0.000000 0.000000 0.000000
# 3 -0.003389 -0.005316 0.013667 0.000000 0.000000 0.000000
# 4 0.000000 0.000000 0.000000 0.066294 0.000000 0.000000
# 5 0.000000 0.000000 0.000000 0.000000 0.251596 0.000000
# 6 0.000000 0.000000 0.000000 0.000000 0.000000 0.070875
#
#
# Mechanical properties :
#
#
# Convention : Reuss Voigt Hill
#
# Bulk Modulus (GPa) = 37.64970 40.45564 39.05267
# Shear Modulus (GPa) = 9.61026 14.11462 11.86244
#
# Velocity S-wave (km/s) = 2.41994 2.93273 2.68858
# Velocity P-wave (km/s) = 5.54530 6.00998 5.78231
#
# Compressibility (1/GPa) = 0.02656063
#
# Stress axis : x y z
#
# Youngs Moduli (GPa) = 29.72336 36.63028 73.17093
#
# Poissons Ratio (x) = 0.56116 0.24797
# Poissons Ratio (y) = 0.45535 0.38899
# Poissons Ratio (z) = 0.10073 0.19473
#
# Static dielectric constant tensor:
#      x y z
#    x 1.540590 0.000000 0.000000 
#    y 0.000000 1.549120 0.000000 
#    z 0.000000 0.000000 1.555310 
# 
# From -- ./inp_files/33834.got.cif
#   From: 2010.05.17/outbox.cif.g08.bks.cpg/sg51_17_cif.got.tgz:33834.got - 2010.06.03 11:52:47.
