data_PCOD9400622
_publ_section_title
;
Structure prediction by ZEFSAII (Michael W. Deem and Ramdas Pophale) SiO2 
 PCOD9400622
Probable space group: P M M A
;
_chemical_formula_sum "Si O2"
_cell_formula_units_Z 44
_cell_length_a 7.651743
_cell_length_b 16.093670
_cell_length_c 17.936280
_cell_angle_alpha 90.000000
_cell_angle_beta 90.000000
_cell_angle_gamma 90.000000
_cell_volume 2208.756506
_symmetry_space_group_name_H-M "P M M A"
_symmetry_group_IT_number 51
_symmetry_cell_setting 'orthorhombic'
loop_
_space_group_symop_operation_xyz
x,y,z
1/2-x,-y,z
1/2+x,-y,-z
-x,y,-z
-x,-y,-z
1/2+x,y,-z
1/2-x,y,z
x,-y,z
loop_
_atom_site_type_symbol
_atom_site_label
_atom_site_fract_x
_atom_site_fract_y
_atom_site_fract_z
Si Si1 0.457484 0.909158 0.745896
Si Si2 0.462525 0.675298 0.354853
Si Si3 0.454973 0.738087 0.807906
Si Si4 0.542587 0.847334 0.582636
Si Si5 0.960316 0.592487 0.087467
Si Si6 0.540605 0.500000 0.586488
O O1 0.250000 0.910706 0.760144
O O2 0.530060 0.830515 0.792395
O O3 0.476263 0.893007 0.656948
O O4 0.530861 0.000000 0.763836
O O5 0.250000 0.675094 0.353954
O O6 0.528289 0.695800 0.272736
O O7 0.518798 0.751488 0.407949
O O8 0.526896 0.585585 0.379500
O O9 0.250000 0.748695 0.826543
O O10 0.529601 0.671776 0.866745
O O11 0.500000 0.879292 0.500000
O O12 0.750000 0.848650 0.589226
O O13 0.750000 0.591455 0.096843
O O14 0.024286 0.500000 0.111242
O O15 0.000000 0.601097 0.000000
O O16 0.750000 0.500000 0.596890
O O17 0.500000 0.500000 0.500000
#
# Coordination Sequence:
#
# PCOD9400622 Si02
#       6
#     8   8   8   8   8   4
#     4   9  18  33  51  70  92 121 158 198 242 288
#     4   9  19  32  45  65  92 123 159 198 238 283
#     4   9  18  32  51  73  96 123 157 195 233 277
#     4  10  19  31  47  66  91 122 158 201 247 290
#     4   9  18  32  50  75 104 130 157 188 225 273
#     4  10  20  32  44  62  89 122 161 200 237 278
#
# _framework density 19.920711000000001
#
# number of rings (size 3 to 8) (size 9 to 14) (size 15 to 20)
#    0.000    2.727    0.000    1.091    1.273    2.909 
#    0.000    0.000    0.000    0.545    0.000    0.000 
#    0.000    0.000    0.000    0.000    0.000    0.000 
#
# Total GULP energy -245269.361816 kJ/mol
# GULP energy per Si atom -5574.303678 kJ/mol
# Density = 1.987537 g / cm^3
# Si number density = 19.920711 Si / 1000 Ang^3
#
#
#
# Elastic Constant Matrix: (Units=GPa)
#
#
# Indices 1 2 3 4 5 6 
#
# 1 38.7111 9.2598 -5.8065 0.0000 0.0000 0.0000
# 2 9.2598 196.3450 67.4009 0.0000 0.0000 0.0000
# 3 -5.8065 67.4009 71.4965 0.0000 0.0000 0.0000
# 4 0.0000 0.0000 0.0000 7.5895 0.0000 0.0000
# 5 0.0000 0.0000 0.0000 0.0000 19.0386 0.0000
# 6 0.0000 0.0000 0.0000 0.0000 0.0000 2.6152
#
#
#
# Elastic Compliance Matrix: (Units=1/GPa)
#
#
# Indices 1 2 3 4 5 6 
#
# 1 0.027319 -0.003031 0.005076 0.000000 0.000000 0.000000
# 2 -0.003031 0.007866 -0.007662 0.000000 0.000000 0.000000
# 3 0.005076 -0.007662 0.021622 0.000000 0.000000 0.000000
# 4 0.000000 0.000000 0.000000 0.131761 0.000000 0.000000
# 5 0.000000 0.000000 0.000000 0.000000 0.052525 0.000000
# 6 0.000000 0.000000 0.000000 0.000000 0.000000 0.382384
#
#
# Mechanical properties :
#
#
# Convention : Reuss Voigt Hill
#
# Bulk Modulus (GPa) = 21.94269 49.80678 35.87474
# Shear Modulus (GPa) = 7.69349 21.56190 14.62769
#
# Velocity S-wave (km/s) = 1.96734 3.29353 2.71273
# Velocity P-wave (km/s) = 4.02486 6.28649 5.27823
#
# Compressibility (1/GPa) = 0.04557326
#
# Stress axis : x y z
#
# Youngs Moduli (GPa) = 36.60499 127.12825 46.24995
#
# Poissons Ratio (x) = 0.38530 -0.23476
# Poissons Ratio (y) = 0.11094 0.35435
# Poissons Ratio (z) = -0.18580 0.97401
#
# Static dielectric constant tensor:
#      x y z
#    x 1.724490 0.000000 0.000000 
#    y 0.000000 1.769830 0.000000 
#    z 0.000000 0.000000 1.667030 
# 
# From -- ./inp_files/27374.got.cif
#   From: 2010.05.17/outbox.cif.g08.bks.cpg/sg51_14_cif.got.tgz:27374.got - 2010.06.03 11:52:47.
