data_PCOD9400254
_publ_section_title
;
Structure prediction by ZEFSAII (Michael W. Deem and Ramdas Pophale) SiO2 
 PCOD9400254
Probable space group: P M M A
;
_chemical_formula_sum "Si O2"
_cell_formula_units_Z 64
_cell_length_a 7.926234
_cell_length_b 29.665221
_cell_length_c 15.306958
_cell_angle_alpha 90.000000
_cell_angle_beta 90.000000
_cell_angle_gamma 90.000000
_cell_volume 3599.178353
_symmetry_space_group_name_H-M "P M M A"
_symmetry_group_IT_number 51
_symmetry_cell_setting 'orthorhombic'
loop_
_space_group_symop_operation_xyz
x,y,z
1/2-x,-y,z
1/2+x,-y,-z
-x,y,-z
-x,-y,-z
1/2+x,y,-z
1/2-x,y,z
x,-y,z
loop_
_atom_site_type_symbol
_atom_site_label
_atom_site_fract_x
_atom_site_fract_y
_atom_site_fract_z
Si Si1 0.950401 0.870546 0.401342
Si Si2 0.952859 0.090613 0.903657
Si Si3 0.453997 0.768347 0.599219
Si Si4 0.050497 0.727228 0.774850
Si Si5 0.954329 0.352459 0.102073
Si Si6 0.547985 0.194213 0.902097
Si Si7 0.046780 0.451651 0.897581
Si Si8 0.547298 0.950788 0.726262
O O1 0.750000 0.868008 0.395857
O O2 0.016906 0.819774 0.384505
O O3 0.000000 0.882548 0.500000
O O4 0.007721 0.909037 0.335799
O O5 0.750000 0.091976 0.899519
O O6 0.012675 0.142494 0.893129
O O7 0.015625 0.060871 0.823532
O O8 0.000000 0.074558 0.000000
O O9 0.500000 0.755836 0.500000
O O10 0.250000 0.769207 0.603893
O O11 0.517252 0.736516 0.677461
O O12 0.250000 0.718437 0.765680
O O13 0.980154 0.686603 0.833992
O O14 0.027656 0.772836 0.830400
O O15 0.750000 0.352093 0.104574
O O16 0.013231 0.402377 0.132377
O O17 0.000000 0.345374 0.000000
O O18 0.750000 0.194937 0.893887
O O19 0.500000 0.209391 0.000000
O O20 0.250000 0.451685 0.889819
O O21 0.985136 0.500000 0.860723
O O22 0.000000 0.452154 0.000000
O O23 0.750000 0.953237 0.730325
O O24 0.484285 0.000000 0.697006
#
# Coordination Sequence:
#
# PCOD9400254 Si02
#       8
#     8   8   8   8   8   8   8   8
#     4  10  20  35  55  75  93 114 141 173 212 259
#     4   9  19  34  50  68  90 117 149 183 215 248
#     4   9  19  34  51  70  90 113 142 178 217 259
#     4  10  19  30  44  64  91 118 144 178 221 263
#     4   9  17  27  39  58  87 120 150 182 218 255
#     4  10  19  30  45  65  89 118 150 180 211 251
#     4   8  13  22  36  53  75 108 149 186 217 250
#     4  10  21  36  52  71  95 119 143 175 215 256
#
# _framework density 17.781835999999998
#
# number of rings (size 3 to 8) (size 9 to 14) (size 15 to 20)
#    0.000    2.625    0.000    1.875    0.000    4.250 
#    0.000    0.000    0.000    0.000    0.000    0.000 
#    0.000    0.500    0.000    0.375    0.000    1.000 
#
# Total GULP energy -356726.625364 kJ/mol
# GULP energy per Si atom -5573.853521 kJ/mol
# Density = 1.774136 g / cm^3
# Si number density = 17.781836 Si / 1000 Ang^3
#
#
#
# Elastic Constant Matrix: (Units=GPa)
#
#
# Indices 1 2 3 4 5 6 
#
# 1 14.3265 15.6777 5.9594 0.0000 0.0000 0.0000
# 2 15.6777 81.3410 72.0377 0.0000 0.0000 0.0000
# 3 5.9594 72.0377 107.6996 0.0000 0.0000 0.0000
# 4 0.0000 0.0000 0.0000 16.6709 0.0000 0.0000
# 5 0.0000 0.0000 0.0000 0.0000 18.9894 0.0000
# 6 0.0000 0.0000 0.0000 0.0000 0.0000 10.9918
#
#
#
# Elastic Compliance Matrix: (Units=1/GPa)
#
#
# Indices 1 2 3 4 5 6 
#
# 1 0.101276 -0.035712 0.018283 0.000000 0.000000 0.000000
# 2 -0.035712 0.042752 -0.026620 0.000000 0.000000 0.000000
# 3 0.018283 -0.026620 0.026079 0.000000 0.000000 0.000000
# 4 0.000000 0.000000 0.000000 0.059985 0.000000 0.000000
# 5 0.000000 0.000000 0.000000 0.000000 0.052661 0.000000
# 6 0.000000 0.000000 0.000000 0.000000 0.000000 0.090977
#
#
# Mechanical properties :
#
#
# Convention : Reuss Voigt Hill
#
# Bulk Modulus (GPa) = 12.19374 43.41297 27.80336
# Shear Modulus (GPa) = 10.22151 16.64322 13.43236
#
# Velocity S-wave (km/s) = 2.40016 3.06268 2.75143
# Velocity P-wave (km/s) = 3.81488 6.08062 5.07579
#
# Compressibility (1/GPa) = 0.08200929
#
# Stress axis : x y z
#
# Youngs Moduli (GPa) = 9.87402 23.39045 38.34503
#
# Poissons Ratio (x) = 0.83531 -0.70105
# Poissons Ratio (y) = 0.35262 1.02075
# Poissons Ratio (z) = -0.18052 0.62266
#
# Static dielectric constant tensor:
#      x y z
#    x 1.640940 0.000000 0.000000 
#    y 0.000000 1.655990 0.000000 
#    z 0.000000 0.000000 1.602360 
# 
# From -- ./inp_files/22570.got.cif
#   From: 2010.05.17/outbox.cif.g08.bks.cpg/sg51_12_cif.got.tgz:22570.got - 2010.06.03 11:52:47.
