data_PCOD9400897
_publ_section_title
;
Structure prediction by ZEFSAII (Michael W. Deem and Ramdas Pophale) SiO2 
 PCOD9400897
Probable space group: P M M A
;
_chemical_formula_sum "Si O2"
_cell_formula_units_Z 56
_cell_length_a 15.036249
_cell_length_b 8.185162
_cell_length_c 21.509547
_cell_angle_alpha 90.000000
_cell_angle_beta 90.000000
_cell_angle_gamma 90.000000
_cell_volume 2647.268868
_symmetry_space_group_name_H-M "P M M A"
_symmetry_group_IT_number 51
_symmetry_cell_setting 'orthorhombic'
loop_
_space_group_symop_operation_xyz
x,y,z
1/2-x,-y,z
1/2+x,-y,-z
-x,y,-z
-x,-y,-z
1/2+x,y,-z
1/2-x,y,z
x,-y,z
loop_
_atom_site_type_symbol
_atom_site_label
_atom_site_fract_x
_atom_site_fract_y
_atom_site_fract_z
Si Si1 0.034513 0.804176 0.409372
Si Si2 0.429472 0.686434 0.893923
Si Si3 0.850657 0.190352 0.983487
Si Si4 0.892607 0.183124 0.851294
Si Si5 0.344857 0.304938 0.768001
Si Si6 0.961458 0.694014 0.726480
Si Si7 0.647151 0.800584 0.470575
O O1 0.932389 0.747544 0.423435
O O2 0.064800 0.754685 0.341140
O O3 0.103903 0.751190 0.462879
O O4 0.031629 0.000000 0.413445
O O5 0.462119 0.500000 0.884639
O O6 0.505111 0.810440 0.873311
O O7 0.352789 0.710164 0.842882
O O8 0.404934 0.714215 0.964892
O O9 0.750000 0.189922 0.006203
O O10 0.850391 0.259279 0.913362
O O11 0.880656 0.000000 0.980541
O O12 0.896399 0.259759 0.783205
O O13 0.857925 0.000000 0.845431
O O14 0.250000 0.235676 0.746303
O O15 0.343879 0.500000 0.755088
O O16 0.437952 0.240502 0.740657
O O17 0.967130 0.500000 0.725810
O O18 0.750000 0.745110 0.461458
O O19 0.650143 0.000000 0.468799
#
# Coordination Sequence:
#
# PCOD9400897 Si02
#       7
#     8   8   8   8   8   8   8
#     4   9  17  31  53  78 103 134 169 203 242 288
#     4  10  19  31  50  74  98 126 160 201 254 313
#     4  10  21  35  50  70  95 123 161 210 258 301
#     4  10  20  35  53  70  93 128 168 208 249 296
#     4   8  15  28  44  64  92 125 160 196 238 293
#     4  10  20  33  50  72 100 133 166 204 249 296
#     4   8  15  30  53  80 107 134 167 204 238 281
#
# _framework density 21.153876
#
# number of rings (size 3 to 8) (size 9 to 14) (size 15 to 20)
#    0.000    2.714    0.000    3.857    0.000    4.286 
#    0.000    2.143    0.000   13.714    0.000    0.000 
#    0.000    0.000    0.000    0.000    0.000    0.000 
#
# Total GULP energy -311818.574661 kJ/mol
# GULP energy per Si atom -5568.188833 kJ/mol
# Density = 2.110573 g / cm^3
# Si number density = 21.153876 Si / 1000 Ang^3
#
#
#
# Elastic Constant Matrix: (Units=GPa)
#
#
# Indices 1 2 3 4 5 6 
#
# 1 33.1392 5.2915 -14.1749 0.0000 0.0000 0.0000
# 2 5.2915 17.8055 5.4878 0.0000 0.0000 0.0000
# 3 -14.1749 5.4878 103.0687 0.0000 0.0000 0.0000
# 4 0.0000 0.0000 0.0000 48.4749 0.0000 0.0000
# 5 0.0000 0.0000 0.0000 0.0000 4.8333 0.0000
# 6 0.0000 0.0000 0.0000 0.0000 0.0000 6.9394
#
#
#
# Elastic Compliance Matrix: (Units=1/GPa)
#
#
# Indices 1 2 3 4 5 6 
#
# 1 0.034361 -0.011863 0.005357 0.000000 0.000000 0.000000
# 2 -0.011863 0.061195 -0.004890 0.000000 0.000000 0.000000
# 3 0.005357 -0.004890 0.010699 0.000000 0.000000 0.000000
# 4 0.000000 0.000000 0.000000 0.020629 0.000000 0.000000
# 5 0.000000 0.000000 0.000000 0.000000 0.206900 0.000000
# 6 0.000000 0.000000 0.000000 0.000000 0.000000 0.144105
#
#
# Mechanical properties :
#
#
# Convention : Reuss Voigt Hill
#
# Bulk Modulus (GPa) = 11.98102 16.35802 14.16952
# Shear Modulus (GPa) = 9.46070 22.54343 16.00206
#
# Velocity S-wave (km/s) = 2.11708 3.26803 2.75337
# Velocity P-wave (km/s) = 3.41351 4.68932 4.10133
#
# Compressibility (1/GPa) = 0.08346536
#
# Stress axis : x y z
#
# Youngs Moduli (GPa) = 29.10238 16.34118 93.46316
#
# Poissons Ratio (x) = 0.19385 -0.50071
# Poissons Ratio (y) = 0.34524 0.45701
# Poissons Ratio (z) = -0.15591 0.07990
#
# Static dielectric constant tensor:
#      x y z
#    x 1.805080 0.000000 0.000000 
#    y 0.000000 1.748900 0.000000 
#    z 0.000000 0.000000 1.783520 
# 
# From -- ./inp_files/33460.got.cif
#   From: 2010.05.17/outbox.cif.g08.bks.cpg/sg51_17_cif.got.tgz:33460.got - 2010.06.03 11:52:47.
