data_PCOD9400339
_publ_section_title
;
Structure prediction by ZEFSAII (Michael W. Deem and Ramdas Pophale) SiO2 
 PCOD9400339
Probable space group: P M M A
;
_chemical_formula_sum "Si O2"
_cell_formula_units_Z 56
_cell_length_a 8.314643
_cell_length_b 19.343893
_cell_length_c 19.769044
_cell_angle_alpha 90.000000
_cell_angle_beta 90.000000
_cell_angle_gamma 90.000000
_cell_volume 3179.604890
_symmetry_space_group_name_H-M "P M M A"
_symmetry_group_IT_number 51
_symmetry_cell_setting 'orthorhombic'
loop_
_space_group_symop_operation_xyz
x,y,z
1/2-x,-y,z
1/2+x,-y,-z
-x,y,-z
-x,-y,-z
1/2+x,y,-z
1/2-x,y,z
x,-y,z
loop_
_atom_site_type_symbol
_atom_site_label
_atom_site_fract_x
_atom_site_fract_y
_atom_site_fract_z
Si Si1 0.443414 0.574269 0.077358
Si Si2 0.442774 0.077670 0.577115
Si Si3 0.944010 0.718193 0.217765
Si Si4 0.064949 0.722878 0.923760
Si Si5 0.442002 0.649644 0.574048
Si Si6 0.946303 0.422029 0.287066
Si Si7 0.059918 0.784884 0.354009
O O1 0.250000 0.586566 0.080088
O O2 0.478263 0.500000 0.110888
O O3 0.542765 0.641810 0.095677
O O4 0.500000 0.566921 0.000000
O O5 0.500000 0.087144 0.500000
O O6 0.250000 0.080980 0.578533
O O7 0.511270 0.139476 0.621478
O O8 0.492735 0.000000 0.598306
O O9 0.750000 0.713705 0.211958
O O10 0.006440 0.751143 0.146952
O O11 0.004000 0.640780 0.238948
O O12 0.983627 0.764855 0.282193
O O13 0.250000 0.742316 0.928611
O O14 0.000000 0.733096 0.000000
O O15 0.500000 0.628414 0.500000
O O16 0.250000 0.651057 0.574117
O O17 0.492219 0.600380 0.636461
O O18 0.502331 0.726414 0.592926
O O19 0.750000 0.422100 0.283815
O O20 0.001521 0.500000 0.272178
O O21 0.250000 0.779591 0.348256
#
# Coordination Sequence:
#
# PCOD9400339 Si02
#       7
#     8   8   8   8   8   8   8
#     4   9  16  25  37  54  78 107 139 178 226 282
#     4  10  20  34  53  78 109 141 170 200 232 268
#     4   9  19  34  50  68  91 122 160 199 242 295
#     4  10  19  30  46  66  88 115 148 192 242 291
#     4  10  19  31  47  67  92 121 159 203 245 292
#     4   8  15  29  47  64  83 112 153 201 249 293
#     4  11  21  33  51  72  98 131 164 199 237 280
#
# _framework density 17.61225
#
# number of rings (size 3 to 8) (size 9 to 14) (size 15 to 20)
#    0.000    2.429    0.000    5.143    0.000    3.714 
#    0.000    1.429    0.000   10.286    0.000    0.000 
#    0.000    0.571    0.000    1.857    0.000    2.286 
#
# Total GULP energy -311858.924831 kJ/mol
# GULP energy per Si atom -5568.909372 kJ/mol
# Density = 1.757216 g / cm^3
# Si number density = 17.612250 Si / 1000 Ang^3
#
#
#
# Elastic Constant Matrix: (Units=GPa)
#
#
# Indices 1 2 3 4 5 6 
#
# 1 28.7560 4.1074 13.9255 0.0000 0.0000 0.0000
# 2 4.1074 71.2402 33.8942 0.0000 0.0000 0.0000
# 3 13.9255 33.8942 140.6446 0.0000 0.0000 0.0000
# 4 0.0000 0.0000 0.0000 15.5642 0.0000 0.0000
# 5 0.0000 0.0000 0.0000 0.0000 14.9717 0.0000
# 6 0.0000 0.0000 0.0000 0.0000 0.0000 20.4347
#
#
#
# Elastic Compliance Matrix: (Units=1/GPa)
#
#
# Indices 1 2 3 4 5 6 
#
# 1 0.036539 -0.000435 -0.003513 0.000000 0.000000 0.000000
# 2 -0.000435 0.015860 -0.003779 0.000000 0.000000 0.000000
# 3 -0.003513 -0.003779 0.008369 0.000000 0.000000 0.000000
# 4 0.000000 0.000000 0.000000 0.064250 0.000000 0.000000
# 5 0.000000 0.000000 0.000000 0.000000 0.066793 0.000000
# 6 0.000000 0.000000 0.000000 0.000000 0.000000 0.048936
#
#
# Mechanical properties :
#
#
# Convention : Reuss Voigt Hill
#
# Bulk Modulus (GPa) = 22.06873 38.27721 30.17297
# Shear Modulus (GPa) = 18.42942 22.77503 20.60222
#
# Velocity S-wave (km/s) = 3.23832 3.59992 3.42390
# Velocity P-wave (km/s) = 5.15168 6.24978 5.72711
#
# Compressibility (1/GPa) = 0.04531298
#
# Stress axis : x y z
#
# Youngs Moduli (GPa) = 27.36824 63.05132 119.49354
#
# Poissons Ratio (x) = 0.02745 0.41976
# Poissons Ratio (y) = 0.01191 0.45157
# Poissons Ratio (z) = 0.09614 0.23827
#
# Static dielectric constant tensor:
#      x y z
#    x 1.592850 0.000000 0.000000 
#    y 0.000000 1.622170 0.000000 
#    z 0.000000 0.000000 1.841990 
# 
# From -- ./inp_files/32247.got.cif
#   From: 2010.05.17/outbox.cif.g08.bks.cpg/sg51_17_cif.got.tgz:32247.got - 2010.06.03 11:52:47.
