data_PCOD9400251
_publ_section_title
;
Structure prediction by ZEFSAII (Michael W. Deem and Ramdas Pophale) SiO2 
 PCOD9400251
Probable space group: P M M A
;
_chemical_formula_sum "Si O2"
_cell_formula_units_Z 64
_cell_length_a 8.647892
_cell_length_b 32.062842
_cell_length_c 14.758475
_cell_angle_alpha 90.000000
_cell_angle_beta 90.000000
_cell_angle_gamma 90.000000
_cell_volume 4092.170838
_symmetry_space_group_name_H-M "P M M A"
_symmetry_group_IT_number 51
_symmetry_cell_setting 'orthorhombic'
loop_
_space_group_symop_operation_xyz
x,y,z
1/2-x,-y,z
1/2+x,-y,-z
-x,y,-z
-x,-y,-z
1/2+x,y,-z
1/2-x,y,z
x,-y,z
loop_
_atom_site_type_symbol
_atom_site_label
_atom_site_fract_x
_atom_site_fract_y
_atom_site_fract_z
Si Si1 0.435464 0.867915 0.397780
Si Si2 0.935388 0.045492 0.397331
Si Si3 0.936716 0.452649 0.399946
Si Si4 0.562582 0.372975 0.287835
Si Si5 0.563528 0.212901 0.716570
Si Si6 0.565042 0.241845 0.097014
Si Si7 0.564195 0.294428 0.601448
Si Si8 0.063996 0.660957 0.903568
O O1 0.500000 0.863145 0.500000
O O2 0.250000 0.868989 0.403190
O O3 0.495041 0.912001 0.358317
O O4 0.483814 0.828740 0.336794
O O5 0.750000 0.048794 0.400308
O O6 0.000000 0.044621 0.500000
O O7 0.975516 0.000000 0.356508
O O8 0.750000 0.452109 0.403797
O O9 0.985385 0.500000 0.376817
O O10 0.986315 0.417198 0.329609
O O11 0.000000 0.442901 0.500000
O O12 0.750000 0.371061 0.290272
O O13 0.498652 0.335563 0.349170
O O14 0.513355 0.364816 0.184334
O O15 0.750000 0.213112 0.721936
O O16 0.496474 0.216775 0.817014
O O17 0.516043 0.253691 0.658965
O O18 0.750000 0.240669 0.095077
O O19 0.515973 0.290534 0.108861
O O20 0.500000 0.227783 0.000000
O O21 0.500000 0.291843 0.500000
O O22 0.750000 0.295763 0.598695
O O23 0.250000 0.660220 0.907338
O O24 0.000000 0.646364 0.000000
#
# Coordination Sequence:
#
# PCOD9400251 Si02
#       8
#     8   8   8   8   8   8   8   8
#     4  10  19  30  44  63  90 125 162 197 233 276
#     4   9  16  26  41  61  85 115 154 198 239 278
#     4   9  18  32  50  70  93 121 151 187 229 273
#     4  10  19  33  50  70  94 118 154 192 228 275
#     4  10  21  34  46  65  93 125 159 193 229 274
#     4  10  19  32  51  70  91 119 153 193 235 276
#     4  11  22  33  46  65  93 126 158 190 226 267
#     4   9  18  31  48  70  92 117 148 187 229 273
#
# _framework density 15.639620000000001
#
# number of rings (size 3 to 8) (size 9 to 14) (size 15 to 20)
#    0.000    2.250    1.250    3.000    0.000    4.750 
#    0.000    0.000    0.000    0.375    0.000    0.000 
#    0.000    0.500    0.000    1.625    0.000    2.625 
#
# Total GULP energy -356878.387507 kJ/mol
# GULP energy per Si atom -5576.224805 kJ/mol
# Density = 1.560402 g / cm^3
# Si number density = 15.639620 Si / 1000 Ang^3
#
#
#
# Elastic Constant Matrix: (Units=GPa)
#
#
# Indices 1 2 3 4 5 6 
#
# 1 22.1781 29.0187 26.5669 0.0000 0.0000 0.0000
# 2 29.0187 126.8171 76.6201 0.0000 0.0000 0.0000
# 3 26.5669 76.6201 127.5538 0.0000 0.0000 0.0000
# 4 0.0000 0.0000 0.0000 7.6618 0.0000 0.0000
# 5 0.0000 0.0000 0.0000 0.0000 25.2704 0.0000
# 6 0.0000 0.0000 0.0000 0.0000 0.0000 18.4198
#
#
#
# Elastic Compliance Matrix: (Units=1/GPa)
#
#
# Indices 1 2 3 4 5 6 
#
# 1 0.068807 -0.011123 -0.007650 0.000000 0.000000 0.000000
# 2 -0.011123 0.014175 -0.006198 0.000000 0.000000 0.000000
# 3 -0.007650 -0.006198 0.013156 0.000000 0.000000 0.000000
# 4 0.000000 0.000000 0.000000 0.130517 0.000000 0.000000
# 5 0.000000 0.000000 0.000000 0.000000 0.039572 0.000000
# 6 0.000000 0.000000 0.000000 0.000000 0.000000 0.054289
#
#
# Mechanical properties :
#
#
# Convention : Reuss Voigt Hill
#
# Bulk Modulus (GPa) = 21.64658 60.10673 40.87665
# Shear Modulus (GPa) = 12.95816 19.89330 16.42573
#
# Velocity S-wave (km/s) = 2.88157 3.57035 3.24429
# Velocity P-wave (km/s) = 4.99421 7.45066 6.34250
#
# Compressibility (1/GPa) = 0.04619668
#
# Stress axis : x y z
#
# Youngs Moduli (GPa) = 14.53350 70.54458 76.00857
#
# Poissons Ratio (x) = 0.78465 0.58145
# Poissons Ratio (y) = 0.16165 0.47113
# Poissons Ratio (z) = 0.11118 0.43726
#
# Static dielectric constant tensor:
#      x y z
#    x 1.529960 0.000000 0.000000 
#    y 0.000000 1.540540 0.000000 
#    z 0.000000 0.000000 1.496310 
# 
# From -- ./inp_files/22621.got.cif
#   From: 2010.05.17/outbox.cif.g08.bks.cpg/sg51_12_cif.got.tgz:22621.got - 2010.06.03 11:52:47.
