data_PCOD9400010
_publ_section_title
;
Structure prediction by ZEFSAII (Michael W. Deem and Ramdas Pophale) SiO2 
 PCOD9400010
Probable space group: P M M A
;
_chemical_formula_sum "Si O2"
_cell_formula_units_Z 56
_cell_length_a 9.058475
_cell_length_b 19.445012
_cell_length_c 18.870609
_cell_angle_alpha 90.000000
_cell_angle_beta 90.000000
_cell_angle_gamma 90.000000
_cell_volume 3323.909737
_symmetry_space_group_name_H-M "P M M A"
_symmetry_group_IT_number 51
_symmetry_cell_setting 'orthorhombic'
loop_
_space_group_symop_operation_xyz
x,y,z
1/2-x,-y,z
1/2+x,-y,-z
-x,y,-z
-x,-y,-z
1/2+x,y,-z
1/2-x,y,z
x,-y,z
loop_
_atom_site_type_symbol
_atom_site_label
_atom_site_fract_x
_atom_site_fract_y
_atom_site_fract_z
Si Si1 0.074483 0.577845 0.336032
Si Si2 0.072630 0.289902 0.424493
Si Si3 0.427049 0.200938 0.289517
Si Si4 0.426884 0.146075 0.074509
Si Si5 0.074739 0.712504 0.148864
Si Si6 0.573736 0.422846 0.182022
Si Si7 0.425621 0.920227 0.789086
O O1 0.250000 0.587274 0.321670
O O2 0.052595 0.500000 0.362726
O O3 0.029240 0.636176 0.391327
O O4 0.990184 0.584115 0.261710
O O5 0.250000 0.289605 0.431752
O O6 0.033565 0.233763 0.364722
O O7 0.000000 0.278024 0.500000
O O8 0.250000 0.189848 0.286767
O O9 0.460652 0.255451 0.226549
O O10 0.510142 0.131271 0.269709
O O11 0.250000 0.138166 0.072815
O O12 0.459844 0.225772 0.094792
O O13 0.494588 0.101089 0.137850
O O14 0.500000 0.128481 0.000000
O O15 0.250000 0.699972 0.147063
O O16 0.991051 0.641162 0.138900
O O17 0.750000 0.418698 0.183939
O O18 0.531965 0.500000 0.157119
O O19 0.250000 0.910046 0.796564
O O20 0.453591 0.000000 0.773067
#
# Coordination Sequence:
#
# PCOD9400010 Si02
#       7
#     8   8   8   8   8   8   8
#     4   9  17  31  48  64  92 134 172 209 256 308
#     4  10  20  33  48  71 100 133 173 214 259 309
#     4   9  18  34  53  74 101 131 170 213 252 302
#     4  10  21  36  55  80 110 141 172 203 242 294
#     4   9  17  32  52  72  96 131 171 209 251 302
#     4  10  19  28  43  71 100 126 165 217 263 300
#     4  10  21  36  56  83 110 136 167 202 244 295
#
# _framework density 16.847629999999999
#
# number of rings (size 3 to 8) (size 9 to 14) (size 15 to 20)
#    0.000    2.429    1.429    2.143    0.000    6.571 
#    0.000    0.000    0.000    0.857    0.000    0.000 
#    0.000    0.000    0.000    0.000    0.000    0.000 
#
# Total GULP energy -312334.074142 kJ/mol
# GULP energy per Si atom -5577.394181 kJ/mol
# Density = 1.680928 g / cm^3
# Si number density = 16.847630 Si / 1000 Ang^3
#
#
#
# Elastic Constant Matrix: (Units=GPa)
#
#
# Indices 1 2 3 4 5 6 
#
# 1 39.1433 51.0054 16.7597 0.0000 0.0000 0.0000
# 2 51.0054 119.3560 25.2039 0.0000 0.0000 0.0000
# 3 16.7597 25.2039 40.2630 0.0000 0.0000 0.0000
# 4 0.0000 0.0000 0.0000 14.0367 0.0000 0.0000
# 5 0.0000 0.0000 0.0000 0.0000 25.3687 0.0000
# 6 0.0000 0.0000 0.0000 0.0000 0.0000 27.7563
#
#
#
# Elastic Compliance Matrix: (Units=1/GPa)
#
#
# Indices 1 2 3 4 5 6 
#
# 1 0.061274 -0.023967 -0.010503 0.000000 0.000000 0.000000
# 2 -0.023967 0.019029 -0.001935 0.000000 0.000000 0.000000
# 3 -0.010503 -0.001935 0.030420 0.000000 0.000000 0.000000
# 4 0.000000 0.000000 0.000000 0.071242 0.000000 0.000000
# 5 0.000000 0.000000 0.000000 0.000000 0.039419 0.000000
# 6 0.000000 0.000000 0.000000 0.000000 0.000000 0.036028
#
#
# Mechanical properties :
#
#
# Convention : Reuss Voigt Hill
#
# Bulk Modulus (GPa) = 26.37636 42.74447 34.56042
# Shear Modulus (GPa) = 14.58327 20.48523 17.53425
#
# Velocity S-wave (km/s) = 2.94530 3.49078 3.22957
# Velocity P-wave (km/s) = 5.22074 6.45551 5.87068
#
# Compressibility (1/GPa) = 0.03791273
#
# Stress axis : x y z
#
# Youngs Moduli (GPa) = 16.32020 52.55162 32.87302
#
# Poissons Ratio (x) = 1.25949 0.34526
# Poissons Ratio (y) = 0.39114 0.06362
# Poissons Ratio (z) = 0.17141 0.10171
#
# Static dielectric constant tensor:
#      x y z
#    x 1.561600 0.000000 0.000000 
#    y 0.000000 1.583710 0.000000 
#    z 0.000000 0.000000 1.540630 
# 
# From -- ./inp_files/32236.got.cif
#   From: 2010.05.17/outbox.cif.g08.bks.cpg/sg51_17_cif.got.tgz:32236.got - 2010.06.03 11:52:47.
