data_PCOD9400604
_publ_section_title
;
Structure prediction by ZEFSAII (Michael W. Deem and Ramdas Pophale) SiO2 
 PCOD9400604
Probable space group: P M M A
;
_chemical_formula_sum "Si O2"
_cell_formula_units_Z 52
_cell_length_a 8.839065
_cell_length_b 15.819689
_cell_length_c 23.745242
_cell_angle_alpha 90.000000
_cell_angle_beta 90.000000
_cell_angle_gamma 90.000000
_cell_volume 3320.327092
_symmetry_space_group_name_H-M "P M M A"
_symmetry_group_IT_number 51
_symmetry_cell_setting 'orthorhombic'
loop_
_space_group_symop_operation_xyz
x,y,z
1/2-x,-y,z
1/2+x,-y,-z
-x,y,-z
-x,-y,-z
1/2+x,y,-z
1/2-x,y,z
x,-y,z
loop_
_atom_site_type_symbol
_atom_site_label
_atom_site_fract_x
_atom_site_fract_y
_atom_site_fract_z
Si Si1 0.431072 0.233494 0.769562
Si Si2 0.422595 0.897560 0.442487
Si Si3 0.567388 0.405660 0.179207
Si Si4 0.568492 0.000000 0.938959
Si Si5 0.067322 0.902097 0.677316
Si Si6 0.429226 0.648410 0.059876
Si Si7 0.930245 0.175643 0.885159
O O1 0.250000 0.236105 0.763412
O O2 0.483298 0.331052 0.778157
O O3 0.487530 0.169542 0.721146
O O4 0.477475 0.194563 0.829216
O O5 0.500000 0.866863 0.500000
O O6 0.250000 0.868001 0.438763
O O7 0.511841 0.879077 0.385240
O O8 0.419597 0.000000 0.445958
O O9 0.750000 0.399888 0.174231
O O10 0.527890 0.500000 0.198455
O O11 0.499934 0.391745 0.116512
O O12 0.522761 0.914706 0.908049
O O13 0.750000 0.000000 0.942431
O O14 0.500000 0.000000 0.000000
O O15 0.250000 0.903067 0.678220
O O16 0.018154 0.000000 0.689893
O O17 0.250000 0.631950 0.058969
O O18 0.454471 0.748906 0.070275
O O19 0.500000 0.622630 0.000000
O O20 0.750000 0.175393 0.872499
#
# Coordination Sequence:
#
# PCOD9400604 Si02
#       7
#     8   8   8   4   8   8   8
#     4   9  18  31  47  66  87 113 146 180 215 256
#     4   9  16  26  41  62  89 123 159 189 217 247
#     4   9  18  33  50  66  85 110 140 176 219 265
#     4  10  20  32  44  60  80 106 141 178 215 256
#     4   9  17  28  42  63  92 122 151 182 212 248
#     4  10  19  31  47  65  85 107 134 170 216 268
#     4   9  19  32  44  60  83 110 139 176 218 258
#
# _framework density 15.661106999999999
#
# number of rings (size 3 to 8) (size 9 to 14) (size 15 to 20)
#    0.000    2.769    0.000    1.385    1.077    4.308 
#    0.000    0.000    0.000    0.000    0.000    0.000 
#    0.000    0.615    0.000    1.077    0.000    1.538 
#
# Total GULP energy -289543.764088 kJ/mol
# GULP energy per Si atom -5568.149309 kJ/mol
# Density = 1.562546 g / cm^3
# Si number density = 15.661107 Si / 1000 Ang^3
#
#
#
# Elastic Constant Matrix: (Units=GPa)
#
#
# Indices 1 2 3 4 5 6 
#
# 1 9.7423 17.9417 16.8714 0.0000 0.0000 0.0000
# 2 17.9417 109.1178 48.9890 0.0000 0.0000 0.0000
# 3 16.8714 48.9890 90.6727 0.0000 0.0000 0.0000
# 4 0.0000 0.0000 0.0000 10.1899 0.0000 0.0000
# 5 0.0000 0.0000 0.0000 0.0000 23.7710 0.0000
# 6 0.0000 0.0000 0.0000 0.0000 0.0000 10.7695
#
#
#
# Elastic Compliance Matrix: (Units=1/GPa)
#
#
# Indices 1 2 3 4 5 6 
#
# 1 0.176663 -0.018866 -0.022679 0.000000 0.000000 0.000000
# 2 -0.018866 0.014114 -0.004115 0.000000 0.000000 0.000000
# 3 -0.022679 -0.004115 0.017472 0.000000 0.000000 0.000000
# 4 0.000000 0.000000 0.000000 0.098137 0.000000 0.000000
# 5 0.000000 0.000000 0.000000 0.000000 0.042068 0.000000
# 6 0.000000 0.000000 0.000000 0.000000 0.000000 0.092855
#
#
# Mechanical properties :
#
#
# Convention : Reuss Voigt Hill
#
# Bulk Modulus (GPa) = 8.55217 41.90409 25.22813
# Shear Modulus (GPa) = 8.74730 17.32812 13.03771
#
# Velocity S-wave (km/s) = 2.36590 3.32993 2.88842
# Velocity P-wave (km/s) = 3.59666 6.44977 5.22185
#
# Compressibility (1/GPa) = 0.11692939
#
# Stress axis : x y z
#
# Youngs Moduli (GPa) = 5.66049 70.85171 57.23508
#
# Poissons Ratio (x) = 1.33670 1.29801
# Poissons Ratio (y) = 0.10679 0.23553
# Poissons Ratio (z) = 0.12837 0.29156
#
# Static dielectric constant tensor:
#      x y z
#    x 1.528110 0.000000 0.000000 
#    y 0.000000 1.554430 0.000000 
#    z 0.000000 0.000000 1.491070 
# 
# From -- ./inp_files/34669.got.cif
#   From: 2010.05.17/outbox.cif.g08.bks.cpg/sg51_18_cif.got.tgz:34669.got - 2010.06.03 11:52:47.
