data_PCOD9400210
_publ_section_title
;
Structure prediction by ZEFSAII (Michael W. Deem and Ramdas Pophale) SiO2 
 PCOD9400210
Probable space group: P M M A
;
_chemical_formula_sum "Si O2"
_cell_formula_units_Z 64
_cell_length_a 8.490858
_cell_length_b 20.455258
_cell_length_c 20.300932
_cell_angle_alpha 90.000000
_cell_angle_beta 90.000000
_cell_angle_gamma 90.000000
_cell_volume 3525.920500
_symmetry_space_group_name_H-M "P M M A"
_symmetry_group_IT_number 51
_symmetry_cell_setting 'orthorhombic'
loop_
_space_group_symop_operation_xyz
x,y,z
1/2-x,-y,z
1/2+x,-y,-z
-x,y,-z
-x,-y,-z
1/2+x,y,-z
1/2-x,y,z
x,-y,z
loop_
_atom_site_type_symbol
_atom_site_label
_atom_site_fract_x
_atom_site_fract_y
_atom_site_fract_z
Si Si1 0.936622 0.685085 0.716036
Si Si2 0.931457 0.927485 0.684946
Si Si3 0.440785 0.425094 0.814457
Si Si4 0.439004 0.670192 0.926283
Si Si5 0.941040 0.782088 0.176175
Si Si6 0.934101 0.310435 0.429630
Si Si7 0.937667 0.165497 0.565207
Si Si8 0.434111 0.927904 0.825860
O O1 0.750000 0.692347 0.715572
O O2 0.989878 0.623610 0.760121
O O3 0.003637 0.749618 0.754445
O O4 0.991978 0.672013 0.641175
O O5 0.750000 0.917488 0.708319
O O6 0.968155 0.874873 0.630475
O O7 0.044883 0.926328 0.747039
O O8 0.937573 0.000000 0.655226
O O9 0.250000 0.422221 0.809436
O O10 0.490383 0.500000 0.807115
O O11 0.485291 0.394403 0.885220
O O12 0.250000 0.672120 0.928338
O O13 0.490124 0.731373 0.880875
O O14 0.500000 0.672250 0.000000
O O15 0.750000 0.783969 0.179090
O O16 0.998151 0.855353 0.157548
O O17 0.750000 0.324144 0.427654
O O18 0.000000 0.336660 0.500000
O O19 0.968541 0.232975 0.432079
O O20 0.750000 0.178082 0.560752
O O21 0.000000 0.129863 0.500000
O O22 0.250000 0.928535 0.844083
O O23 0.500492 0.000000 0.846811
#
# Coordination Sequence:
#
# PCOD9400210 Si02
#       8
#     8   8   8   8   8   8   8   8
#     4  11  21  33  52  79 107 135 172 214 256 305
#     4   9  18  30  41  56  82 114 147 189 244 304
#     4   9  19  37  58  80 109 144 177 207 245 294
#     4   9  18  32  51  77 108 142 176 210 248 293
#     4   9  18  33  51  72 101 136 173 214 262 312
#     4  11  21  34  51  71  97 128 165 210 260 308
#     4  10  19  30  43  60  83 113 152 197 247 302
#     4   9  17  29  47  69  89 115 158 210 259 306
#
# _framework density 18.151288000000001
#
# number of rings (size 3 to 8) (size 9 to 14) (size 15 to 20)
#    0.000    2.375    0.000    4.875    0.000    6.250 
#    0.000    0.000    0.000    0.750    0.000    0.000 
#    0.000    0.000    0.000    0.000    0.000    0.250 
#
# Total GULP energy -356418.038926 kJ/mol
# GULP energy per Si atom -5569.031858 kJ/mol
# Density = 1.810997 g / cm^3
# Si number density = 18.151288 Si / 1000 Ang^3
#
#
#
# Elastic Constant Matrix: (Units=GPa)
#
#
# Indices 1 2 3 4 5 6 
#
# 1 31.3724 17.1699 17.5248 0.0000 0.0000 0.0000
# 2 17.1699 101.0532 31.1333 0.0000 0.0000 0.0000
# 3 17.5248 31.1333 99.7620 0.0000 0.0000 0.0000
# 4 0.0000 0.0000 0.0000 18.5867 0.0000 0.0000
# 5 0.0000 0.0000 0.0000 0.0000 27.9162 0.0000
# 6 0.0000 0.0000 0.0000 0.0000 0.0000 11.7357
#
#
#
# Elastic Compliance Matrix: (Units=1/GPa)
#
#
# Indices 1 2 3 4 5 6 
#
# 1 0.037320 -0.004781 -0.005064 0.000000 0.000000 0.000000
# 2 -0.004781 0.011561 -0.002768 0.000000 0.000000 0.000000
# 3 -0.005064 -0.002768 0.011777 0.000000 0.000000 0.000000
# 4 0.000000 0.000000 0.000000 0.053802 0.000000 0.000000
# 5 0.000000 0.000000 0.000000 0.000000 0.035822 0.000000
# 6 0.000000 0.000000 0.000000 0.000000 0.000000 0.085210
#
#
# Mechanical properties :
#
#
# Convention : Reuss Voigt Hill
#
# Bulk Modulus (GPa) = 28.22247 40.42709 34.32478
# Shear Modulus (GPa) = 18.34668 22.73836 20.54252
#
# Velocity S-wave (km/s) = 3.18270 3.54321 3.36778
# Velocity P-wave (km/s) = 5.39336 6.24978 5.83730
#
# Compressibility (1/GPa) = 0.03543276
#
# Stress axis : x y z
#
# Youngs Moduli (GPa) = 26.79498 86.49846 84.90941
#
# Poissons Ratio (x) = 0.41354 0.42998
# Poissons Ratio (y) = 0.12811 0.23503
# Poissons Ratio (z) = 0.13569 0.23943
#
# Static dielectric constant tensor:
#      x y z
#    x 1.633520 0.000000 0.000000 
#    y 0.000000 1.658580 0.000000 
#    z 0.000000 0.000000 1.631840 
# 
# From -- ./inp_files/28430.got.cif
#   From: 2010.05.17/outbox.cif.g08.bks.cpg/sg51_15_cif.got.tgz:28430.got - 2010.06.03 11:52:47.
