data_PCOD9400867
_publ_section_title
;
Structure prediction by ZEFSAII (Michael W. Deem and Ramdas Pophale) SiO2 
 PCOD9400867
Probable space group: P M M A
;
_chemical_formula_sum "Si O2"
_cell_formula_units_Z 56
_cell_length_a 24.361275
_cell_length_b 11.812417
_cell_length_c 11.652055
_cell_angle_alpha 90.000000
_cell_angle_beta 90.000000
_cell_angle_gamma 90.000000
_cell_volume 3353.059887
_symmetry_space_group_name_H-M "P M M A"
_symmetry_group_IT_number 51
_symmetry_cell_setting 'orthorhombic'
loop_
_space_group_symop_operation_xyz
x,y,z
1/2-x,-y,z
1/2+x,-y,-z
-x,y,-z
-x,-y,-z
1/2+x,y,-z
1/2-x,y,z
x,-y,z
loop_
_atom_site_type_symbol
_atom_site_label
_atom_site_fract_x
_atom_site_fract_y
_atom_site_fract_z
Si Si1 0.404524 0.228077 0.838064
Si Si2 0.583595 0.629600 0.701297
Si Si3 0.063135 0.364873 0.036207
Si Si4 0.976762 0.000000 0.134785
Si Si5 0.460695 0.000000 0.385606
Si Si6 0.457212 0.368394 0.641766
Si Si7 0.813613 0.865361 0.327553
Si Si8 0.609918 0.208154 0.529465
O O1 0.436702 0.323456 0.764517
O O2 0.349869 0.196009 0.769191
O O3 0.440587 0.114125 0.851626
O O4 0.397682 0.287693 0.959703
O O5 0.600883 0.500000 0.699209
O O6 0.573366 0.663807 0.831756
O O7 0.522978 0.636062 0.643610
O O8 0.625034 0.705202 0.629600
O O9 0.071213 0.500000 0.020489
O O10 0.000000 0.340367 0.000000
O O11 0.013428 0.000000 0.255687
O O12 0.000000 0.000000 0.000000
O O13 0.500000 0.000000 0.500000
O O14 0.423680 0.890036 0.407328
O O15 0.441538 0.500000 0.620759
O O16 0.429347 0.278967 0.556804
O O17 0.750000 0.832276 0.325493
O O18 0.841874 0.838226 0.449701
O O19 0.817654 0.000000 0.308848
#
# Coordination Sequence:
#
# PCOD9400867 Si02
#       8
#     8   8   8   4   4   8   8   8
#     4  11  20  35  54  79 110 146 187 228 273 325
#     4  10  19  31  49  77 111 149 179 207 256 324
#     4  10  19  32  52  78 113 154 187 211 251 327
#     4  12  26  34  50  87 128 161 178 212 282 347
#     4  12  22  34  50  79 118 153 182 218 270 335
#     4  10  19  31  51  77 110 149 183 218 261 326
#     4  10  21  41  60  76  99 135 191 244 289 331
#     4  11  21  33  52  77 105 139 181 229 278 325
#
# _framework density 16.701163999999999
#
# number of rings (size 3 to 8) (size 9 to 14) (size 15 to 20)
#    0.000    1.429    2.857    5.143    2.000    1.143 
#    0.000    0.000    0.000   16.286    0.000    5.000 
#    0.000    0.000    0.000    0.000    0.000    0.000 
#
# Total GULP energy -312174.538328 kJ/mol
# GULP energy per Si atom -5574.545327 kJ/mol
# Density = 1.666315 g / cm^3
# Si number density = 16.701164 Si / 1000 Ang^3
#
#
#
# Elastic Constant Matrix: (Units=GPa)
#
#
# Indices 1 2 3 4 5 6 
#
# 1 63.6309 15.0978 39.8064 0.0000 0.0000 0.0000
# 2 15.0978 41.1989 29.3819 0.0000 0.0000 0.0000
# 3 39.8064 29.3819 100.3789 0.0000 0.0000 0.0000
# 4 0.0000 0.0000 0.0000 34.0197 0.0000 0.0000
# 5 0.0000 0.0000 0.0000 0.0000 8.8294 0.0000
# 6 0.0000 0.0000 0.0000 0.0000 0.0000 17.2724
#
#
#
# Elastic Compliance Matrix: (Units=1/GPa)
#
#
# Indices 1 2 3 4 5 6 
#
# 1 0.021061 -0.002226 -0.007700 0.000000 0.000000 0.000000
# 2 -0.002226 0.030912 -0.008165 0.000000 0.000000 0.000000
# 3 -0.007700 -0.008165 0.015406 0.000000 0.000000 0.000000
# 4 0.000000 0.000000 0.000000 0.029395 0.000000 0.000000
# 5 0.000000 0.000000 0.000000 0.000000 0.113258 0.000000
# 6 0.000000 0.000000 0.000000 0.000000 0.000000 0.057896
#
#
# Mechanical properties :
#
#
# Convention : Reuss Voigt Hill
#
# Bulk Modulus (GPa) = 32.05675 41.53122 36.79399
# Shear Modulus (GPa) = 15.89778 20.08579 17.99178
#
# Velocity S-wave (km/s) = 3.08863 3.47170 3.28575
# Velocity P-wave (km/s) = 5.65292 6.40246 6.03933
#
# Compressibility (1/GPa) = 0.03119468
#
# Stress axis : x y z
#
# Youngs Moduli (GPa) = 47.48092 32.35035 64.90998
#
# Poissons Ratio (x) = 0.07203 0.49983
# Poissons Ratio (y) = 0.10571 0.53000
# Poissons Ratio (z) = 0.36562 0.26415
#
# Static dielectric constant tensor:
#      x y z
#    x 1.534680 0.000000 0.000000 
#    y 0.000000 1.586630 0.000000 
#    z 0.000000 0.000000 1.633060 
# 
# From -- ./inp_files/18796.got.cif
#   From: 2010.05.17/outbox.cif.g08.bks.cpg/sg51_10_cif.got.tgz:18796.got - 2010.06.03 11:52:47.
