data_PCOD9400216
_publ_section_title
;
Structure prediction by ZEFSAII (Michael W. Deem and Ramdas Pophale) SiO2 
 PCOD9400216
Probable space group: P M M A
;
_chemical_formula_sum "Si O2"
_cell_formula_units_Z 56
_cell_length_a 17.111429
_cell_length_b 13.556884
_cell_length_c 14.642076
_cell_angle_alpha 90.000000
_cell_angle_beta 90.000000
_cell_angle_gamma 90.000000
_cell_volume 3396.634499
_symmetry_space_group_name_H-M "P M M A"
_symmetry_group_IT_number 51
_symmetry_cell_setting 'orthorhombic'
loop_
_space_group_symop_operation_xyz
x,y,z
1/2-x,-y,z
1/2+x,-y,-z
-x,y,-z
-x,-y,-z
1/2+x,y,-z
1/2-x,y,z
x,-y,z
loop_
_atom_site_type_symbol
_atom_site_label
_atom_site_fract_x
_atom_site_fract_y
_atom_site_fract_z
Si Si1 0.398322 0.250899 0.836040
Si Si2 0.087392 0.881647 0.483061
Si Si3 0.335777 0.110217 0.985050
Si Si4 0.657321 0.884802 0.321100
Si Si5 0.343667 0.613955 0.982887
Si Si6 0.079962 0.773710 0.120866
Si Si7 0.843639 0.116469 0.712802
O O1 0.383056 0.202064 0.737690
O O2 0.489668 0.243088 0.859146
O O3 0.347258 0.179360 0.899888
O O4 0.370858 0.354575 0.880292
O O5 0.139145 0.864123 0.572649
O O6 0.124431 0.852475 0.386683
O O7 0.000000 0.842065 0.500000
O O8 0.081121 0.000000 0.476019
O O9 0.250000 0.126891 0.028772
O O10 0.403916 0.133325 0.055227
O O11 0.338662 0.000000 0.952296
O O12 0.750000 0.882191 0.304557
O O13 0.630884 0.000000 0.302079
O O14 0.250000 0.626017 0.988987
O O15 0.363315 0.500000 0.999776
O O16 0.383696 0.684495 0.059717
O O17 0.123347 0.807175 0.212860
O O18 0.750000 0.118523 0.713111
O O19 0.866262 0.000000 0.730695
#
# Coordination Sequence:
#
# PCOD9400216 Si02
#       7
#     8   8   8   8   8   8   8
#     4  11  21  31  47  70  95 123 156 196 239 283
#     4   9  17  29  45  67  96 129 166 205 241 277
#     4  10  19  30  43  61  90 126 159 191 228 275
#     4  10  19  31  47  68  98 135 170 201 234 277
#     4  10  21  38  57  73  92 120 155 197 244 295
#     4  11  21  31  47  70  95 123 156 196 239 283
#     4  10  19  31  47  68  98 135 170 201 234 277
#
# _framework density 16.486906999999999
#
# number of rings (size 3 to 8) (size 9 to 14) (size 15 to 20)
#    0.000    1.857    0.000    7.286    0.000    9.143 
#    0.000    0.000    0.000    0.000    0.000    1.000 
#    0.000    8.000    0.000    0.000    0.000    0.000 
#
# Total GULP energy -311797.519257 kJ/mol
# GULP energy per Si atom -5567.812844 kJ/mol
# Density = 1.644938 g / cm^3
# Si number density = 16.486907 Si / 1000 Ang^3
#
#
#
# Elastic Constant Matrix: (Units=GPa)
#
#
# Indices 1 2 3 4 5 6 
#
# 1 69.8128 20.8844 8.4482 0.0000 0.0000 0.0000
# 2 20.8844 68.8164 24.3439 0.0000 0.0000 0.0000
# 3 8.4482 24.3439 83.7892 0.0000 0.0000 0.0000
# 4 0.0000 0.0000 0.0000 17.4487 0.0000 0.0000
# 5 0.0000 0.0000 0.0000 0.0000 29.7921 0.0000
# 6 0.0000 0.0000 0.0000 0.0000 0.0000 -18.1975
#
#
#
# Elastic Compliance Matrix: (Units=1/GPa)
#
#
# Indices 1 2 3 4 5 6 
#
# 1 0.015758 -0.004704 -0.000222 0.000000 0.000000 0.000000
# 2 -0.004704 0.017600 -0.004639 0.000000 0.000000 0.000000
# 3 -0.000222 -0.004639 0.013305 0.000000 0.000000 0.000000
# 4 0.000000 0.000000 0.000000 0.057311 0.000000 0.000000
# 5 0.000000 0.000000 0.000000 0.000000 0.033566 0.000000
# 6 0.000000 0.000000 0.000000 0.000000 0.000000 -0.054953
#
#
# Mechanical properties :
#
#
# Convention : Reuss Voigt Hill
#
# Bulk Modulus (GPa) = 36.32030 36.64129 36.48079
# Shear Modulus (GPa) = 45.08775 17.05813 31.07294
#
# Velocity S-wave (km/s) = 5.23517 3.22008 4.34603
# Velocity P-wave (km/s) = 7.65639 6.00816 6.88180
#
# Compressibility (1/GPa) = 0.02753281
#
# Stress axis : x y z
#
# Youngs Moduli (GPa) = 63.45991 56.81824 75.15979
#
# Poissons Ratio (x) = 0.26725 0.01671
# Poissons Ratio (y) = 0.29849 0.34868
# Poissons Ratio (z) = 0.01410 0.26359
#
# Static dielectric constant tensor:
#      x y z
#    x 1.579970 0.000000 0.000000 
#    y 0.000000 1.598440 0.000000 
#    z 0.000000 0.000000 1.593480 
# 
# From -- ./inp_files/24267.got.cif
#   From: 2010.05.17/outbox.cif.g08.bks.cpg/sg51_13_cif.got.tgz:24267.got - 2010.06.03 11:52:47.
