data_PCOD9400480
_publ_section_title
;
Structure prediction by ZEFSAII (Michael W. Deem and Ramdas Pophale) SiO2 
 PCOD9400480
Probable space group: P M M A
;
_chemical_formula_sum "Si O2"
_cell_formula_units_Z 64
_cell_length_a 23.539986
_cell_length_b 7.488521
_cell_length_c 18.152693
_cell_angle_alpha 90.000000
_cell_angle_beta 90.000000
_cell_angle_gamma 90.000000
_cell_volume 3199.950904
_symmetry_space_group_name_H-M "P M M A"
_symmetry_group_IT_number 51
_symmetry_cell_setting 'orthorhombic'
loop_
_space_group_symop_operation_xyz
x,y,z
1/2-x,-y,z
1/2+x,-y,-z
-x,y,-z
-x,-y,-z
1/2+x,y,-z
1/2-x,y,z
x,-y,z
loop_
_atom_site_type_symbol
_atom_site_label
_atom_site_fract_x
_atom_site_fract_y
_atom_site_fract_z
Si Si1 0.097175 0.207020 0.321172
Si Si2 0.049720 0.219861 0.169977
Si Si3 0.568424 0.204964 0.989809
Si Si4 0.812063 0.206999 0.243793
Si Si5 0.419196 0.780881 0.848617
Si Si6 0.685422 0.784265 0.559017
Si Si7 0.139273 0.289524 0.604001
Si Si8 0.512186 0.283515 0.415780
O O1 0.085005 0.282583 0.240417
O O2 0.144044 0.284605 0.376596
O O3 0.037440 0.215483 0.363916
O O4 0.112814 0.000000 0.310017
O O5 0.075400 0.281780 0.091819
O O6 0.983090 0.272980 0.174977
O O7 0.049591 0.000000 0.169009
O O8 0.588729 0.000000 0.986656
O O9 0.500000 0.200859 0.000000
O O10 0.590673 0.280378 0.066894
O O11 0.750000 0.286792 0.227434
O O12 0.868230 0.281040 0.203774
O O13 0.822811 0.211060 0.331298
O O14 0.809791 0.000000 0.220985
O O15 0.420470 0.000000 0.848983
O O16 0.750000 0.722261 0.567299
O O17 0.662223 0.737957 0.478206
O O18 0.685174 0.000000 0.562452
O O19 0.137789 0.500000 0.617811
O O20 0.074617 0.221123 0.607439
O O21 0.500000 0.230131 0.500000
O O22 0.511339 0.500000 0.413600
#
# Coordination Sequence:
#
# PCOD9400480 Si02
#       8
#     8   8   8   8   8   8   8   8
#     4  10  19  30  48  71  92 119 155 191 227 273
#     4   8  13  22  39  66  92 112 144 188 227 264
#     4   7  10  18  35  60  89 116 139 171 217 264
#     4  10  20  32  46  66  94 125 156 193 231 267
#     4   8  13  23  40  62  90 120 146 176 220 271
#     4  10  21  35  48  63  87 120 156 192 228 264
#     4  11  22  35  51  68  88 117 153 191 231 277
#     4  10  20  34  48  66  94 119 142 184 240 285
#
# _framework density 20.000306999999999
#
# number of rings (size 3 to 8) (size 9 to 14) (size 15 to 20)
#    0.000    2.750    1.250    3.000    0.000    4.250 
#    0.000    0.000    0.000    0.750    0.000    6.125 
#    0.000    5.000    0.000    2.250    0.000    3.000 
#
# Total GULP energy -356946.651625 kJ/mol
# GULP energy per Si atom -5577.291432 kJ/mol
# Density = 1.995479 g / cm^3
# Si number density = 20.000307 Si / 1000 Ang^3
#
#
#
# Elastic Constant Matrix: (Units=GPa)
#
#
# Indices 1 2 3 4 5 6 
#
# 1 111.0642 -0.7829 49.7428 0.0000 0.0000 0.0000
# 2 -0.7829 55.0301 -7.0716 0.0000 0.0000 0.0000
# 3 49.7428 -7.0716 142.7935 0.0000 0.0000 0.0000
# 4 0.0000 0.0000 0.0000 -63.1772 0.0000 0.0000
# 5 0.0000 0.0000 0.0000 0.0000 13.2758 0.0000
# 6 0.0000 0.0000 0.0000 0.0000 0.0000 20.6487
#
#
#
# Elastic Compliance Matrix: (Units=1/GPa)
#
#
# Indices 1 2 3 4 5 6 
#
# 1 0.010674 -0.000328 -0.003735 0.000000 0.000000 0.000000
# 2 -0.000328 0.018298 0.001020 0.000000 0.000000 0.000000
# 3 -0.003735 0.001020 0.008355 0.000000 0.000000 0.000000
# 4 0.000000 0.000000 0.000000 -0.015828 0.000000 0.000000
# 5 0.000000 0.000000 0.000000 0.000000 0.075325 0.000000
# 6 0.000000 0.000000 0.000000 0.000000 0.000000 0.048429
#
#
# Mechanical properties :
#
#
# Convention : Reuss Voigt Hill
#
# Bulk Modulus (GPa) = 32.00750 43.62939 37.81844
# Shear Modulus (GPa) = 30.91160 11.94942 21.43051
#
# Velocity S-wave (km/s) = 3.93562 2.44696 3.27694
# Velocity P-wave (km/s) = 6.05726 5.46307 5.76782
#
# Compressibility (1/GPa) = 0.03124268
#
# Stress axis : x y z
#
# Youngs Moduli (GPa) = 93.68445 54.64975 119.69407
#
# Poissons Ratio (x) = 0.01793 0.44701
# Poissons Ratio (y) = 0.03073 -0.12214
# Poissons Ratio (z) = 0.34988 -0.05577
#
# Static dielectric constant tensor:
#      x y z
#    x 1.689070 0.000000 0.000000 
#    y 0.000000 1.744870 0.000000 
#    z 0.000000 0.000000 1.724420 
# 
# From -- ./inp_files/30929.got.cif
#   From: 2010.05.17/outbox.cif.g08.bks.cpg/sg51_16_cif.got.tgz:30929.got - 2010.06.03 11:52:47.
