data_PCOD9400879
_publ_section_title
;
Structure prediction by ZEFSAII (Michael W. Deem and Ramdas Pophale) SiO2 
 PCOD9400879
Probable space group: P M M A
;
_chemical_formula_sum "Si O2"
_cell_formula_units_Z 56
_cell_length_a 24.022165
_cell_length_b 7.524889
_cell_length_c 16.098808
_cell_angle_alpha 90.000000
_cell_angle_beta 90.000000
_cell_angle_gamma 90.000000
_cell_volume 2910.086944
_symmetry_space_group_name_H-M "P M M A"
_symmetry_group_IT_number 51
_symmetry_cell_setting 'orthorhombic'
loop_
_space_group_symop_operation_xyz
x,y,z
1/2-x,-y,z
1/2+x,-y,-z
-x,y,-z
-x,-y,-z
1/2+x,y,-z
1/2-x,y,z
x,-y,z
loop_
_atom_site_type_symbol
_atom_site_label
_atom_site_fract_x
_atom_site_fract_y
_atom_site_fract_z
Si Si1 0.685023 0.717036 0.805866
Si Si2 0.493765 0.210559 0.593671
Si Si3 0.117211 0.207749 0.676743
Si Si4 0.186332 0.789337 0.830267
Si Si5 0.813998 0.715422 0.486095
Si Si6 0.383651 0.714598 0.353431
Si Si7 0.685521 0.286443 0.987599
O O1 0.750000 0.769022 0.796272
O O2 0.684865 0.500000 0.804808
O O3 0.647690 0.777829 0.729265
O O4 0.663906 0.772981 0.897487
O O5 0.500000 0.284548 0.500000
O O6 0.441131 0.285371 0.643910
O O7 0.552128 0.233876 0.639764
O O8 0.482851 0.000000 0.583928
O O9 0.146992 0.285266 0.758138
O O10 0.159527 0.220735 0.599674
O O11 0.106652 0.000000 0.695387
O O12 0.250000 0.716747 0.827431
O O13 0.162217 0.767141 0.923133
O O14 0.191223 0.000000 0.815623
O O15 0.750000 0.771155 0.495125
O O16 0.815037 0.500000 0.485078
O O17 0.851134 0.775736 0.563978
O O18 0.381023 0.500000 0.353313
O O19 0.750000 0.226350 0.989261
O O20 0.685210 0.500000 0.986450
#
# Coordination Sequence:
#
# PCOD9400879 Si02
#       7
#     8   8   8   8   8   8   8
#     4   8  14  27  48  73  99 126 154 185 230 287
#     4  10  20  35  51  66  89 124 166 205 237 271
#     4  10  20  34  50  66  90 127 164 195 232 281
#     4   9  17  29  46  69  94 119 150 189 233 279
#     4  10  20  31  45  70 100 124 148 187 236 279
#     4  10  19  31  50  72  95 123 157 195 232 277
#     4   8  14  26  46  70  95 123 152 183 225 280
#
# _framework density 19.243410000000001
#
# number of rings (size 3 to 8) (size 9 to 14) (size 15 to 20)
#    0.000    2.714    1.429    1.714    0.000    4.000 
#    0.000    2.143    0.000    3.000    0.000    6.000 
#    0.000    0.000    0.000    0.000    0.000    0.000 
#
# Total GULP energy -312252.017065 kJ/mol
# GULP energy per Si atom -5575.928876 kJ/mol
# Density = 1.919961 g / cm^3
# Si number density = 19.243410 Si / 1000 Ang^3
#
#
#
# Elastic Constant Matrix: (Units=GPa)
#
#
# Indices 1 2 3 4 5 6 
#
# 1 82.8054 -5.7548 40.7061 0.0000 0.0000 0.0000
# 2 -5.7548 42.8275 -5.2161 0.0000 0.0000 0.0000
# 3 40.7061 -5.2161 153.4946 0.0000 0.0000 0.0000
# 4 0.0000 0.0000 0.0000 17.2567 0.0000 0.0000
# 5 0.0000 0.0000 0.0000 0.0000 5.5941 0.0000
# 6 0.0000 0.0000 0.0000 0.0000 0.0000 16.8936
#
#
#
# Elastic Compliance Matrix: (Units=1/GPa)
#
#
# Indices 1 2 3 4 5 6 
#
# 1 0.013974 0.001432 -0.003657 0.000000 0.000000 0.000000
# 2 0.001432 0.023593 0.000422 0.000000 0.000000 0.000000
# 3 -0.003657 0.000422 0.007499 0.000000 0.000000 0.000000
# 4 0.000000 0.000000 0.000000 0.057949 0.000000 0.000000
# 5 0.000000 0.000000 0.000000 0.000000 0.178759 0.000000
# 6 0.000000 0.000000 0.000000 0.000000 0.000000 0.059194
#
#
# Mechanical properties :
#
#
# Convention : Reuss Voigt Hill
#
# Bulk Modulus (GPa) = 24.11944 37.62201 30.87072
# Shear Modulus (GPa) = 13.95112 24.57504 19.26308
#
# Velocity S-wave (km/s) = 2.69547 3.57748 3.16733
# Velocity P-wave (km/s) = 4.71683 6.05454 5.42706
#
# Compressibility (1/GPa) = 0.04146034
#
# Stress axis : x y z
#
# Youngs Moduli (GPa) = 71.56227 42.38491 133.34972
#
# Poissons Ratio (x) = -0.06071 0.48768
# Poissons Ratio (y) = -0.10250 -0.05626
# Poissons Ratio (z) = 0.26171 -0.01788
#
# Static dielectric constant tensor:
#      x y z
#    x 1.645390 0.000000 0.000000 
#    y 0.000000 1.779780 0.000000 
#    z 0.000000 0.000000 1.690760 
# 
# From -- ./inp_files/18759.got.cif
#   From: 2010.05.17/outbox.cif.g08.bks.cpg/sg51_10_cif.got.tgz:18759.got - 2010.06.03 11:52:47.
