data_PCOD9400021
_publ_section_title
;
Structure prediction by ZEFSAII (Michael W. Deem and Ramdas Pophale) SiO2 
 PCOD9400021
Probable space group: P M M A
;
_chemical_formula_sum "Si O2"
_cell_formula_units_Z 52
_cell_length_a 8.933115
_cell_length_b 24.442761
_cell_length_c 20.093329
_cell_angle_alpha 90.000000
_cell_angle_beta 90.000000
_cell_angle_gamma 90.000000
_cell_volume 4387.378285
_symmetry_space_group_name_H-M "P M M A"
_symmetry_group_IT_number 51
_symmetry_cell_setting 'orthorhombic'
loop_
_space_group_symop_operation_xyz
x,y,z
1/2-x,-y,z
1/2+x,-y,-z
-x,y,-z
-x,-y,-z
1/2+x,y,-z
1/2-x,y,z
x,-y,z
loop_
_atom_site_type_symbol
_atom_site_label
_atom_site_fract_x
_atom_site_fract_y
_atom_site_fract_z
Si Si1 0.430028 0.500000 0.572862
Si Si2 0.429091 0.060148 0.425785
Si Si3 0.070161 0.710020 0.573400
Si Si4 0.069247 0.605965 0.659794
Si Si5 0.428816 0.564484 0.207031
Si Si6 0.077391 0.566552 0.931786
Si Si7 0.570774 0.831534 0.425973
O O1 0.250000 0.500000 0.566796
O O2 0.500000 0.500000 0.500000
O O3 0.473565 0.445992 0.614078
O O4 0.500000 0.058270 0.500000
O O5 0.250000 0.066262 0.431083
O O6 0.499692 0.114366 0.393235
O O7 0.460413 0.000000 0.395544
O O8 0.250000 0.706940 0.565643
O O9 0.023126 0.661338 0.622125
O O10 0.000000 0.703729 0.500000
O O11 0.036145 0.770918 0.601183
O O12 0.250000 0.605778 0.666154
O O13 0.997718 0.597531 0.731795
O O14 0.250000 0.568187 0.206887
O O15 0.469590 0.500000 0.216083
O O16 0.492682 0.582517 0.135612
O O17 0.250000 0.583473 0.929492
O O18 0.074066 0.500000 0.933195
O O19 0.000000 0.585357 0.000000
O O20 0.500000 0.829610 0.500000
O O21 0.250000 0.837888 0.570024
#
# Coordination Sequence:
#
# PCOD9400021 Si02
#       7
#     4   8   8   8   8   8   8
#     4  10  20  30  42  54  65  82 107 140 180 222
#     4   9  15  21  30  45  63  81 100 123 153 191
#     4   9  18  29  40  52  66  84 110 144 178 215
#     4  10  19  31  42  53  68  88 112 140 178 218
#     4  10  19  29  41  57  74  91 112 138 168 205
#     4   9  16  26  41  59  78  97 113 130 154 191
#     4   9  15  23  34  47  62  81 103 129 163 200
#
# _framework density 11.852180000000001
#
# number of rings (size 3 to 8) (size 9 to 14) (size 15 to 20)
#    0.000    2.615    0.769    3.231    0.000    5.231 
#    0.000    0.000    0.000    0.000    0.000    0.000 
#    0.000    0.000    0.000    0.000    0.000    0.000 
#
# Total GULP energy -289472.477648 kJ/mol
# GULP energy per Si atom -5566.778416 kJ/mol
# Density = 1.182520 g / cm^3
# Si number density = 11.852180 Si / 1000 Ang^3
#
#
#
# Elastic Constant Matrix: (Units=GPa)
#
#
# Indices 1 2 3 4 5 6 
#
# 1 39.1153 33.1814 27.0139 0.0000 0.0000 0.0000
# 2 33.1814 102.4067 39.0915 0.0000 0.0000 0.0000
# 3 27.0139 39.0915 75.1314 0.0000 0.0000 0.0000
# 4 0.0000 0.0000 0.0000 1.5472 0.0000 0.0000
# 5 0.0000 0.0000 0.0000 0.0000 18.5652 0.0000
# 6 0.0000 0.0000 0.0000 0.0000 0.0000 12.9011
#
#
#
# Elastic Compliance Matrix: (Units=1/GPa)
#
#
# Indices 1 2 3 4 5 6 
#
# 1 0.040088 -0.009343 -0.009553 0.000000 0.000000 0.000000
# 2 -0.009343 0.014362 -0.004114 0.000000 0.000000 0.000000
# 3 -0.009553 -0.004114 0.018885 0.000000 0.000000 0.000000
# 4 0.000000 0.000000 0.000000 0.646309 0.000000 0.000000
# 5 0.000000 0.000000 0.000000 0.000000 0.053864 0.000000
# 6 0.000000 0.000000 0.000000 0.000000 0.000000 0.077513
#
#
# Mechanical properties :
#
#
# Convention : Reuss Voigt Hill
#
# Bulk Modulus (GPa) = 36.60668 46.13633 41.37150
# Shear Modulus (GPa) = 5.51788 14.42716 9.97252
#
# Velocity S-wave (km/s) = 2.16002 3.49271 2.90385
# Velocity P-wave (km/s) = 6.09705 7.43480 6.79891
#
# Compressibility (1/GPa) = 0.02731742
#
# Stress axis : x y z
#
# Youngs Moduli (GPa) = 24.94506 69.62589 52.95150
#
# Poissons Ratio (x) = 0.65049 0.50584
# Poissons Ratio (y) = 0.23305 0.21783
# Poissons Ratio (z) = 0.23830 0.28642
#
# Static dielectric constant tensor:
#      x y z
#    x 1.396600 0.000000 0.000000 
#    y 0.000000 1.420650 0.000000 
#    z 0.000000 0.000000 1.348530 
# 
# From -- ./inp_files/22420.got.cif
#   From: 2010.05.17/outbox.cif.g08.bks.cpg/sg51_12_cif.got.tgz:22420.got - 2010.06.03 11:52:47.
