data_PCOD9400447
_publ_section_title
;
Structure prediction by ZEFSAII (Michael W. Deem and Ramdas Pophale) SiO2 
 PCOD9400447
Probable space group: P M M A
;
_chemical_formula_sum "Si O2"
_cell_formula_units_Z 64
_cell_length_a 8.660230
_cell_length_b 20.902205
_cell_length_c 20.509714
_cell_angle_alpha 90.000000
_cell_angle_beta 90.000000
_cell_angle_gamma 90.000000
_cell_volume 3712.625415
_symmetry_space_group_name_H-M "P M M A"
_symmetry_group_IT_number 51
_symmetry_cell_setting 'orthorhombic'
loop_
_space_group_symop_operation_xyz
x,y,z
1/2-x,-y,z
1/2+x,-y,-z
-x,y,-z
-x,-y,-z
1/2+x,y,-z
1/2-x,y,z
x,-y,z
loop_
_atom_site_type_symbol
_atom_site_label
_atom_site_fract_x
_atom_site_fract_y
_atom_site_fract_z
Si Si1 0.935519 0.746346 0.708618
Si Si2 0.063925 0.683258 0.158397
Si Si3 0.565116 0.109752 0.289404
Si Si4 0.065668 0.894898 0.567258
Si Si5 0.436050 0.069624 0.152733
Si Si6 0.565974 0.249547 0.564919
Si Si7 0.065469 0.426054 0.929681
Si Si8 0.436530 0.806542 0.072649
O O1 0.750000 0.757029 0.714160
O O2 0.982197 0.700491 0.767679
O O3 0.966007 0.720587 0.635734
O O4 0.014332 0.815749 0.714456
O O5 0.250000 0.678037 0.156552
O O6 0.018428 0.744239 0.114189
O O7 0.993519 0.620226 0.126764
O O8 0.750000 0.105572 0.286375
O O9 0.516153 0.082438 0.360535
O O10 0.493038 0.076682 0.226691
O O11 0.250000 0.898769 0.564018
O O12 0.000000 0.923232 0.500000
O O13 0.012597 0.820549 0.567433
O O14 0.250000 0.072260 0.153385
O O15 0.490947 0.129489 0.109917
O O16 0.483972 0.000000 0.126862
O O17 0.500000 0.282143 0.500000
O O18 0.750000 0.241354 0.558280
O O19 0.250000 0.423964 0.932663
O O20 0.016672 0.500000 0.919888
O O21 0.000000 0.404786 0.000000
O O22 0.250000 0.807856 0.070548
O O23 0.500000 0.803452 0.000000
#
# Coordination Sequence:
#
# PCOD9400447 Si02
#       8
#     8   8   8   8   8   8   8   8
#     4   9  17  30  47  68  97 133 166 199 242 291
#     4  10  19  33  53  76 103 133 168 207 243 286
#     4  10  19  30  47  71  97 122 155 202 249 291
#     4   9  16  25  39  63  91 120 153 190 235 285
#     4  10  21  38  56  70  90 125 164 200 245 303
#     4   9  15  23  38  60  91 128 162 196 236 282
#     4  10  21  36  53  75 104 137 172 206 242 290
#     4  10  21  36  53  75  99 123 157 199 244 293
#
# _framework density 17.238475999999999
#
# number of rings (size 3 to 8) (size 9 to 14) (size 15 to 20)
#    0.000    2.375    1.250    2.625    0.000    5.750 
#    0.000    0.000    0.000    0.375    0.000    0.000 
#    0.000    0.500    0.000    1.125    0.000    2.250 
#
# Total GULP energy -356830.468546 kJ/mol
# GULP energy per Si atom -5575.476071 kJ/mol
# Density = 1.719924 g / cm^3
# Si number density = 17.238476 Si / 1000 Ang^3
#
#
#
# Elastic Constant Matrix: (Units=GPa)
#
#
# Indices 1 2 3 4 5 6 
#
# 1 14.4194 13.7421 20.7434 0.0000 0.0000 0.0000
# 2 13.7421 61.5916 45.8501 0.0000 0.0000 0.0000
# 3 20.7434 45.8501 141.6843 0.0000 0.0000 0.0000
# 4 0.0000 0.0000 0.0000 150.7141 0.0000 0.0000
# 5 0.0000 0.0000 0.0000 0.0000 29.7865 0.0000
# 6 0.0000 0.0000 0.0000 0.0000 0.0000 8.1930
#
#
#
# Elastic Compliance Matrix: (Units=1/GPa)
#
#
# Indices 1 2 3 4 5 6 
#
# 1 0.096846 -0.014561 -0.009467 0.000000 0.000000 0.000000
# 2 -0.014561 0.023578 -0.005498 0.000000 0.000000 0.000000
# 3 -0.009467 -0.005498 0.010223 0.000000 0.000000 0.000000
# 4 0.000000 0.000000 0.000000 0.006635 0.000000 0.000000
# 5 0.000000 0.000000 0.000000 0.000000 0.033572 0.000000
# 6 0.000000 0.000000 0.000000 0.000000 0.000000 0.122056
#
#
# Mechanical properties :
#
#
# Convention : Reuss Voigt Hill
#
# Bulk Modulus (GPa) = 13.96731 42.04073 28.00402
# Shear Modulus (GPa) = 13.30399 46.89602 30.10001
#
# Velocity S-wave (km/s) = 2.78107 5.22143 4.18316
# Velocity P-wave (km/s) = 4.29331 7.79691 6.29382
#
# Compressibility (1/GPa) = 0.07159575
#
# Stress axis : x y z
#
# Youngs Moduli (GPa) = 10.32564 42.41309 97.81676
#
# Poissons Ratio (x) = 0.61756 0.92603
# Poissons Ratio (y) = 0.15035 0.53781
# Poissons Ratio (z) = 0.09775 0.23319
#
# Static dielectric constant tensor:
#      x y z
#    x 1.584070 0.000000 0.000000 
#    y 0.000000 1.576970 0.000000 
#    z 0.000000 0.000000 1.622210 
# 
# From -- ./inp_files/32359.got.cif
#   From: 2010.05.17/outbox.cif.g08.bks.cpg/sg51_17_cif.got.tgz:32359.got - 2010.06.03 11:52:47.
