data_PCOD9400430
_publ_section_title
;
Structure prediction by ZEFSAII (Michael W. Deem and Ramdas Pophale) SiO2 
 PCOD9400430
Probable space group: P M M A
;
_chemical_formula_sum "Si O2"
_cell_formula_units_Z 64
_cell_length_a 8.976701
_cell_length_b 22.852294
_cell_length_c 18.494095
_cell_angle_alpha 90.000000
_cell_angle_beta 90.000000
_cell_angle_gamma 90.000000
_cell_volume 3793.845551
_symmetry_space_group_name_H-M "P M M A"
_symmetry_group_IT_number 51
_symmetry_cell_setting 'orthorhombic'
loop_
_space_group_symop_operation_xyz
x,y,z
1/2-x,-y,z
1/2+x,-y,-z
-x,y,-z
-x,-y,-z
1/2+x,y,-z
1/2-x,y,z
x,-y,z
loop_
_atom_site_type_symbol
_atom_site_label
_atom_site_fract_x
_atom_site_fract_y
_atom_site_fract_z
Si Si1 0.076148 0.757021 0.791375
Si Si2 0.071531 0.310743 0.074481
Si Si3 0.076828 0.929822 0.577880
Si Si4 0.579297 0.334618 0.342689
Si Si5 0.582943 0.245449 0.565655
Si Si6 0.572824 0.433339 0.113395
Si Si7 0.080503 0.848520 0.306719
Si Si8 0.580585 0.433810 0.733961
O O1 0.250000 0.765750 0.809907
O O2 0.071597 0.709617 0.726005
O O3 0.989331 0.727220 0.858019
O O4 0.004799 0.817006 0.759786
O O5 0.250000 0.309576 0.072603
O O6 0.015142 0.378200 0.081574
O O7 0.000000 0.288040 0.000000
O O8 0.250000 0.911631 0.573845
O O9 0.000000 0.917555 0.500000
O O10 0.001561 0.899066 0.647423
O O11 0.069704 0.000000 0.587180
O O12 0.750000 0.352566 0.351415
O O13 0.517444 0.299675 0.410725
O O14 0.473017 0.388071 0.324340
O O15 0.500000 0.214826 0.500000
O O16 0.750000 0.262369 0.546153
O O17 0.589940 0.202669 0.633433
O O18 0.750000 0.425718 0.102740
O O19 0.532313 0.500000 0.089336
O O20 0.530578 0.430658 0.198119
O O21 0.250000 0.865204 0.286836
O O22 0.750000 0.420805 0.758867
O O23 0.578167 0.500000 0.706720
#
# Coordination Sequence:
#
# PCOD9400430 Si02
#       8
#     8   8   8   8   8   8   8   8
#     4  10  20  35  53  74 100 129 167 210 253 299
#     4  12  24  37  54  73 100 133 168 208 258 314
#     4  10  20  33  50  75 110 151 190 225 261 302
#     4  10  19  31  50  70  92 121 154 195 243 293
#     4  10  20  32  47  69  97 125 160 201 245 294
#     4  10  20  34  51  71  96 126 162 203 249 305
#     4  10  20  33  52  76 103 138 176 214 254 295
#     4  10  19  30  47  70  93 118 151 193 240 292
#
# _framework density 16.869426000000001
#
# number of rings (size 3 to 8) (size 9 to 14) (size 15 to 20)
#    0.000    1.750    1.250    4.125    0.000    6.000 
#    0.000    0.000    0.000    0.375    0.000    0.000 
#    0.000    0.500    0.000    1.875    0.000    2.875 
#
# Total GULP energy -356956.414094 kJ/mol
# GULP energy per Si atom -5577.443970 kJ/mol
# Density = 1.683103 g / cm^3
# Si number density = 16.869426 Si / 1000 Ang^3
#
#
#
# Elastic Constant Matrix: (Units=GPa)
#
#
# Indices 1 2 3 4 5 6 
#
# 1 133.0233 40.8086 46.5929 0.0000 0.0000 0.0000
# 2 40.8086 60.3828 30.4843 0.0000 0.0000 0.0000
# 3 46.5929 30.4843 60.4748 0.0000 0.0000 0.0000
# 4 0.0000 0.0000 0.0000 17.0738 0.0000 0.0000
# 5 0.0000 0.0000 0.0000 0.0000 25.2277 0.0000
# 6 0.0000 0.0000 0.0000 0.0000 0.0000 20.2810
#
#
#
# Elastic Compliance Matrix: (Units=1/GPa)
#
#
# Indices 1 2 3 4 5 6 
#
# 1 0.011055 -0.004254 -0.006373 0.000000 0.000000 0.000000
# 2 -0.004254 0.023851 -0.008746 0.000000 0.000000 0.000000
# 3 -0.006373 -0.008746 0.025854 0.000000 0.000000 0.000000
# 4 0.000000 0.000000 0.000000 0.058569 0.000000 0.000000
# 5 0.000000 0.000000 0.000000 0.000000 0.039639 0.000000
# 6 0.000000 0.000000 0.000000 0.000000 0.000000 0.049307
#
#
# Mechanical properties :
#
#
# Convention : Reuss Voigt Hill
#
# Bulk Modulus (GPa) = 45.42227 54.40582 49.91405
# Shear Modulus (GPa) = 19.65733 21.58284 20.62009
#
# Velocity S-wave (km/s) = 3.41730 3.58076 3.49998
# Velocity P-wave (km/s) = 6.52341 7.02972 6.78129
#
# Compressibility (1/GPa) = 0.02201563
#
# Stress axis : x y z
#
# Youngs Moduli (GPa) = 90.46032 41.92695 38.67835
#
# Poissons Ratio (x) = 0.17835 0.24649
# Poissons Ratio (y) = 0.38479 0.33827
# Poissons Ratio (z) = 0.57649 0.36668
#
# Static dielectric constant tensor:
#      x y z
#    x 1.586630 0.000000 0.000000 
#    y 0.000000 1.572010 0.000000 
#    z 0.000000 0.000000 1.573420 
# 
# From -- ./inp_files/28363.got.cif
#   From: 2010.05.17/outbox.cif.g08.bks.cpg/sg51_15_cif.got.tgz:28363.got - 2010.06.03 11:52:47.
