data_PCOD9400895
_publ_section_title
;
Structure prediction by ZEFSAII (Michael W. Deem and Ramdas Pophale) SiO2 
 PCOD9400895
Probable space group: P M M A
;
_chemical_formula_sum "Si O2"
_cell_formula_units_Z 56
_cell_length_a 14.698815
_cell_length_b 8.970809
_cell_length_c 21.839466
_cell_angle_alpha 90.000000
_cell_angle_beta 90.000000
_cell_angle_gamma 90.000000
_cell_volume 2879.757706
_symmetry_space_group_name_H-M "P M M A"
_symmetry_group_IT_number 51
_symmetry_cell_setting 'orthorhombic'
loop_
_space_group_symop_operation_xyz
x,y,z
1/2-x,-y,z
1/2+x,-y,-z
-x,y,-z
-x,-y,-z
1/2+x,y,-z
1/2-x,y,z
x,-y,z
loop_
_atom_site_type_symbol
_atom_site_label
_atom_site_fract_x
_atom_site_fract_y
_atom_site_fract_z
Si Si1 0.101886 0.832233 0.974278
Si Si2 0.538297 0.319958 0.405376
Si Si3 0.855842 0.818861 0.161689
Si Si4 0.644802 0.662059 0.907060
Si Si5 0.353768 0.680735 0.471838
Si Si6 0.644266 0.318651 0.776513
Si Si7 0.473851 0.820876 0.721264
O O1 0.108585 0.770366 0.905595
O O2 0.139490 0.000000 0.972684
O O3 0.146551 0.740423 0.028224
O O4 0.000000 0.839945 0.000000
O O5 0.538568 0.500000 0.398477
O O6 0.607381 0.282506 0.460605
O O7 0.435583 0.274173 0.426115
O O8 0.563804 0.241647 0.342342
O O9 0.750000 0.776324 0.166845
O O10 0.913849 0.769912 0.220217
O O11 0.860635 0.000000 0.161545
O O12 0.750000 0.642885 0.890153
O O13 0.600375 0.500000 0.914346
O O14 0.610967 0.736890 0.844444
O O15 0.250000 0.734061 0.461293
O O16 0.351013 0.500000 0.468579
O O17 0.750000 0.279733 0.764687
O O18 0.637732 0.500000 0.776532
O O19 0.574364 0.247359 0.729746
O O20 0.476868 0.000000 0.720763
#
# Coordination Sequence:
#
# PCOD9400895 Si02
#       7
#     8   8   8   8   8   8   8
#     4  10  19  31  50  74  96 124 169 220 268 318
#     4   9  18  33  54  80 107 136 173 213 255 307
#     4   9  19  35  51  69 101 146 187 219 259 317
#     4   9  18  32  49  70  95 122 157 206 264 319
#     4   8  15  31  56  82 106 135 172 211 250 301
#     4   9  19  36  55  74 101 139 177 214 267 334
#     4  11  22  35  53  77 107 142 181 224 262 302
#
# _framework density 19.446079999999998
#
# number of rings (size 3 to 8) (size 9 to 14) (size 15 to 20)
#    0.000    2.714    0.000    3.429    0.000    4.286 
#    0.000    5.714    0.000    3.857    0.000    0.000 
#    0.000    0.000    0.000    0.000    0.000    0.000 
#
# Total GULP energy -311795.765466 kJ/mol
# GULP energy per Si atom -5567.781526 kJ/mol
# Density = 1.940182 g / cm^3
# Si number density = 19.446080 Si / 1000 Ang^3
#
#
#
# Elastic Constant Matrix: (Units=GPa)
#
#
# Indices 1 2 3 4 5 6 
#
# 1 75.4388 0.7699 8.0587 0.0000 0.0000 0.0000
# 2 0.7699 13.8286 13.6337 0.0000 0.0000 0.0000
# 3 8.0587 13.6337 89.2925 0.0000 0.0000 0.0000
# 4 0.0000 0.0000 0.0000 28.1184 0.0000 0.0000
# 5 0.0000 0.0000 0.0000 0.0000 17.2444 0.0000
# 6 0.0000 0.0000 0.0000 0.0000 0.0000 -11.3234
#
#
#
# Elastic Compliance Matrix: (Units=1/GPa)
#
#
# Indices 1 2 3 4 5 6 
#
# 1 0.013388 0.000525 -0.001288 0.000000 0.000000 0.000000
# 2 0.000525 0.085150 -0.013049 0.000000 0.000000 0.000000
# 3 -0.001288 -0.013049 0.013308 0.000000 0.000000 0.000000
# 4 0.000000 0.000000 0.000000 0.035564 0.000000 0.000000
# 5 0.000000 0.000000 0.000000 0.000000 0.057990 0.000000
# 6 0.000000 0.000000 0.000000 0.000000 0.000000 -0.088313
#
#
# Mechanical properties :
#
#
# Convention : Reuss Voigt Hill
#
# Bulk Modulus (GPa) = 11.87350 24.83164 18.35257
# Shear Modulus (GPa) = 28.93778 17.21437 23.07608
#
# Velocity S-wave (km/s) = 3.86178 2.97852 3.44854
# Velocity P-wave (km/s) = 5.09937 4.96246 5.03138
#
# Compressibility (1/GPa) = 0.08422120
#
# Stress axis : x y z
#
# Youngs Moduli (GPa) = 74.69343 11.74404 75.14414
#
# Poissons Ratio (x) = -0.00616 0.09682
# Poissons Ratio (y) = -0.03920 0.98052
# Poissons Ratio (z) = 0.09624 0.15324
#
# Static dielectric constant tensor:
#      x y z
#    x 1.673800 0.000000 0.000000 
#    y 0.000000 1.687310 0.000000 
#    z 0.000000 0.000000 1.700230 
# 
# From -- ./inp_files/33380.got.cif
#   From: 2010.05.17/outbox.cif.g08.bks.cpg/sg51_17_cif.got.tgz:33380.got - 2010.06.03 11:52:47.
