data_PCOD9400379
_publ_section_title
;
Structure prediction by ZEFSAII (Michael W. Deem and Ramdas Pophale) SiO2 
 PCOD9400379
Probable space group: P M M A
;
_chemical_formula_sum "Si O2"
_cell_formula_units_Z 52
_cell_length_a 8.923987
_cell_length_b 19.100080
_cell_length_c 18.684049
_cell_angle_alpha 90.000000
_cell_angle_beta 90.000000
_cell_angle_gamma 90.000000
_cell_volume 3184.674957
_symmetry_space_group_name_H-M "P M M A"
_symmetry_group_IT_number 51
_symmetry_cell_setting 'orthorhombic'
loop_
_space_group_symop_operation_xyz
x,y,z
1/2-x,-y,z
1/2+x,-y,-z
-x,y,-z
-x,-y,-z
1/2+x,y,-z
1/2-x,y,z
x,-y,z
loop_
_atom_site_type_symbol
_atom_site_label
_atom_site_fract_x
_atom_site_fract_y
_atom_site_fract_z
Si Si1 0.577797 0.143214 0.793671
Si Si2 0.929349 0.782683 0.077735
Si Si3 0.428494 0.782595 0.576954
Si Si4 0.078592 0.710634 0.295079
Si Si5 0.069802 0.922359 0.660166
Si Si6 0.568277 0.354000 0.848221
Si Si7 0.930096 0.500000 0.921590
O O1 0.750000 0.124558 0.808956
O O2 0.487015 0.159472 0.865605
O O3 0.578494 0.217018 0.750427
O O4 0.501632 0.090544 0.738039
O O5 0.750000 0.781654 0.074633
O O6 0.990151 0.708011 0.107328
O O7 0.000000 0.794527 0.000000
O O8 0.500000 0.770673 0.500000
O O9 0.250000 0.782769 0.571311
O O10 0.480247 0.725828 0.635639
O O11 0.477313 0.858811 0.608303
O O12 0.250000 0.696087 0.316567
O O13 0.028260 0.654710 0.235632
O O14 0.250000 0.918113 0.666909
O O15 0.030018 0.000000 0.633726
O O16 0.750000 0.344416 0.852988
O O17 0.527998 0.429252 0.879833
O O18 0.750000 0.500000 0.927985
O O19 0.000000 0.500000 0.000000
#
# Coordination Sequence:
#
# PCOD9400379 Si02
#       7
#     8   8   8   8   8   8   4
#     4   9  17  30  47  67  89 115 152 194 233 276
#     4  11  20  30  46  67  91 119 153 195 240 280
#     4  10  19  30  46  69  96 123 152 189 232 275
#     4   8  15  29  47  65  88 118 153 192 230 271
#     4   9  18  32  48  67  93 125 157 186 221 272
#     4   9  18  32  48  68  95 127 161 194 230 276
#     4  10  20  32  46  68 101 136 165 194 231 274
#
# _framework density 16.328196999999999
#
# number of rings (size 3 to 8) (size 9 to 14) (size 15 to 20)
#    0.000    2.615    0.000    3.692    0.000    6.769 
#    0.000    0.000    0.000    0.462    0.000    0.538 
#    0.000    0.000    0.000    0.000    0.000    0.000 
#
# Total GULP energy -289795.709988 kJ/mol
# GULP energy per Si atom -5572.994423 kJ/mol
# Density = 1.629103 g / cm^3
# Si number density = 16.328197 Si / 1000 Ang^3
#
#
#
# Elastic Constant Matrix: (Units=GPa)
#
#
# Indices 1 2 3 4 5 6 
#
# 1 54.4895 9.1073 50.1315 0.0000 0.0000 0.0000
# 2 9.1073 41.7787 33.2253 0.0000 0.0000 0.0000
# 3 50.1315 33.2253 136.7889 0.0000 0.0000 0.0000
# 4 0.0000 0.0000 0.0000 18.6272 0.0000 0.0000
# 5 0.0000 0.0000 0.0000 0.0000 27.3387 0.0000
# 6 0.0000 0.0000 0.0000 0.0000 0.0000 16.3963
#
#
#
# Elastic Compliance Matrix: (Units=1/GPa)
#
#
# Indices 1 2 3 4 5 6 
#
# 1 0.027904 0.002541 -0.010844 0.000000 0.000000 0.000000
# 2 0.002541 0.029898 -0.008193 0.000000 0.000000 0.000000
# 3 -0.010844 -0.008193 0.013275 0.000000 0.000000 0.000000
# 4 0.000000 0.000000 0.000000 0.053685 0.000000 0.000000
# 5 0.000000 0.000000 0.000000 0.000000 0.036578 0.000000
# 6 0.000000 0.000000 0.000000 0.000000 0.000000 0.060989
#
#
# Mechanical properties :
#
#
# Convention : Reuss Voigt Hill
#
# Bulk Modulus (GPa) = 26.25758 46.44282 36.35020
# Shear Modulus (GPa) = 18.65569 21.84532 20.25051
#
# Velocity S-wave (km/s) = 3.38382 3.66169 3.52549
# Velocity P-wave (km/s) = 5.60206 6.81046 6.23560
#
# Compressibility (1/GPa) = 0.03808423
#
# Stress axis : x y z
#
# Youngs Moduli (GPa) = 35.83743 33.44761 75.33157
#
# Poissons Ratio (x) = -0.08499 0.81686
# Poissons Ratio (y) = -0.09106 0.61720
# Poissons Ratio (z) = 0.38861 0.27404
#
# Static dielectric constant tensor:
#      x y z
#    x 1.550480 0.000000 0.000000 
#    y 0.000000 1.552810 0.000000 
#    z 0.000000 0.000000 1.540240 
# 
# From -- ./inp_files/22094.got.cif
#   From: 2010.05.17/outbox.cif.g08.bks.cpg/sg51_12_cif.got.tgz:22094.got - 2010.06.03 11:52:47.
