data_PCOD9400975
_publ_section_title
;
Structure prediction by ZEFSAII (Michael W. Deem and Ramdas Pophale) SiO2 
 PCOD9400975
Probable space group: P M M A
;
_chemical_formula_sum "Si O2"
_cell_formula_units_Z 64
_cell_length_a 24.802076
_cell_length_b 7.673288
_cell_length_c 17.438157
_cell_angle_alpha 90.000000
_cell_angle_beta 90.000000
_cell_angle_gamma 90.000000
_cell_volume 3318.716206
_symmetry_space_group_name_H-M "P M M A"
_symmetry_group_IT_number 51
_symmetry_cell_setting 'orthorhombic'
loop_
_space_group_symop_operation_xyz
x,y,z
1/2-x,-y,z
1/2+x,-y,-z
-x,y,-z
-x,-y,-z
1/2+x,y,-z
1/2-x,y,z
x,-y,z
loop_
_atom_site_type_symbol
_atom_site_label
_atom_site_fract_x
_atom_site_fract_y
_atom_site_fract_z
Si Si1 0.596753 0.209671 0.041635
Si Si2 0.311572 0.707335 0.846625
Si Si3 0.023127 0.786175 0.816258
Si Si4 0.188769 0.795561 0.576470
Si Si5 0.688651 0.290227 0.759542
Si Si6 0.613588 0.200867 0.293053
Si Si7 0.684668 0.700410 0.593413
Si Si8 0.591060 0.790710 0.868248
O O1 0.654824 0.256063 0.076587
O O2 0.553211 0.268463 0.104997
O O3 0.592477 0.000000 0.039248
O O4 0.589208 0.276039 0.955607
O O5 0.250000 0.766497 0.850871
O O6 0.312188 0.500000 0.832766
O O7 0.343763 0.794646 0.776977
O O8 0.059237 0.723341 0.744747
O O9 0.961394 0.729527 0.821358
O O10 0.024953 0.000000 0.814541
O O11 0.250000 0.721758 0.583736
O O12 0.144876 0.718442 0.634722
O O13 0.171096 0.783863 0.487923
O O14 0.193171 0.000000 0.595954
O O15 0.750000 0.228127 0.774119
O O16 0.691556 0.500000 0.752127
O O17 0.668447 0.223853 0.676016
O O18 0.646469 0.249734 0.825545
O O19 0.600948 0.000000 0.312825
O O20 0.750000 0.702687 0.597183
O O21 0.666818 0.500000 0.588797
O O22 0.586765 0.000000 0.872621
#
# Coordination Sequence:
#
# PCOD9400975 Si02
#       8
#     8   8   8   8   8   8   8   8
#     4   9  18  32  49  67  89 120 155 192 233 275
#     4  10  20  31  43  63  93 126 157 190 228 269
#     4   8  15  30  50  69  91 120 153 189 228 269
#     4   9  16  25  42  71  99 119 146 186 226 264
#     4   9  19  35  51  68  94 125 152 182 228 282
#     4   9  17  30  48  68  93 126 157 185 224 274
#     4   8  15  29  47  65  88 121 155 183 219 270
#     4  10  19  31  51  75  92 112 151 197 234 271
#
# _framework density 19.284566000000002
#
# number of rings (size 3 to 8) (size 9 to 14) (size 15 to 20)
#    0.000    3.000    0.000    2.625    0.000    5.250 
#    0.000    7.500    0.000    4.500    0.000    5.250 
#    0.000    0.000    0.000    0.000    0.000    0.000 
#
# Total GULP energy -356563.768988 kJ/mol
# GULP energy per Si atom -5571.308890 kJ/mol
# Density = 1.924067 g / cm^3
# Si number density = 19.284566 Si / 1000 Ang^3
#
#
#
# Elastic Constant Matrix: (Units=GPa)
#
#
# Indices 1 2 3 4 5 6 
#
# 1 85.9799 -3.8839 27.7936 0.0000 0.0000 0.0000
# 2 -3.8839 33.0784 0.3457 0.0000 0.0000 0.0000
# 3 27.7936 0.3457 81.4320 0.0000 0.0000 0.0000
# 4 0.0000 0.0000 0.0000 25.8161 0.0000 0.0000
# 5 0.0000 0.0000 0.0000 0.0000 14.7042 0.0000
# 6 0.0000 0.0000 0.0000 0.0000 0.0000 47.1520
#
#
#
# Elastic Compliance Matrix: (Units=1/GPa)
#
#
# Indices 1 2 3 4 5 6 
#
# 1 0.013156 0.001592 -0.004497 0.000000 0.000000 0.000000
# 2 0.001592 0.030425 -0.000672 0.000000 0.000000 0.000000
# 3 -0.004497 -0.000672 0.013818 0.000000 0.000000 0.000000
# 4 0.000000 0.000000 0.000000 0.038736 0.000000 0.000000
# 5 0.000000 0.000000 0.000000 0.000000 0.068008 0.000000
# 6 0.000000 0.000000 0.000000 0.000000 0.000000 0.021208
#
#
# Mechanical properties :
#
#
# Convention : Reuss Voigt Hill
#
# Bulk Modulus (GPa) = 19.90298 27.66678 23.78488
# Shear Modulus (GPa) = 23.89439 29.28345 26.58892
#
# Velocity S-wave (km/s) = 3.52382 3.90101 3.71720
# Velocity P-wave (km/s) = 5.18647 5.88797 5.54832
#
# Compressibility (1/GPa) = 0.05024373
#
# Stress axis : x y z
#
# Youngs Moduli (GPa) = 76.00950 32.86753 72.36957
#
# Poissons Ratio (x) = -0.05232 0.32546
# Poissons Ratio (y) = -0.12099 0.04866
# Poissons Ratio (z) = 0.34182 0.02210
#
# Static dielectric constant tensor:
#      x y z
#    x 1.668730 0.000000 0.000000 
#    y 0.000000 1.725060 0.000000 
#    z 0.000000 0.000000 1.684900 
# 
# From -- ./inp_files/30885.got.cif
#   From: 2010.05.17/outbox.cif.g08.bks.cpg/sg51_16_cif.got.tgz:30885.got - 2010.06.03 11:52:47.
