data_PCOD9400470
_publ_section_title
;
Structure prediction by ZEFSAII (Michael W. Deem and Ramdas Pophale) SiO2 
 PCOD9400470
Probable space group: P M M A
;
_chemical_formula_sum "Si O2"
_cell_formula_units_Z 48
_cell_length_a 8.660582
_cell_length_b 16.197322
_cell_length_c 19.895273
_cell_angle_alpha 90.000000
_cell_angle_beta 90.000000
_cell_angle_gamma 90.000000
_cell_volume 2790.873788
_symmetry_space_group_name_H-M "P M M A"
_symmetry_group_IT_number 51
_symmetry_cell_setting 'orthorhombic'
loop_
_space_group_symop_operation_xyz
x,y,z
1/2-x,-y,z
1/2+x,-y,-z
-x,y,-z
-x,-y,-z
1/2+x,y,-z
1/2-x,y,z
x,-y,z
loop_
_atom_site_type_symbol
_atom_site_label
_atom_site_fract_x
_atom_site_fract_y
_atom_site_fract_z
Si Si1 0.567648 0.590551 0.828510
Si Si2 0.434939 0.095200 0.574020
Si Si3 0.065348 0.763954 0.823255
Si Si4 0.563664 0.093770 0.074363
Si Si5 0.435953 0.767841 0.327236
Si Si6 0.066880 0.411639 0.334244
O O1 0.750000 0.597512 0.843444
O O2 0.513077 0.500000 0.852638
O O3 0.482409 0.673470 0.850475
O O4 0.553940 0.588993 0.747068
O O5 0.500000 0.113923 0.500000
O O6 0.250000 0.100921 0.572957
O O7 0.502124 0.158225 0.627881
O O8 0.477328 0.000000 0.589745
O O9 0.250000 0.767185 0.816619
O O10 0.013375 0.836882 0.872866
O O11 0.992105 0.775117 0.749577
O O12 0.750000 0.095708 0.071782
O O13 0.517182 0.000000 0.093469
O O14 0.500000 0.110158 0.000000
O O15 0.250000 0.766917 0.327494
O O16 0.492983 0.678228 0.355156
O O17 0.250000 0.412978 0.349587
O O18 0.000477 0.500000 0.357954
#
# Coordination Sequence:
#
# PCOD9400470 Si02
#       6
#     8   8   8   8   8   8
#     4   8  14  26  44  66  94 128 163 198 238 285
#     4  10  21  37  55  73  96 128 164 203 248 297
#     4  10  19  30  47  74 104 130 159 200 248 292
#     4   9  19  35  52  69  92 125 163 201 244 295
#     4  10  19  31  50  76 103 131 164 201 240 285
#     4   7  11  22  41  65  93 124 156 190 229 272
#
# _framework density 17.198913999999998
#
# number of rings (size 3 to 8) (size 9 to 14) (size 15 to 20)
#    0.000    3.000    0.000    3.500    0.000    3.333 
#    0.000    1.667    0.000    2.500    0.000    0.000 
#    0.000    0.000    0.000    0.000    0.000    0.000 
#
# Total GULP energy -267208.384585 kJ/mol
# GULP energy per Si atom -5566.841346 kJ/mol
# Density = 1.715977 g / cm^3
# Si number density = 17.198914 Si / 1000 Ang^3
#
#
#
# Elastic Constant Matrix: (Units=GPa)
#
#
# Indices 1 2 3 4 5 6 
#
# 1 31.9951 42.0728 21.5725 0.0000 0.0000 0.0000
# 2 42.0728 184.6686 86.4992 0.0000 0.0000 0.0000
# 3 21.5725 86.4992 57.2438 0.0000 0.0000 0.0000
# 4 0.0000 0.0000 0.0000 -9.3644 0.0000 0.0000
# 5 0.0000 0.0000 0.0000 0.0000 22.7197 0.0000
# 6 0.0000 0.0000 0.0000 0.0000 0.0000 26.1906
#
#
#
# Elastic Compliance Matrix: (Units=1/GPa)
#
#
# Indices 1 2 3 4 5 6 
#
# 1 0.045042 -0.007909 -0.005023 0.000000 0.000000 0.000000
# 2 -0.007909 0.019920 -0.027120 0.000000 0.000000 0.000000
# 3 -0.005023 -0.027120 0.060342 0.000000 0.000000 0.000000
# 4 0.000000 0.000000 0.000000 -0.106788 0.000000 0.000000
# 5 0.000000 0.000000 0.000000 0.000000 0.044015 0.000000
# 6 0.000000 0.000000 0.000000 0.000000 0.000000 0.038182
#
#
# Mechanical properties :
#
#
# Convention : Reuss Voigt Hill
#
# Bulk Modulus (GPa) = 22.12396 63.79960 42.96178
# Shear Modulus (GPa) = 25.52537 16.16006 20.84272
#
# Velocity S-wave (km/s) = 3.85662 3.06861 3.48496
# Velocity P-wave (km/s) = 5.72039 7.05201 6.42081
#
# Compressibility (1/GPa) = 0.04519986
#
# Stress axis : x y z
#
# Youngs Moduli (GPa) = 22.20164 50.20053 16.57209
#
# Poissons Ratio (x) = 0.39703 0.08324
# Poissons Ratio (y) = 0.17559 0.44944
# Poissons Ratio (z) = 0.11152 1.36144
#
# Static dielectric constant tensor:
#      x y z
#    x 1.570910 0.000000 0.000000 
#    y 0.000000 1.641540 0.000000 
#    z 0.000000 0.000000 1.540430 
# 
# From -- ./inp_files/31604.got.cif
#   From: 2010.05.17/outbox.cif.g08.bks.cpg/sg51_16_cif.got.tgz:31604.got - 2010.06.03 11:52:47.
