data_PCOD9400652
_publ_section_title
;
Structure prediction by ZEFSAII (Michael W. Deem and Ramdas Pophale) SiO2 
 PCOD9400652
Probable space group: P M M A
;
_chemical_formula_sum "Si O2"
_cell_formula_units_Z 64
_cell_length_a 18.475427
_cell_length_b 9.141289
_cell_length_c 22.327278
_cell_angle_alpha 90.000000
_cell_angle_beta 90.000000
_cell_angle_gamma 90.000000
_cell_volume 3770.836513
_symmetry_space_group_name_H-M "P M M A"
_symmetry_group_IT_number 51
_symmetry_cell_setting 'orthorhombic'
loop_
_space_group_symop_operation_xyz
x,y,z
1/2-x,-y,z
1/2+x,-y,-z
-x,y,-z
-x,-y,-z
1/2+x,y,-z
1/2-x,y,z
x,-y,z
loop_
_atom_site_type_symbol
_atom_site_label
_atom_site_fract_x
_atom_site_fract_y
_atom_site_fract_z
Si Si1 0.338302 0.669517 0.621602
Si Si2 0.163705 0.828053 0.743396
Si Si3 0.091295 0.825701 0.246734
Si Si4 0.332222 0.824976 0.121474
Si Si5 0.337336 0.674196 0.359851
Si Si6 0.032848 0.675545 0.063304
Si Si7 0.044020 0.325465 0.813045
Si Si8 0.834029 0.322024 0.508425
O O1 0.250000 0.670476 0.618565
O O2 0.359878 0.500000 0.630844
O O3 0.359085 0.765674 0.678370
O O4 0.365216 0.722117 0.556188
O O5 0.250000 0.806386 0.748838
O O6 0.120108 0.741265 0.793633
O O7 0.148405 0.000000 0.747080
O O8 0.144448 0.795663 0.190277
O O9 0.124951 0.761803 0.307054
O O10 0.016595 0.747173 0.229361
O O11 0.081195 0.000000 0.250813
O O12 0.250000 0.776712 0.111110
O O13 0.390845 0.748445 0.079403
O O14 0.336091 0.000000 0.113234
O O15 0.250000 0.694281 0.357625
O O16 0.350434 0.500000 0.352903
O O17 0.363942 0.719838 0.426559
O O18 0.041986 0.500000 0.061717
O O19 0.979623 0.709455 0.118937
O O20 0.000000 0.723329 0.000000
O O21 0.043637 0.500000 0.805869
O O22 0.750000 0.274976 0.508933
O O23 0.833831 0.500000 0.507317
#
# Coordination Sequence:
#
# PCOD9400652 Si02
#       8
#     8   8   8   8   8   8   8   8
#     4   8  13  24  44  67  90 120 159 199 240 287
#     4  10  20  33  50  74 102 127 154 195 245 290
#     4  10  19  31  47  68  98 132 163 200 246 289
#     4   9  18  32  50  74 103 134 169 204 236 279
#     4   9  16  26  42  66  96 129 166 205 242 284
#     4   9  19  36  56  78 103 130 162 201 243 285
#     4  10  20  35  55  75  95 124 161 195 233 287
#     4   7  11  21  38  61  89 121 158 200 241 282
#
# _framework density 16.972360999999999
#
# number of rings (size 3 to 8) (size 9 to 14) (size 15 to 20)
#    0.000    3.000    0.000    3.000    0.000    3.000 
#    0.000    1.250    0.000    6.750    0.000    5.250 
#    0.000    0.000    0.000    0.000    0.000    0.000 
#
# Total GULP energy -356488.963444 kJ/mol
# GULP energy per Si atom -5570.140054 kJ/mol
# Density = 1.693373 g / cm^3
# Si number density = 16.972361 Si / 1000 Ang^3
#
#
#
# Elastic Constant Matrix: (Units=GPa)
#
#
# Indices 1 2 3 4 5 6 
#
# 1 51.7355 39.9783 57.6487 0.0000 0.0000 0.0000
# 2 39.9783 50.9436 51.4114 0.0000 0.0000 0.0000
# 3 57.6487 51.4114 115.4732 0.0000 0.0000 0.0000
# 4 0.0000 0.0000 0.0000 16.0649 0.0000 0.0000
# 5 0.0000 0.0000 0.0000 0.0000 17.8234 0.0000
# 6 0.0000 0.0000 0.0000 0.0000 0.0000 24.2638
#
#
#
# Elastic Compliance Matrix: (Units=1/GPa)
#
#
# Indices 1 2 3 4 5 6 
#
# 1 0.063881 -0.032589 -0.017383 0.000000 0.000000 0.000000
# 2 -0.032589 0.052271 -0.007003 0.000000 0.000000 0.000000
# 3 -0.017383 -0.007003 0.020456 0.000000 0.000000 0.000000
# 4 0.000000 0.000000 0.000000 0.062248 0.000000 0.000000
# 5 0.000000 0.000000 0.000000 0.000000 0.056106 0.000000
# 6 0.000000 0.000000 0.000000 0.000000 0.000000 0.041214
#
#
# Mechanical properties :
#
#
# Convention : Reuss Voigt Hill
#
# Bulk Modulus (GPa) = 44.13132 57.35878 50.74505
# Shear Modulus (GPa) = 11.97098 16.23802 14.10450
#
# Velocity S-wave (km/s) = 2.65867 3.09647 2.88588
# Velocity P-wave (km/s) = 5.95676 6.83029 6.40843
#
# Compressibility (1/GPa) = 0.02265964
#
# Stress axis : x y z
#
# Youngs Moduli (GPa) = 15.65400 19.13116 48.88588
#
# Poissons Ratio (x) = 0.62347 0.84977
# Poissons Ratio (y) = 0.51015 0.34232
# Poissons Ratio (z) = 0.27211 0.13397
#
# Static dielectric constant tensor:
#      x y z
#    x 1.569250 0.000000 0.000000 
#    y 0.000000 1.559520 0.000000 
#    z 0.000000 0.000000 1.587700 
# 
# From -- ./inp_files/33747.got.cif
#   From: 2010.05.17/outbox.cif.g08.bks.cpg/sg51_17_cif.got.tgz:33747.got - 2010.06.03 11:52:47.
