data_PCOD9400097
_publ_section_title
;
Structure prediction by ZEFSAII (Michael W. Deem and Ramdas Pophale) SiO2 
 PCOD9400097
Probable space group: P M M A
;
_chemical_formula_sum "Si O2"
_cell_formula_units_Z 56
_cell_length_a 8.976326
_cell_length_b 18.793763
_cell_length_c 21.689325
_cell_angle_alpha 90.000000
_cell_angle_beta 90.000000
_cell_angle_gamma 90.000000
_cell_volume 3658.966212
_symmetry_space_group_name_H-M "P M M A"
_symmetry_group_IT_number 51
_symmetry_cell_setting 'orthorhombic'
loop_
_space_group_symop_operation_xyz
x,y,z
1/2-x,-y,z
1/2+x,-y,-z
-x,y,-z
-x,-y,-z
1/2+x,y,-z
1/2-x,y,z
x,-y,z
loop_
_atom_site_type_symbol
_atom_site_label
_atom_site_fract_x
_atom_site_fract_y
_atom_site_fract_z
Si Si1 0.927609 0.416418 0.806772
Si Si2 0.569941 0.652899 0.314441
Si Si3 0.578264 0.707009 0.124258
Si Si4 0.920437 0.205914 0.253643
Si Si5 0.071105 0.080720 0.188858
Si Si6 0.071615 0.162147 0.063590
Si Si7 0.926183 0.414747 0.565444
O O1 0.750000 0.403898 0.803565
O O2 0.953815 0.500000 0.816716
O O3 0.001095 0.392269 0.742063
O O4 0.998763 0.367017 0.859722
O O5 0.750000 0.648482 0.311528
O O6 0.526940 0.735568 0.302840
O O7 0.507503 0.623717 0.378254
O O8 0.750000 0.697511 0.105362
O O9 0.578343 0.749520 0.189504
O O10 0.490710 0.759078 0.078588
O O11 0.750000 0.186629 0.267230
O O12 0.012701 0.135411 0.240084
O O13 0.250000 0.080525 0.190730
O O14 0.028864 0.112441 0.121707
O O15 0.017188 0.000000 0.196188
O O16 0.250000 0.163710 0.059213
O O17 0.000000 0.136770 0.000000
O O18 0.750000 0.399059 0.565208
O O19 0.943337 0.500000 0.573631
O O20 0.000000 0.396020 0.500000
#
# Coordination Sequence:
#
# PCOD9400097 Si02
#       7
#     8   8   8   8   8   8   8
#     4  10  19  29  43  65  90 114 143 181 225 270
#     4  10  19  30  45  65  90 119 154 192 225 262
#     4   9  17  30  46  63  84 110 143 181 221 264
#     4   8  16  29  44  64  87 113 145 180 219 261
#     4   9  18  31  46  66  92 119 145 176 216 260
#     4  10  19  31  47  65  87 115 147 180 213 256
#     4  10  20  32  45  63  90 125 162 196 231 269
#
# _framework density 15.304869
#
# number of rings (size 3 to 8) (size 9 to 14) (size 15 to 20)
#    0.000    2.571    0.000    3.429    0.000    8.857 
#    0.000    0.000    0.000    0.429    0.000    0.000 
#    0.000    0.571    0.000    1.857    0.000    2.714 
#
# Total GULP energy -312103.692478 kJ/mol
# GULP energy per Si atom -5573.280223 kJ/mol
# Density = 1.527003 g / cm^3
# Si number density = 15.304869 Si / 1000 Ang^3
#
#
#
# Elastic Constant Matrix: (Units=GPa)
#
#
# Indices 1 2 3 4 5 6 
#
# 1 62.6815 46.9470 17.3876 0.0000 0.0000 0.0000
# 2 46.9470 102.9658 20.5121 0.0000 0.0000 0.0000
# 3 17.3876 20.5121 26.4714 0.0000 0.0000 0.0000
# 4 0.0000 0.0000 0.0000 15.8465 0.0000 0.0000
# 5 0.0000 0.0000 0.0000 0.0000 23.1830 0.0000
# 6 0.0000 0.0000 0.0000 0.0000 0.0000 22.1207
#
#
#
# Elastic Compliance Matrix: (Units=1/GPa)
#
#
# Indices 1 2 3 4 5 6 
#
# 1 0.026047 -0.010014 -0.009350 0.000000 0.000000 0.000000
# 2 -0.010014 0.015334 -0.005305 0.000000 0.000000 0.000000
# 3 -0.009350 -0.005305 0.048029 0.000000 0.000000 0.000000
# 4 0.000000 0.000000 0.000000 0.063105 0.000000 0.000000
# 5 0.000000 0.000000 0.000000 0.000000 0.043135 0.000000
# 6 0.000000 0.000000 0.000000 0.000000 0.000000 0.045206
#
#
# Mechanical properties :
#
#
# Convention : Reuss Voigt Hill
#
# Bulk Modulus (GPa) = 24.95394 40.20133 32.57763
# Shear Modulus (GPa) = 16.47167 19.38150 17.92659
#
# Velocity S-wave (km/s) = 3.28416 3.56246 3.42614
# Velocity P-wave (km/s) = 5.54265 6.57613 6.08138
#
# Compressibility (1/GPa) = 0.04007384
#
# Stress axis : x y z
#
# Youngs Moduli (GPa) = 38.39187 65.21274 20.82090
#
# Poissons Ratio (x) = 0.65301 0.19467
# Poissons Ratio (y) = 0.38444 0.11045
# Poissons Ratio (z) = 0.35895 0.34595
#
# Static dielectric constant tensor:
#      x y z
#    x 1.515990 0.000000 0.000000 
#    y 0.000000 1.511810 0.000000 
#    z 0.000000 0.000000 1.491810 
# 
# From -- ./inp_files/32220.got.cif
#   From: 2010.05.17/outbox.cif.g08.bks.cpg/sg51_17_cif.got.tgz:32220.got - 2010.06.03 11:52:47.
