data_PCOD9400194
_publ_section_title
;
Structure prediction by ZEFSAII (Michael W. Deem and Ramdas Pophale) SiO2 
 PCOD9400194
Probable space group: P M M A
;
_chemical_formula_sum "Si O2"
_cell_formula_units_Z 64
_cell_length_a 7.282722
_cell_length_b 20.819412
_cell_length_c 21.012669
_cell_angle_alpha 90.000000
_cell_angle_beta 90.000000
_cell_angle_gamma 90.000000
_cell_volume 3185.982685
_symmetry_space_group_name_H-M "P M M A"
_symmetry_group_IT_number 51
_symmetry_cell_setting 'orthorhombic'
loop_
_space_group_symop_operation_xyz
x,y,z
1/2-x,-y,z
1/2+x,-y,-z
-x,y,-z
-x,-y,-z
1/2+x,y,-z
1/2-x,y,z
x,-y,z
loop_
_atom_site_type_symbol
_atom_site_label
_atom_site_fract_x
_atom_site_fract_y
_atom_site_fract_z
Si Si1 0.968771 0.927316 0.926120
Si Si2 0.473962 0.926454 0.308988
Si Si3 0.031950 0.847172 0.430535
Si Si4 0.026132 0.159352 0.188413
Si Si5 0.526584 0.708048 0.753566
Si Si6 0.529535 0.569307 0.596440
Si Si7 0.529127 0.568769 0.749054
Si Si8 0.026527 0.708460 0.396111
O O1 0.750000 0.930629 0.916858
O O2 0.036535 0.874226 0.876582
O O3 0.039542 0.000000 0.914426
O O4 0.000000 0.911632 0.000000
O O5 0.250000 0.927042 0.309666
O O6 0.536794 0.889915 0.372428
O O7 0.527256 0.886338 0.247024
O O8 0.533863 0.000000 0.306560
O O9 0.250000 0.842282 0.421117
O O10 0.961147 0.773922 0.428235
O O11 0.000000 0.875544 0.500000
O O12 0.250000 0.161394 0.187310
O O13 0.965136 0.231419 0.205196
O O14 0.750000 0.708176 0.754474
O O15 0.464224 0.637174 0.774908
O O16 0.477617 0.714876 0.678853
O O17 0.750000 0.568458 0.587193
O O18 0.459168 0.500000 0.572398
O O19 0.496683 0.569680 0.672807
O O20 0.461838 0.639818 0.576143
O O21 0.750000 0.568302 0.756269
O O22 0.460444 0.500000 0.773600
O O23 0.250000 0.706138 0.398501
#
# Coordination Sequence:
#
# PCOD9400194 Si02
#       8
#     8   8   8   8   8   8   8   8
#     4   9  17  28  42  61  85 111 136 161 191 229
#     4   9  16  26  41  60  78  96 124 164 204 235
#     4  10  19  30  43  58  76 100 129 162 200 240
#     4   9  14  22  38  60  81 100 128 166 199 226
#     4   8  11  16  29  49  72  95 122 159 196 226
#     4   7   9  13  24  43  66  92 119 146 180 225
#     4   7   9  12  19  36  65  97 121 143 182 233
#     4   8  12  20  33  50  72  95 122 156 193 231
#
# _framework density 20.087993000000001
#
# number of rings (size 3 to 8) (size 9 to 14) (size 15 to 20)
#    0.000    3.625    1.250    2.625    0.000    1.750 
#    0.000    0.000    0.000    1.125    0.000    0.000 
#    0.000    0.500    0.000    0.375    0.000    3.000 
#
# Total GULP energy -356791.675891 kJ/mol
# GULP energy per Si atom -5574.869936 kJ/mol
# Density = 2.004227 g / cm^3
# Si number density = 20.087993 Si / 1000 Ang^3
#
#
#
# Elastic Constant Matrix: (Units=GPa)
#
#
# Indices 1 2 3 4 5 6 
#
# 1 84.4507 7.1856 -1.0089 0.0000 0.0000 0.0000
# 2 7.1856 204.7239 84.7965 0.0000 0.0000 0.0000
# 3 -1.0089 84.7965 99.5201 0.0000 0.0000 0.0000
# 4 0.0000 0.0000 0.0000 161.0340 0.0000 0.0000
# 5 0.0000 0.0000 0.0000 0.0000 -3.5315 0.0000
# 6 0.0000 0.0000 0.0000 0.0000 0.0000 -11.8167
#
#
#
# Elastic Compliance Matrix: (Units=1/GPa)
#
#
# Indices 1 2 3 4 5 6 
#
# 1 0.011912 -0.000723 0.000737 0.000000 0.000000 0.000000
# 2 -0.000723 0.007593 -0.006477 0.000000 0.000000 0.000000
# 3 0.000737 -0.006477 0.015574 0.000000 0.000000 0.000000
# 4 0.000000 0.000000 0.000000 0.006210 0.000000 0.000000
# 5 0.000000 0.000000 0.000000 0.000000 -0.283167 0.000000
# 6 0.000000 0.000000 0.000000 0.000000 0.000000 -0.084626
#
#
# Mechanical properties :
#
#
# Convention : Reuss Voigt Hill
#
# Bulk Modulus (GPa) = 45.14159 63.40457 54.27308
# Shear Modulus (GPa) = -16.32950 48.98524 16.32787
#
# Velocity S-wave (km/s) = -2.85423 4.94351 2.85409
# Velocity P-wave (km/s) = 3.41446 8.01351 6.15934
#
# Compressibility (1/GPa) = 0.02215252
#
# Stress axis : x y z
#
# Youngs Moduli (GPa) = 83.95185 131.70611 64.20877
#
# Poissons Ratio (x) = 0.09528 -0.04733
# Poissons Ratio (y) = 0.06073 0.41586
# Poissons Ratio (z) = -0.06188 0.85302
#
# Static dielectric constant tensor:
#      x y z
#    x 1.794810 0.000000 0.000000 
#    y 0.000000 1.760060 0.000000 
#    z 0.000000 0.000000 1.660890 
# 
# From -- ./inp_files/29218.got.cif
#   From: 2010.05.17/outbox.cif.g08.bks.cpg/sg51_15_cif.got.tgz:29218.got - 2010.06.03 11:52:47.
