data_PCOD9400285
_publ_section_title
;
Structure prediction by ZEFSAII (Michael W. Deem and Ramdas Pophale) SiO2 
 PCOD9400285
Probable space group: P M M A
;
_chemical_formula_sum "Si O2"
_cell_formula_units_Z 64
_cell_length_a 7.601641
_cell_length_b 20.528292
_cell_length_c 21.326016
_cell_angle_alpha 90.000000
_cell_angle_beta 90.000000
_cell_angle_gamma 90.000000
_cell_volume 3327.897204
_symmetry_space_group_name_H-M "P M M A"
_symmetry_group_IT_number 51
_symmetry_cell_setting 'orthorhombic'
loop_
_space_group_symop_operation_xyz
x,y,z
1/2-x,-y,z
1/2+x,-y,-z
-x,y,-z
-x,-y,-z
1/2+x,y,-z
1/2-x,y,z
x,-y,z
loop_
_atom_site_type_symbol
_atom_site_label
_atom_site_fract_x
_atom_site_fract_y
_atom_site_fract_z
Si Si1 0.965752 0.790707 0.811322
Si Si2 0.958351 0.071786 0.374807
Si Si3 0.455701 0.928190 0.230575
Si Si4 0.042600 0.208676 0.429636
Si Si5 0.034603 0.709078 0.311957
Si Si6 0.464225 0.571742 0.116245
Si Si7 0.035901 0.427901 0.263234
Si Si8 0.460670 0.708823 0.069576
O O1 0.750000 0.791824 0.811446
O O2 0.029491 0.864750 0.803474
O O3 0.016504 0.749783 0.749777
O O4 0.025006 0.754589 0.874206
O O5 0.750000 0.068449 0.366416
O O6 0.035647 0.083555 0.305531
O O7 0.993488 0.133360 0.418252
O O8 0.019970 0.000000 0.396941
O O9 0.250000 0.931503 0.213798
O O10 0.533719 0.000000 0.218862
O O11 0.250000 0.211390 0.422630
O O12 0.969440 0.254276 0.374176
O O13 0.000000 0.229317 0.500000
O O14 0.250000 0.708435 0.312939
O O15 0.976493 0.634512 0.302444
O O16 0.250000 0.570971 0.113709
O O17 0.524931 0.500000 0.095310
O O18 0.510914 0.580178 0.189755
O O19 0.527789 0.634852 0.079092
O O20 0.250000 0.428006 0.264829
O O21 0.977016 0.500000 0.283547
O O22 0.250000 0.705958 0.076426
O O23 0.500000 0.732534 0.000000
#
# Coordination Sequence:
#
# PCOD9400285 Si02
#       8
#     8   8   8   8   8   8   8   8
#     4   9  15  27  47  69  90 119 157 198 237 272
#     4  10  20  33  49  72 102 131 158 190 233 285
#     4   9  16  28  49  74  95 119 156 198 239 282
#     4  11  22  35  51  70  97 130 164 201 239 282
#     4   9  15  26  46  70  92 119 157 199 239 276
#     4   8  13  22  38  62  90 119 150 185 226 272
#     4   8  12  20  39  68  96 118 149 195 240 279
#     4  10  19  30  45  64  93 126 156 192 234 279
#
# _framework density 19.231363999999999
#
# number of rings (size 3 to 8) (size 9 to 14) (size 15 to 20)
#    0.000    2.750    2.500    1.500    0.000    1.250 
#    0.000    0.625    0.000    0.750    0.000    0.000 
#    0.000    1.500    0.000    0.000    0.000    0.125 
#
# Total GULP energy -356907.556350 kJ/mol
# GULP energy per Si atom -5576.680568 kJ/mol
# Density = 1.918759 g / cm^3
# Si number density = 19.231364 Si / 1000 Ang^3
#
#
#
# Elastic Constant Matrix: (Units=GPa)
#
#
# Indices 1 2 3 4 5 6 
#
# 1 41.1366 5.5401 -0.4537 0.0000 0.0000 0.0000
# 2 5.5401 150.2148 81.4278 0.0000 0.0000 0.0000
# 3 -0.4537 81.4278 119.3037 0.0000 0.0000 0.0000
# 4 0.0000 0.0000 0.0000 23.5467 0.0000 0.0000
# 5 0.0000 0.0000 0.0000 0.0000 3.0515 0.0000
# 6 0.0000 0.0000 0.0000 0.0000 0.0000 -9.3865
#
#
#
# Elastic Compliance Matrix: (Units=1/GPa)
#
#
# Indices 1 2 3 4 5 6 
#
# 1 0.024526 -0.001516 0.001128 0.000000 0.000000 0.000000
# 2 -0.001516 0.010660 -0.007282 0.000000 0.000000 0.000000
# 3 0.001128 -0.007282 0.013356 0.000000 0.000000 0.000000
# 4 0.000000 0.000000 0.000000 0.042469 0.000000 0.000000
# 5 0.000000 0.000000 0.000000 0.000000 0.327706 0.000000
# 6 0.000000 0.000000 0.000000 0.000000 0.000000 -0.106536
#
#
# Mechanical properties :
#
#
# Convention : Reuss Voigt Hill
#
# Bulk Modulus (GPa) = 30.11781 53.74260 41.93021
# Shear Modulus (GPa) = 14.76719 18.38506 16.57612
#
# Velocity S-wave (km/s) = 2.77405 3.09527 2.93905
# Velocity P-wave (km/s) = 5.09463 6.38594 5.77648
#
# Compressibility (1/GPa) = 0.03320295
#
# Stress axis : x y z
#
# Youngs Moduli (GPa) = 40.77326 93.80642 74.87178
#
# Poissons Ratio (x) = 0.14221 -0.08445
# Poissons Ratio (y) = 0.06181 0.54519
# Poissons Ratio (z) = -0.04599 0.68307
#
# Static dielectric constant tensor:
#      x y z
#    x 1.732840 0.000000 0.000000 
#    y 0.000000 1.774980 0.000000 
#    z 0.000000 0.000000 1.629920 
# 
# From -- ./inp_files/28359.got.cif
#   From: 2010.05.17/outbox.cif.g08.bks.cpg/sg51_15_cif.got.tgz:28359.got - 2010.06.03 11:52:47.
