data_PCOD9400541
_publ_section_title
;
Structure prediction by ZEFSAII (Michael W. Deem and Ramdas Pophale) SiO2 
 PCOD9400541
Probable space group: P M M A
;
_chemical_formula_sum "Si O2"
_cell_formula_units_Z 56
_cell_length_a 23.322847
_cell_length_b 7.994555
_cell_length_c 14.689909
_cell_angle_alpha 90.000000
_cell_angle_beta 90.000000
_cell_angle_gamma 90.000000
_cell_volume 2739.018486
_symmetry_space_group_name_H-M "P M M A"
_symmetry_group_IT_number 51
_symmetry_cell_setting 'orthorhombic'
loop_
_space_group_symop_operation_xyz
x,y,z
1/2-x,-y,z
1/2+x,-y,-z
-x,y,-z
-x,-y,-z
1/2+x,y,-z
1/2-x,y,z
x,-y,z
loop_
_atom_site_type_symbol
_atom_site_label
_atom_site_fract_x
_atom_site_fract_y
_atom_site_fract_z
Si Si1 0.435163 0.799146 0.474511
Si Si2 0.343758 0.311475 0.107426
Si Si3 0.250000 0.294621 0.963690
Si Si4 0.085614 0.699097 0.267767
Si Si5 0.567134 0.807911 0.017949
Si Si6 0.541027 0.797983 0.212562
Si Si7 0.750000 0.301843 0.248045
Si Si8 0.635205 0.798229 0.356791
O O1 0.500000 0.737092 0.500000
O O2 0.418745 0.761339 0.370886
O O3 0.384903 0.739395 0.543087
O O4 0.438143 0.000000 0.484648
O O5 0.322806 0.500000 0.125172
O O6 0.362407 0.232293 0.204067
O O7 0.302596 0.239699 0.028812
O O8 0.403404 0.309997 0.053845
O O9 0.250000 0.500000 0.958896
O O10 0.250000 0.235160 0.857878
O O11 0.092524 0.500000 0.268992
O O12 0.023716 0.739175 0.224093
O O13 0.572634 0.744445 0.120496
O O14 0.588649 0.000000 0.008761
O O15 0.500000 0.815120 0.000000
O O16 0.580924 0.746915 0.295424
O O17 0.538530 0.000000 0.208890
O O18 0.750000 0.500000 0.238769
O O19 0.806416 0.255324 0.306889
O O20 0.637703 0.000000 0.358486
#
# Coordination Sequence:
#
# PCOD9400541 Si02
#       8
#     8   8   4   8   8   8   4   8
#     4  10  20  38  62  85 113 154 194 230 285 353
#     4  10  21  37  56  78 111 155 196 234 284 345
#     4   9  20  41  62  79 110 158 201 233 276 343
#     4  11  22  33  52  85 118 148 188 241 292 342
#     4  10  19  30  50  79 111 144 180 232 286 334
#     4  10  19  34  54  79 113 152 190 231 287 350
#     4  11  23  39  62  89 116 148 191 243 290 333
#     4  10  21  38  61  84 112 152 195 235 284 347
#
# _framework density 20.44528
#
# number of rings (size 3 to 8) (size 9 to 14) (size 15 to 20)
#    0.000    1.857    2.857    1.500    0.000    2.857 
#    0.000    1.786    0.000    0.857    0.000    0.000 
#    0.000    0.000    0.000    0.000    0.000    0.000 
#
# Total GULP energy -312001.806560 kJ/mol
# GULP energy per Si atom -5571.460831 kJ/mol
# Density = 2.039875 g / cm^3
# Si number density = 20.445280 Si / 1000 Ang^3
#
#
#
# Elastic Constant Matrix: (Units=GPa)
#
#
# Indices 1 2 3 4 5 6 
#
# 1 108.7399 11.6442 65.3707 0.0000 0.0000 0.0000
# 2 11.6442 20.8073 11.1453 0.0000 0.0000 0.0000
# 3 65.3707 11.1453 172.4473 0.0000 0.0000 0.0000
# 4 0.0000 0.0000 0.0000 6.9804 0.0000 0.0000
# 5 0.0000 0.0000 0.0000 0.0000 32.0210 0.0000
# 6 0.0000 0.0000 0.0000 0.0000 0.0000 16.7344
#
#
#
# Elastic Compliance Matrix: (Units=1/GPa)
#
#
# Indices 1 2 3 4 5 6 
#
# 1 0.012312 -0.004548 -0.004373 0.000000 0.000000 0.000000
# 2 -0.004548 0.051463 -0.001602 0.000000 0.000000 0.000000
# 3 -0.004373 -0.001602 0.007560 0.000000 0.000000 0.000000
# 4 0.000000 0.000000 0.000000 0.143259 0.000000 0.000000
# 5 0.000000 0.000000 0.000000 0.000000 0.031230 0.000000
# 6 0.000000 0.000000 0.000000 0.000000 0.000000 0.059757
#
#
# Mechanical properties :
#
#
# Convention : Reuss Voigt Hill
#
# Bulk Modulus (GPa) = 19.88494 53.14611 36.51552
# Shear Modulus (GPa) = 14.56065 25.40276 19.98170
#
# Velocity S-wave (km/s) = 2.67156 3.52870 3.12961
# Velocity P-wave (km/s) = 4.38900 6.53093 5.56401
#
# Compressibility (1/GPa) = 0.05028932
#
# Stress axis : x y z
#
# Youngs Moduli (GPa) = 81.21907 19.43138 132.27024
#
# Poissons Ratio (x) = 0.08837 0.57847
# Poissons Ratio (y) = 0.36936 0.21192
# Poissons Ratio (z) = 0.35520 0.03113
#
# Static dielectric constant tensor:
#      x y z
#    x 1.755580 0.000000 0.000000 
#    y 0.000000 1.766680 0.000000 
#    z 0.000000 0.000000 1.815600 
# 
# From -- ./inp_files/25794.got.cif
#   From: 2010.05.17/outbox.cif.g08.bks.cpg/sg51_13_cif.got.tgz:25794.got - 2010.06.03 11:52:47.
