data_PCOD9400128
_publ_section_title
;
Structure prediction by ZEFSAII (Michael W. Deem and Ramdas Pophale) SiO2 
 PCOD9400128
Probable space group: P M M A
;
_chemical_formula_sum "Si O2"
_cell_formula_units_Z 56
_cell_length_a 8.826278
_cell_length_b 20.850587
_cell_length_c 15.821843
_cell_angle_alpha 90.000000
_cell_angle_beta 90.000000
_cell_angle_gamma 90.000000
_cell_volume 2911.742456
_symmetry_space_group_name_H-M "P M M A"
_symmetry_group_IT_number 51
_symmetry_cell_setting 'orthorhombic'
loop_
_space_group_symop_operation_xyz
x,y,z
1/2-x,-y,z
1/2+x,-y,-z
-x,y,-z
-x,-y,-z
1/2+x,y,-z
1/2-x,y,z
x,-y,z
loop_
_atom_site_type_symbol
_atom_site_label
_atom_site_fract_x
_atom_site_fract_y
_atom_site_fract_z
Si Si1 0.932567 0.569946 0.232312
Si Si2 0.931316 0.825220 0.910613
Si Si3 0.429808 0.292675 0.823106
Si Si4 0.073352 0.743740 0.352210
Si Si5 0.073761 0.601255 0.412534
Si Si6 0.069007 0.115708 0.412718
Si Si7 0.434485 0.928671 0.228714
O O1 0.750000 0.572526 0.235979
O O2 0.978111 0.500000 0.198617
O O3 0.981902 0.632974 0.180645
O O4 0.993777 0.576382 0.327852
O O5 0.750000 0.826551 0.914218
O O6 0.982885 0.873367 0.835885
O O7 0.986971 0.753909 0.887741
O O8 0.000000 0.845200 0.000000
O O9 0.250000 0.290320 0.837335
O O10 0.470411 0.265784 0.729926
O O11 0.250000 0.750005 0.323801
O O12 0.062508 0.678842 0.405891
O O13 0.034941 0.808474 0.401156
O O14 0.250000 0.583843 0.410393
O O15 0.000000 0.579825 0.500000
O O16 0.250000 0.108176 0.417286
O O17 0.015885 0.083933 0.325119
O O18 0.000000 0.091579 0.500000
O O19 0.250000 0.926505 0.230057
O O20 0.480241 0.000000 0.201578
#
# Coordination Sequence:
#
# PCOD9400128 Si02
#       7
#     8   8   8   8   8   8   8
#     4   9  19  35  53  74 103 141 183 226 275 332
#     4  11  22  39  63  90 118 146 183 228 279 337
#     4  10  19  33  57  85 111 141 180 225 277 331
#     4   9  17  31  49  72 103 143 186 231 283 331
#     4  10  19  29  44  67 100 138 184 235 285 337
#     4  10  19  32  51  77 109 149 193 234 278 325
#     4   9  19  37  59  81 113 156 192 227 279 336
#
# _framework density 19.232469999999999
#
# number of rings (size 3 to 8) (size 9 to 14) (size 15 to 20)
#    0.000    2.286    1.429    1.714    0.000    2.857 
#    0.000    0.000    0.000    3.429    0.000    0.000 
#    0.000    0.000    0.000    0.000    0.000    0.000 
#
# Total GULP energy -312479.941339 kJ/mol
# GULP energy per Si atom -5579.998952 kJ/mol
# Density = 1.918870 g / cm^3
# Si number density = 19.232470 Si / 1000 Ang^3
#
#
#
# Elastic Constant Matrix: (Units=GPa)
#
#
# Indices 1 2 3 4 5 6 
#
# 1 21.7963 21.7112 21.7223 0.0000 0.0000 0.0000
# 2 21.7112 116.6738 43.0780 0.0000 0.0000 0.0000
# 3 21.7223 43.0780 93.2406 0.0000 0.0000 0.0000
# 4 0.0000 0.0000 0.0000 0.4277 0.0000 0.0000
# 5 0.0000 0.0000 0.0000 0.0000 30.3589 0.0000
# 6 0.0000 0.0000 0.0000 0.0000 0.0000 13.2446
#
#
#
# Elastic Compliance Matrix: (Units=1/GPa)
#
#
# Indices 1 2 3 4 5 6 
#
# 1 0.065244 -0.007872 -0.011563 0.000000 0.000000 0.000000
# 2 -0.007872 0.011283 -0.003379 0.000000 0.000000 0.000000
# 3 -0.011563 -0.003379 0.014980 0.000000 0.000000 0.000000
# 4 0.000000 0.000000 0.000000 2.338319 0.000000 0.000000
# 5 0.000000 0.000000 0.000000 0.000000 0.032939 0.000000
# 6 0.000000 0.000000 0.000000 0.000000 0.000000 0.075503
#
#
# Mechanical properties :
#
#
# Convention : Reuss Voigt Hill
#
# Bulk Modulus (GPa) = 21.79614 44.97042 33.38328
# Shear Modulus (GPa) = 1.92368 18.48616 10.20492
#
# Velocity S-wave (km/s) = 1.00120 3.10368 2.30599
# Velocity P-wave (km/s) = 3.56288 6.02305 4.94829
#
# Compressibility (1/GPa) = 0.04587968
#
# Stress axis : x y z
#
# Youngs Moduli (GPa) = 15.32698 88.62631 66.75543
#
# Poissons Ratio (x) = 0.69763 0.77191
# Poissons Ratio (y) = 0.12065 0.22558
# Poissons Ratio (z) = 0.17723 0.29948
#
# Static dielectric constant tensor:
#      x y z
#    x 1.653030 0.000000 0.000000 
#    y 0.000000 1.711990 0.000000 
#    z 0.000000 0.000000 1.644560 
# 
# From -- ./inp_files/21852.got.cif
#   From: 2010.05.17/outbox.cif.g08.bks.cpg/sg51_11_cif.got.tgz:21852.got - 2010.06.03 11:52:47.
