data_PCOD9400500
_publ_section_title
;
Structure prediction by ZEFSAII (Michael W. Deem and Ramdas Pophale) SiO2 
 PCOD9400500
Probable space group: P M M A
;
_chemical_formula_sum "Si O2"
_cell_formula_units_Z 56
_cell_length_a 8.866019
_cell_length_b 14.860558
_cell_length_c 23.905532
_cell_angle_alpha 90.000000
_cell_angle_beta 90.000000
_cell_angle_gamma 90.000000
_cell_volume 3149.649214
_symmetry_space_group_name_H-M "P M M A"
_symmetry_group_IT_number 51
_symmetry_cell_setting 'orthorhombic'
loop_
_space_group_symop_operation_xyz
x,y,z
1/2-x,-y,z
1/2+x,-y,-z
-x,y,-z
-x,-y,-z
1/2+x,y,-z
1/2-x,y,z
x,-y,z
loop_
_atom_site_type_symbol
_atom_site_label
_atom_site_fract_x
_atom_site_fract_y
_atom_site_fract_z
Si Si1 0.932002 0.604119 0.560486
Si Si2 0.572989 0.107470 0.158236
Si Si3 0.067970 0.102583 0.279106
Si Si4 0.070524 0.394574 0.764373
Si Si5 0.931371 0.719761 0.665543
Si Si6 0.568816 0.604392 0.105265
Si Si7 0.070939 0.220382 0.058179
O O1 0.750000 0.608738 0.557152
O O2 0.971887 0.500000 0.573910
O O3 0.986032 0.670133 0.609585
O O4 0.000000 0.625806 0.500000
O O5 0.750000 0.130746 0.158246
O O6 0.503215 0.126636 0.219111
O O7 0.490486 0.161853 0.109752
O O8 0.557896 0.000000 0.149071
O O9 0.250000 0.104995 0.273580
O O10 0.022143 0.177020 0.324418
O O11 0.023994 0.000000 0.292778
O O12 0.250000 0.380240 0.758575
O O13 0.039900 0.500000 0.753753
O O14 0.032281 0.377173 0.829304
O O15 0.984521 0.334739 0.719897
O O16 0.750000 0.717316 0.663615
O O17 0.750000 0.614334 0.098897
O O18 0.531449 0.500000 0.093370
O O19 0.483784 0.677465 0.068724
O O20 0.250000 0.216112 0.055605
O O21 0.000000 0.187895 0.000000
#
# Coordination Sequence:
#
# PCOD9400500 Si02
#       7
#     8   8   8   8   8   8   8
#     4   9  18  32  48  68  97 133 173 214 253 295
#     4  10  21  38  59  81 106 135 166 205 256 310
#     4   9  18  33  53  78 106 134 165 202 248 304
#     4   9  18  31  48  73 103 132 161 197 246 301
#     4  10  19  30  48  74 102 133 168 208 252 295
#     4   9  19  37  57  76 103 137 171 210 255 304
#     4  12  25  39  56  77 102 133 171 214 257 306
#
# _framework density 17.779758000000001
#
# number of rings (size 3 to 8) (size 9 to 14) (size 15 to 20)
#    0.000    2.286    0.000    3.857    0.000    6.571 
#    0.000    2.857    0.000    0.429    0.000    0.000 
#    0.000    0.000    0.000    0.000    0.000    0.000 
#
# Total GULP energy -312635.348954 kJ/mol
# GULP energy per Si atom -5582.774088 kJ/mol
# Density = 1.773929 g / cm^3
# Si number density = 17.779758 Si / 1000 Ang^3
#
#
#
# Elastic Constant Matrix: (Units=GPa)
#
#
# Indices 1 2 3 4 5 6 
#
# 1 37.2493 37.1731 34.3193 0.0000 0.0000 0.0000
# 2 37.1731 82.8490 77.3294 0.0000 0.0000 0.0000
# 3 34.3193 77.3294 89.2814 0.0000 0.0000 0.0000
# 4 0.0000 0.0000 0.0000 21.5699 0.0000 0.0000
# 5 0.0000 0.0000 0.0000 0.0000 27.3541 0.0000
# 6 0.0000 0.0000 0.0000 0.0000 0.0000 23.8787
#
#
#
# Elastic Compliance Matrix: (Units=1/GPa)
#
#
# Indices 1 2 3 4 5 6 
#
# 1 0.048633 -0.022822 0.001073 0.000000 0.000000 0.000000
# 2 -0.022822 0.073715 -0.055074 0.000000 0.000000 0.000000
# 3 0.001073 -0.055074 0.058490 0.000000 0.000000 0.000000
# 4 0.000000 0.000000 0.000000 0.046361 0.000000 0.000000
# 5 0.000000 0.000000 0.000000 0.000000 0.036558 0.000000
# 6 0.000000 0.000000 0.000000 0.000000 0.000000 0.041878
#
#
# Mechanical properties :
#
#
# Convention : Reuss Voigt Hill
#
# Bulk Modulus (GPa) = 36.77743 56.33590 46.55667
# Shear Modulus (GPa) = 10.67587 18.59774 14.63680
#
# Velocity S-wave (km/s) = 2.45307 3.23771 2.87231
# Velocity P-wave (km/s) = 5.36221 6.76249 6.10264
#
# Compressibility (1/GPa) = 0.02719059
#
# Stress axis : x y z
#
# Youngs Moduli (GPa) = 20.56204 13.56575 17.09703
#
# Poissons Ratio (x) = 0.30960 -0.01834
# Poissons Ratio (y) = 0.46927 0.94161
# Poissons Ratio (z) = -0.02205 0.74712
#
# Static dielectric constant tensor:
#      x y z
#    x 1.590710 0.000000 0.000000 
#    y 0.000000 1.629860 0.000000 
#    z 0.000000 0.000000 1.581580 
# 
# From -- ./inp_files/31864.got.cif
#   From: 2010.05.17/outbox.cif.g08.bks.cpg/sg51_16_cif.got.tgz:31864.got - 2010.06.03 11:52:47.
