data_PCOD9400576
_publ_section_title
;
Structure prediction by ZEFSAII (Michael W. Deem and Ramdas Pophale) SiO2 
 PCOD9400576
Probable space group: P M M A
;
_chemical_formula_sum "Si O2"
_cell_formula_units_Z 56
_cell_length_a 14.392785
_cell_length_b 8.285730
_cell_length_c 21.027306
_cell_angle_alpha 90.000000
_cell_angle_beta 90.000000
_cell_angle_gamma 90.000000
_cell_volume 2507.605709
_symmetry_space_group_name_H-M "P M M A"
_symmetry_group_IT_number 51
_symmetry_cell_setting 'orthorhombic'
loop_
_space_group_symop_operation_xyz
x,y,z
1/2-x,-y,z
1/2+x,-y,-z
-x,y,-z
-x,-y,-z
1/2+x,y,-z
1/2-x,y,z
x,-y,z
loop_
_atom_site_type_symbol
_atom_site_label
_atom_site_fract_x
_atom_site_fract_y
_atom_site_fract_z
Si Si1 0.890453 0.318013 0.984174
Si Si2 0.649497 0.188456 0.308369
Si Si3 0.381075 0.311010 0.555998
Si Si4 0.349140 0.811063 0.883854
Si Si5 0.557297 0.307760 0.716719
Si Si6 0.397503 0.312948 0.419042
Si Si7 0.555890 0.807798 0.853138
O O1 0.855660 0.500000 0.991506
O O2 0.884776 0.261614 0.911565
O O3 0.850839 0.207151 0.039683
O O4 0.000000 0.319151 0.000000
O O5 0.750000 0.248544 0.284050
O O6 0.653330 0.210739 0.384468
O O7 0.553562 0.271587 0.288000
O O8 0.641463 0.000000 0.291881
O O9 0.352937 0.500000 0.560700
O O10 0.357751 0.246866 0.485463
O O11 0.492224 0.313581 0.566625
O O12 0.250000 0.740011 0.862252
O O13 0.448310 0.744694 0.859705
O O14 0.348815 0.000000 0.866964
O O15 0.568919 0.500000 0.716858
O O16 0.607495 0.243338 0.652244
O O17 0.590716 0.236524 0.783267
O O18 0.366576 0.500000 0.415936
O O19 0.552582 0.000000 0.860930
#
# Coordination Sequence:
#
# PCOD9400576 Si02
#       7
#     8   8   8   8   8   8   8
#     4   9  17  30  48  69  92 119 154 195 232 267
#     4  10  20  31  41  58  88 121 150 182 221 265
#     4   8  13  25  44  61  78 104 140 178 216 258
#     4   9  18  32  49  69  94 124 155 188 230 278
#     4  10  19  31  46  64  88 118 152 186 221 265
#     4   7  12  24  42  62  82 104 133 176 223 258
#     4  10  19  31  47  68  96 128 158 188 229 280
#
# _framework density 22.332060999999999
#
# number of rings (size 3 to 8) (size 9 to 14) (size 15 to 20)
#    0.000    3.000    0.000    3.429    0.000    4.286 
#    0.000    7.857    0.000    0.000    0.000    1.000 
#    0.000    5.714    0.000    0.000    0.000    0.000 
#
# Total GULP energy -312012.113662 kJ/mol
# GULP energy per Si atom -5571.644887 kJ/mol
# Density = 2.228123 g / cm^3
# Si number density = 22.332061 Si / 1000 Ang^3
#
#
#
# Elastic Constant Matrix: (Units=GPa)
#
#
# Indices 1 2 3 4 5 6 
#
# 1 38.6388 -2.0375 -4.5406 0.0000 0.0000 0.0000
# 2 -2.0375 24.6133 4.2342 0.0000 0.0000 0.0000
# 3 -4.5406 4.2342 186.7351 0.0000 0.0000 0.0000
# 4 0.0000 0.0000 0.0000 132.9275 0.0000 0.0000
# 5 0.0000 0.0000 0.0000 0.0000 -19.2742 0.0000
# 6 0.0000 0.0000 0.0000 0.0000 0.0000 0.9583
#
#
#
# Elastic Compliance Matrix: (Units=1/GPa)
#
#
# Indices 1 2 3 4 5 6 
#
# 1 0.026058 0.002056 0.000587 0.000000 0.000000 0.000000
# 2 0.002056 0.040950 -0.000879 0.000000 0.000000 0.000000
# 3 0.000587 -0.000879 0.005389 0.000000 0.000000 0.000000
# 4 0.000000 0.000000 0.000000 0.007523 0.000000 0.000000
# 5 0.000000 0.000000 0.000000 0.000000 -0.051883 0.000000
# 6 0.000000 0.000000 0.000000 0.000000 0.000000 1.043545
#
#
# Mechanical properties :
#
#
# Convention : Reuss Voigt Hill
#
# Bulk Modulus (GPa) = 13.17064 27.25548 20.21306
# Shear Modulus (GPa) = 4.57305 39.74440 22.15872
#
# Velocity S-wave (km/s) = 1.43255 4.22323 3.15340
# Velocity P-wave (km/s) = 2.94053 6.00100 4.72539
#
# Compressibility (1/GPa) = 0.07592644
#
# Stress axis : x y z
#
# Youngs Moduli (GPa) = 38.37579 24.42013 185.55030
#
# Poissons Ratio (x) = -0.05021 -0.10892
# Poissons Ratio (y) = -0.07890 0.16301
# Poissons Ratio (z) = -0.02253 0.02145
#
# Static dielectric constant tensor:
#      x y z
#    x 1.898530 0.000000 0.000000 
#    y 0.000000 1.774770 0.000000 
#    z 0.000000 0.000000 1.869830 
# 
# From -- ./inp_files/33718.got.cif
#   From: 2010.05.17/outbox.cif.g08.bks.cpg/sg51_17_cif.got.tgz:33718.got - 2010.06.03 11:52:47.
