data_PCOD9400851
_publ_section_title
;
Structure prediction by ZEFSAII (Michael W. Deem and Ramdas Pophale) SiO2 
 PCOD9400851
Probable space group: P M M A
;
_chemical_formula_sum "Si O2"
_cell_formula_units_Z 52
_cell_length_a 8.628874
_cell_length_b 24.159806
_cell_length_c 14.786550
_cell_angle_alpha 90.000000
_cell_angle_beta 90.000000
_cell_angle_gamma 90.000000
_cell_volume 3082.580496
_symmetry_space_group_name_H-M "P M M A"
_symmetry_group_IT_number 51
_symmetry_cell_setting 'orthorhombic'
loop_
_space_group_symop_operation_xyz
x,y,z
1/2-x,-y,z
1/2+x,-y,-z
-x,y,-z
-x,-y,-z
1/2+x,y,-z
1/2-x,y,z
x,-y,z
loop_
_atom_site_type_symbol
_atom_site_label
_atom_site_fract_x
_atom_site_fract_y
_atom_site_fract_z
Si Si1 0.435993 0.878593 0.102373
Si Si2 0.936564 0.000000 0.898132
Si Si3 0.565312 0.605557 0.595913
Si Si4 0.936942 0.224490 0.212303
Si Si5 0.063728 0.730389 0.595751
Si Si6 0.937194 0.666204 0.101099
Si Si7 0.936884 0.438497 0.219637
O O1 0.250000 0.876591 0.097602
O O2 0.495664 0.829628 0.165361
O O3 0.484291 0.939787 0.138721
O O4 0.500000 0.872135 0.000000
O O5 0.750000 0.000000 0.899788
O O6 0.000000 0.000000 0.000000
O O7 0.500000 0.584832 0.500000
O O8 0.750000 0.606820 0.592292
O O9 0.501434 0.668209 0.607566
O O10 0.507079 0.571326 0.681503
O O11 0.750000 0.221715 0.208474
O O12 0.981331 0.233927 0.316801
O O13 0.985522 0.279239 0.156593
O O14 0.250000 0.726753 0.592260
O O15 0.000000 0.751487 0.500000
O O16 0.750000 0.665882 0.098579
O O17 0.988455 0.610952 0.153900
O O18 0.000000 0.667872 0.000000
O O19 0.750000 0.434964 0.227190
O O20 0.977039 0.500000 0.186393
#
# Coordination Sequence:
#
# PCOD9400851 Si02
#       7
#     8   4   8   8   8   8   8
#     4  10  19  31  49  74 106 141 180 213 252 297
#     4   8  16  30  46  68 101 140 175 216 251 290
#     4  11  21  34  55  79 104 130 161 202 252 308
#     4  10  20  34  52  75 106 136 167 208 254 300
#     4  10  19  34  54  77 105 134 166 204 250 304
#     4  10  21  37  53  73 100 131 166 207 254 299
#     4  10  21  39  58  73  96 132 170 209 256 305
#
# _framework density 16.868984000000001
#
# number of rings (size 3 to 8) (size 9 to 14) (size 15 to 20)
#    0.000    2.000    1.538    3.692    0.000    5.231 
#    0.000    0.000    0.000    0.000    0.000    0.538 
#    0.000    0.000    0.000    0.000    0.000    0.000 
#
# Total GULP energy -290149.897336 kJ/mol
# GULP energy per Si atom -5579.805718 kJ/mol
# Density = 1.683059 g / cm^3
# Si number density = 16.868984 Si / 1000 Ang^3
#
#
#
# Elastic Constant Matrix: (Units=GPa)
#
#
# Indices 1 2 3 4 5 6 
#
# 1 31.2390 34.2685 28.1500 0.0000 0.0000 0.0000
# 2 34.2685 149.5841 78.0725 0.0000 0.0000 0.0000
# 3 28.1500 78.0725 120.6732 0.0000 0.0000 0.0000
# 4 0.0000 0.0000 0.0000 22.5723 0.0000 0.0000
# 5 0.0000 0.0000 0.0000 0.0000 28.5172 0.0000
# 6 0.0000 0.0000 0.0000 0.0000 0.0000 28.9912
#
#
#
# Elastic Compliance Matrix: (Units=1/GPa)
#
#
# Indices 1 2 3 4 5 6 
#
# 1 0.045310 -0.007343 -0.005819 0.000000 0.000000 0.000000
# 2 -0.007343 0.011284 -0.005587 0.000000 0.000000 0.000000
# 3 -0.005819 -0.005587 0.013259 0.000000 0.000000 0.000000
# 4 0.000000 0.000000 0.000000 0.044302 0.000000 0.000000
# 5 0.000000 0.000000 0.000000 0.000000 0.035067 0.000000
# 6 0.000000 0.000000 0.000000 0.000000 0.000000 0.034493
#
#
# Mechanical properties :
#
#
# Convention : Reuss Voigt Hill
#
# Bulk Modulus (GPa) = 30.90793 64.71984 47.81389
# Shear Modulus (GPa) = 21.55196 26.74984 24.15090
#
# Velocity S-wave (km/s) = 3.57824 3.98646 3.78785
# Velocity P-wave (km/s) = 5.95264 7.72260 6.89465
#
# Compressibility (1/GPa) = 0.03235415
#
# Stress axis : x y z
#
# Youngs Moduli (GPa) = 22.07022 88.62422 75.42018
#
# Poissons Ratio (x) = 0.65078 0.43886
# Poissons Ratio (y) = 0.16206 0.42139
# Poissons Ratio (z) = 0.12842 0.49517
#
# Static dielectric constant tensor:
#      x y z
#    x 1.570920 0.000000 0.000000 
#    y 0.000000 1.586110 0.000000 
#    z 0.000000 0.000000 1.550130 
# 
# From -- ./inp_files/21571.got.cif
#   From: 2010.05.17/outbox.cif.g08.bks.cpg/sg51_11_cif.got.tgz:21571.got - 2010.06.03 11:52:47.
