data_PCOD9400958
_publ_section_title
;
Structure prediction by ZEFSAII (Michael W. Deem and Ramdas Pophale) SiO2 
 PCOD9400958
Probable space group: P M M A
;
_chemical_formula_sum "Si O2"
_cell_formula_units_Z 32
_cell_length_a 27.691405
_cell_length_b 10.915828
_cell_length_c 5.154549
_cell_angle_alpha 90.000000
_cell_angle_beta 90.000000
_cell_angle_gamma 90.000000
_cell_volume 1558.089310
_symmetry_space_group_name_H-M "P M M A"
_symmetry_group_IT_number 51
_symmetry_cell_setting 'orthorhombic'
loop_
_space_group_symop_operation_xyz
x,y,z
1/2-x,-y,z
1/2+x,-y,-z
-x,y,-z
-x,-y,-z
1/2+x,y,-z
1/2-x,y,z
x,-y,z
loop_
_atom_site_type_symbol
_atom_site_label
_atom_site_fract_x
_atom_site_fract_y
_atom_site_fract_z
Si Si1 0.366626 0.647152 0.286213
Si Si2 0.965032 0.000000 0.250573
Si Si3 0.534045 0.500000 0.254207
Si Si4 0.443255 0.748201 0.928600
Si Si5 0.695371 0.353519 0.229479
O O1 0.378852 0.500000 0.298744
O O2 0.412352 0.724598 0.186372
O O3 0.328213 0.662148 0.051311
O O4 0.339907 0.691564 0.544195
O O5 0.934844 0.125171 0.220878
O O6 0.000000 0.000000 0.500000
O O7 0.000000 0.000000 0.000000
O O8 0.500000 0.500000 0.500000
O O9 0.564216 0.624554 0.238881
O O10 0.500000 0.500000 0.000000
O O11 0.500000 0.749216 0.000000
O O12 0.750000 0.305231 0.243726
O O13 0.698098 0.500000 0.274149
#
# Coordination Sequence:
#
# PCOD9400958 Si02
#       5
#     8   4   4   8   8
#     4  10  19  31  50  78 104 137 174 214 265 320
#     4  10  22  38  54  72 103 148 189 218 254 306
#     4  10  20  32  50  72 101 138 171 210 260 298
#     4  10  21  37  53  79 110 145 180 221 262 317
#     4   9  18  32  50  74 106 136 170 217 268 317
#
# _framework density 20.537977999999999
#
# number of rings (size 3 to 8) (size 9 to 14) (size 15 to 20)
#    0.000    2.250    1.250    1.500    0.000   11.000 
#    0.000    0.000    0.000    0.000    0.000    5.250 
#    0.000    0.000    0.000    0.000    0.000    0.000 
#
# Total GULP energy -178750.129334 kJ/mol
# GULP energy per Si atom -5585.941542 kJ/mol
# Density = 2.049123 g / cm^3
# Si number density = 20.537978 Si / 1000 Ang^3
#
#
#
# Elastic Constant Matrix: (Units=GPa)
#
#
# Indices 1 2 3 4 5 6 
#
# 1 116.1760 8.8391 19.5898 0.0000 0.0000 0.0000
# 2 8.8391 129.4359 17.1544 0.0000 0.0000 0.0000
# 3 19.5898 17.1544 99.7850 0.0000 0.0000 0.0000
# 4 0.0000 0.0000 0.0000 14.9574 0.0000 0.0000
# 5 0.0000 0.0000 0.0000 0.0000 25.1421 0.0000
# 6 0.0000 0.0000 0.0000 0.0000 0.0000 0.5706
#
#
#
# Elastic Compliance Matrix: (Units=1/GPa)
#
#
# Indices 1 2 3 4 5 6 
#
# 1 0.008921 -0.000386 -0.001685 0.000000 0.000000 0.000000
# 2 -0.000386 0.007923 -0.001286 0.000000 0.000000 0.000000
# 3 -0.001685 -0.001286 0.010573 0.000000 0.000000 0.000000
# 4 0.000000 0.000000 0.000000 0.066857 0.000000 0.000000
# 5 0.000000 0.000000 0.000000 0.000000 0.039774 0.000000
# 6 0.000000 0.000000 0.000000 0.000000 0.000000 1.752604
#
#
# Mechanical properties :
#
#
# Convention : Reuss Voigt Hill
#
# Bulk Modulus (GPa) = 48.30251 48.50705 48.40478
# Shear Modulus (GPa) = 2.63121 28.12159 15.37640
#
# Velocity S-wave (km/s) = 1.13310 3.70435 2.73917
# Velocity P-wave (km/s) = 5.02808 6.47810 5.79859
#
# Compressibility (1/GPa) = 0.02070286
#
# Stress axis : x y z
#
# Youngs Moduli (GPa) = 112.09347 126.22034 94.57618
#
# Poissons Ratio (x) = 0.04871 0.15937
# Poissons Ratio (y) = 0.04326 0.12165
# Poissons Ratio (z) = 0.18888 0.16235
#
# Static dielectric constant tensor:
#      x y z
#    x 1.731470 0.000000 0.000000 
#    y 0.000000 1.803460 0.000000 
#    z 0.000000 0.000000 1.749800 
# 
# From -- ./inp_files/2869.got.cif
#   From: 2010.05.17/outbox.cif.g08.bks.cpg/sg51_2_cif.got.tgz:2869.got - 2010.06.03 11:52:47.
