data_PCOD9400491
_publ_section_title
;
Structure prediction by ZEFSAII (Michael W. Deem and Ramdas Pophale) SiO2 
 PCOD9400491
Probable space group: P M M A
;
_chemical_formula_sum "Si O2"
_cell_formula_units_Z 48
_cell_length_a 25.585592
_cell_length_b 9.085393
_cell_length_c 12.861462
_cell_angle_alpha 90.000000
_cell_angle_beta 90.000000
_cell_angle_gamma 90.000000
_cell_volume 2989.713187
_symmetry_space_group_name_H-M "P M M A"
_symmetry_group_IT_number 51
_symmetry_cell_setting 'orthorhombic'
loop_
_space_group_symop_operation_xyz
x,y,z
1/2-x,-y,z
1/2+x,-y,-z
-x,y,-z
-x,-y,-z
1/2+x,y,-z
1/2-x,y,z
x,-y,z
loop_
_atom_site_type_symbol
_atom_site_label
_atom_site_fract_x
_atom_site_fract_y
_atom_site_fract_z
Si Si1 0.812468 0.325532 0.281418
Si Si2 0.391541 0.324457 0.109923
Si Si3 0.686523 0.168970 0.495091
Si Si4 0.496659 0.168170 0.126051
Si Si5 0.188908 0.323835 0.291638
Si Si6 0.886849 0.177173 0.115468
O O1 0.750000 0.302147 0.270199
O O2 0.822088 0.500000 0.277008
O O3 0.828861 0.260582 0.393357
O O4 0.843523 0.242670 0.191198
O O5 0.392033 0.500000 0.094121
O O6 0.447904 0.270691 0.151805
O O7 0.346921 0.286880 0.193304
O O8 0.382010 0.245032 0.999772
O O9 0.750000 0.169545 0.495999
O O10 0.670771 0.242674 0.603699
O O11 0.669103 0.000000 0.487490
O O12 0.554893 0.214765 0.158293
O O13 0.486704 0.000000 0.159934
O O14 0.500000 0.166067 0.000000
O O15 0.250000 0.287217 0.272671
O O16 0.186004 0.500000 0.308235
O O17 0.884065 0.000000 0.109076
#
# Coordination Sequence:
#
# PCOD9400491 Si02
#       6
#     8   8   8   8   8   8
#     4  10  20  33  50  72  98 127 157 192 237 285
#     4  10  19  30  48  73  98 127 162 198 238 283
#     4   9  17  30  49  71  93 121 160 198 230 273
#     4   8  16  31  48  66  91 124 160 198 238 280
#     4   9  18  32  48  68  97 129 158 191 233 280
#     4  10  20  33  49  70  97 128 161 197 238 283
#
# _framework density 16.055050999999999
#
# number of rings (size 3 to 8) (size 9 to 14) (size 15 to 20)
#    0.000    2.667    0.000    3.000    0.000    8.667 
#    0.000    1.667    0.000    1.000    0.000    7.000 
#    0.000    0.000    0.000    0.000    0.000    0.000 
#
# Total GULP energy -267470.046346 kJ/mol
# GULP energy per Si atom -5572.292632 kJ/mol
# Density = 1.601851 g / cm^3
# Si number density = 16.055051 Si / 1000 Ang^3
#
#
#
# Elastic Constant Matrix: (Units=GPa)
#
#
# Indices 1 2 3 4 5 6 
#
# 1 77.3924 57.9032 61.1543 0.0000 0.0000 0.0000
# 2 57.9032 81.2311 65.0609 0.0000 0.0000 0.0000
# 3 61.1543 65.0609 105.7990 0.0000 0.0000 0.0000
# 4 0.0000 0.0000 0.0000 11.2948 0.0000 0.0000
# 5 0.0000 0.0000 0.0000 0.0000 -3.6865 0.0000
# 6 0.0000 0.0000 0.0000 0.0000 0.0000 26.0473
#
#
#
# Elastic Compliance Matrix: (Units=1/GPa)
#
#
# Indices 1 2 3 4 5 6 
#
# 1 0.031201 -0.015362 -0.008588 0.000000 0.000000 0.000000
# 2 -0.015362 0.031823 -0.010690 0.000000 0.000000 0.000000
# 3 -0.008588 -0.010690 0.020989 0.000000 0.000000 0.000000
# 4 0.000000 0.000000 0.000000 0.088536 0.000000 0.000000
# 5 0.000000 0.000000 0.000000 0.000000 -0.271259 0.000000
# 6 0.000000 0.000000 0.000000 0.000000 0.000000 0.038392
#
#
# Mechanical properties :
#
#
# Convention : Reuss Voigt Hill
#
# Bulk Modulus (GPa) = 67.87202 70.29547 69.08374
# Shear Modulus (GPa) = 360.42072 12.08473 186.25273
#
# Velocity S-wave (km/s) = 14.99926 2.74653 10.78242
# Velocity P-wave (km/s) = 18.50235 7.34418 14.07611
#
# Compressibility (1/GPa) = 0.01473361
#
# Stress axis : x y z
#
# Youngs Moduli (GPa) = 32.05047 31.42398 47.64322
#
# Poissons Ratio (x) = 0.48275 0.40915
# Poissons Ratio (y) = 0.49237 0.50929
# Poissons Ratio (z) = 0.27524 0.33591
#
# Static dielectric constant tensor:
#      x y z
#    x 1.543740 0.000000 0.000000 
#    y 0.000000 1.539020 0.000000 
#    z 0.000000 0.000000 1.511750 
# 
# From -- ./inp_files/18593.got.cif
#   From: 2010.05.17/outbox.cif.g08.bks.cpg/sg51_10_cif.got.tgz:18593.got - 2010.06.03 11:52:47.
