data_PCOD9400693
_publ_section_title
;
Structure prediction by ZEFSAII (Michael W. Deem and Ramdas Pophale) SiO2 
 PCOD9400693
Probable space group: P M M A
;
_chemical_formula_sum "Si O2"
_cell_formula_units_Z 52
_cell_length_a 8.717784
_cell_length_b 15.810050
_cell_length_c 23.641028
_cell_angle_alpha 90.000000
_cell_angle_beta 90.000000
_cell_angle_gamma 90.000000
_cell_volume 3258.409814
_symmetry_space_group_name_H-M "P M M A"
_symmetry_group_IT_number 51
_symmetry_cell_setting 'orthorhombic'
loop_
_space_group_symop_operation_xyz
x,y,z
1/2-x,-y,z
1/2+x,-y,-z
-x,y,-z
-x,-y,-z
1/2+x,y,-z
1/2-x,y,z
x,-y,z
loop_
_atom_site_type_symbol
_atom_site_label
_atom_site_fract_x
_atom_site_fract_y
_atom_site_fract_z
Si Si1 0.565894 0.345093 0.440788
Si Si2 0.924754 0.897633 0.058280
Si Si3 0.933929 0.000000 0.561916
Si Si4 0.565128 0.820435 0.609716
Si Si5 0.934361 0.769988 0.269379
Si Si6 0.563647 0.406606 0.315295
Si Si7 0.566813 0.901680 0.820665
O O1 0.500000 0.379542 0.500000
O O2 0.750000 0.345964 0.443654
O O3 0.503810 0.249900 0.432007
O O4 0.519618 0.389366 0.381200
O O5 0.750000 0.867626 0.063748
O O6 0.018358 0.879987 0.115177
O O7 0.920284 0.000000 0.054299
O O8 0.000000 0.866583 0.000000
O O9 0.981085 0.914147 0.592042
O O10 0.000000 0.000000 0.500000
O O11 0.750000 0.000000 0.559712
O O12 0.750000 0.813003 0.610391
O O13 0.496252 0.804507 0.671217
O O14 0.750000 0.772539 0.267651
O O15 0.982874 0.670750 0.274340
O O16 0.997958 0.831124 0.220819
O O17 0.750000 0.406308 0.315371
O O18 0.510484 0.500000 0.298464
O O19 0.750000 0.901081 0.815442
O O20 0.515536 0.000000 0.809165
#
# Coordination Sequence:
#
# PCOD9400693 Si02
#       7
#     8   8   4   8   8   8   8
#     4  10  19  31  48  69  90 113 143 180 229 284
#     4   9  16  27  44  67  97 132 170 207 240 275
#     4  10  22  34  46  62  80 108 147 186 225 272
#     4  10  20  34  48  63  86 116 149 187 232 280
#     4  10  20  33  50  72  94 120 155 195 237 281
#     4   8  16  32  51  69  91 118 148 186 236 291
#     4  10  20  32  47  68  98 136 171 202 235 273
#
# _framework density 15.958705
#
# number of rings (size 3 to 8) (size 9 to 14) (size 15 to 20)
#    0.000    2.462    0.000    3.692    1.077    5.538 
#    0.000    0.000    0.000   16.154    0.000    0.000 
#    0.000    0.615    0.000    1.692    0.000    2.462 
#
# Total GULP energy -289730.171420 kJ/mol
# GULP energy per Si atom -5571.734066 kJ/mol
# Density = 1.592238 g / cm^3
# Si number density = 15.958705 Si / 1000 Ang^3
#
#
#
# Elastic Constant Matrix: (Units=GPa)
#
#
# Indices 1 2 3 4 5 6 
#
# 1 44.6397 24.6018 24.8299 0.0000 0.0000 0.0000
# 2 24.6018 113.0695 50.7613 0.0000 0.0000 0.0000
# 3 24.8299 50.7613 95.3952 0.0000 0.0000 0.0000
# 4 0.0000 0.0000 0.0000 1.8551 0.0000 0.0000
# 5 0.0000 0.0000 0.0000 0.0000 30.2331 0.0000
# 6 0.0000 0.0000 0.0000 0.0000 0.0000 8.2303
#
#
#
# Elastic Compliance Matrix: (Units=1/GPa)
#
#
# Indices 1 2 3 4 5 6 
#
# 1 0.027271 -0.003609 -0.005178 0.000000 0.000000 0.000000
# 2 -0.003609 0.012098 -0.005498 0.000000 0.000000 0.000000
# 3 -0.005178 -0.005498 0.014756 0.000000 0.000000 0.000000
# 4 0.000000 0.000000 0.000000 0.539068 0.000000 0.000000
# 5 0.000000 0.000000 0.000000 0.000000 0.033076 0.000000
# 6 0.000000 0.000000 0.000000 0.000000 0.000000 0.121502
#
#
# Mechanical properties :
#
#
# Convention : Reuss Voigt Hill
#
# Bulk Modulus (GPa) = 39.13172 50.38781 44.75977
# Shear Modulus (GPa) = 6.37058 18.25780 12.31419
#
# Velocity S-wave (km/s) = 2.00015 3.38607 2.78083
# Velocity P-wave (km/s) = 5.46882 6.85053 6.19829
#
# Compressibility (1/GPa) = 0.02555472
#
# Stress axis : x y z
#
# Youngs Moduli (GPa) = 36.66957 82.66073 67.76946
#
# Poissons Ratio (x) = 0.29833 0.35088
# Poissons Ratio (y) = 0.13235 0.37259
# Poissons Ratio (z) = 0.18986 0.45446
#
# Static dielectric constant tensor:
#      x y z
#    x 1.541310 0.000000 0.000000 
#    y 0.000000 1.551860 0.000000 
#    z 0.000000 0.000000 1.519590 
# 
# From -- ./inp_files/34733.got.cif
#   From: 2010.05.17/outbox.cif.g08.bks.cpg/sg51_18_cif.got.tgz:34733.got - 2010.06.03 11:52:47.
