data_PCOD9400321
_publ_section_title
;
Structure prediction by ZEFSAII (Michael W. Deem and Ramdas Pophale) SiO2 
 PCOD9400321
Probable space group: P M M A
;
_chemical_formula_sum "Si O2"
_cell_formula_units_Z 48
_cell_length_a 16.717051
_cell_length_b 17.004784
_cell_length_c 7.277447
_cell_angle_alpha 90.000000
_cell_angle_beta 90.000000
_cell_angle_gamma 90.000000
_cell_volume 2068.758704
_symmetry_space_group_name_H-M "P M M A"
_symmetry_group_IT_number 51
_symmetry_cell_setting 'orthorhombic'
loop_
_space_group_symop_operation_xyz
x,y,z
1/2-x,-y,z
1/2+x,-y,-z
-x,y,-z
-x,-y,-z
1/2+x,y,-z
1/2-x,y,z
x,-y,z
loop_
_atom_site_type_symbol
_atom_site_label
_atom_site_fract_x
_atom_site_fract_y
_atom_site_fract_z
Si Si1 0.654573 0.415884 0.946877
Si Si2 0.594166 0.252669 0.966375
Si Si3 0.595246 0.085940 0.530386
Si Si4 0.596317 0.084246 0.968627
Si Si5 0.904932 0.585784 0.526214
Si Si6 0.344071 0.749668 0.449818
O O1 0.750000 0.414658 0.927460
O O2 0.630518 0.500000 0.032102
O O3 0.629083 0.334443 0.037905
O O4 0.616934 0.415542 0.742795
O O5 0.626695 0.168675 0.037553
O O6 0.611147 0.251130 0.747440
O O7 0.500000 0.254432 0.000000
O O8 0.500000 0.090287 0.500000
O O9 0.610195 0.084158 0.749499
O O10 0.632126 0.167345 0.459719
O O11 0.622071 0.000000 0.459241
O O12 0.626696 0.000000 0.039622
O O13 0.500000 0.084356 0.000000
O O14 0.876469 0.500000 0.455137
O O15 0.867972 0.667533 0.455587
O O16 0.000000 0.589692 0.500000
O O17 0.250000 0.748833 0.414785
#
# Coordination Sequence:
#
# PCOD9400321 Si02
#       6
#     8   8   8   8   8   8
#     4   9  17  29  44  64  90 116 144 184 234 281
#     4   9  16  26  42  64  87 114 150 190 229 270
#     4   9  17  29  46  70  97 123 155 197 239 276
#     4   8  14  25  41  63  90 118 148 183 225 271
#     4   9  16  26  42  64  87 113 147 186 228 276
#     4  10  19  30  45  67  95 122 151 192 239 285
#
# _framework density 23.20232
#
# number of rings (size 3 to 8) (size 9 to 14) (size 15 to 20)
#    0.000    3.000    0.000    2.500    0.000    1.667 
#    0.000    0.000    0.000    1.500    0.000   80.500 
#    0.000   73.333    0.000    0.000    0.000    0.000 
#
# Total GULP energy -267550.868951 kJ/mol
# GULP energy per Si atom -5573.976436 kJ/mol
# Density = 2.314951 g / cm^3
# Si number density = 23.202320 Si / 1000 Ang^3
#
#
#
# Elastic Constant Matrix: (Units=GPa)
#
#
# Indices 1 2 3 4 5 6 
#
# 1 65.7019 55.7035 9.4459 0.0000 0.0000 0.0000
# 2 55.7035 344.6862 23.9884 0.0000 0.0000 0.0000
# 3 9.4459 23.9884 101.9283 0.0000 0.0000 0.0000
# 4 0.0000 0.0000 0.0000 -23.1701 0.0000 0.0000
# 5 0.0000 0.0000 0.0000 0.0000 13.7838 0.0000
# 6 0.0000 0.0000 0.0000 0.0000 0.0000 27.5753
#
#
#
# Elastic Compliance Matrix: (Units=1/GPa)
#
#
# Indices 1 2 3 4 5 6 
#
# 1 0.017733 -0.002797 -0.000985 0.000000 0.000000 0.000000
# 2 -0.002797 0.003391 -0.000539 0.000000 0.000000 0.000000
# 3 -0.000985 -0.000539 0.010029 0.000000 0.000000 0.000000
# 4 0.000000 0.000000 0.000000 -0.043159 0.000000 0.000000
# 5 0.000000 0.000000 0.000000 0.000000 0.072549 0.000000
# 6 0.000000 0.000000 0.000000 0.000000 0.000000 0.036264
#
#
# Mechanical properties :
#
#
# Convention : Reuss Voigt Hill
#
# Bulk Modulus (GPa) = 44.42294 76.73245 60.57770
# Shear Modulus (GPa) = 44.26609 31.84969 38.05789
#
# Velocity S-wave (km/s) = 4.37261 3.70901 4.05441
# Velocity P-wave (km/s) = 6.68434 7.17531 6.93418
#
# Compressibility (1/GPa) = 0.02251089
#
# Stress axis : x y z
#
# Youngs Moduli (GPa) = 56.39047 294.92031 99.71180
#
# Poissons Ratio (x) = 0.82498 0.09822
# Poissons Ratio (y) = 0.15774 0.05372
# Poissons Ratio (z) = 0.05555 0.15889
#
# Static dielectric constant tensor:
#      x y z
#    x 1.788930 0.000000 0.000000 
#    y 0.000000 2.008090 0.000000 
#    z 0.000000 0.000000 1.823370 
# 
# From -- ./inp_files/8239.got.cif
#   From: 2010.05.17/outbox.cif.g08.bks.cpg/sg51_5_cif.got.tgz:8239.got - 2010.06.03 11:52:47.
