data_PCOD9400978
_publ_section_title
;
Structure prediction by ZEFSAII (Michael W. Deem and Ramdas Pophale) SiO2 
 PCOD9400978
Probable space group: P M M A
;
_chemical_formula_sum "Si O2"
_cell_formula_units_Z 56
_cell_length_a 16.113458
_cell_length_b 7.649906
_cell_length_c 21.796435
_cell_angle_alpha 90.000000
_cell_angle_beta 90.000000
_cell_angle_gamma 90.000000
_cell_volume 2686.768926
_symmetry_space_group_name_H-M "P M M A"
_symmetry_group_IT_number 51
_symmetry_cell_setting 'orthorhombic'
loop_
_space_group_symop_operation_xyz
x,y,z
1/2-x,-y,z
1/2+x,-y,-z
-x,y,-z
-x,-y,-z
1/2+x,y,-z
1/2-x,y,z
x,-y,z
loop_
_atom_site_type_symbol
_atom_site_label
_atom_site_fract_x
_atom_site_fract_y
_atom_site_fract_z
Si Si1 0.843174 0.213402 0.070886
Si Si2 0.000031 0.793273 0.853664
Si Si3 0.002746 0.707140 0.288283
Si Si4 0.158529 0.210865 0.632155
Si Si5 0.843127 0.213353 0.928894
Si Si6 0.095747 0.788784 0.500376
Si Si7 0.341410 0.291731 0.366019
O O1 0.750000 0.271150 0.087740
O O2 0.916426 0.277317 0.114691
O O3 0.842053 0.000000 0.072836
O O4 0.858948 0.261324 0.999889
O O5 0.999996 0.773071 0.780952
O O6 0.916361 0.722625 0.885102
O O7 0.000080 0.000000 0.867225
O O8 0.012745 0.500000 0.284957
O O9 0.917416 0.742037 0.324081
O O10 0.081269 0.779674 0.326747
O O11 0.250000 0.272276 0.651672
O O12 0.138861 0.272180 0.562923
O O13 0.160657 0.000000 0.630347
O O14 0.750000 0.271354 0.912008
O O15 0.842007 0.000000 0.927021
O O16 0.139884 0.735216 0.437829
O O17 0.000000 0.729229 0.500000
O O18 0.095388 0.000000 0.501520
O O19 0.250000 0.220376 0.350711
O O20 0.338946 0.500000 0.355757
#
# Coordination Sequence:
#
# PCOD9400978 Si02
#       7
#     8   8   8   8   8   8   8
#     4   8  14  26  47  76 105 130 161 207 261 312
#     4  10  19  31  51  76 102 134 174 214 259 310
#     4  11  24  39  53  73 106 146 185 223 262 307
#     4  10  21  38  59  82 108 138 173 215 265 320
#     4   8  14  26  47  77 107 130 161 211 264 312
#     4  10  19  34  60  88 112 133 163 215 275 325
#     4  10  22  39  57  77 104 142 185 223 262 313
#
# _framework density 20.842880999999998
#
# number of rings (size 3 to 8) (size 9 to 14) (size 15 to 20)
#    0.000    2.429    1.429    2.143    0.000    5.429 
#    0.000    1.429    0.000    1.714    0.000    2.000 
#    0.000    0.000    0.000    0.000    0.000    0.000 
#
# Total GULP energy -312663.591402 kJ/mol
# GULP energy per Si atom -5583.278418 kJ/mol
# Density = 2.079544 g / cm^3
# Si number density = 20.842881 Si / 1000 Ang^3
#
#
#
# Elastic Constant Matrix: (Units=GPa)
#
#
# Indices 1 2 3 4 5 6 
#
# 1 212.0279 2.5462 111.0997 0.0000 0.0000 0.0000
# 2 2.5462 35.3079 -10.8656 0.0000 0.0000 0.0000
# 3 111.0997 -10.8656 132.7897 0.0000 0.0000 0.0000
# 4 0.0000 0.0000 0.0000 46.6638 0.0000 0.0000
# 5 0.0000 0.0000 0.0000 0.0000 -7.2175 0.0000
# 6 0.0000 0.0000 0.0000 0.0000 0.0000 6.6916
#
#
#
# Elastic Compliance Matrix: (Units=1/GPa)
#
#
# Indices 1 2 3 4 5 6 
#
# 1 0.008685 -0.002936 -0.007507 0.000000 0.000000 0.000000
# 2 -0.002936 0.030047 0.004915 0.000000 0.000000 0.000000
# 3 -0.007507 0.004915 0.014213 0.000000 0.000000 0.000000
# 4 0.000000 0.000000 0.000000 0.021430 0.000000 0.000000
# 5 0.000000 0.000000 0.000000 0.000000 -0.138551 0.000000
# 6 0.000000 0.000000 0.000000 0.000000 0.000000 0.149440
#
#
# Mechanical properties :
#
#
# Convention : Reuss Voigt Hill
#
# Bulk Modulus (GPa) = 23.87226 65.07625 44.47426
# Shear Modulus (GPa) = 45.33823 27.71726 36.52774
#
# Velocity S-wave (km/s) = 4.66900 3.65062 4.19086
# Velocity P-wave (km/s) = 6.36745 7.00425 6.69343
#
# Compressibility (1/GPa) = 0.04188962
#
# Stress axis : x y z
#
# Youngs Moduli (GPa) = 115.14093 33.28160 70.35606
#
# Poissons Ratio (x) = 0.09773 0.52814
# Poissons Ratio (y) = 0.33810 -0.34582
# Poissons Ratio (z) = 0.86432 -0.16359
#
# Static dielectric constant tensor:
#      x y z
#    x 1.767020 0.000000 0.000000 
#    y 0.000000 1.786060 0.000000 
#    z 0.000000 0.000000 1.696540 
# 
# From -- ./inp_files/33429.got.cif
#   From: 2010.05.17/outbox.cif.g08.bks.cpg/sg51_17_cif.got.tgz:33429.got - 2010.06.03 11:52:47.
