data_PCOD9400016
_publ_section_title
;
Structure prediction by ZEFSAII (Michael W. Deem and Ramdas Pophale) SiO2 
 PCOD9400016
Probable space group: P M M A
;
_chemical_formula_sum "Si O2"
_cell_formula_units_Z 64
_cell_length_a 9.580691
_cell_length_b 19.926525
_cell_length_c 19.529737
_cell_angle_alpha 90.000000
_cell_angle_beta 90.000000
_cell_angle_gamma 90.000000
_cell_volume 3728.419722
_symmetry_space_group_name_H-M "P M M A"
_symmetry_group_IT_number 51
_symmetry_cell_setting 'orthorhombic'
loop_
_space_group_symop_operation_xyz
x,y,z
1/2-x,-y,z
1/2+x,-y,-z
-x,y,-z
-x,-y,-z
1/2+x,y,-z
1/2-x,y,z
x,-y,z
loop_
_atom_site_type_symbol
_atom_site_label
_atom_site_fract_x
_atom_site_fract_y
_atom_site_fract_z
Si Si1 0.094888 0.077637 0.673005
Si Si2 0.912048 0.576993 0.820158
Si Si3 0.094058 0.865128 0.437937
Si Si4 0.416484 0.780563 0.831379
Si Si5 0.084023 0.700795 0.280677
Si Si6 0.085665 0.926862 0.837406
Si Si7 0.584981 0.346693 0.070136
Si Si8 0.091726 0.703978 0.436557
O O1 0.250000 0.104410 0.656961
O O2 0.078514 0.076875 0.754678
O O3 0.978124 0.117513 0.633325
O O4 0.089099 0.000000 0.650800
O O5 0.750000 0.584353 0.843154
O O6 0.932694 0.500000 0.799191
O O7 0.931859 0.630335 0.759182
O O8 0.016171 0.597698 0.880612
O O9 0.250000 0.892156 0.441707
O O10 0.099568 0.784720 0.443875
O O11 0.000000 0.891437 0.500000
O O12 0.250000 0.785940 0.815669
O O13 0.498885 0.755061 0.764149
O O14 0.467737 0.853342 0.858233
O O15 0.432725 0.723374 0.888671
O O16 0.250000 0.718241 0.281695
O O17 0.037166 0.693243 0.359315
O O18 0.250000 0.928855 0.855968
O O19 0.025385 0.000000 0.858313
O O20 0.750000 0.357786 0.059504
O O21 0.500000 0.344697 0.000000
O O22 0.250000 0.677437 0.440394
O O23 0.000000 0.678650 0.500000
#
# Coordination Sequence:
#
# PCOD9400016 Si02
#       8
#     8   8   8   8   8   8   8   8
#     4   9  17  28  41  57  77 102 133 171 219 274
#     4   9  18  33  53  76 101 130 161 191 228 275
#     4  10  19  29  40  54  74 102 137 177 221 269
#     4   9  17  29  48  73  95 120 159 199 234 278
#     4   9  17  30  48  70  96 124 155 194 239 284
#     4   8  14  26  45  67  89 113 144 186 233 277
#     4  10  20  33  50  74 103 133 163 194 228 269
#     4   9  18  30  44  64  88 115 149 189 233 278
#
# _framework density 17.165448999999999
#
# number of rings (size 3 to 8) (size 9 to 14) (size 15 to 20)
#    0.000    2.875    0.000    2.250    0.000    2.500 
#    0.000    0.000    0.000    1.875    0.000    0.000 
#    0.000    0.000    0.000    0.000    0.000    0.375 
#
# Total GULP energy -356364.296399 kJ/mol
# GULP energy per Si atom -5568.192131 kJ/mol
# Density = 1.712638 g / cm^3
# Si number density = 17.165449 Si / 1000 Ang^3
#
#
#
# Elastic Constant Matrix: (Units=GPa)
#
#
# Indices 1 2 3 4 5 6 
#
# 1 59.0892 10.9994 23.5496 0.0000 0.0000 0.0000
# 2 10.9994 68.0780 -5.8709 0.0000 0.0000 0.0000
# 3 23.5496 -5.8709 51.1010 0.0000 0.0000 0.0000
# 4 0.0000 0.0000 0.0000 16.5220 0.0000 0.0000
# 5 0.0000 0.0000 0.0000 0.0000 22.8138 0.0000
# 6 0.0000 0.0000 0.0000 0.0000 0.0000 13.6957
#
#
#
# Elastic Compliance Matrix: (Units=1/GPa)
#
#
# Indices 1 2 3 4 5 6 
#
# 1 0.022002 -0.004474 -0.010654 0.000000 0.000000 0.000000
# 2 -0.004474 0.015746 0.003871 0.000000 0.000000 0.000000
# 3 -0.010654 0.003871 0.024923 0.000000 0.000000 0.000000
# 4 0.000000 0.000000 0.000000 0.060525 0.000000 0.000000
# 5 0.000000 0.000000 0.000000 0.000000 0.043833 0.000000
# 6 0.000000 0.000000 0.000000 0.000000 0.000000 0.073016
#
#
# Mechanical properties :
#
#
# Convention : Reuss Voigt Hill
#
# Bulk Modulus (GPa) = 24.90156 26.18049 25.54103
# Shear Modulus (GPa) = 18.11958 20.57897 19.34927
#
# Velocity S-wave (km/s) = 3.25250 3.46621 3.36106
# Velocity P-wave (km/s) = 5.35194 5.59504 5.47484
#
# Compressibility (1/GPa) = 0.04015812
#
# Stress axis : x y z
#
# Youngs Moduli (GPa) = 45.44999 63.50963 40.12296
#
# Poissons Ratio (x) = 0.28412 0.42745
# Poissons Ratio (y) = 0.20333 -0.15530
# Poissons Ratio (z) = 0.48420 -0.24582
#
# Static dielectric constant tensor:
#      x y z
#    x 1.590810 0.000000 0.000000 
#    y 0.000000 1.609130 0.000000 
#    z 0.000000 0.000000 1.569540 
# 
# From -- ./inp_files/28315.got.cif
#   From: 2010.05.17/outbox.cif.g08.bks.cpg/sg51_15_cif.got.tgz:28315.got - 2010.06.03 11:52:47.
