data_PCOD9400935
_publ_section_title
;
Structure prediction by ZEFSAII (Michael W. Deem and Ramdas Pophale) SiO2 
 PCOD9400935
Probable space group: P M M A
;
_chemical_formula_sum "Si O2"
_cell_formula_units_Z 64
_cell_length_a 18.971358
_cell_length_b 7.536089
_cell_length_c 20.643513
_cell_angle_alpha 90.000000
_cell_angle_beta 90.000000
_cell_angle_gamma 90.000000
_cell_volume 2951.399799
_symmetry_space_group_name_H-M "P M M A"
_symmetry_group_IT_number 51
_symmetry_cell_setting 'orthorhombic'
loop_
_space_group_symop_operation_xyz
x,y,z
1/2-x,-y,z
1/2+x,-y,-z
-x,y,-z
-x,-y,-z
1/2+x,y,-z
1/2-x,y,z
x,-y,z
loop_
_atom_site_type_symbol
_atom_site_label
_atom_site_fract_x
_atom_site_fract_y
_atom_site_fract_z
Si Si1 0.829650 0.283187 0.993712
Si Si2 0.668798 0.713870 0.736246
Si Si3 0.591187 0.716940 0.864474
Si Si4 0.670019 0.789795 0.212832
Si Si5 0.169275 0.790697 0.408723
Si Si6 0.435968 0.295869 0.897878
Si Si7 0.571922 0.296906 0.474903
Si Si8 0.170433 0.285927 0.637097
O O1 0.750000 0.223296 0.007602
O O2 0.828609 0.500000 0.997298
O O3 0.855196 0.235727 0.921888
O O4 0.887596 0.218058 0.045132
O O5 0.750000 0.776933 0.743100
O O6 0.670678 0.500000 0.739261
O O7 0.620466 0.777321 0.795177
O O8 0.643001 0.763108 0.664562
O O9 0.588747 0.500000 0.861881
O O10 0.512765 0.780851 0.882533
O O11 0.750000 0.723297 0.200210
O O12 0.612361 0.707466 0.165964
O O13 0.654673 0.758014 0.288451
O O14 0.669686 0.000000 0.201127
O O15 0.250000 0.725658 0.410168
O O16 0.123971 0.701404 0.464097
O O17 0.169211 0.000000 0.422159
O O18 0.449390 0.500000 0.917381
O O19 0.500000 0.210931 0.500000
O O20 0.554224 0.500000 0.455636
O O21 0.613582 0.217250 0.414098
O O22 0.250000 0.221574 0.622621
O O23 0.172110 0.500000 0.631367
#
# Coordination Sequence:
#
# PCOD9400935 Si02
#       8
#     8   8   8   8   8   8   8   8
#     4   9  16  27  47  75 103 131 168 213 255 296
#     4   9  17  31  52  74  97 131 174 215 253 297
#     4   9  17  29  47  74 105 133 165 209 257 301
#     4  10  21  36  53  73  99 132 169 208 248 294
#     4  10  21  36  54  76 103 136 173 213 256 304
#     4  10  19  31  50  76 105 134 164 204 255 306
#     4  10  21  36  55  80 108 136 168 209 257 308
#     4   9  18  34  56  78 100 130 169 210 249 293
#
# _framework density 21.684626000000002
#
# number of rings (size 3 to 8) (size 9 to 14) (size 15 to 20)
#    0.000    2.500    0.000    2.250    0.000    7.250 
#    0.000    6.875    0.000    2.250    0.000    1.750 
#    0.000    0.000    0.000    0.000    0.000    0.000 
#
# Total GULP energy -357423.521900 kJ/mol
# GULP energy per Si atom -5584.742530 kJ/mol
# Density = 2.163527 g / cm^3
# Si number density = 21.684626 Si / 1000 Ang^3
#
#
#
# Elastic Constant Matrix: (Units=GPa)
#
#
# Indices 1 2 3 4 5 6 
#
# 1 51.6886 -6.6243 14.7563 0.0000 0.0000 0.0000
# 2 -6.6243 57.3884 -15.2466 0.0000 0.0000 0.0000
# 3 14.7563 -15.2466 53.9030 0.0000 0.0000 0.0000
# 4 0.0000 0.0000 0.0000 -706.5617 0.0000 0.0000
# 5 0.0000 0.0000 0.0000 0.0000 -48.9815 0.0000
# 6 0.0000 0.0000 0.0000 0.0000 0.0000 -5.8890
#
#
#
# Elastic Compliance Matrix: (Units=1/GPa)
#
#
# Indices 1 2 3 4 5 6 
#
# 1 0.021037 0.000971 -0.005484 0.000000 0.000000 0.000000
# 2 0.000971 0.018886 0.005076 0.000000 0.000000 0.000000
# 3 -0.005484 0.005076 0.021489 0.000000 0.000000 0.000000
# 4 0.000000 0.000000 0.000000 -0.001415 0.000000 0.000000
# 5 0.000000 0.000000 0.000000 0.000000 -0.020416 0.000000
# 6 0.000000 0.000000 0.000000 0.000000 0.000000 -0.169808
#
#
# Mechanical properties :
#
#
# Convention : Reuss Voigt Hill
#
# Bulk Modulus (GPa) = 15.99038 16.52785 16.25912
# Shear Modulus (GPa) = -45.24558 -140.94679 -93.09618
#
# Velocity S-wave (km/s) = -4.57281 -8.07091 -6.55935
# Velocity P-wave (km/s) = 4.52667 8.90024 7.06063
#
# Compressibility (1/GPa) = 0.06253761
#
# Stress axis : x y z
#
# Youngs Moduli (GPa) = 47.53583 52.94979 46.53556
#
# Poissons Ratio (x) = -0.05143 0.25521
# Poissons Ratio (y) = -0.04617 -0.23622
# Poissons Ratio (z) = 0.26070 -0.26877
#
# Static dielectric constant tensor:
#      x y z
#    x 1.779980 0.000000 0.000000 
#    y 0.000000 1.910890 0.000000 
#    z 0.000000 0.000000 1.750560 
# 
# From -- ./inp_files/33810.got.cif
#   From: 2010.05.17/outbox.cif.g08.bks.cpg/sg51_17_cif.got.tgz:33810.got - 2010.06.03 11:52:47.
