data_PCOD9400013
_publ_section_title
;
Structure prediction by ZEFSAII (Michael W. Deem and Ramdas Pophale) SiO2 
 PCOD9400013
Probable space group: P M M A
;
_chemical_formula_sum "Si O2"
_cell_formula_units_Z 52
_cell_length_a 23.228981
_cell_length_b 21.687251
_cell_length_c 5.748488
_cell_angle_alpha 90.000000
_cell_angle_beta 90.000000
_cell_angle_gamma 90.000000
_cell_volume 2895.931559
_symmetry_space_group_name_H-M "P M M A"
_symmetry_group_IT_number 51
_symmetry_cell_setting 'orthorhombic'
loop_
_space_group_symop_operation_xyz
x,y,z
1/2-x,-y,z
1/2+x,-y,-z
-x,y,-z
-x,-y,-z
1/2+x,y,-z
1/2-x,y,z
x,-y,z
loop_
_atom_site_type_symbol
_atom_site_label
_atom_site_fract_x
_atom_site_fract_y
_atom_site_fract_z
Si Si1 0.000000 0.823483 0.500000
Si Si2 0.106057 0.138856 0.763089
Si Si3 0.932847 0.621028 0.000932
Si Si4 0.567898 0.573819 0.499932
Si Si5 0.421128 0.759788 0.135210
Si Si6 0.815286 0.068346 0.929619
Si Si7 0.683998 0.190222 0.611182
O O1 0.052819 0.865871 0.587168
O O2 0.028688 0.777707 0.313363
O O3 0.157983 0.175514 0.639821
O O4 0.081412 0.183606 0.958895
O O5 0.135714 0.080146 0.878949
O O6 0.908571 0.597026 0.751133
O O7 0.930104 0.694816 0.985726
O O8 0.908500 0.599041 0.251583
O O9 0.000000 0.600393 0.000000
O O10 0.500000 0.592080 0.500000
O O11 0.571600 0.500000 0.495532
O O12 0.359869 0.762729 0.267884
O O13 0.750000 0.071910 0.028723
O O14 0.819800 0.124670 0.748681
O O15 0.821518 0.000000 0.825622
O O16 0.750000 0.209794 0.608756
#
# Coordination Sequence:
#
# PCOD9400013 Si02
#       7
#     4   8   8   8   8   8   8
#     4  10  20  32  49  70 105 134 176 204 258 304
#     4  10  19  32  50  73 101 133 167 211 259 308
#     4  10  19  28  48  71 103 141 183 216 258 314
#     4   9  18  30  44  67 103 144 180 218 259 306
#     4  10  21  32  51  74 101 134 174 212 255 314
#     4   9  18  33  52  74  97 127 170 212 258 317
#     4   9  19  34  52  73 101 130 160 212 270 314
#
# _framework density 17.956225
#
# number of rings (size 3 to 8) (size 9 to 14) (size 15 to 20)
#    0.000    2.462    0.000    2.308    7.538    3.077 
#    0.000    1.923    0.000   12.000    0.000    0.000 
#    0.000    3.692    0.000    0.000    0.000    0.000 
#
# Total GULP energy -289507.590114 kJ/mol
# GULP energy per Si atom -5567.453656 kJ/mol
# Density = 1.791536 g / cm^3
# Si number density = 17.956225 Si / 1000 Ang^3
#
#
#
# Elastic Constant Matrix: (Units=GPa)
#
#
# Indices 1 2 3 4 5 6 
#
# 1 72.3579 7.1315 19.5119 0.0000 0.0000 0.0000
# 2 7.1315 47.8646 31.9634 0.0000 0.0000 0.0000
# 3 19.5119 31.9634 92.2238 0.0000 0.0000 0.0000
# 4 0.0000 0.0000 0.0000 16.1775 0.0000 0.0000
# 5 0.0000 0.0000 0.0000 0.0000 23.1031 0.0000
# 6 0.0000 0.0000 0.0000 0.0000 0.0000 9.2780
#
#
#
# Elastic Compliance Matrix: (Units=1/GPa)
#
#
# Indices 1 2 3 4 5 6 
#
# 1 0.014657 -0.000147 -0.003050 0.000000 0.000000 0.000000
# 2 -0.000147 0.027185 -0.009391 0.000000 0.000000 0.000000
# 3 -0.003050 -0.009391 0.014743 0.000000 0.000000 0.000000
# 4 0.000000 0.000000 0.000000 0.061814 0.000000 0.000000
# 5 0.000000 0.000000 0.000000 0.000000 0.043284 0.000000
# 6 0.000000 0.000000 0.000000 0.000000 0.000000 0.107781
#
#
# Mechanical properties :
#
#
# Convention : Reuss Voigt Hill
#
# Bulk Modulus (GPa) = 31.83728 36.62887 34.23307
# Shear Modulus (GPa) = 16.38744 19.96768 18.17756
#
# Velocity S-wave (km/s) = 3.02426 3.33831 3.18516
# Velocity P-wave (km/s) = 5.47392 5.94158 5.71254
#
# Compressibility (1/GPa) = 0.03140972
#
# Stress axis : x y z
#
# Youngs Moduli (GPa) = 68.22602 36.78453 67.82760
#
# Poissons Ratio (x) = 0.00541 0.20688
# Poissons Ratio (y) = 0.01003 0.63696
# Poissons Ratio (z) = 0.20810 0.34544
#
# Static dielectric constant tensor:
#      x y z
#    x 1.614980 0.000000 0.000000 
#    y 0.000000 1.588150 0.000000 
#    z 0.000000 0.000000 1.707910 
# 
# From -- ./inp_files/2575.got.cif
#   From: 2010.05.17/outbox.cif.g08.bks.cpg/sg51_2_cif.got.tgz:2575.got - 2010.06.03 11:52:47.
