data_PCOD9400688
_publ_section_title
;
Structure prediction by ZEFSAII (Michael W. Deem and Ramdas Pophale) SiO2 
 PCOD9400688
Probable space group: P M M A
;
_chemical_formula_sum "Si O2"
_cell_formula_units_Z 56
_cell_length_a 25.513431
_cell_length_b 9.205695
_cell_length_c 15.486759
_cell_angle_alpha 90.000000
_cell_angle_beta 90.000000
_cell_angle_gamma 90.000000
_cell_volume 3637.357496
_symmetry_space_group_name_H-M "P M M A"
_symmetry_group_IT_number 51
_symmetry_cell_setting 'orthorhombic'
loop_
_space_group_symop_operation_xyz
x,y,z
1/2-x,-y,z
1/2+x,-y,-z
-x,y,-z
-x,-y,-z
1/2+x,y,-z
1/2-x,y,z
x,-y,z
loop_
_atom_site_type_symbol
_atom_site_label
_atom_site_fract_x
_atom_site_fract_y
_atom_site_fract_z
Si Si1 0.813769 0.167220 0.073312
Si Si2 0.397242 0.673243 0.608479
Si Si3 0.687334 0.828129 0.724208
Si Si4 0.110321 0.326564 0.405127
Si Si5 0.811010 0.673955 0.249956
Si Si6 0.813764 0.332805 0.900949
Si Si7 0.996557 0.166664 0.604663
O O1 0.750000 0.167580 0.071011
O O2 0.828044 0.245125 0.162685
O O3 0.830886 0.000000 0.070812
O O4 0.831558 0.254907 0.988808
O O5 0.407157 0.500000 0.614542
O O6 0.384973 0.703937 0.507834
O O7 0.348877 0.709932 0.670576
O O8 0.449654 0.758918 0.634364
O O9 0.750000 0.808585 0.714226
O O10 0.656262 0.748759 0.648340
O O11 0.671628 0.756427 0.815574
O O12 0.676521 0.000000 0.724578
O O13 0.110922 0.500000 0.393468
O O14 0.054973 0.259448 0.374455
O O15 0.750000 0.710695 0.267778
O O16 0.813349 0.500000 0.235837
O O17 0.750000 0.333892 0.903206
O O18 0.831108 0.500000 0.896321
O O19 0.000000 0.165848 0.500000
O O20 0.991840 0.000000 0.633713
#
# Coordination Sequence:
#
# PCOD9400688 Si02
#       7
#     8   8   8   8   8   8   8
#     4   9  16  26  41  62  88 117 149 186 226 266
#     4   9  18  31  47  67  91 120 155 194 231 267
#     4  10  20  32  45  65  95 126 154 186 226 273
#     4  10  19  31  48  68  91 120 155 193 230 270
#     4   9  17  29  44  64  92 124 155 186 223 269
#     4   9  16  27  44  64  86 115 151 188 225 266
#     4   9  17  30  48  67  87 113 149 193 236 274
#
# _framework density 15.395792
#
# number of rings (size 3 to 8) (size 9 to 14) (size 15 to 20)
#    0.000    2.714    0.000    2.143    0.000    7.714 
#    0.000    1.429    0.000    1.714    0.000    1.000 
#    0.000    8.000    0.000    0.000    0.000    0.000 
#
# Total GULP energy -312031.084330 kJ/mol
# GULP energy per Si atom -5571.983649 kJ/mol
# Density = 1.536075 g / cm^3
# Si number density = 15.395792 Si / 1000 Ang^3
#
#
#
# Elastic Constant Matrix: (Units=GPa)
#
#
# Indices 1 2 3 4 5 6 
#
# 1 57.8320 55.9967 51.9976 0.0000 0.0000 0.0000
# 2 55.9967 107.8547 72.7146 0.0000 0.0000 0.0000
# 3 51.9976 72.7146 99.4573 0.0000 0.0000 0.0000
# 4 0.0000 0.0000 0.0000 22.7116 0.0000 0.0000
# 5 0.0000 0.0000 0.0000 0.0000 -1.6466 0.0000
# 6 0.0000 0.0000 0.0000 0.0000 0.0000 22.6607
#
#
#
# Elastic Compliance Matrix: (Units=1/GPa)
#
#
# Indices 1 2 3 4 5 6 
#
# 1 0.040427 -0.013291 -0.011419 0.000000 0.000000 0.000000
# 2 -0.013291 0.022654 -0.009614 0.000000 0.000000 0.000000
# 3 -0.011419 -0.009614 0.023053 0.000000 0.000000 0.000000
# 4 0.000000 0.000000 0.000000 0.044030 0.000000 0.000000
# 5 0.000000 0.000000 0.000000 0.000000 -0.607296 0.000000
# 6 0.000000 0.000000 0.000000 0.000000 0.000000 0.044129
#
#
# Mechanical properties :
#
#
# Convention : Reuss Voigt Hill
#
# Bulk Modulus (GPa) = 57.18416 69.61796 63.40106
# Shear Modulus (GPa) = -13.94599 14.37413 0.21407
#
# Velocity S-wave (km/s) = -3.01297 3.05887 0.37329
# Velocity P-wave (km/s) = 5.01192 7.60214 6.43863
#
# Compressibility (1/GPa) = 0.01748736
#
# Stress axis : x y z
#
# Youngs Moduli (GPa) = 24.73570 44.14287 43.37782
#
# Poissons Ratio (x) = 0.58670 0.49532
# Poissons Ratio (y) = 0.32876 0.41703
# Poissons Ratio (z) = 0.28245 0.42438
#
# Static dielectric constant tensor:
#      x y z
#    x 1.490510 0.000000 0.000000 
#    y 0.000000 1.517120 0.000000 
#    z 0.000000 0.000000 1.497300 
# 
# From -- ./inp_files/25662.got.cif
#   From: 2010.05.17/outbox.cif.g08.bks.cpg/sg51_13_cif.got.tgz:25662.got - 2010.06.03 11:52:47.
