data_PCOD9400003
_publ_section_title
;
Structure prediction by ZEFSAII (Michael W. Deem and Ramdas Pophale) SiO2 
 PCOD9400003
Probable space group: P M M A
;
_chemical_formula_sum "Si O2"
_cell_formula_units_Z 64
_cell_length_a 30.720041
_cell_length_b 13.940914
_cell_length_c 9.967857
_cell_angle_alpha 90.000000
_cell_angle_beta 90.000000
_cell_angle_gamma 90.000000
_cell_volume 4268.888760
_symmetry_space_group_name_H-M "P M M A"
_symmetry_group_IT_number 51
_symmetry_cell_setting 'orthorhombic'
loop_
_space_group_symop_operation_xyz
x,y,z
1/2-x,-y,z
1/2+x,-y,-z
-x,y,-z
-x,-y,-z
1/2+x,y,-z
1/2-x,y,z
x,-y,z
loop_
_atom_site_type_symbol
_atom_site_label
_atom_site_fract_x
_atom_site_fract_y
_atom_site_fract_z
Si Si1 0.611669 0.703531 0.797458
Si Si2 0.028945 0.714672 0.629966
Si Si3 0.964465 0.110619 0.192761
Si Si4 0.796543 0.612361 0.471679
Si Si5 0.701335 0.387827 0.797526
Si Si6 0.390456 0.615718 0.500315
Si Si7 0.524430 0.613724 0.865551
Si Si8 0.065640 0.889279 0.108330
O O1 0.660465 0.675901 0.841044
O O2 0.607086 0.669742 0.642648
O O3 0.574711 0.642702 0.873410
O O4 0.597477 0.812789 0.823686
O O5 0.047137 0.811382 0.696665
O O6 0.068046 0.645391 0.586292
O O7 0.000000 0.736942 0.500000
O O8 0.998235 0.663776 0.739299
O O9 0.016545 0.120328 0.166401
O O10 0.956392 0.000000 0.231058
O O11 0.940455 0.128470 0.051041
O O12 0.750000 0.655764 0.427653
O O13 0.795186 0.500000 0.435302
O O14 0.797408 0.616699 0.634542
O O15 0.844563 0.646404 0.431541
O O16 0.750000 0.360893 0.844792
O O17 0.693760 0.500000 0.831254
O O18 0.389536 0.500000 0.477493
O O19 0.520322 0.500000 0.851507
O O20 0.500000 0.645604 0.000000
O O21 0.078973 0.000000 0.127178
#
# Coordination Sequence:
#
# PCOD9400003 Si02
#       8
#     8   8   8   8   8   8   8   8
#     4  11  17  28  47  66  91 122 158 193 232 280
#     4  12  21  30  44  66  96 127 152 191 232 285
#     4   9  18  33  49  64  86 117 156 199 239 274
#     4   7  11  22  39  58  82 114 153 190 220 260
#     4   8  14  24  40  64  92 121 153 190 231 276
#     4  10  19  28  41  65  97 130 155 183 233 281
#     4  11  22  32  43  63  93 130 166 192 218 268
#     4   9  17  31  50  67  84 114 158 203 240 276
#
# _framework density 14.992193
#
# number of rings (size 3 to 8) (size 9 to 14) (size 15 to 20)
#    0.000    2.375    2.500    4.500    0.000    0.750 
#    0.000    0.625    0.000    0.375    0.000    3.500 
#    0.000   11.500    0.000    0.000    0.000    0.000 
#
# Total GULP energy -356308.400373 kJ/mol
# GULP energy per Si atom -5567.318756 kJ/mol
# Density = 1.495807 g / cm^3
# Si number density = 14.992193 Si / 1000 Ang^3
#
#
#
# Elastic Constant Matrix: (Units=GPa)
#
#
# Indices 1 2 3 4 5 6 
#
# 1 102.0457 38.6903 18.0611 0.0000 0.0000 0.0000
# 2 38.6903 89.2499 32.7365 0.0000 0.0000 0.0000
# 3 18.0611 32.7365 42.7848 0.0000 0.0000 0.0000
# 4 0.0000 0.0000 0.0000 20.0898 0.0000 0.0000
# 5 0.0000 0.0000 0.0000 0.0000 9.7978 0.0000
# 6 0.0000 0.0000 0.0000 0.0000 0.0000 -15.4338
#
#
#
# Elastic Compliance Matrix: (Units=1/GPa)
#
#
# Indices 1 2 3 4 5 6 
#
# 1 0.011794 -0.004569 -0.001483 0.000000 0.000000 0.000000
# 2 -0.004569 0.017346 -0.011343 0.000000 0.000000 0.000000
# 3 -0.001483 -0.011343 0.032678 0.000000 0.000000 0.000000
# 4 0.000000 0.000000 0.000000 0.049777 0.000000 0.000000
# 5 0.000000 0.000000 0.000000 0.000000 0.102064 0.000000
# 6 0.000000 0.000000 0.000000 0.000000 0.000000 -0.064793
#
#
# Mechanical properties :
#
#
# Convention : Reuss Voigt Hill
#
# Bulk Modulus (GPa) = 36.99895 45.89514 41.44704
# Shear Modulus (GPa) = 25.95166 12.53023 19.24094
#
# Velocity S-wave (km/s) = 4.16506 2.89413 3.58634
# Velocity P-wave (km/s) = 6.91828 6.46894 6.69738
#
# Compressibility (1/GPa) = 0.02702780
#
# Stress axis : x y z
#
# Youngs Moduli (GPa) = 84.78667 57.65060 30.60156
#
# Poissons Ratio (x) = 0.26340 0.04538
# Poissons Ratio (y) = 0.38739 0.34712
# Poissons Ratio (z) = 0.12573 0.65395
#
# Static dielectric constant tensor:
#      x y z
#    x 1.532820 0.000000 0.000000 
#    y 0.000000 1.501380 0.000000 
#    z 0.000000 0.000000 1.496130 
# 
# From -- ./inp_files/13254.got.cif
#   From: 2010.05.17/outbox.cif.g08.bks.cpg/sg51_7_cif.got.tgz:13254.got - 2010.06.03 11:52:47.
