data_PCOD9400553
_publ_section_title
;
Structure prediction by ZEFSAII (Michael W. Deem and Ramdas Pophale) SiO2 
 PCOD9400553
Probable space group: P M M A
;
_chemical_formula_sum "Si O2"
_cell_formula_units_Z 48
_cell_length_a 8.715228
_cell_length_b 21.802899
_cell_length_c 19.945035
_cell_angle_alpha 90.000000
_cell_angle_beta 90.000000
_cell_angle_gamma 90.000000
_cell_volume 3789.900420
_symmetry_space_group_name_H-M "P M M A"
_symmetry_group_IT_number 51
_symmetry_cell_setting 'orthorhombic'
loop_
_space_group_symop_operation_xyz
x,y,z
1/2-x,-y,z
1/2+x,-y,-z
-x,y,-z
-x,-y,-z
1/2+x,y,-z
1/2-x,y,z
x,-y,z
loop_
_atom_site_type_symbol
_atom_site_label
_atom_site_fract_x
_atom_site_fract_y
_atom_site_fract_z
Si Si1 0.064354 0.500000 0.075983
Si Si2 0.564947 0.232822 0.924192
Si Si3 0.932546 0.117048 0.153023
Si Si4 0.932170 0.072915 0.711529
Si Si5 0.065119 0.631966 0.075408
Si Si6 0.573049 0.074568 0.430059
Si Si7 0.433690 0.000000 0.074838
O O1 0.250000 0.500000 0.073148
O O2 0.017125 0.566121 0.106422
O O3 0.000000 0.500000 0.000000
O O4 0.750000 0.227953 0.926621
O O5 0.496666 0.179272 0.878975
O O6 0.521501 0.301031 0.897257
O O7 0.500000 0.227017 0.000000
O O8 0.750000 0.114413 0.145914
O O9 0.980746 0.108743 0.230231
O O10 0.006999 0.060009 0.113389
O O11 0.750000 0.079863 0.719786
O O12 0.982582 0.092238 0.637007
O O13 0.968012 0.000000 0.718660
O O14 0.250000 0.631853 0.072376
O O15 0.000000 0.631602 0.000000
O O16 0.500000 0.095930 0.500000
O O17 0.750000 0.093243 0.425294
O O18 0.569303 0.000000 0.431817
O O19 0.250000 0.000000 0.073447
O O20 0.500000 0.000000 0.000000
#
# Coordination Sequence:
#
# PCOD9400553 Si02
#       7
#     4   8   8   8   8   8   4
#     4   8  12  20  34  54  74  92 114 140 175 216
#     4  10  19  31  43  56  74  97 125 157 195 234
#     4  12  23  34  46  59  74  95 123 158 197 237
#     4  10  19  31  46  61  78  98 121 152 191 231
#     4   8  14  23  37  54  73  94 116 145 180 221
#     4   9  16  26  41  61  83 103 123 146 177 219
#     4  12  24  38  50  60  71  88 117 158 202 244
#
# _framework density 12.665241
#
# number of rings (size 3 to 8) (size 9 to 14) (size 15 to 20)
#    0.000    2.167    0.833    4.250    0.000    3.333 
#    0.000    0.000    0.000    0.000    0.000    0.000 
#    0.000    0.000    0.000    0.000    0.000    0.000 
#
# Total GULP energy -267370.313961 kJ/mol
# GULP energy per Si atom -5570.214874 kJ/mol
# Density = 1.263641 g / cm^3
# Si number density = 12.665241 Si / 1000 Ang^3
#
#
#
# Elastic Constant Matrix: (Units=GPa)
#
#
# Indices 1 2 3 4 5 6 
#
# 1 65.6452 34.5698 27.6225 0.0000 0.0000 0.0000
# 2 34.5698 108.7520 37.0240 0.0000 0.0000 0.0000
# 3 27.6225 37.0240 67.3543 0.0000 0.0000 0.0000
# 4 0.0000 0.0000 0.0000 -0.0632 0.0000 0.0000
# 5 0.0000 0.0000 0.0000 0.0000 20.8368 0.0000
# 6 0.0000 0.0000 0.0000 0.0000 0.0000 8.3557
#
#
#
# Elastic Compliance Matrix: (Units=1/GPa)
#
#
# Indices 1 2 3 4 5 6 
#
# 1 0.019974 -0.004380 -0.005784 0.000000 0.000000 0.000000
# 2 -0.004380 0.012273 -0.004950 0.000000 0.000000 0.000000
# 3 -0.005784 -0.004950 0.019940 0.000000 0.000000 0.000000
# 4 0.000000 0.000000 0.000000-15.822990 0.000000 0.000000
# 5 0.000000 0.000000 0.000000 0.000000 0.047992 0.000000
# 6 0.000000 0.000000 0.000000 0.000000 0.000000 0.119679
#
#
# Mechanical properties :
#
#
# Convention : Reuss Voigt Hill
#
# Bulk Modulus (GPa) = 45.53988 48.90936 47.22462
# Shear Modulus (GPa) = -0.32122 15.32820 7.50349
#
# Velocity S-wave (km/s) = -0.50416 3.48265 2.43666
# Velocity P-wave (km/s) = 5.97459 7.40761 6.72935
#
# Compressibility (1/GPa) = 0.02195878
#
# Stress axis : x y z
#
# Youngs Moduli (GPa) = 50.06571 81.48129 50.15135
#
# Poissons Ratio (x) = 0.35691 0.29006
# Poissons Ratio (y) = 0.21930 0.24824
# Poissons Ratio (z) = 0.28956 0.40332
#
# Static dielectric constant tensor:
#      x y z
#    x 1.422100 0.000000 0.000000 
#    y 0.000000 1.439560 0.000000 
#    z 0.000000 0.000000 1.388120 
# 
# From -- ./inp_files/28129.got.cif
#   From: 2010.05.17/outbox.cif.g08.bks.cpg/sg51_15_cif.got.tgz:28129.got - 2010.06.03 11:52:47.
