data_PCOD9400347
_publ_section_title
;
Structure prediction by ZEFSAII (Michael W. Deem and Ramdas Pophale) SiO2 
 PCOD9400347
Probable space group: P M M A
;
_chemical_formula_sum "Si O2"
_cell_formula_units_Z 52
_cell_length_a 8.453225
_cell_length_b 19.095951
_cell_length_c 19.093600
_cell_angle_alpha 90.000000
_cell_angle_beta 90.000000
_cell_angle_gamma 90.000000
_cell_volume 3082.134171
_symmetry_space_group_name_H-M "P M M A"
_symmetry_group_IT_number 51
_symmetry_cell_setting 'orthorhombic'
loop_
_space_group_symop_operation_xyz
x,y,z
1/2-x,-y,z
1/2+x,-y,-z
-x,y,-z
-x,-y,-z
1/2+x,y,-z
1/2-x,y,z
x,-y,z
loop_
_atom_site_type_symbol
_atom_site_label
_atom_site_fract_x
_atom_site_fract_y
_atom_site_fract_z
Si Si1 0.941589 0.860013 0.347733
Si Si2 0.439701 0.577342 0.151011
Si Si3 0.560501 0.717802 0.078009
Si Si4 0.436647 0.793469 0.789086
Si Si5 0.937875 0.656930 0.713712
Si Si6 0.439696 0.286481 0.578554
Si Si7 0.437772 0.000000 0.420902
O O1 0.750000 0.861289 0.347177
O O2 0.998934 0.849423 0.267266
O O3 0.988413 0.790862 0.392356
O O4 0.002774 0.930383 0.382178
O O5 0.250000 0.579029 0.141067
O O6 0.498285 0.500000 0.131691
O O7 0.509614 0.641511 0.106915
O O8 0.468383 0.592815 0.233621
O O9 0.750000 0.720252 0.078420
O O10 0.498730 0.776070 0.133781
O O11 0.500000 0.728544 0.000000
O O12 0.250000 0.806909 0.796635
O O13 0.464020 0.720536 0.748101
O O14 0.750000 0.672180 0.717562
O O15 0.990054 0.657166 0.633271
O O16 0.500000 0.295512 0.500000
O O17 0.250000 0.289779 0.580432
O O18 0.500000 0.000000 0.500000
O O19 0.250000 0.000000 0.422219
#
# Coordination Sequence:
#
# PCOD9400347 Si02
#       7
#     8   8   8   8   8   8   4
#     4   9  18  33  50  67  90 122 156 189 225 268
#     4   9  18  32  48  66  90 122 157 189 225 274
#     4  10  19  31  48  72  99 124 152 188 231 275
#     4   8  16  31  49  67  89 119 155 191 226 269
#     4   9  16  27  45  66  87 113 147 189 233 274
#     4  10  19  30  46  67  90 116 149 190 233 275
#     4  12  24  34  46  68  99 132 161 190 225 266
#
# _framework density 16.871426
#
# number of rings (size 3 to 8) (size 9 to 14) (size 15 to 20)
#    0.000    2.615    0.000    3.462    0.000    6.154 
#    0.000    0.000    0.000    0.462    0.000    0.538 
#    0.000    0.000    0.000    0.000    0.000    0.000 
#
# Total GULP energy -289540.730601 kJ/mol
# GULP energy per Si atom -5568.090973 kJ/mol
# Density = 1.683303 g / cm^3
# Si number density = 16.871426 Si / 1000 Ang^3
#
#
#
# Elastic Constant Matrix: (Units=GPa)
#
#
# Indices 1 2 3 4 5 6 
#
# 1 12.8173 8.5666 17.2999 0.0000 0.0000 0.0000
# 2 8.5666 42.9331 39.6106 0.0000 0.0000 0.0000
# 3 17.2999 39.6106 160.7256 0.0000 0.0000 0.0000
# 4 0.0000 0.0000 0.0000 18.3696 0.0000 0.0000
# 5 0.0000 0.0000 0.0000 0.0000 22.9137 0.0000
# 6 0.0000 0.0000 0.0000 0.0000 0.0000 17.2019
#
#
#
# Elastic Compliance Matrix: (Units=1/GPa)
#
#
# Indices 1 2 3 4 5 6 
#
# 1 0.096182 -0.012477 -0.007278 0.000000 0.000000 0.000000
# 2 -0.012477 0.031765 -0.006486 0.000000 0.000000 0.000000
# 3 -0.007278 -0.006486 0.008603 0.000000 0.000000 0.000000
# 4 0.000000 0.000000 0.000000 0.054438 0.000000 0.000000
# 5 0.000000 0.000000 0.000000 0.000000 0.043642 0.000000
# 6 0.000000 0.000000 0.000000 0.000000 0.000000 0.058133
#
#
# Mechanical properties :
#
#
# Convention : Reuss Voigt Hill
#
# Bulk Modulus (GPa) = 11.89485 38.60335 25.24910
# Shear Modulus (GPa) = 13.39520 21.76362 17.57941
#
# Velocity S-wave (km/s) = 2.82078 3.59551 3.23145
# Velocity P-wave (km/s) = 4.20413 6.33778 5.37783
#
# Compressibility (1/GPa) = 0.08406999
#
# Stress axis : x y z
#
# Youngs Moduli (GPa) = 10.39696 31.48087 116.23210
#
# Poissons Ratio (x) = 0.39279 0.84590
# Poissons Ratio (y) = 0.12972 0.75383
# Poissons Ratio (z) = 0.07567 0.20417
#
# Static dielectric constant tensor:
#      x y z
#    x 1.579830 0.000000 0.000000 
#    y 0.000000 1.562230 0.000000 
#    z 0.000000 0.000000 1.662750 
# 
# From -- ./inp_files/27894.got.cif
#   From: 2010.05.17/outbox.cif.g08.bks.cpg/sg51_14_cif.got.tgz:27894.got - 2010.06.03 11:52:47.
