data_PCOD9400170
_publ_section_title
;
Structure prediction by ZEFSAII (Michael W. Deem and Ramdas Pophale) SiO2 
 PCOD9400170
Probable space group: P M M A
;
_chemical_formula_sum "Si O2"
_cell_formula_units_Z 64
_cell_length_a 9.038705
_cell_length_b 28.416632
_cell_length_c 13.527814
_cell_angle_alpha 90.000000
_cell_angle_beta 90.000000
_cell_angle_gamma 90.000000
_cell_volume 3474.612989
_symmetry_space_group_name_H-M "P M M A"
_symmetry_group_IT_number 51
_symmetry_cell_setting 'orthorhombic'
loop_
_space_group_symop_operation_xyz
x,y,z
1/2-x,-y,z
1/2+x,-y,-z
-x,y,-z
-x,-y,-z
1/2+x,y,-z
1/2-x,y,z
x,-y,z
loop_
_atom_site_type_symbol
_atom_site_label
_atom_site_fract_x
_atom_site_fract_y
_atom_site_fract_z
Si Si1 0.913617 0.800829 0.909332
Si Si2 0.921939 0.056573 0.105328
Si Si3 0.418850 0.556956 0.598626
Si Si4 0.926797 0.271207 0.223977
Si Si5 0.582269 0.121397 0.739930
Si Si6 0.926302 0.444948 0.806282
Si Si7 0.427302 0.357712 0.898257
Si Si8 0.071330 0.197593 0.607265
O O1 0.750000 0.785558 0.938616
O O2 0.904079 0.838830 0.823850
O O3 0.007013 0.758206 0.866395
O O4 0.000000 0.822363 0.000000
O O5 0.750000 0.071682 0.101028
O O6 0.000357 0.079896 0.200505
O O7 0.927009 0.000000 0.115121
O O8 0.000000 0.067678 0.000000
O O9 0.500000 0.574555 0.500000
O O10 0.250000 0.574422 0.607521
O O11 0.410666 0.500000 0.590225
O O12 0.513465 0.566034 0.696344
O O13 0.750000 0.268742 0.222690
O O14 0.967601 0.324640 0.196149
O O15 0.972526 0.242250 0.322296
O O16 0.750000 0.108642 0.708050
O O17 0.490683 0.149092 0.655730
O O18 0.750000 0.438374 0.811174
O O19 0.958548 0.500000 0.826305
O O20 0.009527 0.409438 0.878041
O O21 0.250000 0.358268 0.907691
O O22 0.500000 0.339889 0.000000
O O23 0.250000 0.195750 0.602669
O O24 0.000000 0.203441 0.500000
#
# Coordination Sequence:
#
# PCOD9400170 Si02
#       8
#     8   8   8   8   8   8   8   8
#     4  10  19  29  46  73 104 136 171 213 261 317
#     4  10  20  33  50  75 110 153 198 243 291 340
#     4   9  16  28  49  76 104 133 165 205 253 301
#     4   9  20  37  56  78 105 137 172 212 259 316
#     4  10  20  33  51  77 107 143 187 231 278 330
#     4  10  21  37  56  79 107 141 183 227 270 318
#     4  11  23  39  58  80 107 140 178 219 267 322
#     4  10  20  37  60  85 113 143 178 222 272 327
#
# _framework density 18.419316999999999
#
# number of rings (size 3 to 8) (size 9 to 14) (size 15 to 20)
#    0.000    2.125    0.000    3.375    0.000    8.250 
#    0.000    0.625    0.000    1.875    0.000    0.000 
#    0.000    0.000    0.000    0.000    0.000    0.000 
#
# Total GULP energy -356778.229229 kJ/mol
# GULP energy per Si atom -5574.659832 kJ/mol
# Density = 1.837739 g / cm^3
# Si number density = 18.419317 Si / 1000 Ang^3
#
#
#
# Elastic Constant Matrix: (Units=GPa)
#
#
# Indices 1 2 3 4 5 6 
#
# 1 62.3608 36.1891 52.3252 0.0000 0.0000 0.0000
# 2 36.1891 72.6030 38.9091 0.0000 0.0000 0.0000
# 3 52.3252 38.9091 100.0588 0.0000 0.0000 0.0000
# 4 0.0000 0.0000 0.0000 22.0118 0.0000 0.0000
# 5 0.0000 0.0000 0.0000 0.0000 31.3661 0.0000
# 6 0.0000 0.0000 0.0000 0.0000 0.0000 24.2987
#
#
#
# Elastic Compliance Matrix: (Units=1/GPa)
#
#
# Indices 1 2 3 4 5 6 
#
# 1 0.032647 -0.008999 -0.013573 0.000000 0.000000 0.000000
# 2 -0.008999 0.019880 -0.003025 0.000000 0.000000 0.000000
# 3 -0.013573 -0.003025 0.018268 0.000000 0.000000 0.000000
# 4 0.000000 0.000000 0.000000 0.045430 0.000000 0.000000
# 5 0.000000 0.000000 0.000000 0.000000 0.031882 0.000000
# 6 0.000000 0.000000 0.000000 0.000000 0.000000 0.041154
#
#
# Mechanical properties :
#
#
# Convention : Reuss Voigt Hill
#
# Bulk Modulus (GPa) = 51.01577 54.42992 52.72285
# Shear Modulus (GPa) = 20.24386 22.70860 21.47623
#
# Velocity S-wave (km/s) = 3.31880 3.51503 3.41832
# Velocity P-wave (km/s) = 6.51482 6.78885 6.65325
#
# Compressibility (1/GPa) = 0.01960178
#
# Stress axis : x y z
#
# Youngs Moduli (GPa) = 30.63098 50.30186 54.73950
#
# Poissons Ratio (x) = 0.45265 0.74299
# Poissons Ratio (y) = 0.27564 0.16557
# Poissons Ratio (z) = 0.41576 0.15215
#
# Static dielectric constant tensor:
#      x y z
#    x 1.651490 0.000000 0.000000 
#    y 0.000000 1.648010 0.000000 
#    z 0.000000 0.000000 1.632480 
# 
# From -- ./inp_files/14819.got.cif
#   From: 2010.05.17/outbox.cif.g08.bks.cpg/sg51_8_cif.got.tgz:14819.got - 2010.06.03 11:52:47.
