data_PCOD9400494
_publ_section_title
;
Structure prediction by ZEFSAII (Michael W. Deem and Ramdas Pophale) SiO2 
 PCOD9400494
Probable space group: P M M A
;
_chemical_formula_sum "Si O2"
_cell_formula_units_Z 48
_cell_length_a 14.364436
_cell_length_b 15.767591
_cell_length_c 9.761095
_cell_angle_alpha 90.000000
_cell_angle_beta 90.000000
_cell_angle_gamma 90.000000
_cell_volume 2210.815315
_symmetry_space_group_name_H-M "P M M A"
_symmetry_group_IT_number 51
_symmetry_cell_setting 'orthorhombic'
loop_
_space_group_symop_operation_xyz
x,y,z
1/2-x,-y,z
1/2+x,-y,-z
-x,y,-z
-x,-y,-z
1/2+x,y,-z
1/2-x,y,z
x,-y,z
loop_
_atom_site_type_symbol
_atom_site_label
_atom_site_fract_x
_atom_site_fract_y
_atom_site_fract_z
Si Si1 0.136277 0.903862 0.069059
Si Si2 0.135262 0.749366 0.566618
Si Si3 0.855942 0.405493 0.257222
Si Si4 0.393907 0.404399 0.046571
Si Si5 0.137786 0.747781 0.252649
Si Si6 0.136427 0.095685 0.754369
O O1 0.250000 0.903636 0.071636
O O2 0.103559 0.830436 0.170298
O O3 0.107084 0.000000 0.104704
O O4 0.108813 0.886233 0.911695
O O5 0.250000 0.749170 0.569303
O O6 0.100914 0.667449 0.650896
O O7 0.105652 0.746452 0.409231
O O8 0.105914 0.833461 0.647712
O O9 0.750000 0.414107 0.306622
O O10 0.899443 0.500000 0.262172
O O11 0.849110 0.378513 0.098410
O O12 0.362588 0.500000 0.083587
O O13 0.382683 0.336700 0.165799
O O14 0.500000 0.408549 0.000000
O O15 0.250000 0.754084 0.257315
O O16 0.250000 0.096079 0.754251
O O17 0.107087 0.000000 0.719157
#
# Coordination Sequence:
#
# PCOD9400494 Si02
#       6
#     8   8   8   8   8   8
#     4   8  14  25  43  69  99 129 161 196 233 274
#     4   9  17  27  42  69 100 126 154 190 234 282
#     4   9  17  31  51  71  92 122 157 191 231 283
#     4  10  21  36  52  70  93 123 161 203 244 287
#     4  10  19  30  48  74 101 127 156 197 244 284
#     4   8  13  22  37  59  91 128 158 185 223 273
#
# _framework density 21.711447
#
# number of rings (size 3 to 8) (size 9 to 14) (size 15 to 20)
#    0.000    3.000    0.000    2.500    0.000    5.000 
#    0.000    5.833    0.000    3.500    0.000    0.000 
#    0.000    5.333    0.000    0.000    0.000    0.000 
#
# Total GULP energy -267985.651428 kJ/mol
# GULP energy per Si atom -5583.034405 kJ/mol
# Density = 2.166203 g / cm^3
# Si number density = 21.711447 Si / 1000 Ang^3
#
#
#
# Elastic Constant Matrix: (Units=GPa)
#
#
# Indices 1 2 3 4 5 6 
#
# 1 51.1557 6.9084 5.5633 0.0000 0.0000 0.0000
# 2 6.9084 194.3895 170.8944 0.0000 0.0000 0.0000
# 3 5.5633 170.8944 204.7124 0.0000 0.0000 0.0000
# 4 0.0000 0.0000 0.0000 -7.3170 0.0000 0.0000
# 5 0.0000 0.0000 0.0000 0.0000 3.4592 0.0000
# 6 0.0000 0.0000 0.0000 0.0000 0.0000 147.9107
#
#
#
# Elastic Compliance Matrix: (Units=1/GPa)
#
#
# Indices 1 2 3 4 5 6 
#
# 1 0.019644 -0.000860 0.000184 0.000000 0.000000 0.000000
# 2 -0.000860 0.019370 -0.016147 0.000000 0.000000 0.000000
# 3 0.000184 -0.016147 0.018359 0.000000 0.000000 0.000000
# 4 0.000000 0.000000 0.000000 -0.136667 0.000000 0.000000
# 5 0.000000 0.000000 0.000000 0.000000 0.289085 0.000000
# 6 0.000000 0.000000 0.000000 0.000000 0.000000 0.006761
#
#
# Mechanical properties :
#
#
# Convention : Reuss Voigt Hill
#
# Bulk Modulus (GPa) = 42.14393 90.77667 66.46030
# Shear Modulus (GPa) = 19.37178 46.60334 32.98756
#
# Velocity S-wave (km/s) = 2.99028 4.63805 3.90213
# Velocity P-wave (km/s) = 5.60137 8.40138 7.13998
#
# Compressibility (1/GPa) = 0.02372821
#
# Stress axis : x y z
#
# Youngs Moduli (GPa) = 50.90542 51.62596 54.46826
#
# Poissons Ratio (x) = 0.04439 -0.01002
# Poissons Ratio (y) = 0.04377 0.87949
# Poissons Ratio (z) = -0.00937 0.83360
#
# Static dielectric constant tensor:
#      x y z
#    x 1.548330 0.000000 0.000000 
#    y 0.000000 1.789480 0.000000 
#    z 0.000000 0.000000 1.746110 
# 
# From -- ./inp_files/9609.got.cif
#   From: 2010.05.17/outbox.cif.g08.bks.cpg/sg51_5_cif.got.tgz:9609.got - 2010.06.03 11:52:47.
