data_PCOD9400803
_publ_section_title
;
Structure prediction by ZEFSAII (Michael W. Deem and Ramdas Pophale) SiO2 
 PCOD9400803
Probable space group: P M M A
;
_chemical_formula_sum "Si O2"
_cell_formula_units_Z 64
_cell_length_a 7.705597
_cell_length_b 18.291921
_cell_length_c 21.480562
_cell_angle_alpha 90.000000
_cell_angle_beta 90.000000
_cell_angle_gamma 90.000000
_cell_volume 3027.688900
_symmetry_space_group_name_H-M "P M M A"
_symmetry_group_IT_number 51
_symmetry_cell_setting 'orthorhombic'
loop_
_space_group_symop_operation_xyz
x,y,z
1/2-x,-y,z
1/2+x,-y,-z
-x,y,-z
-x,-y,-z
1/2+x,y,-z
1/2-x,y,z
x,-y,z
loop_
_atom_site_type_symbol
_atom_site_label
_atom_site_fract_x
_atom_site_fract_y
_atom_site_fract_z
Si Si1 0.038036 0.580300 0.208636
Si Si2 0.547192 0.755190 0.568043
Si Si3 0.959190 0.079367 0.404851
Si Si4 0.457753 0.215703 0.068993
Si Si5 0.039573 0.285133 0.295842
Si Si6 0.044638 0.119835 0.733508
Si Si7 0.950405 0.922844 0.864691
Si Si8 0.041273 0.381714 0.069963
O O1 0.250000 0.583752 0.207986
O O2 0.988333 0.500000 0.232849
O O3 0.979397 0.647437 0.252554
O O4 0.982400 0.584922 0.135863
O O5 0.500000 0.725356 0.500000
O O6 0.750000 0.745488 0.574133
O O7 0.512987 0.842683 0.567463
O O8 0.472830 0.720367 0.632168
O O9 0.750000 0.078246 0.408541
O O10 0.010915 0.087696 0.332679
O O11 0.023340 0.000000 0.428316
O O12 0.250000 0.222316 0.078962
O O13 0.530682 0.153160 0.113066
O O14 0.525594 0.298025 0.073459
O O15 0.500000 0.189819 0.000000
O O16 0.250000 0.289047 0.296784
O O17 0.991248 0.206636 0.266992
O O18 0.250000 0.107403 0.739400
O O19 0.953149 0.082235 0.790746
O O20 0.750000 0.922833 0.886248
O O21 0.030148 0.000000 0.884895
O O22 0.250000 0.383058 0.072120
O O23 0.000000 0.410070 0.000000
#
# Coordination Sequence:
#
# PCOD9400803 Si02
#       8
#     8   8   8   8   8   8   8   8
#     4   9  17  31  54  81 105 131 165 204 244 288
#     4  10  20  33  51  74  99 130 168 209 252 298
#     4   9  18  32  48  68  98 132 164 203 249 293
#     4   9  18  32  47  63  86 119 160 204 247 293
#     4   9  18  34  55  77 100 129 168 210 249 295
#     4  10  19  31  49  72  97 127 164 204 247 296
#     4  10  20  32  46  65  91 124 162 207 257 303
#     4   9  17  30  49  72 100 133 166 200 239 287
#
# _framework density 21.138235999999999
#
# number of rings (size 3 to 8) (size 9 to 14) (size 15 to 20)
#    0.000    2.625    0.000    1.875    0.000    5.250 
#    0.000    3.125    0.000    1.500    0.000    0.000 
#    0.000    0.000    0.000    0.000    0.000    0.375 
#
# Total GULP energy -356697.342368 kJ/mol
# GULP energy per Si atom -5573.395974 kJ/mol
# Density = 2.109012 g / cm^3
# Si number density = 21.138236 Si / 1000 Ang^3
#
#
#
# Elastic Constant Matrix: (Units=GPa)
#
#
# Indices 1 2 3 4 5 6 
#
# 1 33.5902 2.5268 -1.3147 0.0000 0.0000 0.0000
# 2 2.5268 114.8427 59.5589 0.0000 0.0000 0.0000
# 3 -1.3147 59.5589 101.6230 0.0000 0.0000 0.0000
# 4 0.0000 0.0000 0.0000 -2.5415 0.0000 0.0000
# 5 0.0000 0.0000 0.0000 0.0000 20.9294 0.0000
# 6 0.0000 0.0000 0.0000 0.0000 0.0000 -7.2804
#
#
#
# Elastic Compliance Matrix: (Units=1/GPa)
#
#
# Indices 1 2 3 4 5 6 
#
# 1 0.029907 -0.001234 0.001110 0.000000 0.000000 0.000000
# 2 -0.001234 0.012561 -0.007378 0.000000 0.000000 0.000000
# 3 0.001110 -0.007378 0.014178 0.000000 0.000000 0.000000
# 4 0.000000 0.000000 0.000000 -0.393476 0.000000 0.000000
# 5 0.000000 0.000000 0.000000 0.000000 0.047780 0.000000
# 6 0.000000 0.000000 0.000000 0.000000 0.000000 -0.137355
#
#
# Mechanical properties :
#
#
# Convention : Reuss Voigt Hill
#
# Bulk Modulus (GPa) = 24.01331 41.28864 32.65097
# Shear Modulus (GPa) = -12.57793 14.84051 1.13129
#
# Velocity S-wave (km/s) = -2.44197 2.65253 0.73236
# Velocity P-wave (km/s) = 1.85305 5.38111 4.02431
#
# Compressibility (1/GPa) = 0.04164357
#
# Stress axis : x y z
#
# Youngs Moduli (GPa) = 33.43717 79.61280 70.52951
#
# Poissons Ratio (x) = 0.09821 -0.07828
# Poissons Ratio (y) = 0.04125 0.52033
# Poissons Ratio (z) = -0.03711 0.58735
#
# Static dielectric constant tensor:
#      x y z
#    x 1.783250 0.000000 0.000000 
#    y 0.000000 -0.864340 0.000000 
#    z 0.000000 0.000000 1.797170 
# 
# From -- ./inp_files/32323.got.cif
#   From: 2010.05.17/outbox.cif.g08.bks.cpg/sg51_17_cif.got.tgz:32323.got - 2010.06.03 11:52:47.
