data_PCOD9400093
_publ_section_title
;
Structure prediction by ZEFSAII (Michael W. Deem and Ramdas Pophale) SiO2 
 PCOD9400093
Probable space group: P M M A
;
_chemical_formula_sum "Si O2"
_cell_formula_units_Z 64
_cell_length_a 8.651206
_cell_length_b 31.964180
_cell_length_c 14.733325
_cell_angle_alpha 90.000000
_cell_angle_beta 90.000000
_cell_angle_gamma 90.000000
_cell_volume 4074.187294
_symmetry_space_group_name_H-M "P M M A"
_symmetry_group_IT_number 51
_symmetry_cell_setting 'orthorhombic'
loop_
_space_group_symop_operation_xyz
x,y,z
1/2-x,-y,z
1/2+x,-y,-z
-x,y,-z
-x,-y,-z
1/2+x,y,-z
1/2-x,y,z
x,-y,z
loop_
_atom_site_type_symbol
_atom_site_label
_atom_site_fract_x
_atom_site_fract_y
_atom_site_fract_z
Si Si1 0.435565 0.863115 0.897424
Si Si2 0.934947 0.548868 0.099589
Si Si3 0.935740 0.750106 0.596828
Si Si4 0.436580 0.215200 0.210865
Si Si5 0.065704 0.656209 0.596797
Si Si6 0.436546 0.044923 0.897346
Si Si7 0.564596 0.378666 0.778271
Si Si8 0.063614 0.701613 0.101508
O O1 0.250000 0.861441 0.902133
O O2 0.496028 0.826061 0.834658
O O3 0.483249 0.909413 0.861104
O O4 0.500000 0.858352 0.000000
O O5 0.750000 0.553547 0.099132
O O6 0.971990 0.500000 0.116243
O O7 0.008718 0.579410 0.173001
O O8 0.000000 0.559794 0.000000
O O9 0.750000 0.747850 0.592801
O O10 0.980712 0.777354 0.684259
O O11 0.000000 0.765065 0.500000
O O12 0.999013 0.703084 0.611019
O O13 0.250000 0.213272 0.206956
O O14 0.485611 0.256200 0.153603
O O15 0.250000 0.658284 0.593166
O O16 0.000000 0.641608 0.500000
O O17 0.009059 0.628265 0.680009
O O18 0.250000 0.044886 0.899903
O O19 0.485423 0.000000 0.855514
O O20 0.500000 0.044626 0.000000
O O21 0.750000 0.378022 0.770739
O O22 0.516592 0.339180 0.841204
O O23 0.250000 0.701791 0.097869
O O24 0.000000 0.700426 0.000000
#
# Coordination Sequence:
#
# PCOD9400093 Si02
#       8
#     8   8   8   8   8   8   8   8
#     4  10  19  29  43  64  90 124 165 199 235 285
#     4  10  21  37  56  80 108 137 170 206 247 294
#     4  10  19  34  52  71  95 123 160 202 245 287
#     4  10  20  34  47  63  94 130 160 194 237 282
#     4  11  21  34  54  78 103 130 163 202 247 293
#     4   8  14  25  40  58  82 113 151 197 241 279
#     4  11  21  36  55  76 103 132 168 208 246 290
#     4  10  21  34  46  65  95 129 163 198 232 274
#
# _framework density 15.708653999999999
#
# number of rings (size 3 to 8) (size 9 to 14) (size 15 to 20)
#    0.000    2.000    1.250    4.125    0.000    5.750 
#    0.000    0.000    0.000    0.375    0.000    0.000 
#    0.000    0.500    0.000    1.125    0.000    2.000 
#
# Total GULP energy -356993.034807 kJ/mol
# GULP energy per Si atom -5578.016169 kJ/mol
# Density = 1.567290 g / cm^3
# Si number density = 15.708654 Si / 1000 Ang^3
#
#
#
# Elastic Constant Matrix: (Units=GPa)
#
#
# Indices 1 2 3 4 5 6 
#
# 1 48.3864 34.6992 40.6509 0.0000 0.0000 0.0000
# 2 34.6992 103.1268 72.1550 0.0000 0.0000 0.0000
# 3 40.6509 72.1550 130.3091 0.0000 0.0000 0.0000
# 4 0.0000 0.0000 0.0000 9.5526 0.0000 0.0000
# 5 0.0000 0.0000 0.0000 0.0000 26.9719 0.0000
# 6 0.0000 0.0000 0.0000 0.0000 0.0000 4.8161
#
#
#
# Elastic Compliance Matrix: (Units=1/GPa)
#
#
# Indices 1 2 3 4 5 6 
#
# 1 0.029982 -0.005785 -0.006150 0.000000 0.000000 0.000000
# 2 -0.005785 0.016946 -0.007579 0.000000 0.000000 0.000000
# 3 -0.006150 -0.007579 0.013789 0.000000 0.000000 0.000000
# 4 0.000000 0.000000 0.000000 0.104684 0.000000 0.000000
# 5 0.000000 0.000000 0.000000 0.000000 0.037076 0.000000
# 6 0.000000 0.000000 0.000000 0.000000 0.000000 0.207638
#
#
# Mechanical properties :
#
#
# Convention : Reuss Voigt Hill
#
# Bulk Modulus (GPa) = 46.10444 64.09253 55.09848
# Shear Modulus (GPa) = 10.95598 17.22258 14.08928
#
# Velocity S-wave (km/s) = 2.64379 3.31475 2.99810
# Velocity P-wave (km/s) = 6.22358 7.45248 6.86558
#
# Compressibility (1/GPa) = 0.02168989
#
# Stress axis : x y z
#
# Youngs Moduli (GPa) = 33.35291 59.01127 72.52204
#
# Poissons Ratio (x) = 0.34141 0.44599
# Poissons Ratio (y) = 0.19296 0.54961
# Poissons Ratio (z) = 0.20511 0.44722
#
# Static dielectric constant tensor:
#      x y z
#    x 1.530120 0.000000 0.000000 
#    y 0.000000 1.539150 0.000000 
#    z 0.000000 0.000000 1.506030 
# 
# From -- ./inp_files/22606.got.cif
#   From: 2010.05.17/outbox.cif.g08.bks.cpg/sg51_12_cif.got.tgz:22606.got - 2010.06.03 11:52:47.
