data_PCOD9400953
_publ_section_title
;
Structure prediction by ZEFSAII (Michael W. Deem and Ramdas Pophale) SiO2 
 PCOD9400953
Probable space group: P M M A
;
_chemical_formula_sum "Si O2"
_cell_formula_units_Z 56
_cell_length_a 20.376537
_cell_length_b 8.175162
_cell_length_c 17.974849
_cell_angle_alpha 90.000000
_cell_angle_beta 90.000000
_cell_angle_gamma 90.000000
_cell_volume 2994.277146
_symmetry_space_group_name_H-M "P M M A"
_symmetry_group_IT_number 51
_symmetry_cell_setting 'orthorhombic'
loop_
_space_group_symop_operation_xyz
x,y,z
1/2-x,-y,z
1/2+x,-y,-z
-x,y,-z
-x,-y,-z
1/2+x,y,-z
1/2-x,y,z
x,-y,z
loop_
_atom_site_type_symbol
_atom_site_label
_atom_site_fract_x
_atom_site_fract_y
_atom_site_fract_z
Si Si1 0.323715 0.698277 0.815539
Si Si2 0.175769 0.694976 0.385879
Si Si3 0.950865 0.697653 0.891554
Si Si4 0.324602 0.196587 0.552449
Si Si5 0.937334 0.194704 0.724157
Si Si6 0.081801 0.196987 0.683163
Si Si7 0.405507 0.301140 0.951978
O O1 0.250000 0.754240 0.798972
O O2 0.324502 0.500000 0.813832
O O3 0.375151 0.759852 0.755066
O O4 0.347602 0.751212 0.897488
O O5 0.250000 0.753946 0.368380
O O6 0.177695 0.500000 0.391166
O O7 0.158316 0.761963 0.467593
O O8 0.122888 0.742289 0.324512
O O9 0.949332 0.500000 0.888621
O O10 0.931907 0.761694 0.811057
O O11 0.025445 0.745683 0.913303
O O12 0.907337 0.752708 0.962263
O O13 0.250000 0.257912 0.567237
O O14 0.377932 0.258890 0.611437
O O15 0.322593 0.000000 0.559415
O O16 0.007690 0.259537 0.694075
O O17 0.938481 0.000000 0.717337
O O18 0.078021 0.000000 0.677515
O O19 0.405130 0.500000 0.953886
#
# Coordination Sequence:
#
# PCOD9400953 Si02
#       7
#     8   8   8   8   8   8   8
#     4  10  19  31  50  77 108 141 179 225 272 315
#     4  10  22  40  60  80 102 133 175 221 271 325
#     4   9  16  31  54  74 100 139 180 222 265 312
#     4   9  18  35  57  77 103 142 181 216 257 309
#     4  11  22  35  54  82 112 141 175 220 269 317
#     4  10  21  35  52  78 111 146 181 213 257 318
#     4   8  15  29  50  74 100 137 181 222 265 313
#
# _framework density 18.702342999999999
#
# number of rings (size 3 to 8) (size 9 to 14) (size 15 to 20)
#    0.000    2.429    1.429    2.143    0.000    3.429 
#    0.000    7.143    0.000    2.571    0.000    0.000 
#    0.000    0.000    0.000    0.000    0.000    0.000 
#
# Total GULP energy -312352.277196 kJ/mol
# GULP energy per Si atom -5577.719236 kJ/mol
# Density = 1.865978 g / cm^3
# Si number density = 18.702343 Si / 1000 Ang^3
#
#
#
# Elastic Constant Matrix: (Units=GPa)
#
#
# Indices 1 2 3 4 5 6 
#
# 1 107.1020 5.6938 82.8398 0.0000 0.0000 0.0000
# 2 5.6938 7.5505 4.3277 0.0000 0.0000 0.0000
# 3 82.8398 4.3277 146.6954 0.0000 0.0000 0.0000
# 4 0.0000 0.0000 0.0000 26.7599 0.0000 0.0000
# 5 0.0000 0.0000 0.0000 0.0000 28.2150 0.0000
# 6 0.0000 0.0000 0.0000 0.0000 0.0000 17.2761
#
#
#
# Elastic Compliance Matrix: (Units=1/GPa)
#
#
# Indices 1 2 3 4 5 6 
#
# 1 0.016978 -0.007433 -0.009368 0.000000 0.000000 0.000000
# 2 -0.007433 0.137973 0.000127 0.000000 0.000000 0.000000
# 3 -0.009368 0.000127 0.012104 0.000000 0.000000 0.000000
# 4 0.000000 0.000000 0.000000 0.037369 0.000000 0.000000
# 5 0.000000 0.000000 0.000000 0.000000 0.035442 0.000000
# 6 0.000000 0.000000 0.000000 0.000000 0.000000 0.057883
#
#
# Mechanical properties :
#
#
# Convention : Reuss Voigt Hill
#
# Bulk Modulus (GPa) = 7.47909 49.67449 28.57679
# Shear Modulus (GPa) = 13.30964 25.68265 19.49614
#
# Velocity S-wave (km/s) = 2.67058 3.70973 3.23219
# Velocity P-wave (km/s) = 3.67655 6.70580 5.40762
#
# Compressibility (1/GPa) = 0.13370606
#
# Stress axis : x y z
#
# Youngs Moduli (GPa) = 58.89889 7.24777 82.62072
#
# Poissons Ratio (x) = 0.05388 0.77403
# Poissons Ratio (y) = 0.43782 -0.01052
# Poissons Ratio (z) = 0.55179 -0.00092
#
# Static dielectric constant tensor:
#      x y z
#    x 1.656110 0.000000 0.000000 
#    y 0.000000 1.664040 0.000000 
#    z 0.000000 0.000000 1.631060 
# 
# From -- ./inp_files/25614.got.cif
#   From: 2010.05.17/outbox.cif.g08.bks.cpg/sg51_13_cif.got.tgz:25614.got - 2010.06.03 11:52:47.
