data_PCOD9400898
_publ_section_title
;
Structure prediction by ZEFSAII (Michael W. Deem and Ramdas Pophale) SiO2 
 PCOD9400898
Probable space group: P M M A
;
_chemical_formula_sum "Si O2"
_cell_formula_units_Z 64
_cell_length_a 15.183272
_cell_length_b 9.264757
_cell_length_c 24.442704
_cell_angle_alpha 90.000000
_cell_angle_beta 90.000000
_cell_angle_gamma 90.000000
_cell_volume 3438.338686
_symmetry_space_group_name_H-M "P M M A"
_symmetry_group_IT_number 51
_symmetry_cell_setting 'orthorhombic'
loop_
_space_group_symop_operation_xyz
x,y,z
1/2-x,-y,z
1/2+x,-y,-z
-x,y,-z
-x,-y,-z
1/2+x,y,-z
1/2-x,y,z
x,-y,z
loop_
_atom_site_type_symbol
_atom_site_label
_atom_site_fract_x
_atom_site_fract_y
_atom_site_fract_z
Si Si1 0.148340 0.173077 0.684256
Si Si2 0.146822 0.169937 0.036103
Si Si3 0.598781 0.836231 0.523301
Si Si4 0.352697 0.658273 0.578220
Si Si5 0.487720 0.826075 0.133167
Si Si6 0.852758 0.327731 0.078158
Si Si7 0.352055 0.824478 0.354525
Si Si8 0.975984 0.824669 0.744337
O O1 0.250000 0.214631 0.696261
O O2 0.115301 0.237849 0.626524
O O3 0.076093 0.216666 0.728821
O O4 0.147322 0.000000 0.679227
O O5 0.250000 0.186853 0.050755
O O6 0.083489 0.207989 0.086265
O O7 0.132646 0.000000 0.022721
O O8 0.129191 0.264154 0.982398
O O9 0.500000 0.841901 0.500000
O O10 0.643330 0.729111 0.481016
O O11 0.607623 0.787783 0.586021
O O12 0.635239 0.000000 0.519780
O O13 0.250000 0.643120 0.590991
O O14 0.394988 0.500000 0.579133
O O15 0.579011 0.749246 0.118311
O O16 0.455803 0.781954 0.193615
O O17 0.500138 0.000000 0.132987
O O18 0.750000 0.295464 0.090713
O O19 0.864182 0.500000 0.078593
O O20 0.250000 0.778431 0.351871
O O21 0.409790 0.772885 0.303081
O O22 0.352832 0.000000 0.352402
O O23 0.972552 0.000000 0.742856
#
# Coordination Sequence:
#
# PCOD9400898 Si02
#       8
#     8   8   8   8   8   8   8   8
#     4   9  17  31  51  71  94 128 167 207 252 302
#     4   9  18  33  53  79 111 143 174 211 258 310
#     4  10  19  31  50  74  98 126 163 207 252 301
#     4  10  20  32  47  70  98 125 155 196 249 306
#     4  10  20  33  53  80 107 137 174 216 261 307
#     4  10  21  36  54  78 108 141 175 212 258 311
#     4   9  17  29  47  72 101 132 166 207 254 300
#     4   9  18  32  49  72 100 130 169 211 248 295
#
# _framework density 18.61364
#
# number of rings (size 3 to 8) (size 9 to 14) (size 15 to 20)
#    0.000    2.500    0.000    2.250    0.000    7.250 
#    0.000    4.375    0.000    2.250    0.000    0.000 
#    0.000    0.000    0.000    0.000    0.000    0.000 
#
# Total GULP energy -356724.103053 kJ/mol
# GULP energy per Si atom -5573.814110 kJ/mol
# Density = 1.857127 g / cm^3
# Si number density = 18.613640 Si / 1000 Ang^3
#
#
#
# Elastic Constant Matrix: (Units=GPa)
#
#
# Indices 1 2 3 4 5 6 
#
# 1 75.2214 11.0479 40.1570 0.0000 0.0000 0.0000
# 2 11.0479 13.0325 4.0879 0.0000 0.0000 0.0000
# 3 40.1570 4.0879 84.9320 0.0000 0.0000 0.0000
# 4 0.0000 0.0000 0.0000 -16.3601 0.0000 0.0000
# 5 0.0000 0.0000 0.0000 0.0000 18.7698 0.0000
# 6 0.0000 0.0000 0.0000 0.0000 0.0000 13.7984
#
#
#
# Elastic Compliance Matrix: (Units=1/GPa)
#
#
# Indices 1 2 3 4 5 6 
#
# 1 0.020096 -0.014271 -0.008815 0.000000 0.000000 0.000000
# 2 -0.014271 0.088041 0.002510 0.000000 0.000000 0.000000
# 3 -0.008815 0.002510 0.015821 0.000000 0.000000 0.000000
# 4 0.000000 0.000000 0.000000 -0.061124 0.000000 0.000000
# 5 0.000000 0.000000 0.000000 0.000000 0.053277 0.000000
# 6 0.000000 0.000000 0.000000 0.000000 0.000000 0.072472
#
#
# Mechanical properties :
#
#
# Convention : Reuss Voigt Hill
#
# Bulk Modulus (GPa) = 12.07625 31.53018 21.80321
# Shear Modulus (GPa) = 19.42981 11.10118 15.26550
#
# Velocity S-wave (km/s) = 3.23437 2.44478 2.86689
# Velocity P-wave (km/s) = 4.52218 4.99453 4.76421
#
# Compressibility (1/GPa) = 0.08280720
#
# Stress axis : x y z
#
# Youngs Moduli (GPa) = 49.76168 11.35828 63.20700
#
# Poissons Ratio (x) = 0.16209 0.55715
# Poissons Ratio (y) = 0.71013 -0.15864
# Poissons Ratio (z) = 0.43863 -0.02851
#
# Static dielectric constant tensor:
#      x y z
#    x 1.425480 0.000000 0.000000 
#    y 0.000000 1.657600 0.000000 
#    z 0.000000 0.000000 1.627420 
# 
# From -- ./inp_files/35604.got.cif
#   From: 2010.05.17/outbox.cif.g08.bks.cpg/sg51_18_cif.got.tgz:35604.got - 2010.06.03 11:52:47.
