data_PCOD9400808
_publ_section_title
;
Structure prediction by ZEFSAII (Michael W. Deem and Ramdas Pophale) SiO2 
 PCOD9400808
Probable space group: P M M A
;
_chemical_formula_sum "Si O2"
_cell_formula_units_Z 48
_cell_length_a 18.027821
_cell_length_b 9.129529
_cell_length_c 14.218033
_cell_angle_alpha 90.000000
_cell_angle_beta 90.000000
_cell_angle_gamma 90.000000
_cell_volume 2340.082278
_symmetry_space_group_name_H-M "P M M A"
_symmetry_group_IT_number 51
_symmetry_cell_setting 'orthorhombic'
loop_
_space_group_symop_operation_xyz
x,y,z
1/2-x,-y,z
1/2+x,-y,-z
-x,y,-z
-x,-y,-z
1/2+x,y,-z
1/2-x,y,z
x,-y,z
loop_
_atom_site_type_symbol
_atom_site_label
_atom_site_fract_x
_atom_site_fract_y
_atom_site_fract_z
Si Si1 0.127998 0.672530 0.151093
Si Si2 0.532749 0.164892 0.394050
Si Si3 0.166086 0.674696 0.934927
Si Si4 0.019976 0.834391 0.889771
Si Si5 0.667056 0.327374 0.467294
Si Si6 0.370675 0.174514 0.336230
O O1 0.135487 0.500000 0.167518
O O2 0.160834 0.705277 0.047668
O O3 0.160466 0.759552 0.239880
O O4 0.042291 0.722223 0.144813
O O5 0.500000 0.162782 0.500000
O O6 0.603127 0.269300 0.398350
O O7 0.459654 0.204564 0.336364
O O8 0.556692 0.000000 0.371091
O O9 0.250000 0.705819 0.903634
O O10 0.151744 0.500000 0.924122
O O11 0.102252 0.767810 0.884245
O O12 0.013814 0.000000 0.850171
O O13 0.000000 0.846734 0.000000
O O14 0.750000 0.300739 0.430894
O O15 0.657086 0.500000 0.482673
O O16 0.659303 0.247326 0.568374
O O17 0.360319 0.000000 0.341013
#
# Coordination Sequence:
#
# PCOD9400808 Si02
#       6
#     8   8   8   8   8   8
#     4  10  19  31  49  72  98 129 161 195 238 285
#     4   8  16  31  49  68  91 122 160 197 233 277
#     4   9  18  32  49  70  97 127 158 194 237 284
#     4   9  17  30  48  69  93 123 161 200 234 277
#     4  10  20  32  48  72  99 126 158 195 235 283
#     4  10  20  33  49  71  98 127 160 198 239 284
#
# _framework density 20.512098000000002
#
# number of rings (size 3 to 8) (size 9 to 14) (size 15 to 20)
#    0.000    2.667    0.000    3.000    0.000    8.667 
#    0.000    1.667    0.000    1.000    0.000    4.667 
#    0.000    0.000    0.000    0.000    0.000    0.000 
#
# Total GULP energy -267746.478023 kJ/mol
# GULP energy per Si atom -5578.051625 kJ/mol
# Density = 2.046541 g / cm^3
# Si number density = 20.512098 Si / 1000 Ang^3
#
#
#
# Elastic Constant Matrix: (Units=GPa)
#
#
# Indices 1 2 3 4 5 6 
#
# 1 110.1655 43.8678 -15.6679 0.0000 0.0000 0.0000
# 2 43.8678 61.0823 0.6670 0.0000 0.0000 0.0000
# 3 -15.6679 0.6670 21.1109 0.0000 0.0000 0.0000
# 4 0.0000 0.0000 0.0000 14.8839 0.0000 0.0000
# 5 0.0000 0.0000 0.0000 0.0000 4.5775 0.0000
# 6 0.0000 0.0000 0.0000 0.0000 0.0000 30.4448
#
#
#
# Elastic Compliance Matrix: (Units=1/GPa)
#
#
# Indices 1 2 3 4 5 6 
#
# 1 0.015082 -0.010957 0.011539 0.000000 0.000000 0.000000
# 2 -0.010957 0.024338 -0.008901 0.000000 0.000000 0.000000
# 3 0.011539 -0.008901 0.056214 0.000000 0.000000 0.000000
# 4 0.000000 0.000000 0.000000 0.067187 0.000000 0.000000
# 5 0.000000 0.000000 0.000000 0.000000 0.218460 0.000000
# 6 0.000000 0.000000 0.000000 0.000000 0.000000 0.032846
#
#
# Mechanical properties :
#
#
# Convention : Reuss Voigt Hill
#
# Bulk Modulus (GPa) = 12.65894 27.78806 20.22350
# Shear Modulus (GPa) = 10.93861 20.88069 15.90965
#
# Velocity S-wave (km/s) = 2.31178 3.19402 2.78802
# Velocity P-wave (km/s) = 3.64837 5.21334 4.49942
#
# Compressibility (1/GPa) = 0.07899554
#
# Stress axis : x y z
#
# Youngs Moduli (GPa) = 66.30633 41.08846 17.78906
#
# Poissons Ratio (x) = 0.45021 -0.20527
# Poissons Ratio (y) = 0.72653 0.15834
# Poissons Ratio (z) = -0.76513 0.36573
#
# Static dielectric constant tensor:
#      x y z
#    x 1.742370 0.000000 0.000000 
#    y 0.000000 1.694390 0.000000 
#    z 0.000000 0.000000 1.775560 
# 
# From -- ./inp_files/29439.got.cif
#   From: 2010.05.17/outbox.cif.g08.bks.cpg/sg51_15_cif.got.tgz:29439.got - 2010.06.03 11:52:47.
