data_PCOD9400784
_publ_section_title
;
Structure prediction by ZEFSAII (Michael W. Deem and Ramdas Pophale) SiO2 
 PCOD9400784
Probable space group: P M M A
;
_chemical_formula_sum "Si O2"
_cell_formula_units_Z 48
_cell_length_a 8.697153
_cell_length_b 13.865676
_cell_length_c 24.761229
_cell_angle_alpha 90.000000
_cell_angle_beta 90.000000
_cell_angle_gamma 90.000000
_cell_volume 2986.003791
_symmetry_space_group_name_H-M "P M M A"
_symmetry_group_IT_number 51
_symmetry_cell_setting 'orthorhombic'
loop_
_space_group_symop_operation_xyz
x,y,z
1/2-x,-y,z
1/2+x,-y,-z
-x,y,-z
-x,-y,-z
1/2+x,y,-z
1/2-x,y,z
x,-y,z
loop_
_atom_site_type_symbol
_atom_site_label
_atom_site_fract_x
_atom_site_fract_y
_atom_site_fract_z
Si Si1 0.934987 0.112358 0.831503
Si Si2 0.067154 0.885761 0.944105
Si Si3 0.434073 0.610658 0.665295
Si Si4 0.433416 0.297965 0.441929
Si Si5 0.065259 0.203784 0.281999
Si Si6 0.065823 0.889113 0.611123
O O1 0.750000 0.114019 0.835450
O O2 0.979905 0.168924 0.777543
O O3 0.002612 0.152384 0.887458
O O4 0.982560 0.000000 0.825378
O O5 0.250000 0.878332 0.945081
O O6 0.024586 0.000000 0.943458
O O7 0.000000 0.845140 0.000000
O O8 0.250000 0.623649 0.665886
O O9 0.469836 0.500000 0.678344
O O10 0.496056 0.637323 0.605809
O O11 0.510999 0.688131 0.704921
O O12 0.500000 0.324859 0.500000
O O13 0.250000 0.304594 0.441305
O O14 0.485136 0.188775 0.427349
O O15 0.250000 0.196908 0.287187
O O16 0.989424 0.137778 0.328439
O O17 0.250000 0.876798 0.607715
O O18 0.027750 0.000000 0.598775
#
# Coordination Sequence:
#
# PCOD9400784 Si02
#       6
#     8   8   8   8   8   8
#     4   9  17  28  42  63  93 127 160 192 226 265
#     4   9  16  25  38  57  84 121 162 199 232 265
#     4  10  21  37  55  73  94 119 147 184 231 280
#     4  11  22  36  54  73  95 120 149 187 226 271
#     4  10  19  31  49  71  95 122 154 193 232 274
#     4  10  20  33  49  69  95 126 157 189 225 267
#
# _framework density 16.074995000000001
#
# number of rings (size 3 to 8) (size 9 to 14) (size 15 to 20)
#    0.000    2.167    0.000    6.000    0.000    7.333 
#    0.000    1.667    0.000    0.000    0.000    0.000 
#    0.000    0.667    0.000    2.167    0.000    3.167 
#
# Total GULP energy -267800.290708 kJ/mol
# GULP energy per Si atom -5579.172723 kJ/mol
# Density = 1.603841 g / cm^3
# Si number density = 16.074995 Si / 1000 Ang^3
#
#
#
# Elastic Constant Matrix: (Units=GPa)
#
#
# Indices 1 2 3 4 5 6 
#
# 1 27.4821 3.2312 12.3687 0.0000 0.0000 0.0000
# 2 3.2312 46.2547 11.6445 0.0000 0.0000 0.0000
# 3 12.3687 11.6445 111.5871 0.0000 0.0000 0.0000
# 4 0.0000 0.0000 0.0000 7.4616 0.0000 0.0000
# 5 0.0000 0.0000 0.0000 0.0000 29.8608 0.0000
# 6 0.0000 0.0000 0.0000 0.0000 0.0000 18.4771
#
#
#
# Elastic Compliance Matrix: (Units=1/GPa)
#
#
# Indices 1 2 3 4 5 6 
#
# 1 0.038421 -0.001655 -0.004086 0.000000 0.000000 0.000000
# 2 -0.001655 0.022274 -0.002141 0.000000 0.000000 0.000000
# 3 -0.004086 -0.002141 0.009638 0.000000 0.000000 0.000000
# 4 0.000000 0.000000 0.000000 0.134019 0.000000 0.000000
# 5 0.000000 0.000000 0.000000 0.000000 0.033489 0.000000
# 6 0.000000 0.000000 0.000000 0.000000 0.000000 0.054121
#
#
# Mechanical properties :
#
#
# Convention : Reuss Voigt Hill
#
# Bulk Modulus (GPa) = 18.32562 26.64586 22.48574
# Shear Modulus (GPa) = 15.34142 21.69855 18.51998
#
# Velocity S-wave (km/s) = 3.09263 3.67799 3.39794
# Velocity P-wave (km/s) = 4.91704 5.88632 5.42338
#
# Compressibility (1/GPa) = 0.05456840
#
# Stress axis : x y z
#
# Youngs Moduli (GPa) = 26.02751 44.89538 103.75682
#
# Poissons Ratio (x) = 0.07432 0.42395
# Poissons Ratio (y) = 0.04309 0.22213
# Poissons Ratio (z) = 0.10635 0.09612
#
# Static dielectric constant tensor:
#      x y z
#    x 1.536120 0.000000 0.000000 
#    y 0.000000 1.527520 0.000000 
#    z 0.000000 0.000000 1.540820 
# 
# From -- ./inp_files/34558.got.cif
#   From: 2010.05.17/outbox.cif.g08.bks.cpg/sg51_18_cif.got.tgz:34558.got - 2010.06.03 11:52:47.
