data_PCOD9400623
_publ_section_title
;
Structure prediction by ZEFSAII (Michael W. Deem and Ramdas Pophale) SiO2 
 PCOD9400623
Probable space group: P M M A
;
_chemical_formula_sum "Si O2"
_cell_formula_units_Z 44
_cell_length_a 8.869329
_cell_length_b 15.857972
_cell_length_c 17.833090
_cell_angle_alpha 90.000000
_cell_angle_beta 90.000000
_cell_angle_gamma 90.000000
_cell_volume 2508.216457
_symmetry_space_group_name_H-M "P M M A"
_symmetry_group_IT_number 51
_symmetry_cell_setting 'orthorhombic'
loop_
_space_group_symop_operation_xyz
x,y,z
1/2-x,-y,z
1/2+x,-y,-z
-x,y,-z
-x,-y,-z
1/2+x,y,-z
1/2-x,y,z
x,-y,z
loop_
_atom_site_type_symbol
_atom_site_label
_atom_site_fract_x
_atom_site_fract_y
_atom_site_fract_z
Si Si1 0.927102 0.241975 0.305030
Si Si2 0.431610 0.405943 0.243403
Si Si3 0.572609 0.182035 0.134622
Si Si4 0.068327 0.000000 0.918128
Si Si5 0.432532 0.904776 0.582938
Si Si6 0.570742 0.652139 0.922431
O O1 0.750000 0.256325 0.319928
O O2 0.940931 0.202181 0.222279
O O3 0.983270 0.172267 0.364175
O O4 0.007400 0.332020 0.296489
O O5 0.250000 0.401686 0.243422
O O6 0.478559 0.500000 0.265892
O O7 0.479658 0.390278 0.156325
O O8 0.750000 0.191071 0.114005
O O9 0.522573 0.086812 0.120801
O O10 0.478111 0.250529 0.088816
O O11 0.250000 0.000000 0.920847
O O12 0.000000 0.000000 0.000000
O O13 0.500000 0.895593 0.500000
O O14 0.250000 0.901894 0.579656
O O15 0.472639 0.000000 0.610202
O O16 0.750000 0.644310 0.927410
O O17 0.500000 0.619844 0.000000
#
# Coordination Sequence:
#
# PCOD9400623 Si02
#       6
#     8   8   8   4   8   8
#     4   9  18  32  52  76 100 128 164 203 243 287
#     4   9  19  35  52  71  97 129 164 204 254 304
#     4   9  18  31  46  65  89 122 162 201 243 289
#     4  10  20  30  42  60  85 120 160 200 239 282
#     4   9  18  32  52  79 110 140 166 196 236 286
#     4  10  19  31  47  66  91 122 159 203 251 299
#
# _framework density 17.542345000000001
#
# number of rings (size 3 to 8) (size 9 to 14) (size 15 to 20)
#    0.000    2.727    0.000    1.091    1.273    4.364 
#    0.000    0.000    0.000    0.545    0.000    0.000 
#    0.000    0.000    0.000    0.000    0.000    0.000 
#
# Total GULP energy -245211.590079 kJ/mol
# GULP energy per Si atom -5572.990684 kJ/mol
# Density = 1.750242 g / cm^3
# Si number density = 17.542345 Si / 1000 Ang^3
#
#
#
# Elastic Constant Matrix: (Units=GPa)
#
#
# Indices 1 2 3 4 5 6 
#
# 1 13.6863 28.2844 19.7890 0.0000 0.0000 0.0000
# 2 28.2844 156.9463 51.1387 0.0000 0.0000 0.0000
# 3 19.7890 51.1387 58.4374 0.0000 0.0000 0.0000
# 4 0.0000 0.0000 0.0000 11.6133 0.0000 0.0000
# 5 0.0000 0.0000 0.0000 0.0000 25.0266 0.0000
# 6 0.0000 0.0000 0.0000 0.0000 0.0000 22.3600
#
#
#
# Elastic Compliance Matrix: (Units=1/GPa)
#
#
# Indices 1 2 3 4 5 6 
#
# 1 0.169117 -0.016531 -0.042803 0.000000 0.000000 0.000000
# 2 -0.016531 0.010529 -0.003616 0.000000 0.000000 0.000000
# 3 -0.042803 -0.003616 0.034771 0.000000 0.000000 0.000000
# 4 0.000000 0.000000 0.000000 0.086108 0.000000 0.000000
# 5 0.000000 0.000000 0.000000 0.000000 0.039957 0.000000
# 6 0.000000 0.000000 0.000000 0.000000 0.000000 0.044723
#
#
# Mechanical properties :
#
#
# Convention : Reuss Voigt Hill
#
# Bulk Modulus (GPa) = 11.29716 47.49935 29.39825
# Shear Modulus (GPa) = 9.24880 20.45719 14.85299
#
# Velocity S-wave (km/s) = 2.29863 3.41861 2.91296
# Velocity P-wave (km/s) = 3.67408 6.53592 5.30175
#
# Compressibility (1/GPa) = 0.08851785
#
# Stress axis : x y z
#
# Youngs Moduli (GPa) = 5.91306 94.97590 28.75952
#
# Poissons Ratio (x) = 1.57006 1.23098
# Poissons Ratio (y) = 0.09775 0.10399
# Poissons Ratio (z) = 0.25309 0.34342
#
# Static dielectric constant tensor:
#      x y z
#    x 1.598070 0.000000 0.000000 
#    y 0.000000 1.620710 0.000000 
#    z 0.000000 0.000000 1.579150 
# 
# From -- ./inp_files/27338.got.cif
#   From: 2010.05.17/outbox.cif.g08.bks.cpg/sg51_14_cif.got.tgz:27338.got - 2010.06.03 11:52:47.
