data_PCOD9400119
_publ_section_title
;
Structure prediction by ZEFSAII (Michael W. Deem and Ramdas Pophale) SiO2 
 PCOD9400119
Probable space group: P M M A
;
_chemical_formula_sum "Si O2"
_cell_formula_units_Z 64
_cell_length_a 8.534832
_cell_length_b 32.239962
_cell_length_c 14.811948
_cell_angle_alpha 90.000000
_cell_angle_beta 90.000000
_cell_angle_gamma 90.000000
_cell_volume 4075.695002
_symmetry_space_group_name_H-M "P M M A"
_symmetry_group_IT_number 51
_symmetry_cell_setting 'orthorhombic'
loop_
_space_group_symop_operation_xyz
x,y,z
1/2-x,-y,z
1/2+x,-y,-z
-x,y,-z
-x,-y,-z
1/2+x,y,-z
1/2-x,y,z
x,-y,z
loop_
_atom_site_type_symbol
_atom_site_label
_atom_site_fract_x
_atom_site_fract_y
_atom_site_fract_z
Si Si1 0.437944 0.864417 0.602593
Si Si2 0.939219 0.044541 0.397118
Si Si3 0.939374 0.452907 0.399647
Si Si4 0.560490 0.374391 0.286409
Si Si5 0.560918 0.213643 0.711782
Si Si6 0.437987 0.246188 0.096572
Si Si7 0.561863 0.295870 0.601826
Si Si8 0.062108 0.659887 0.903716
O O1 0.500000 0.859480 0.500000
O O2 0.250000 0.863302 0.598963
O O3 0.488491 0.910214 0.638296
O O4 0.497389 0.827396 0.664752
O O5 0.750000 0.044502 0.397804
O O6 0.000000 0.044256 0.500000
O O7 0.990173 0.000000 0.356164
O O8 0.750000 0.452504 0.401757
O O9 0.989777 0.500000 0.377493
O O10 0.992148 0.417733 0.329944
O O11 0.000000 0.443029 0.500000
O O12 0.750000 0.373569 0.288812
O O13 0.499744 0.336238 0.346210
O O14 0.512151 0.366676 0.182995
O O15 0.750000 0.212341 0.709599
O O16 0.512162 0.220187 0.815770
O O17 0.511458 0.254393 0.655268
O O18 0.250000 0.247564 0.093906
O O19 0.498995 0.293259 0.108278
O O20 0.500000 0.230893 0.000000
O O21 0.500000 0.294993 0.500000
O O22 0.750000 0.296930 0.600916
O O23 0.250000 0.661617 0.906819
O O24 0.000000 0.644446 0.000000
#
# Coordination Sequence:
#
# PCOD9400119 Si02
#       8
#     8   8   8   8   8   8   8   8
#     4  10  19  29  44  64  89 124 161 193 229 271
#     4   8  14  25  40  59  83 112 149 192 232 269
#     4   9  18  33  51  71  95 121 150 185 226 271
#     4  10  20  33  50  72  93 119 154 189 227 270
#     4  10  21  34  46  63  91 124 155 186 224 271
#     4  10  19  33  50  69  90 116 151 189 231 271
#     4  11  22  34  46  64  92 125 157 188 223 263
#     4  10  19  31  49  71  94 118 149 187 228 272
#
# _framework density 15.702844000000001
#
# number of rings (size 3 to 8) (size 9 to 14) (size 15 to 20)
#    0.000    2.250    1.250    3.000    0.000    5.500 
#    0.000    0.000    0.000    0.375    0.000    0.000 
#    0.000    0.500    0.000    1.125    0.000    2.500 
#
# Total GULP energy -356763.036144 kJ/mol
# GULP energy per Si atom -5574.422440 kJ/mol
# Density = 1.566710 g / cm^3
# Si number density = 15.702844 Si / 1000 Ang^3
#
#
#
# Elastic Constant Matrix: (Units=GPa)
#
#
# Indices 1 2 3 4 5 6 
#
# 1 19.0043 21.7524 26.2770 0.0000 0.0000 0.0000
# 2 21.7524 136.2788 86.9571 0.0000 0.0000 0.0000
# 3 26.2770 86.9571 137.4178 0.0000 0.0000 0.0000
# 4 0.0000 0.0000 0.0000 0.7664 0.0000 0.0000
# 5 0.0000 0.0000 0.0000 0.0000 22.0717 0.0000
# 6 0.0000 0.0000 0.0000 0.0000 0.0000 11.5247
#
#
#
# Elastic Compliance Matrix: (Units=1/GPa)
#
#
# Indices 1 2 3 4 5 6 
#
# 1 0.073225 -0.004618 -0.011080 0.000000 0.000000 0.000000
# 2 -0.004618 0.012599 -0.007089 0.000000 0.000000 0.000000
# 3 -0.011080 -0.007089 0.013882 0.000000 0.000000 0.000000
# 4 0.000000 0.000000 0.000000 1.304769 0.000000 0.000000
# 5 0.000000 0.000000 0.000000 0.000000 0.045307 0.000000
# 6 0.000000 0.000000 0.000000 0.000000 0.000000 0.086770
#
#
# Mechanical properties :
#
#
# Convention : Reuss Voigt Hill
#
# Bulk Modulus (GPa) = 18.47358 62.51934 40.49646
# Shear Modulus (GPa) = 3.12467 17.38686 10.25577
#
# Velocity S-wave (km/s) = 1.41216 3.33114 2.55838
# Velocity P-wave (km/s) = 3.80118 7.39566 5.87983
#
# Compressibility (1/GPa) = 0.05413137
#
# Stress axis : x y z
#
# Youngs Moduli (GPa) = 13.65645 79.37440 72.03703
#
# Poissons Ratio (x) = 0.36657 0.79816
# Poissons Ratio (y) = 0.06307 0.51068
# Poissons Ratio (z) = 0.15131 0.56270
#
# Static dielectric constant tensor:
#      x y z
#    x 1.537770 0.000000 0.000000 
#    y 0.000000 1.539820 0.000000 
#    z 0.000000 0.000000 1.520940 
# 
# From -- ./inp_files/22619.got.cif
#   From: 2010.05.17/outbox.cif.g08.bks.cpg/sg51_12_cif.got.tgz:22619.got - 2010.06.03 11:52:47.
