data_PCOD9400690
_publ_section_title
;
Structure prediction by ZEFSAII (Michael W. Deem and Ramdas Pophale) SiO2 
 PCOD9400690
Probable space group: P M M A
;
_chemical_formula_sum "Si O2"
_cell_formula_units_Z 48
_cell_length_a 8.009654
_cell_length_b 16.618214
_cell_length_c 18.983496
_cell_angle_alpha 90.000000
_cell_angle_beta 90.000000
_cell_angle_gamma 90.000000
_cell_volume 2526.819957
_symmetry_space_group_name_H-M "P M M A"
_symmetry_group_IT_number 51
_symmetry_cell_setting 'orthorhombic'
loop_
_space_group_symop_operation_xyz
x,y,z
1/2-x,-y,z
1/2+x,-y,-z
-x,y,-z
-x,-y,-z
1/2+x,y,-z
1/2-x,y,z
x,-y,z
loop_
_atom_site_type_symbol
_atom_site_label
_atom_site_fract_x
_atom_site_fract_y
_atom_site_fract_z
Si Si1 0.448943 0.335296 0.150578
Si Si2 0.951134 0.000000 0.582388
Si Si3 0.051584 0.086874 0.783655
Si Si4 0.948170 0.749113 0.283867
Si Si5 0.952283 0.500000 0.918274
Si Si6 0.450148 0.831174 0.080420
Si Si7 0.550649 0.823507 0.581250
O O1 0.250000 0.336050 0.140881
O O2 0.483816 0.319979 0.232995
O O3 0.514910 0.418744 0.119504
O O4 0.512191 0.256458 0.108399
O O5 0.014707 0.087672 0.606721
O O6 0.000000 0.000000 0.500000
O O7 0.750000 0.000000 0.589444
O O8 0.250000 0.085449 0.770147
O O9 0.979669 0.166435 0.746889
O O10 0.023287 0.102999 0.866346
O O11 0.980775 0.000000 0.762316
O O12 0.750000 0.748846 0.274873
O O13 0.988390 0.754759 0.366118
O O14 0.750000 0.500000 0.913730
O O15 0.000000 0.500000 0.000000
O O16 0.250000 0.833188 0.086534
O O17 0.500000 0.842692 0.000000
O O18 0.500000 0.812623 0.500000
O O19 0.750000 0.825818 0.584184
#
# Coordination Sequence:
#
# PCOD9400690 Si02
#       7
#     8   4   8   8   4   8   8
#     4   9  19  35  52  74 103 133 165 200 245 303
#     4   8  16  28  42  64  94 128 165 208 255 298
#     4   9  19  34  48  64  88 122 165 208 248 292
#     4  10  20  33  51  73  99 133 169 209 256 301
#     4  10  20  34  56  84 111 138 167 204 252 306
#     4  10  19  31  48  68  92 123 158 200 246 292
#     4  10  19  32  49  72 101 134 173 215 258 304
#
# _framework density 18.996210000000001
#
# number of rings (size 3 to 8) (size 9 to 14) (size 15 to 20)
#    0.000    2.500    0.000    2.000    1.167    3.333 
#    0.000    0.000    0.000    0.000    0.000    0.583 
#    0.000    0.000    0.000    0.000    0.000    0.000 
#
# Total GULP energy -267695.813059 kJ/mol
# GULP energy per Si atom -5576.996105 kJ/mol
# Density = 1.895297 g / cm^3
# Si number density = 18.996210 Si / 1000 Ang^3
#
#
#
# Elastic Constant Matrix: (Units=GPa)
#
#
# Indices 1 2 3 4 5 6 
#
# 1 19.5048 4.9908 -16.2349 0.0000 0.0000 0.0000
# 2 4.9908 87.5002 33.2830 0.0000 0.0000 0.0000
# 3 -16.2349 33.2830 92.7850 0.0000 0.0000 0.0000
# 4 0.0000 0.0000 0.0000 29.2733 0.0000 0.0000
# 5 0.0000 0.0000 0.0000 0.0000 24.2460 0.0000
# 6 0.0000 0.0000 0.0000 0.0000 0.0000 11.9619
#
#
#
# Elastic Compliance Matrix: (Units=1/GPa)
#
#
# Indices 1 2 3 4 5 6 
#
# 1 0.066153 -0.009468 0.014971 0.000000 0.000000 0.000000
# 2 -0.009468 0.014589 -0.006890 0.000000 0.000000 0.000000
# 3 0.014971 -0.006890 0.015869 0.000000 0.000000 0.000000
# 4 0.000000 0.000000 0.000000 0.034161 0.000000 0.000000
# 5 0.000000 0.000000 0.000000 0.000000 0.041244 0.000000
# 6 0.000000 0.000000 0.000000 0.000000 0.000000 0.083599
#
#
# Mechanical properties :
#
#
# Convention : Reuss Voigt Hill
#
# Bulk Modulus (GPa) = 10.65664 27.09644 18.87654
# Shear Modulus (GPa) = 17.26114 24.94630 21.10372
#
# Velocity S-wave (km/s) = 3.01767 3.62778 3.33670
# Velocity P-wave (km/s) = 4.21472 5.64294 4.98029
#
# Compressibility (1/GPa) = 0.09383817
#
# Stress axis : x y z
#
# Youngs Moduli (GPa) = 15.11638 68.54307 63.01716
#
# Poissons Ratio (x) = 0.64896 -0.94345
# Poissons Ratio (y) = 0.14312 0.43419
# Poissons Ratio (z) = -0.22631 0.47226
#
# Static dielectric constant tensor:
#      x y z
#    x 1.651610 0.000000 0.000000 
#    y 0.000000 1.686820 0.000000 
#    z 0.000000 0.000000 1.674890 
# 
# From -- ./inp_files/27661.got.cif
#   From: 2010.05.17/outbox.cif.g08.bks.cpg/sg51_14_cif.got.tgz:27661.got - 2010.06.03 11:52:47.
