data_PCOD9400706
_publ_section_title
;
Structure prediction by ZEFSAII (Michael W. Deem and Ramdas Pophale) SiO2 
 PCOD9400706
Probable space group: P M M A
;
_chemical_formula_sum "Si O2"
_cell_formula_units_Z 64
_cell_length_a 13.871240
_cell_length_b 8.091905
_cell_length_c 23.892433
_cell_angle_alpha 90.000000
_cell_angle_beta 90.000000
_cell_angle_gamma 90.000000
_cell_volume 2681.800320
_symmetry_space_group_name_H-M "P M M A"
_symmetry_group_IT_number 51
_symmetry_cell_setting 'orthorhombic'
loop_
_space_group_symop_operation_xyz
x,y,z
1/2-x,-y,z
1/2+x,-y,-z
-x,y,-z
-x,-y,-z
1/2+x,y,-z
1/2-x,y,z
x,-y,z
loop_
_atom_site_type_symbol
_atom_site_label
_atom_site_fract_x
_atom_site_fract_y
_atom_site_fract_z
Si Si1 0.094957 0.813933 0.670315
Si Si2 0.353718 0.193276 0.795348
Si Si3 0.116983 0.304192 0.555609
Si Si4 0.858792 0.691641 0.041347
Si Si5 0.614023 0.697883 0.565496
Si Si6 0.927976 0.694873 0.807337
Si Si7 0.390382 0.689560 0.313749
Si Si8 0.933313 0.188734 0.927320
O O1 0.151326 0.803918 0.727860
O O2 0.149160 0.777718 0.613042
O O3 0.005777 0.690285 0.677383
O O4 0.053944 0.000000 0.667085
O O5 0.450774 0.220082 0.930526
O O6 0.455555 0.279698 0.806858
O O7 0.362492 0.000000 0.812176
O O8 0.137442 0.500000 0.557220
O O9 0.148611 0.238932 0.494889
O O10 0.001208 0.284184 0.559893
O O11 0.750000 0.756161 0.050975
O O12 0.861613 0.500000 0.058619
O O13 0.883029 0.703233 0.975159
O O14 0.633823 0.500000 0.566579
O O15 0.644287 0.763499 0.626691
O O16 0.908582 0.500000 0.808996
O O17 0.882082 0.762134 0.748985
O O18 0.896011 0.775256 0.865247
O O19 0.356972 0.500000 0.311245
O O20 0.750000 0.258134 0.183086
O O21 0.915300 0.000000 0.942693
#
# Coordination Sequence:
#
# PCOD9400706 Si02
#       8
#     8   8   8   8   8   8   8   8
#     4   9  15  22  33  49  70  97 134 183 236 288
#     4   9  18  31  43  56  80 118 163 209 258 312
#     4   8  12  19  31  45  65  94 127 166 215 276
#     4  10  21  39  63  88 115 146 182 227 270 306
#     4   7  10  18  32  48  66  94 133 170 211 271
#     4  10  19  31  48  69  95 127 166 211 254 298
#     4   8  14  25  39  53  74 109 147 182 226 281
#     4  11  22  36  57  84 117 153 185 219 262 320
#
# _framework density 23.864567000000001
#
# number of rings (size 3 to 8) (size 9 to 14) (size 15 to 20)
#    0.000    3.000    0.000    4.500    0.000    2.750 
#    0.000    5.000    0.000    0.000    0.000    0.000 
#    0.000    1.000    0.000    9.250    0.000    8.000 
#
# Total GULP energy -356676.991190 kJ/mol
# GULP energy per Si atom -5573.077987 kJ/mol
# Density = 2.381025 g / cm^3
# Si number density = 23.864567 Si / 1000 Ang^3
#
#
#
# Elastic Constant Matrix: (Units=GPa)
#
#
# Indices 1 2 3 4 5 6 
#
# 1 95.7398 3.4521 -5.6528 0.0000 0.0000 0.0000
# 2 3.4521 42.4705 -0.6506 0.0000 0.0000 0.0000
# 3 -5.6528 -0.6506 192.5399 0.0000 0.0000 0.0000
# 4 0.0000 0.0000 0.0000 19.5942 0.0000 0.0000
# 5 0.0000 0.0000 0.0000 0.0000 50.5628 0.0000
# 6 0.0000 0.0000 0.0000 0.0000 0.0000 -20.0430
#
#
#
# Elastic Compliance Matrix: (Units=1/GPa)
#
#
# Indices 1 2 3 4 5 6 
#
# 1 0.010494 -0.000848 0.000305 0.000000 0.000000 0.000000
# 2 -0.000848 0.023616 0.000055 0.000000 0.000000 0.000000
# 3 0.000305 0.000055 0.005203 0.000000 0.000000 0.000000
# 4 0.000000 0.000000 0.000000 0.051036 0.000000 0.000000
# 5 0.000000 0.000000 0.000000 0.000000 0.019777 0.000000
# 6 0.000000 0.000000 0.000000 0.000000 0.000000 -0.049893
#
#
# Mechanical properties :
#
#
# Convention : Reuss Voigt Hill
#
# Bulk Modulus (GPa) = 26.08536 36.11639 31.10087
# Shear Modulus (GPa) = 67.57926 32.26289 49.92107
#
# Velocity S-wave (km/s) = 5.32722 3.68083 4.57864
# Velocity P-wave (km/s) = 6.98523 5.76467 6.40409
#
# Compressibility (1/GPa) = 0.03833568
#
# Stress axis : x y z
#
# Youngs Moduli (GPa) = 95.29630 42.34503 192.20143
#
# Poissons Ratio (x) = 0.03592 -0.05866
# Poissons Ratio (y) = 0.08084 -0.01055
# Poissons Ratio (z) = -0.02909 -0.00232
#
# Static dielectric constant tensor:
#      x y z
#    x 1.985360 0.000000 0.000000 
#    y 0.000000 1.847430 0.000000 
#    z 0.000000 0.000000 1.984550 
# 
# From -- ./inp_files/33892.got.cif
#   From: 2010.05.17/outbox.cif.g08.bks.cpg/sg51_17_cif.got.tgz:33892.got - 2010.06.03 11:52:47.
