data_PCOD9400385
_publ_section_title
;
Structure prediction by ZEFSAII (Michael W. Deem and Ramdas Pophale) SiO2 
 PCOD9400385
Probable space group: P M M A
;
_chemical_formula_sum "Si O2"
_cell_formula_units_Z 64
_cell_length_a 15.175322
_cell_length_b 7.523237
_cell_length_c 27.210820
_cell_angle_alpha 90.000000
_cell_angle_beta 90.000000
_cell_angle_gamma 90.000000
_cell_volume 3106.592488
_symmetry_space_group_name_H-M "P M M A"
_symmetry_group_IT_number 51
_symmetry_cell_setting 'orthorhombic'
loop_
_space_group_symop_operation_xyz
x,y,z
1/2-x,-y,z
1/2+x,-y,-z
-x,y,-z
-x,-y,-z
1/2+x,y,-z
1/2-x,y,z
x,-y,z
loop_
_atom_site_type_symbol
_atom_site_label
_atom_site_fract_x
_atom_site_fract_y
_atom_site_fract_z
Si Si1 0.850788 0.716875 0.765234
Si Si2 0.851469 0.285092 0.875882
Si Si3 0.994279 0.788337 0.574619
Si Si4 0.489713 0.207357 0.945660
Si Si5 0.851633 0.782678 0.496294
Si Si6 0.649009 0.785839 0.132992
Si Si7 0.996266 0.713637 0.689404
Si Si8 0.150926 0.288015 0.756658
O O1 0.750000 0.771789 0.757129
O O2 0.851611 0.500000 0.765365
O O3 0.877106 0.771508 0.820491
O O4 0.915187 0.779002 0.722551
O O5 0.750000 0.231219 0.884294
O O6 0.853891 0.500000 0.877003
O O7 0.919103 0.217824 0.916117
O O8 0.908489 0.725535 0.544126
O O9 0.085198 0.725327 0.548974
O O10 0.990028 0.752799 0.632119
O O11 0.994851 0.000000 0.567864
O O12 0.414798 0.283519 0.909595
O O13 0.465925 0.000000 0.952480
O O14 0.500000 0.286165 0.000000
O O15 0.750000 0.721983 0.494902
O O16 0.848137 0.000000 0.496118
O O17 0.750000 0.722091 0.128293
O O18 0.617007 0.740481 0.187887
O O19 0.650502 0.000000 0.130381
O O20 0.996630 0.500000 0.693897
O O21 0.084968 0.781623 0.715518
O O22 0.250000 0.214289 0.753898
O O23 0.156767 0.500000 0.750054
#
# Coordination Sequence:
#
# PCOD9400385 Si02
#       8
#     8   8   8   8   8   8   8   8
#     4   8  15  29  48  68  91 123 159 188 223 278
#     4   9  18  34  55  75  95 124 165 208 243 280
#     4   9  18  31  48  71  93 117 155 194 226 268
#     4  10  21  34  49  72 100 130 161 195 244 301
#     4   8  15  31  52  68  87 120 158 193 229 268
#     4   9  18  33  51  70  94 125 163 205 242 280
#     4  10  19  30  46  69  99 128 149 182 233 280
#     4   9  18  32  49  69  93 124 160 192 230 284
#
# _framework density 20.601348999999999
#
# number of rings (size 3 to 8) (size 9 to 14) (size 15 to 20)
#    0.000    3.000    0.000    2.250    0.000    4.000 
#    0.000    3.125    0.000    3.000    0.000    0.000 
#    0.000    0.000    0.000    0.000    0.000    0.000 
#
# Total GULP energy -357034.179208 kJ/mol
# GULP energy per Si atom -5578.659050 kJ/mol
# Density = 2.055446 g / cm^3
# Si number density = 20.601349 Si / 1000 Ang^3
#
#
#
# Elastic Constant Matrix: (Units=GPa)
#
#
# Indices 1 2 3 4 5 6 
#
# 1 134.1507 -0.7002 99.2123 0.0000 0.0000 0.0000
# 2 -0.7002 49.7815 -6.0646 0.0000 0.0000 0.0000
# 3 99.2123 -6.0646 187.6528 0.0000 0.0000 0.0000
# 4 0.0000 0.0000 0.0000 -53.9898 0.0000 0.0000
# 5 0.0000 0.0000 0.0000 0.0000 -125.3125 0.0000
# 6 0.0000 0.0000 0.0000 0.0000 0.0000 -0.1675
#
#
#
# Elastic Compliance Matrix: (Units=1/GPa)
#
#
# Indices 1 2 3 4 5 6 
#
# 1 0.012259 -0.000620 -0.006502 0.000000 0.000000 0.000000
# 2 -0.000620 0.020198 0.000980 0.000000 0.000000 0.000000
# 3 -0.006502 0.000980 0.008798 0.000000 0.000000 0.000000
# 4 0.000000 0.000000 0.000000 -0.018522 0.000000 0.000000
# 5 0.000000 0.000000 0.000000 0.000000 -0.007980 0.000000
# 6 0.000000 0.000000 0.000000 0.000000 0.000000 -5.969711
#
#
# Mechanical properties :
#
#
# Convention : Reuss Voigt Hill
#
# Bulk Modulus (GPa) = 34.51335 61.83109 48.17222
# Shear Modulus (GPa) = -0.84274 -17.28481 -9.06377
#
# Velocity S-wave (km/s) = -0.64028 -2.89972 -2.09980
# Velocity P-wave (km/s) = 4.03022 4.34363 4.18986
#
# Compressibility (1/GPa) = 0.02897430
#
# Stress axis : x y z
#
# Youngs Moduli (GPa) = 81.57035 49.50866 113.66143
#
# Poissons Ratio (x) = 0.03068 0.73898
# Poissons Ratio (y) = 0.05054 -0.11143
# Poissons Ratio (z) = 0.53033 -0.04854
#
# Static dielectric constant tensor:
#      x y z
#    x 1.732250 0.000000 0.000000 
#    y 0.000000 1.782230 0.000000 
#    z 0.000000 0.000000 1.711400 
# 
# From -- ./inp_files/35621.got.cif
#   From: 2010.05.17/outbox.cif.g08.bks.cpg/sg51_18_cif.got.tgz:35621.got - 2010.06.03 11:52:47.
