data_PCOD9400817
_publ_section_title
;
Structure prediction by ZEFSAII (Michael W. Deem and Ramdas Pophale) SiO2 
 PCOD9400817
Probable space group: P M M A
;
_chemical_formula_sum "Si O2"
_cell_formula_units_Z 52
_cell_length_a 8.994728
_cell_length_b 18.518982
_cell_length_c 17.386401
_cell_angle_alpha 90.000000
_cell_angle_beta 90.000000
_cell_angle_gamma 90.000000
_cell_volume 2896.108554
_symmetry_space_group_name_H-M "P M M A"
_symmetry_group_IT_number 51
_symmetry_cell_setting 'orthorhombic'
loop_
_space_group_symop_operation_xyz
x,y,z
1/2-x,-y,z
1/2+x,-y,-z
-x,y,-z
-x,-y,-z
1/2+x,y,-z
1/2-x,y,z
x,-y,z
loop_
_atom_site_type_symbol
_atom_site_label
_atom_site_fract_x
_atom_site_fract_y
_atom_site_fract_z
Si Si1 0.928654 0.841236 0.084882
Si Si2 0.428502 0.000000 0.915305
Si Si3 0.079447 0.220761 0.361375
Si Si4 0.427514 0.638372 0.577880
Si Si5 0.426889 0.080872 0.584313
Si Si6 0.920530 0.279994 0.812119
Si Si7 0.071390 0.418062 0.747334
O O1 0.750000 0.836734 0.079886
O O2 0.991251 0.775353 0.134309
O O3 0.968175 0.921336 0.119063
O O4 0.000000 0.838053 0.000000
O O5 0.250000 0.000000 0.922727
O O6 0.500000 0.000000 0.000000
O O7 0.250000 0.217110 0.388841
O O8 0.079263 0.246672 0.273568
O O9 0.989997 0.280803 0.409209
O O10 0.000956 0.144020 0.367592
O O11 0.500000 0.608405 0.500000
O O12 0.250000 0.639084 0.570210
O O13 0.466172 0.597189 0.657309
O O14 0.500000 0.084673 0.500000
O O15 0.250000 0.091192 0.578449
O O16 0.454204 0.000000 0.614950
O O17 0.750000 0.286487 0.838257
O O18 0.994864 0.358160 0.800401
O O19 0.250000 0.410386 0.753246
O O20 0.030100 0.500000 0.766745
#
# Coordination Sequence:
#
# PCOD9400817 Si02
#       7
#     8   4   8   8   8   8   8
#     4  10  19  34  57  83 113 145 179 217 257 305
#     4   8  16  30  50  78 108 140 173 206 247 294
#     4  10  20  34  50  68  96 131 170 214 258 308
#     4  10  19  31  49  73 101 132 169 213 261 313
#     4  10  20  33  49  68  91 124 167 215 264 312
#     4  10  21  36  54  79 107 138 176 214 259 313
#     4   9  19  36  56  77 103 138 177 217 264 317
#
# _framework density 17.955127999999998
#
# number of rings (size 3 to 8) (size 9 to 14) (size 15 to 20)
#    0.000    2.308    0.000    2.769    0.000    4.615 
#    1.385    0.000    0.000    0.462    0.000    0.000 
#    0.000    0.000    0.000    0.000    0.000    0.000 
#
# Total GULP energy -290031.554303 kJ/mol
# GULP energy per Si atom -5577.529890 kJ/mol
# Density = 1.791426 g / cm^3
# Si number density = 17.955128 Si / 1000 Ang^3
#
#
#
# Elastic Constant Matrix: (Units=GPa)
#
#
# Indices 1 2 3 4 5 6 
#
# 1 76.6580 63.9882 25.3568 0.0000 0.0000 0.0000
# 2 63.9882 165.6327 39.4952 0.0000 0.0000 0.0000
# 3 25.3568 39.4952 40.7822 0.0000 0.0000 0.0000
# 4 0.0000 0.0000 0.0000 10.7596 0.0000 0.0000
# 5 0.0000 0.0000 0.0000 0.0000 27.5402 0.0000
# 6 0.0000 0.0000 0.0000 0.0000 0.0000 24.6234
#
#
#
# Elastic Compliance Matrix: (Units=1/GPa)
#
#
# Indices 1 2 3 4 5 6 
#
# 1 0.020540 -0.006358 -0.006613 0.000000 0.000000 0.000000
# 2 -0.006358 0.009818 -0.005555 0.000000 0.000000 0.000000
# 3 -0.006613 -0.005555 0.034013 0.000000 0.000000 0.000000
# 4 0.000000 0.000000 0.000000 0.092940 0.000000 0.000000
# 5 0.000000 0.000000 0.000000 0.000000 0.036311 0.000000
# 6 0.000000 0.000000 0.000000 0.000000 0.000000 0.040612
#
#
# Mechanical properties :
#
#
# Convention : Reuss Voigt Hill
#
# Bulk Modulus (GPa) = 36.60726 60.08371 48.34548
# Shear Modulus (GPa) = 17.83214 22.86683 20.34948
#
# Velocity S-wave (km/s) = 3.15485 3.57256 3.37018
# Velocity P-wave (km/s) = 5.80545 7.11010 6.49064
#
# Compressibility (1/GPa) = 0.02731699
#
# Stress axis : x y z
#
# Youngs Moduli (GPa) = 48.68610 101.84935 29.40094
#
# Poissons Ratio (x) = 0.64756 0.19444
# Poissons Ratio (y) = 0.30955 0.16333
# Poissons Ratio (z) = 0.32198 0.56581
#
# Static dielectric constant tensor:
#      x y z
#    x 1.604600 0.000000 0.000000 
#    y 0.000000 1.629800 0.000000 
#    z 0.000000 0.000000 1.607130 
# 
# From -- ./inp_files/27963.got.cif
#   From: 2010.05.17/outbox.cif.g08.bks.cpg/sg51_14_cif.got.tgz:27963.got - 2010.06.03 11:52:47.
