data_PCOD9400864
_publ_section_title
;
Structure prediction by ZEFSAII (Michael W. Deem and Ramdas Pophale) SiO2 
 PCOD9400864
Probable space group: P M M A
;
_chemical_formula_sum "Si O2"
_cell_formula_units_Z 48
_cell_length_a 23.441020
_cell_length_b 11.953847
_cell_length_c 8.204792
_cell_angle_alpha 90.000000
_cell_angle_beta 90.000000
_cell_angle_gamma 90.000000
_cell_volume 2299.067774
_symmetry_space_group_name_H-M "P M M A"
_symmetry_group_IT_number 51
_symmetry_cell_setting 'orthorhombic'
loop_
_space_group_symop_operation_xyz
x,y,z
1/2-x,-y,z
1/2+x,-y,-z
-x,y,-z
-x,-y,-z
1/2+x,y,-z
1/2-x,y,z
x,-y,z
loop_
_atom_site_type_symbol
_atom_site_label
_atom_site_fract_x
_atom_site_fract_y
_atom_site_fract_z
Si Si1 0.186712 0.876380 0.191550
Si Si2 0.458719 0.809066 0.634119
Si Si3 0.958944 0.628158 0.781301
Si Si4 0.904903 0.788386 0.048383
Si Si5 0.815223 0.372117 0.227711
Si Si6 0.358754 0.296854 0.439705
O O1 0.250000 0.867556 0.115474
O O2 0.179411 0.777697 0.321330
O O3 0.183083 0.000000 0.267960
O O4 0.134734 0.863583 0.066036
O O5 0.500000 0.865383 0.500000
O O6 0.490986 0.692540 0.683598
O O7 0.441398 0.852495 0.813246
O O8 0.400989 0.786418 0.536827
O O9 0.973606 0.500000 0.819490
O O10 0.902244 0.630729 0.668664
O O11 0.942258 0.706834 0.933697
O O12 0.860495 0.707238 0.141151
O O13 0.750000 0.341630 0.189123
O O14 0.824965 0.500000 0.176673
O O15 0.824914 0.362053 0.421822
#
# Coordination Sequence:
#
# PCOD9400864 Si02
#       6
#     8   8   8   8   8   8
#     4  10  21  39  62  83 104 137 183 235 286 328
#     4   9  19  33  51  74 106 142 175 213 260 314
#     4  10  19  31  52  81 112 148 188 225 266 322
#     4  10  20  34  53  78 111 142 181 230 275 320
#     4  10  19  31  49  76 112 150 181 213 267 337
#     4   9  19  34  53  77 110 142 179 226 272 321
#
# _framework density 20.878026999999999
#
# number of rings (size 3 to 8) (size 9 to 14) (size 15 to 20)
#    0.000    2.333    0.000    2.500    0.000    7.000 
#    0.000    3.333    0.000   48.000    0.000    0.000 
#    0.000    0.000    0.000    0.000    0.000    0.000 
#
# Total GULP energy -267615.483982 kJ/mol
# GULP energy per Si atom -5575.322583 kJ/mol
# Density = 2.083051 g / cm^3
# Si number density = 20.878027 Si / 1000 Ang^3
#
#
#
# Elastic Constant Matrix: (Units=GPa)
#
#
# Indices 1 2 3 4 5 6 
#
# 1 71.9035 12.5392 8.0009 0.0000 0.0000 0.0000
# 2 12.5392 52.5641 2.2587 0.0000 0.0000 0.0000
# 3 8.0009 2.2587 79.4367 0.0000 0.0000 0.0000
# 4 0.0000 0.0000 0.0000 2.9364 0.0000 0.0000
# 5 0.0000 0.0000 0.0000 0.0000 32.1676 0.0000
# 6 0.0000 0.0000 0.0000 0.0000 0.0000 -1.5070
#
#
#
# Elastic Compliance Matrix: (Units=1/GPa)
#
#
# Indices 1 2 3 4 5 6 
#
# 1 0.014661 -0.003438 -0.001379 0.000000 0.000000 0.000000
# 2 -0.003438 0.019854 -0.000218 0.000000 0.000000 0.000000
# 3 -0.001379 -0.000218 0.012734 0.000000 0.000000 0.000000
# 4 0.000000 0.000000 0.000000 0.340557 0.000000 0.000000
# 5 0.000000 0.000000 0.000000 0.000000 0.031087 0.000000
# 6 0.000000 0.000000 0.000000 0.000000 0.000000 -0.663567
#
#
# Mechanical properties :
#
#
# Convention : Reuss Voigt Hill
#
# Bulk Modulus (GPa) = 26.89771 27.72244 27.31008
# Shear Modulus (GPa) = -22.50097 18.79309 -1.85394
#
# Velocity S-wave (km/s) = -3.28645 3.00348 -0.94335
# Velocity P-wave (km/s) = 1.22056 5.03339 3.45291
#
# Compressibility (1/GPa) = 0.03717788
#
# Stress axis : x y z
#
# Youngs Moduli (GPa) = 68.21038 50.36789 78.53165
#
# Poissons Ratio (x) = 0.17317 0.10828
# Poissons Ratio (y) = 0.23451 0.01714
# Poissons Ratio (z) = 0.09405 0.01099
#
# Static dielectric constant tensor:
#      x y z
#    x 1.743250 0.000000 0.000000 
#    y 0.000000 1.696090 0.000000 
#    z 0.000000 0.000000 1.794110 
# 
# From -- ./inp_files/11677.got.cif
#   From: 2010.05.17/outbox.cif.g08.bks.cpg/sg51_6_cif.got.tgz:11677.got - 2010.06.03 11:52:47.
