data_PCOD9400967
_publ_section_title
;
Structure prediction by ZEFSAII (Michael W. Deem and Ramdas Pophale) SiO2 
 PCOD9400967
Probable space group: P M M A
;
_chemical_formula_sum "Si O2"
_cell_formula_units_Z 64
_cell_length_a 20.016367
_cell_length_b 7.747814
_cell_length_c 19.625527
_cell_angle_alpha 90.000000
_cell_angle_beta 90.000000
_cell_angle_gamma 90.000000
_cell_volume 3043.587340
_symmetry_space_group_name_H-M "P M M A"
_symmetry_group_IT_number 51
_symmetry_cell_setting 'orthorhombic'
loop_
_space_group_symop_operation_xyz
x,y,z
1/2-x,-y,z
1/2+x,-y,-z
-x,y,-z
-x,-y,-z
1/2+x,y,-z
1/2-x,y,z
x,-y,z
loop_
_atom_site_type_symbol
_atom_site_label
_atom_site_fract_x
_atom_site_fract_y
_atom_site_fract_z
Si Si1 0.459870 0.300721 0.434776
Si Si2 0.578449 0.793157 0.223838
Si Si3 0.444300 0.799647 0.282826
Si Si4 0.672904 0.790922 0.497200
Si Si5 0.826330 0.210557 0.342975
Si Si6 0.674803 0.704121 0.802744
Si Si7 0.915619 0.711131 0.927663
Si Si8 0.070160 0.292981 0.923104
O O1 0.500000 0.225814 0.500000
O O2 0.480091 0.500000 0.428076
O O3 0.467551 0.217033 0.360943
O O4 0.381864 0.286166 0.453341
O O5 0.503773 0.722572 0.236798
O O6 0.625819 0.726489 0.283653
O O7 0.603074 0.757552 0.147921
O O8 0.574791 0.000000 0.231910
O O9 0.372774 0.723661 0.263025
O O10 0.437575 0.000000 0.266687
O O11 0.750000 0.742373 0.509927
O O12 0.654876 0.738151 0.419722
O O13 0.669307 0.000000 0.501301
O O14 0.750000 0.263490 0.331231
O O15 0.827275 0.000000 0.342839
O O16 0.750000 0.775000 0.795752
O O17 0.681067 0.500000 0.814406
O O18 0.633069 0.773747 0.867909
O O19 0.915611 0.500000 0.925169
O O20 0.992788 0.767596 0.919057
O O21 0.898120 0.763914 0.005249
O O22 0.067890 0.500000 0.925736
#
# Coordination Sequence:
#
# PCOD9400967 Si02
#       8
#     8   8   8   8   8   8   8   8
#     4  11  24  39  56  81 111 142 177 223 276 326
#     4  10  19  31  50  79 107 134 172 216 259 305
#     4  11  23  37  55  79 108 141 178 222 270 322
#     4   9  18  35  59  81 101 135 181 222 265 321
#     4   8  15  30  52  75 101 134 169 205 251 313
#     4  10  20  36  58  80 106 143 186 231 274 320
#     4   8  15  30  51  75 100 133 176 214 258 312
#     4   9  16  29  52  75 101 136 172 213 258 310
#
# _framework density 21.027819000000001
#
# number of rings (size 3 to 8) (size 9 to 14) (size 15 to 20)
#    0.000    2.500    1.250    3.000    0.000    3.500 
#    0.000    3.125    0.000    1.875    0.000    0.000 
#    0.000    0.000    0.000    0.000    0.000    0.000 
#
# Total GULP energy -357052.283526 kJ/mol
# GULP energy per Si atom -5578.941930 kJ/mol
# Density = 2.097996 g / cm^3
# Si number density = 21.027819 Si / 1000 Ang^3
#
#
#
# Elastic Constant Matrix: (Units=GPa)
#
#
# Indices 1 2 3 4 5 6 
#
# 1 42.4352 3.5637 22.7365 0.0000 0.0000 0.0000
# 2 3.5637 29.9860 -4.8151 0.0000 0.0000 0.0000
# 3 22.7365 -4.8151 93.7049 0.0000 0.0000 0.0000
# 4 0.0000 0.0000 0.0000 22.6787 0.0000 0.0000
# 5 0.0000 0.0000 0.0000 0.0000 30.4243 0.0000
# 6 0.0000 0.0000 0.0000 0.0000 0.0000 48.9152
#
#
#
# Elastic Compliance Matrix: (Units=1/GPa)
#
#
# Indices 1 2 3 4 5 6 
#
# 1 0.027651 -0.004400 -0.006935 0.000000 0.000000 0.000000
# 2 -0.004400 0.034326 0.002831 0.000000 0.000000 0.000000
# 3 -0.006935 0.002831 0.012500 0.000000 0.000000 0.000000
# 4 0.000000 0.000000 0.000000 0.044094 0.000000 0.000000
# 5 0.000000 0.000000 0.000000 0.000000 0.032868 0.000000
# 6 0.000000 0.000000 0.000000 0.000000 0.000000 0.020444
#
#
# Mechanical properties :
#
#
# Convention : Reuss Voigt Hill
#
# Bulk Modulus (GPa) = 17.40037 23.23293 20.31665
# Shear Modulus (GPa) = 24.03298 30.04637 27.03967
#
# Velocity S-wave (km/s) = 3.38437 3.78416 3.58984
# Velocity P-wave (km/s) = 4.85436 5.49234 5.18318
#
# Compressibility (1/GPa) = 0.05747004
#
# Stress axis : x y z
#
# Youngs Moduli (GPa) = 36.16542 29.13206 79.99957
#
# Poissons Ratio (x) = 0.12818 0.55482
# Poissons Ratio (y) = 0.15912 -0.22652
# Poissons Ratio (z) = 0.25082 -0.08249
#
# Static dielectric constant tensor:
#      x y z
#    x 1.767550 0.000000 0.000000 
#    y 0.000000 1.772710 0.000000 
#    z 0.000000 0.000000 1.767090 
# 
# From -- ./inp_files/30613.got.cif
#   From: 2010.05.17/outbox.cif.g08.bks.cpg/sg51_16_cif.got.tgz:30613.got - 2010.06.03 11:52:47.
