data_PCOD9400905
_publ_section_title
;
Structure prediction by ZEFSAII (Michael W. Deem and Ramdas Pophale) SiO2 
 PCOD9400905
Probable space group: P M M A
;
_chemical_formula_sum "Si O2"
_cell_formula_units_Z 44
_cell_length_a 8.648642
_cell_length_b 29.871727
_cell_length_c 9.707637
_cell_angle_alpha 90.000000
_cell_angle_beta 90.000000
_cell_angle_gamma 90.000000
_cell_volume 2507.966784
_symmetry_space_group_name_H-M "P M M A"
_symmetry_group_IT_number 51
_symmetry_cell_setting 'orthorhombic'
loop_
_space_group_symop_operation_xyz
x,y,z
1/2-x,-y,z
1/2+x,-y,-z
-x,y,-z
-x,-y,-z
1/2+x,y,-z
1/2-x,y,z
x,-y,z
loop_
_atom_site_type_symbol
_atom_site_label
_atom_site_fract_x
_atom_site_fract_y
_atom_site_fract_z
Si Si1 0.935928 0.098017 0.155678
Si Si2 0.935515 0.367969 0.344964
Si Si3 0.563988 0.000000 0.155127
Si Si4 0.935150 0.275639 0.655777
Si Si5 0.063399 0.449643 0.846781
Si Si6 0.564650 0.823437 0.655286
O O1 0.750000 0.100112 0.151059
O O2 0.999374 0.137539 0.249716
O O3 0.982806 0.048531 0.213098
O O4 0.000000 0.101815 0.000000
O O5 0.750000 0.366948 0.351162
O O6 0.987169 0.410439 0.255464
O O7 0.000000 0.371744 0.500000
O O8 0.994114 0.320811 0.282244
O O9 0.750000 0.000000 0.150861
O O10 0.500000 0.000000 0.000000
O O11 0.750000 0.279759 0.652635
O O12 0.975850 0.226404 0.712086
O O13 0.000000 0.274805 0.500000
O O14 0.250000 0.448702 0.851717
O O15 0.016264 0.500000 0.803043
O O16 0.000000 0.442261 0.000000
O O17 0.500000 0.827288 0.500000
O O18 0.750000 0.826147 0.649274
#
# Coordination Sequence:
#
# PCOD9400905 Si02
#       6
#     8   8   4   8   8   8
#     4  10  19  33  53  76 102 131 165 206 248 294
#     4  10  19  31  50  75 100 126 160 201 241 284
#     4   8  16  30  49  72  97 128 164 200 244 294
#     4   9  17  30  49  71  97 128 162 199 241 290
#     4   9  19  35  52  71  97 129 163 198 239 288
#     4  10  20  34  52  75 101 132 168 205 248 297
#
# _framework density 17.544091000000002
#
# number of rings (size 3 to 8) (size 9 to 14) (size 15 to 20)
#    0.000    2.545    0.000    3.273    0.000    4.727 
#    0.000    1.364    0.000    2.182    0.000    0.000 
#    0.000    0.000    0.000    0.000    0.000    0.000 
#
# Total GULP energy -245113.266595 kJ/mol
# GULP energy per Si atom -5570.756059 kJ/mol
# Density = 1.750416 g / cm^3
# Si number density = 17.544091 Si / 1000 Ang^3
#
#
#
# Elastic Constant Matrix: (Units=GPa)
#
#
# Indices 1 2 3 4 5 6 
#
# 1 47.0160 53.6329 21.2763 0.0000 0.0000 0.0000
# 2 53.6329 226.1121 79.2705 0.0000 0.0000 0.0000
# 3 21.2763 79.2705 51.2536 0.0000 0.0000 0.0000
# 4 0.0000 0.0000 0.0000 48.9546 0.0000 0.0000
# 5 0.0000 0.0000 0.0000 0.0000 25.9131 0.0000
# 6 0.0000 0.0000 0.0000 0.0000 0.0000 34.4631
#
#
#
# Elastic Compliance Matrix: (Units=1/GPa)
#
#
# Indices 1 2 3 4 5 6 
#
# 1 0.029383 -0.005883 -0.003098 0.000000 0.000000 0.000000
# 2 -0.005883 0.010839 -0.014322 0.000000 0.000000 0.000000
# 3 -0.003098 -0.014322 0.042947 0.000000 0.000000 0.000000
# 4 0.000000 0.000000 0.000000 0.020427 0.000000 0.000000
# 5 0.000000 0.000000 0.000000 0.000000 0.038590 0.000000
# 6 0.000000 0.000000 0.000000 0.000000 0.000000 0.029017
#
#
# Mechanical properties :
#
#
# Convention : Reuss Voigt Hill
#
# Bulk Modulus (GPa) = 27.34998 70.30457 48.82727
# Shear Modulus (GPa) = 21.73950 33.21297 27.47624
#
# Velocity S-wave (km/s) = 3.52395 4.35571 3.96172
# Velocity P-wave (km/s) = 5.67281 8.09051 6.98703
#
# Compressibility (1/GPa) = 0.03656310
#
# Stress axis : x y z
#
# Youngs Moduli (GPa) = 34.03373 92.25937 23.28448
#
# Poissons Ratio (x) = 0.54280 0.07213
# Poissons Ratio (y) = 0.20024 0.33347
# Poissons Ratio (z) = 0.10543 1.32131
#
# Static dielectric constant tensor:
#      x y z
#    x 1.591090 0.000000 0.000000 
#    y 0.000000 1.660280 0.000000 
#    z 0.000000 0.000000 1.546690 
# 
# From -- ./inp_files/5798.got.cif
#   From: 2010.05.17/outbox.cif.g08.bks.cpg/sg51_3_cif.got.tgz:5798.got - 2010.06.03 11:52:47.
