data_PCOD9400899
_publ_section_title
;
Structure prediction by ZEFSAII (Michael W. Deem and Ramdas Pophale) SiO2 
 PCOD9400899
Probable space group: P M M A
;
_chemical_formula_sum "Si O2"
_cell_formula_units_Z 40
_cell_length_a 27.445383
_cell_length_b 8.633468
_cell_length_c 9.342976
_cell_angle_alpha 90.000000
_cell_angle_beta 90.000000
_cell_angle_gamma 90.000000
_cell_volume 2213.807287
_symmetry_space_group_name_H-M "P M M A"
_symmetry_group_IT_number 51
_symmetry_cell_setting 'orthorhombic'
loop_
_space_group_symop_operation_xyz
x,y,z
1/2-x,-y,z
1/2+x,-y,-z
-x,y,-z
-x,-y,-z
1/2+x,y,-z
1/2-x,y,z
x,-y,z
loop_
_atom_site_type_symbol
_atom_site_label
_atom_site_fract_x
_atom_site_fract_y
_atom_site_fract_z
Si Si1 0.303281 0.316890 0.832284
Si Si2 0.500104 0.812828 0.335294
Si Si3 0.408071 0.313678 0.164597
Si Si4 0.302266 0.684086 0.178939
Si Si5 0.594678 0.184928 0.156632
O O1 0.250000 0.261305 0.780749
O O2 0.306845 0.500000 0.801537
O O3 0.352413 0.234019 0.783725
O O4 0.302653 0.301615 0.005712
O O5 0.500000 0.763044 0.500000
O O6 0.453447 0.748053 0.252972
O O7 0.550002 0.765603 0.256689
O O8 0.497838 0.000000 0.331006
O O9 0.407509 0.500000 0.165854
O O10 0.355342 0.256254 0.224381
O O11 0.411885 0.258857 0.000232
O O12 0.250000 0.749689 0.229588
O O13 0.301485 0.500000 0.210387
O O14 0.593484 0.000000 0.141163
#
# Coordination Sequence:
#
# PCOD9400899 Si02
#       5
#     8   8   8   8   8
#     4   8  14  26  45  70 100 129 155 191 240 286
#     4  10  22  38  51  65  93 132 168 205 250 294
#     4  10  19  31  51  77 100 125 160 202 246 292
#     4   7  11  22  41  66  95 122 146 178 226 279
#     4  10  19  31  50  74  98 128 165 201 240 289
#
# _framework density 18.068418999999999
#
# number of rings (size 3 to 8) (size 9 to 14) (size 15 to 20)
#    0.000    3.000    0.000    4.200    0.000    4.800 
#    0.000    0.000    0.000    3.000    0.000    5.600 
#    0.000    0.000    0.000    0.000    0.000    0.000 
#
# Total GULP energy -222702.873452 kJ/mol
# GULP energy per Si atom -5567.571836 kJ/mol
# Density = 1.802729 g / cm^3
# Si number density = 18.068419 Si / 1000 Ang^3
#
#
#
# Elastic Constant Matrix: (Units=GPa)
#
#
# Indices 1 2 3 4 5 6 
#
# 1 233.6941 35.1400 71.4068 0.0000 0.0000 0.0000
# 2 35.1400 13.2504 14.5181 0.0000 0.0000 0.0000
# 3 71.4068 14.5181 54.8696 0.0000 0.0000 0.0000
# 4 0.0000 0.0000 0.0000 -10.9622 0.0000 0.0000
# 5 0.0000 0.0000 0.0000 0.0000 -4.9210 0.0000
# 6 0.0000 0.0000 0.0000 0.0000 0.0000 17.0104
#
#
#
# Elastic Compliance Matrix: (Units=1/GPa)
#
#
# Indices 1 2 3 4 5 6 
#
# 1 0.008872 -0.015319 -0.007493 0.000000 0.000000 0.000000
# 2 -0.015319 0.132731 -0.015184 0.000000 0.000000 0.000000
# 3 -0.007493 -0.015184 0.031993 0.000000 0.000000 0.000000
# 4 0.000000 0.000000 0.000000 -0.091223 0.000000 0.000000
# 5 0.000000 0.000000 0.000000 0.000000 -0.203212 0.000000
# 6 0.000000 0.000000 0.000000 0.000000 0.000000 0.058787
#
#
# Mechanical properties :
#
#
# Convention : Reuss Voigt Hill
#
# Bulk Modulus (GPa) = 10.24527 60.43822 35.34175
# Shear Modulus (GPa) = 107.58268 12.27540 59.92904
#
# Velocity S-wave (km/s) = 7.72471 2.60933 5.76540
# Velocity P-wave (km/s) = 9.23277 6.52690 7.99514
#
# Compressibility (1/GPa) = 0.09760601
#
# Stress axis : x y z
#
# Youngs Moduli (GPa) = 112.71398 7.53402 31.25649
#
# Poissons Ratio (x) = 0.11541 0.23419
# Poissons Ratio (y) = 1.72667 0.47459
# Poissons Ratio (z) = 0.84453 0.11439
#
# Static dielectric constant tensor:
#      x y z
#    x 1.681850 0.000000 0.000000 
#    y 0.000000 1.611640 0.000000 
#    z 0.000000 0.000000 1.581520 
# 
# From -- ./inp_files/12112.got.cif
#   From: 2010.05.17/outbox.cif.g08.bks.cpg/sg51_7_cif.got.tgz:12112.got - 2010.06.03 11:52:47.
