data_PCOD9400068
_publ_section_title
;
Structure prediction by ZEFSAII (Michael W. Deem and Ramdas Pophale) SiO2 
 PCOD9400068
Probable space group: P M M A
;
_chemical_formula_sum "Si O2"
_cell_formula_units_Z 64
_cell_length_a 14.270288
_cell_length_b 9.130784
_cell_length_c 32.225400
_cell_angle_alpha 90.000000
_cell_angle_beta 90.000000
_cell_angle_gamma 90.000000
_cell_volume 4198.934731
_symmetry_space_group_name_H-M "P M M A"
_symmetry_group_IT_number 51
_symmetry_cell_setting 'orthorhombic'
loop_
_space_group_symop_operation_xyz
x,y,z
1/2-x,-y,z
1/2+x,-y,-z
-x,y,-z
-x,-y,-z
1/2+x,y,-z
1/2-x,y,z
x,-y,z
loop_
_atom_site_type_symbol
_atom_site_label
_atom_site_fract_x
_atom_site_fract_y
_atom_site_fract_z
Si Si1 0.860316 0.675564 0.186275
Si Si2 0.358733 0.175979 0.066065
Si Si3 0.355615 0.822322 0.479553
Si Si4 0.362791 0.169753 0.971070
Si Si5 0.030758 0.325053 0.897101
Si Si6 0.861449 0.674634 0.356281
Si Si7 0.136205 0.831530 0.728942
Si Si8 0.042987 0.177099 0.565405
O O1 0.750000 0.709397 0.179388
O O2 0.867214 0.500000 0.191864
O O3 0.919041 0.718207 0.145797
O O4 0.892684 0.755194 0.228172
O O5 0.250000 0.215732 0.072118
O O6 0.429050 0.254428 0.096956
O O7 0.365788 0.000000 0.069395
O O8 0.385824 0.213597 0.018372
O O9 0.250000 0.769084 0.471922
O O10 0.392046 0.784353 0.525688
O O11 0.437162 0.778691 0.447462
O O12 0.353719 0.000000 0.478394
O O13 0.250000 0.174462 0.967877
O O14 0.408590 0.267110 0.935824
O O15 0.392241 0.000000 0.965387
O O16 0.025391 0.500000 0.898337
O O17 0.750000 0.705670 0.361871
O O18 0.873082 0.500000 0.355641
O O19 0.891253 0.743468 0.312237
O O20 0.918146 0.746861 0.393766
O O21 0.250000 0.830095 0.729429
O O22 0.105540 0.000000 0.726863
O O23 0.045760 0.000000 0.569974
#
# Coordination Sequence:
#
# PCOD9400068 Si02
#       8
#     8   8   8   8   8   8   8   8
#     4   9  18  32  46  63  93 125 145 167 209 265
#     4   9  19  35  50  63  84 117 155 192 226 258
#     4   8  14  25  41  62  89 119 150 187 229 263
#     4   9  18  32  48  65  88 120 154 185 218 258
#     4  11  21  30  45  70  95 119 147 180 221 267
#     4  10  19  29  42  62  90 121 147 176 220 266
#     4   9  17  29  46  67  88 112 145 181 213 252
#     4   9  16  26  43  65  86 114 154 192 221 256
#
# _framework density 15.241961
#
# number of rings (size 3 to 8) (size 9 to 14) (size 15 to 20)
#    0.000    2.750    0.000    3.750    0.000    6.750 
#    0.000    3.750    0.000    1.125    0.000    0.875 
#    0.000    5.000    0.000    0.000    0.000    0.000 
#
# Total GULP energy -356760.331162 kJ/mol
# GULP energy per Si atom -5574.380174 kJ/mol
# Density = 1.520727 g / cm^3
# Si number density = 15.241961 Si / 1000 Ang^3
#
#
#
# Elastic Constant Matrix: (Units=GPa)
#
#
# Indices 1 2 3 4 5 6 
#
# 1 87.6039 38.2298 72.2275 0.0000 0.0000 0.0000
# 2 38.2298 43.4649 60.9776 0.0000 0.0000 0.0000
# 3 72.2275 60.9776 143.3406 0.0000 0.0000 0.0000
# 4 0.0000 0.0000 0.0000 32.3283 0.0000 0.0000
# 5 0.0000 0.0000 0.0000 0.0000 25.1140 0.0000
# 6 0.0000 0.0000 0.0000 0.0000 0.0000 17.9700
#
#
#
# Elastic Compliance Matrix: (Units=1/GPa)
#
#
# Indices 1 2 3 4 5 6 
#
# 1 0.020835 -0.008921 -0.006703 0.000000 0.000000 0.000000
# 2 -0.008921 0.060882 -0.021404 0.000000 0.000000 0.000000
# 3 -0.006703 -0.021404 0.019459 0.000000 0.000000 0.000000
# 4 0.000000 0.000000 0.000000 0.030933 0.000000 0.000000
# 5 0.000000 0.000000 0.000000 0.000000 0.039818 0.000000
# 6 0.000000 0.000000 0.000000 0.000000 0.000000 0.055648
#
#
# Mechanical properties :
#
#
# Convention : Reuss Voigt Hill
#
# Bulk Modulus (GPa) = 36.87452 68.58657 52.73055
# Shear Modulus (GPa) = 16.09410 21.94743 19.02077
#
# Velocity S-wave (km/s) = 3.25300 3.79876 3.53643
# Velocity P-wave (km/s) = 6.19311 8.02104 7.16560
#
# Compressibility (1/GPa) = 0.02711900
#
# Stress axis : x y z
#
# Youngs Moduli (GPa) = 47.99621 16.42521 51.38893
#
# Poissons Ratio (x) = 0.14654 0.34447
# Poissons Ratio (y) = 0.42819 1.09993
# Poissons Ratio (z) = 0.32173 0.35157
#
# Static dielectric constant tensor:
#      x y z
#    x 1.512640 0.000000 0.000000 
#    y 0.000000 1.504480 0.000000 
#    z 0.000000 0.000000 1.485310 
# 
# From -- ./inp_files/37791.got.cif
#   From: 2010.05.17/outbox.cif.g08.bks.cpg/sg51_19_cif.got.tgz:37791.got - 2010.06.03 11:52:47.
