data_PCOD9400042
_publ_section_title
;
Structure prediction by ZEFSAII (Michael W. Deem and Ramdas Pophale) SiO2 
 PCOD9400042
Probable space group: P M M A
;
_chemical_formula_sum "Si O2"
_cell_formula_units_Z 44
_cell_length_a 9.174525
_cell_length_b 12.490338
_cell_length_c 25.768953
_cell_angle_alpha 90.000000
_cell_angle_beta 90.000000
_cell_angle_gamma 90.000000
_cell_volume 2952.939524
_symmetry_space_group_name_H-M "P M M A"
_symmetry_group_IT_number 51
_symmetry_cell_setting 'orthorhombic'
loop_
_space_group_symop_operation_xyz
x,y,z
1/2-x,-y,z
1/2+x,-y,-z
-x,y,-z
-x,-y,-z
1/2+x,y,-z
1/2-x,y,z
x,-y,z
loop_
_atom_site_type_symbol
_atom_site_label
_atom_site_fract_x
_atom_site_fract_y
_atom_site_fract_z
Si Si1 0.924827 0.706407 0.626070
Si Si2 0.580087 0.369820 0.834011
Si Si3 0.921356 0.128029 0.445830
Si Si4 0.076907 0.371286 0.051551
Si Si5 0.076101 0.500000 0.444455
Si Si6 0.078503 0.370855 0.729098
O O1 0.750000 0.716834 0.628108
O O2 0.961110 0.604803 0.589214
O O3 0.999245 0.808607 0.599795
O O4 0.989565 0.682296 0.682535
O O5 0.750000 0.339768 0.826910
O O6 0.576980 0.500000 0.835199
O O7 0.529515 0.332628 0.891218
O O8 0.484166 0.336761 0.785061
O O9 0.750000 0.155456 0.448368
O O10 0.000000 0.156533 0.500000
O O11 0.933888 0.000000 0.439175
O O12 0.250000 0.354558 0.047880
O O13 0.052852 0.500000 0.051808
O O14 0.000000 0.327946 0.000000
O O15 0.250000 0.500000 0.452246
O O16 0.000000 0.500000 0.500000
O O17 0.250000 0.347804 0.724867
O O18 0.059815 0.500000 0.725084
#
# Coordination Sequence:
#
# PCOD9400042 Si02
#       6
#     8   8   8   8   4   8
#     4  11  21  34  50  68  91 119 149 179 218 264
#     4   8  14  24  36  49  70 102 137 174 215 258
#     4  10  21  37  55  74  94 115 143 179 218 261
#     4   8  13  20  30  45  65  92 128 171 216 254
#     4  10  22  34  46  66  90 116 141 172 213 256
#     4  10  19  29  42  61  84 112 145 181 219 260
#
# _framework density 14.900407
#
# number of rings (size 3 to 8) (size 9 to 14) (size 15 to 20)
#    0.000    2.545    0.909    3.273    0.000    5.455 
#    0.000    3.636    0.000    0.000    0.000    0.000 
#    0.000    0.000    0.000    0.000    0.000    0.909 
#
# Total GULP energy -245172.024979 kJ/mol
# GULP energy per Si atom -5572.091477 kJ/mol
# Density = 1.486649 g / cm^3
# Si number density = 14.900407 Si / 1000 Ang^3
#
#
#
# Elastic Constant Matrix: (Units=GPa)
#
#
# Indices 1 2 3 4 5 6 
#
# 1 75.1378 26.2661 70.7107 0.0000 0.0000 0.0000
# 2 26.2661 18.4555 27.4511 0.0000 0.0000 0.0000
# 3 70.7107 27.4511 159.0093 0.0000 0.0000 0.0000
# 4 0.0000 0.0000 0.0000 9.7655 0.0000 0.0000
# 5 0.0000 0.0000 0.0000 0.0000 32.2369 0.0000
# 6 0.0000 0.0000 0.0000 0.0000 0.0000 14.5927
#
#
#
# Elastic Compliance Matrix: (Units=1/GPa)
#
#
# Indices 1 2 3 4 5 6 
#
# 1 0.034149 -0.035001 -0.009143 0.000000 0.000000 0.000000
# 2 -0.035001 0.108781 -0.003215 0.000000 0.000000 0.000000
# 3 -0.009143 -0.003215 0.010910 0.000000 0.000000 0.000000
# 4 0.000000 0.000000 0.000000 0.102401 0.000000 0.000000
# 5 0.000000 0.000000 0.000000 0.000000 0.031020 0.000000
# 6 0.000000 0.000000 0.000000 0.000000 0.000000 0.068527
#
#
# Mechanical properties :
#
#
# Convention : Reuss Voigt Hill
#
# Bulk Modulus (GPa) = 16.91455 55.71758 36.31607
# Shear Modulus (GPa) = 10.63346 19.86401 15.24873
#
# Velocity S-wave (km/s) = 2.67429 3.65515 3.20250
# Velocity P-wave (km/s) = 4.57298 7.43559 6.17253
#
# Compressibility (1/GPa) = 0.05912069
#
# Stress axis : x y z
#
# Youngs Moduli (GPa) = 29.28353 9.19282 91.65974
#
# Poissons Ratio (x) = 0.32176 0.83807
# Poissons Ratio (y) = 1.02496 0.29467
# Poissons Ratio (z) = 0.26775 0.02955
#
# Static dielectric constant tensor:
#      x y z
#    x 1.493400 0.000000 0.000000 
#    y 0.000000 1.472220 0.000000 
#    z 0.000000 0.000000 1.508010 
# 
# From -- ./inp_files/34475.got.cif
#   From: 2010.05.17/outbox.cif.g08.bks.cpg/sg51_18_cif.got.tgz:34475.got - 2010.06.03 11:52:47.
