data_PCOD9400266
_publ_section_title
;
Structure prediction by ZEFSAII (Michael W. Deem and Ramdas Pophale) SiO2 
 PCOD9400266
Probable space group: P M M A
;
_chemical_formula_sum "Si O2"
_cell_formula_units_Z 64
_cell_length_a 29.407430
_cell_length_b 7.804681
_cell_length_c 14.327597
_cell_angle_alpha 90.000000
_cell_angle_beta 90.000000
_cell_angle_gamma 90.000000
_cell_volume 3288.407168
_symmetry_space_group_name_H-M "P M M A"
_symmetry_group_IT_number 51
_symmetry_cell_setting 'orthorhombic'
loop_
_space_group_symop_operation_xyz
x,y,z
1/2-x,-y,z
1/2+x,-y,-z
-x,y,-z
-x,-y,-z
1/2+x,y,-z
1/2-x,y,z
x,-y,z
loop_
_atom_site_type_symbol
_atom_site_label
_atom_site_fract_x
_atom_site_fract_y
_atom_site_fract_z
Si Si1 0.566574 0.291827 0.278482
Si Si2 0.699619 0.200972 0.767155
Si Si3 0.018412 0.290330 0.397551
Si Si4 0.801016 0.298987 0.978282
Si Si5 0.198785 0.794126 0.737646
Si Si6 0.642812 0.800033 0.430609
Si Si7 0.625957 0.305960 0.116771
Si Si8 0.119793 0.694096 0.368869
O O1 0.568811 0.500000 0.276618
O O2 0.517257 0.242285 0.316974
O O3 0.601542 0.230074 0.358269
O O4 0.583629 0.230347 0.176280
O O5 0.750000 0.255142 0.731387
O O6 0.692465 0.287744 0.867412
O O7 0.658671 0.228269 0.695854
O O8 0.701807 0.000000 0.787058
O O9 0.020031 0.500000 0.401904
O O10 0.069122 0.227462 0.374468
O O11 0.000000 0.235324 0.500000
O O12 0.750000 0.227198 0.999428
O O13 0.799654 0.500000 0.004570
O O14 0.844926 0.223913 0.032370
O O15 0.250000 0.752512 0.761336
O O16 0.186935 0.756697 0.630439
O O17 0.164364 0.694540 0.802854
O O18 0.191511 0.000000 0.750254
O O19 0.636426 0.697195 0.524441
O O20 0.644213 0.000000 0.456081
O O21 0.612965 0.500000 0.089161
O O22 0.114244 0.500000 0.335466
#
# Coordination Sequence:
#
# PCOD9400266 Si02
#       8
#     8   8   8   8   8   8   8   8
#     4   9  16  30  49  71 101 135 169 205 251 300
#     4  10  22  39  56  75 100 129 164 208 255 303
#     4   9  16  29  51  76 102 134 172 212 250 290
#     4   9  17  31  51  75 101 127 160 205 254 302
#     4   9  18  30  42  60  92 132 166 196 237 294
#     4  10  19  30  44  66  97 132 170 209 250 296
#     4   9  17  28  48  75 100 126 160 205 251 294
#     4  11  21  34  54  76  99 131 171 212 254 299
#
# _framework density 19.462309000000001
#
# number of rings (size 3 to 8) (size 9 to 14) (size 15 to 20)
#    0.000    2.500    1.250    1.500    0.000    3.000 
#    0.000    4.375    0.000    0.750    0.000    5.250 
#    0.000    0.000    0.000    0.000    0.000    0.000 
#
# Total GULP energy -356497.670317 kJ/mol
# GULP energy per Si atom -5570.276099 kJ/mol
# Density = 1.941801 g / cm^3
# Si number density = 19.462309 Si / 1000 Ang^3
#
#
#
# Elastic Constant Matrix: (Units=GPa)
#
#
# Indices 1 2 3 4 5 6 
#
# 1 95.5588 8.1958 49.5352 0.0000 0.0000 0.0000
# 2 8.1958 26.3143 0.5198 0.0000 0.0000 0.0000
# 3 49.5352 0.5198 74.6091 0.0000 0.0000 0.0000
# 4 0.0000 0.0000 0.0000 72.3769 0.0000 0.0000
# 5 0.0000 0.0000 0.0000 0.0000 29.5809 0.0000
# 6 0.0000 0.0000 0.0000 0.0000 0.0000 9.8557
#
#
#
# Elastic Compliance Matrix: (Units=1/GPa)
#
#
# Indices 1 2 3 4 5 6 
#
# 1 0.016576 -0.004946 -0.010971 0.000000 0.000000 0.000000
# 2 -0.004946 0.039483 0.003009 0.000000 0.000000 0.000000
# 3 -0.010971 0.003009 0.020666 0.000000 0.000000 0.000000
# 4 0.000000 0.000000 0.000000 0.013817 0.000000 0.000000
# 5 0.000000 0.000000 0.000000 0.000000 0.033806 0.000000
# 6 0.000000 0.000000 0.000000 0.000000 0.000000 0.101464
#
#
# Mechanical properties :
#
#
# Convention : Reuss Voigt Hill
#
# Bulk Modulus (GPa) = 19.64288 34.77598 27.20943
# Shear Modulus (GPa) = 18.61523 31.57812 25.09667
#
# Velocity S-wave (km/s) = 3.09605 4.03243 3.59486
# Velocity P-wave (km/s) = 4.78491 6.29189 5.58942
#
# Compressibility (1/GPa) = 0.05090904
#
# Stress axis : x y z
#
# Youngs Moduli (GPa) = 60.32834 25.32725 48.38841
#
# Poissons Ratio (x) = 0.12527 0.53086
# Poissons Ratio (y) = 0.29838 -0.14559
# Poissons Ratio (z) = 0.66185 -0.07620
#
# Static dielectric constant tensor:
#      x y z
#    x 1.716000 0.000000 0.000000 
#    y 0.000000 1.613860 0.000000 
#    z 0.000000 0.000000 1.670860 
# 
# From -- ./inp_files/26582.got.cif
#   From: 2010.05.17/outbox.cif.g08.bks.cpg/sg51_14_cif.got.tgz:26582.got - 2010.06.03 11:52:47.
