data_PCOD9400175
_publ_section_title
;
Structure prediction by ZEFSAII (Michael W. Deem and Ramdas Pophale) SiO2 
 PCOD9400175
Probable space group: P M M A
;
_chemical_formula_sum "Si O2"
_cell_formula_units_Z 56
_cell_length_a 14.308884
_cell_length_b 15.589737
_cell_length_c 12.113828
_cell_angle_alpha 90.000000
_cell_angle_beta 90.000000
_cell_angle_gamma 90.000000
_cell_volume 2702.252670
_symmetry_space_group_name_H-M "P M M A"
_symmetry_group_IT_number 51
_symmetry_cell_setting 'orthorhombic'
loop_
_space_group_symop_operation_xyz
x,y,z
1/2-x,-y,z
1/2+x,-y,-z
-x,y,-z
-x,-y,-z
1/2+x,y,-z
1/2-x,y,z
x,-y,z
loop_
_atom_site_type_symbol
_atom_site_label
_atom_site_fract_x
_atom_site_fract_y
_atom_site_fract_z
Si Si1 0.387719 0.591351 0.996056
Si Si2 0.149382 0.374008 0.746454
Si Si3 0.463475 0.403335 0.379378
Si Si4 0.638088 0.760330 0.721340
Si Si5 0.139860 0.171590 0.791470
Si Si6 0.355612 0.786155 0.039575
Si Si7 0.981532 0.095838 0.630610
O O1 0.360915 0.500000 0.049208
O O2 0.354678 0.591892 0.870470
O O3 0.500000 0.596199 0.000000
O O4 0.352188 0.682141 0.037599
O O5 0.250000 0.395201 0.695779
O O6 0.140774 0.271070 0.753928
O O7 0.059353 0.408361 0.687429
O O8 0.500000 0.375282 0.500000
O O9 0.422281 0.500000 0.386398
O O10 0.401373 0.331586 0.318534
O O11 0.750000 0.756240 0.725198
O O12 0.599864 0.795337 0.840172
O O13 0.598349 0.832919 0.642235
O O14 0.250000 0.142963 0.788186
O O15 0.070794 0.122593 0.707620
O O16 0.108665 0.177867 0.921948
O O17 0.250000 0.819806 0.045527
O O18 0.000000 0.093278 0.500000
O O19 0.952476 0.000000 0.665679
#
# Coordination Sequence:
#
# PCOD9400175 Si02
#       7
#     8   8   8   8   8   8   8
#     4  10  19  29  47  79 117 158 205 256 307 360
#     4  10  20  35  58  86 120 162 210 263 319 373
#     4  11  24  41  60  88 128 174 228 278 322 379
#     4  11  24  43  65  90 130 174 214 264 325 385
#     4   9  19  38  65  95 127 163 206 258 320 384
#     4   9  20  36  56  86 121 164 211 258 309 377
#     4  11  25  45  69  98 127 159 207 263 324 393
#
# _framework density 20.72345
#
# number of rings (size 3 to 8) (size 9 to 14) (size 15 to 20)
#    0.000    1.857    1.429    3.000    2.000    5.714 
#    0.000    5.714    0.000    2.571    0.000    0.000 
#    0.000    0.000    0.000    0.000    0.000    0.000 
#
# Total GULP energy -312033.594426 kJ/mol
# GULP energy per Si atom -5572.028472 kJ/mol
# Density = 2.067628 g / cm^3
# Si number density = 20.723450 Si / 1000 Ang^3
#
#
#
# Elastic Constant Matrix: (Units=GPa)
#
#
# Indices 1 2 3 4 5 6 
#
# 1 112.1657 32.1206 27.8298 0.0000 0.0000 0.0000
# 2 32.1206 75.9932 18.7383 0.0000 0.0000 0.0000
# 3 27.8298 18.7383 89.2236 0.0000 0.0000 0.0000
# 4 0.0000 0.0000 0.0000 1.8812 0.0000 0.0000
# 5 0.0000 0.0000 0.0000 0.0000 4.6471 0.0000
# 6 0.0000 0.0000 0.0000 0.0000 0.0000 -3.8998
#
#
#
# Elastic Compliance Matrix: (Units=1/GPa)
#
#
# Indices 1 2 3 4 5 6 
#
# 1 0.010649 -0.003883 -0.002506 0.000000 0.000000 0.000000
# 2 -0.003883 0.015294 -0.002001 0.000000 0.000000 0.000000
# 3 -0.002506 -0.002001 0.012410 0.000000 0.000000 0.000000
# 4 0.000000 0.000000 0.000000 0.531569 0.000000 0.000000
# 5 0.000000 0.000000 0.000000 0.000000 0.215187 0.000000
# 6 0.000000 0.000000 0.000000 0.000000 0.000000 -0.256421
#
#
# Mechanical properties :
#
#
# Convention : Reuss Voigt Hill
#
# Bulk Modulus (GPa) = 46.35508 48.30665 47.33087
# Shear Modulus (GPa) = 9.04719 13.77196 11.40957
#
# Velocity S-wave (km/s) = 2.09169 2.58070 2.34895
# Velocity P-wave (km/s) = 5.31512 5.67810 5.49960
#
# Compressibility (1/GPa) = 0.02157261
#
# Stress axis : x y z
#
# Youngs Moduli (GPa) = 93.90375 65.38621 80.58247
#
# Poissons Ratio (x) = 0.25391 0.20195
# Poissons Ratio (y) = 0.36465 0.16122
# Poissons Ratio (z) = 0.23533 0.13082
#
# Static dielectric constant tensor:
#      x y z
#    x 1.778410 0.000000 0.000000 
#    y 0.000000 1.760670 0.000000 
#    z 0.000000 0.000000 1.879080 
# 
# From -- ./inp_files/16622.got.cif
#   From: 2010.05.17/outbox.cif.g08.bks.cpg/sg51_9_cif.got.tgz:16622.got - 2010.06.03 11:52:47.
