data_PCOD9400177
_publ_section_title
;
Structure prediction by ZEFSAII (Michael W. Deem and Ramdas Pophale) SiO2 
 PCOD9400177
Probable space group: P M M A
;
_chemical_formula_sum "Si O2"
_cell_formula_units_Z 44
_cell_length_a 7.644538
_cell_length_b 16.584347
_cell_length_c 16.843042
_cell_angle_alpha 90.000000
_cell_angle_beta 90.000000
_cell_angle_gamma 90.000000
_cell_volume 2135.355321
_symmetry_space_group_name_H-M "P M M A"
_symmetry_group_IT_number 51
_symmetry_cell_setting 'orthorhombic'
loop_
_space_group_symop_operation_xyz
x,y,z
1/2-x,-y,z
1/2+x,-y,-z
-x,y,-z
-x,-y,-z
1/2+x,y,-z
1/2-x,y,z
x,-y,z
loop_
_atom_site_type_symbol
_atom_site_label
_atom_site_fract_x
_atom_site_fract_y
_atom_site_fract_z
Si Si1 0.043456 0.000000 0.678670
Si Si2 0.457299 0.825643 0.889580
Si Si3 0.000000 0.689524 0.000000
Si Si4 0.463352 0.406662 0.148732
Si Si5 0.536037 0.000000 0.139750
Si Si6 0.961269 0.734746 0.736017
Si Si7 0.456076 0.832637 0.407734
O O1 0.971320 0.000000 0.768746
O O2 0.998471 0.080278 0.629787
O O3 0.250000 0.000000 0.688424
O O4 0.250000 0.816146 0.908735
O O5 0.516723 0.916842 0.901419
O O6 0.478709 0.803741 0.797384
O O7 0.563714 0.758442 0.937459
O O8 0.054852 0.627091 0.930994
O O9 0.250000 0.400046 0.135765
O O10 0.502773 0.500000 0.162182
O O11 0.513972 0.349322 0.222562
O O12 0.750000 0.000000 0.140565
O O13 0.750000 0.733285 0.735277
O O14 0.028572 0.762293 0.650013
O O15 0.500000 0.827953 0.500000
O O16 0.250000 0.824669 0.403211
#
# Coordination Sequence:
#
# PCOD9400177 Si02
#       7
#     4   8   4   8   4   8   8
#     4  11  20  34  54  76 104 136 176 216 254 296
#     4  10  19  33  51  70  98 137 176 213 253 300
#     4  10  19  29  48  76 106 130 166 211 255 300
#     4   9  17  31  51  74 100 130 164 204 253 307
#     4   9  18  31  49  70  95 134 179 212 246 293
#     4   9  19  34  52  75 101 130 168 210 251 303
#     4  11  22  35  52  77 107 136 171 211 255 300
#
# _framework density 20.60547
#
# number of rings (size 3 to 8) (size 9 to 14) (size 15 to 20)
#    0.000    2.182    1.818    1.909    0.000    1.818 
#    0.000    0.455    0.000    5.455    0.000    0.000 
#    0.000    0.000    0.000    0.000    0.000    0.182 
#
# Total GULP energy -244991.194451 kJ/mol
# GULP energy per Si atom -5567.981692 kJ/mol
# Density = 2.055857 g / cm^3
# Si number density = 20.605470 Si / 1000 Ang^3
#
#
#
# Elastic Constant Matrix: (Units=GPa)
#
#
# Indices 1 2 3 4 5 6 
#
# 1 57.1151 14.5886 10.2922 0.0000 0.0000 0.0000
# 2 14.5886 192.6707 72.1719 0.0000 0.0000 0.0000
# 3 10.2922 72.1719 150.0525 0.0000 0.0000 0.0000
# 4 0.0000 0.0000 0.0000 23.0951 0.0000 0.0000
# 5 0.0000 0.0000 0.0000 0.0000 -64.1894 0.0000
# 6 0.0000 0.0000 0.0000 0.0000 0.0000 -9.9911
#
#
#
# Elastic Compliance Matrix: (Units=1/GPa)
#
#
# Indices 1 2 3 4 5 6 
#
# 1 0.017914 -0.001093 -0.000703 0.000000 0.000000 0.000000
# 2 -0.001093 0.006398 -0.003002 0.000000 0.000000 0.000000
# 3 -0.000703 -0.003002 0.008156 0.000000 0.000000 0.000000
# 4 0.000000 0.000000 0.000000 0.043299 0.000000 0.000000
# 5 0.000000 0.000000 0.000000 0.000000 -0.015579 0.000000
# 6 0.000000 0.000000 0.000000 0.000000 0.000000 -0.100089
#
#
# Mechanical properties :
#
#
# Convention : Reuss Voigt Hill
#
# Bulk Modulus (GPa) = 43.72154 65.99375 54.85765
# Shear Modulus (GPa) = -220.45517 9.96862 -105.24327
#
# Velocity S-wave (km/s) = -10.35475 2.20190 -7.15446
# Velocity P-wave (km/s) = 11.03163 6.20977 6.44730
#
# Compressibility (1/GPa) = 0.02287202
#
# Stress axis : x y z
#
# Youngs Moduli (GPa) = 55.82099 156.31082 122.60179
#
# Poissons Ratio (x) = 0.17086 0.08619
# Poissons Ratio (y) = 0.06102 0.36806
# Poissons Ratio (z) = 0.03924 0.46926
#
# Static dielectric constant tensor:
#      x y z
#    x 1.820900 0.000000 0.000000 
#    y 0.000000 1.703860 0.000000 
#    z 0.000000 0.000000 9.714900 
# 
# From -- ./inp_files/20989.got.cif
#   From: 2010.05.17/outbox.cif.g08.bks.cpg/sg51_11_cif.got.tgz:20989.got - 2010.06.03 11:52:47.
