data_PCOD9400317
_publ_section_title
;
Structure prediction by ZEFSAII (Michael W. Deem and Ramdas Pophale) SiO2 
 PCOD9400317
Probable space group: P M M A
;
_chemical_formula_sum "Si O2"
_cell_formula_units_Z 52
_cell_length_a 8.935855
_cell_length_b 18.430717
_cell_length_c 18.853808
_cell_angle_alpha 90.000000
_cell_angle_beta 90.000000
_cell_angle_gamma 90.000000
_cell_volume 3105.113102
_symmetry_space_group_name_H-M "P M M A"
_symmetry_group_IT_number 51
_symmetry_cell_setting 'orthorhombic'
loop_
_space_group_symop_operation_xyz
x,y,z
1/2-x,-y,z
1/2+x,-y,-z
-x,y,-z
-x,-y,-z
1/2+x,y,-z
1/2-x,y,z
x,-y,z
loop_
_atom_site_type_symbol
_atom_site_label
_atom_site_fract_x
_atom_site_fract_y
_atom_site_fract_z
Si Si1 0.069634 0.706455 0.423509
Si Si2 0.572263 0.581327 0.146262
Si Si3 0.071542 0.848371 0.648568
Si Si4 0.920709 0.367274 0.717228
Si Si5 0.429903 0.277871 0.075844
Si Si6 0.069900 0.000000 0.577502
Si Si7 0.420933 0.204711 0.216608
O O1 0.250000 0.710202 0.426748
O O2 0.030571 0.646159 0.363702
O O3 0.000000 0.691353 0.500000
O O4 0.007433 0.783603 0.395114
O O5 0.750000 0.592077 0.140018
O O6 0.534484 0.500000 0.121908
O O7 0.523809 0.589330 0.228632
O O8 0.488744 0.643937 0.102740
O O9 0.250000 0.839584 0.642005
O O10 0.026758 0.926413 0.617992
O O11 0.022798 0.840636 0.730412
O O12 0.750000 0.395356 0.719019
O O13 0.916841 0.285701 0.749606
O O14 0.250000 0.279999 0.072874
O O15 0.472283 0.219213 0.136394
O O16 0.500000 0.261701 0.000000
O O17 0.000000 0.000000 0.500000
O O18 0.250000 0.000000 0.571800
O O19 0.250000 0.177359 0.217108
#
# Coordination Sequence:
#
# PCOD9400317 Si02
#       7
#     8   8   8   8   8   4   8
#     4  10  19  30  45  67  91 115 149 192 236 278
#     4  10  20  32  47  68  93 122 155 187 222 271
#     4  10  19  31  47  67  93 126 160 192 227 271
#     4   8  16  30  46  64  87 115 149 190 231 273
#     4  10  20  33  50  72  98 124 151 187 229 273
#     4  10  22  34  44  66  99 132 165 196 229 270
#     4   8  16  31  48  68  92 118 152 191 229 271
#
# _framework density 16.746572
#
# number of rings (size 3 to 8) (size 9 to 14) (size 15 to 20)
#    0.000    2.615    0.000    4.154    0.000   10.769 
#    0.000    0.000    0.000    0.462    0.000    0.538 
#    0.000    0.000    0.000    0.000    0.000    0.000 
#
# Total GULP energy -289810.589084 kJ/mol
# GULP energy per Si atom -5573.280559 kJ/mol
# Density = 1.670846 g / cm^3
# Si number density = 16.746572 Si / 1000 Ang^3
#
#
#
# Elastic Constant Matrix: (Units=GPa)
#
#
# Indices 1 2 3 4 5 6 
#
# 1 38.1919 13.4959 29.2416 0.0000 0.0000 0.0000
# 2 13.4959 29.4512 16.8304 0.0000 0.0000 0.0000
# 3 29.2416 16.8304 134.1578 0.0000 0.0000 0.0000
# 4 0.0000 0.0000 0.0000 17.0717 0.0000 0.0000
# 5 0.0000 0.0000 0.0000 0.0000 32.4410 0.0000
# 6 0.0000 0.0000 0.0000 0.0000 0.0000 16.9254
#
#
#
# Elastic Compliance Matrix: (Units=1/GPa)
#
#
# Indices 1 2 3 4 5 6 
#
# 1 0.035354 -0.012708 -0.006112 0.000000 0.000000 0.000000
# 2 -0.012708 0.041145 -0.002392 0.000000 0.000000 0.000000
# 3 -0.006112 -0.002392 0.009086 0.000000 0.000000 0.000000
# 4 0.000000 0.000000 0.000000 0.058577 0.000000 0.000000
# 5 0.000000 0.000000 0.000000 0.000000 0.030825 0.000000
# 6 0.000000 0.000000 0.000000 0.000000 0.000000 0.059083
#
#
# Mechanical properties :
#
#
# Convention : Reuss Voigt Hill
#
# Bulk Modulus (GPa) = 23.16879 35.65962 29.41420
# Shear Modulus (GPa) = 17.18930 22.76983 19.97957
#
# Velocity S-wave (km/s) = 3.20728 3.69137 3.45781
# Velocity P-wave (km/s) = 5.25172 6.28556 5.79175
#
# Compressibility (1/GPa) = 0.04316152
#
# Stress axis : x y z
#
# Youngs Moduli (GPa) = 28.28571 24.30452 110.05860
#
# Poissons Ratio (x) = 0.30886 0.67263
# Poissons Ratio (y) = 0.35945 0.26324
# Poissons Ratio (z) = 0.17287 0.05813
#
# Static dielectric constant tensor:
#      x y z
#    x 1.561990 0.000000 0.000000 
#    y 0.000000 1.549400 0.000000 
#    z 0.000000 0.000000 1.592450 
# 
# From -- ./inp_files/27903.got.cif
#   From: 2010.05.17/outbox.cif.g08.bks.cpg/sg51_14_cif.got.tgz:27903.got - 2010.06.03 11:52:47.
