data_PCOD9400613
_publ_section_title
;
Structure prediction by ZEFSAII (Michael W. Deem and Ramdas Pophale) SiO2 
 PCOD9400613
Probable space group: P M M A
;
_chemical_formula_sum "Si O2"
_cell_formula_units_Z 56
_cell_length_a 8.740867
_cell_length_b 14.747055
_cell_length_c 23.663117
_cell_angle_alpha 90.000000
_cell_angle_beta 90.000000
_cell_angle_gamma 90.000000
_cell_volume 3050.224205
_symmetry_space_group_name_H-M "P M M A"
_symmetry_group_IT_number 51
_symmetry_cell_setting 'orthorhombic'
loop_
_space_group_symop_operation_xyz
x,y,z
1/2-x,-y,z
1/2+x,-y,-z
-x,y,-z
-x,-y,-z
1/2+x,y,-z
1/2-x,y,z
x,-y,z
loop_
_atom_site_type_symbol
_atom_site_label
_atom_site_fract_x
_atom_site_fract_y
_atom_site_fract_z
Si Si1 0.934479 0.105295 0.439551
Si Si2 0.935292 0.788737 0.328127
Si Si3 0.933851 0.702685 0.940501
Si Si4 0.923908 0.644203 0.173046
Si Si5 0.076027 0.144966 0.790061
Si Si6 0.567534 0.598811 0.710231
Si Si7 0.932718 0.903086 0.904866
O O1 0.750000 0.108166 0.441855
O O2 0.984090 0.166612 0.386874
O O3 0.000000 0.134563 0.500000
O O4 0.979601 0.000000 0.430529
O O5 0.750000 0.786444 0.325808
O O6 0.982807 0.850490 0.274159
O O7 0.994502 0.686755 0.319047
O O8 0.750000 0.701638 0.940501
O O9 0.988108 0.808101 0.931364
O O10 0.995701 0.645159 0.887633
O O11 0.000000 0.670948 0.000000
O O12 0.750000 0.610313 0.169953
O O13 0.916575 0.749704 0.191614
O O14 0.016252 0.600362 0.224221
O O15 0.250000 0.108999 0.791345
O O16 0.974889 0.100642 0.838497
O O17 0.750000 0.606970 0.707315
O O18 0.521840 0.500000 0.686516
O O19 0.750000 0.902648 0.911097
O O20 0.992563 0.000000 0.927496
#
# Coordination Sequence:
#
# PCOD9400613 Si02
#       7
#     8   8   8   8   8   8   8
#     4   9  18  33  52  75 105 141 181 222 261 301
#     4   9  18  32  51  75 103 136 173 212 254 301
#     4  10  19  31  47  65  88 120 160 205 250 299
#     4   9  17  31  50  70  93 122 157 195 238 291
#     4   8  15  27  43  64  87 114 151 193 239 290
#     4  10  20  33  52  80 110 136 163 201 251 305
#     4   9  18  30  41  57  85 119 154 196 246 297
#
# _framework density 18.359306
#
# number of rings (size 3 to 8) (size 9 to 14) (size 15 to 20)
#    0.000    2.857    0.000    2.143    0.000    6.857 
#    0.000    1.429    0.000    2.571    0.000    0.000 
#    0.000    0.000    0.000    0.000    0.000    0.000 
#
# Total GULP energy -312038.175956 kJ/mol
# GULP energy per Si atom -5572.110285 kJ/mol
# Density = 1.831752 g / cm^3
# Si number density = 18.359306 Si / 1000 Ang^3
#
#
#
# Elastic Constant Matrix: (Units=GPa)
#
#
# Indices 1 2 3 4 5 6 
#
# 1 18.2217 4.5792 17.2872 0.0000 0.0000 0.0000
# 2 4.5792 53.5171 28.8641 0.0000 0.0000 0.0000
# 3 17.2872 28.8641 138.0382 0.0000 0.0000 0.0000
# 4 0.0000 0.0000 0.0000 11.9970 0.0000 0.0000
# 5 0.0000 0.0000 0.0000 0.0000 28.0474 0.0000
# 6 0.0000 0.0000 0.0000 0.0000 0.0000 1.7914
#
#
#
# Elastic Compliance Matrix: (Units=1/GPa)
#
#
# Indices 1 2 3 4 5 6 
#
# 1 0.062355 -0.001266 -0.007544 0.000000 0.000000 0.000000
# 2 -0.001266 0.021087 -0.004251 0.000000 0.000000 0.000000
# 3 -0.007544 -0.004251 0.009078 0.000000 0.000000 0.000000
# 4 0.000000 0.000000 0.000000 0.083355 0.000000 0.000000
# 5 0.000000 0.000000 0.000000 0.000000 0.035654 0.000000
# 6 0.000000 0.000000 0.000000 0.000000 0.000000 0.558225
#
#
# Mechanical properties :
#
#
# Convention : Reuss Voigt Hill
#
# Bulk Modulus (GPa) = 15.06091 34.58198 24.82145
# Shear Modulus (GPa) = 6.11241 18.97025 12.54133
#
# Velocity S-wave (km/s) = 1.82662 3.21795 2.61646
# Velocity P-wave (km/s) = 3.55949 5.71700 4.76204
#
# Compressibility (1/GPa) = 0.06639705
#
# Stress axis : x y z
#
# Youngs Moduli (GPa) = 16.03715 47.42360 110.15651
#
# Poissons Ratio (x) = 0.06006 0.83105
# Poissons Ratio (y) = 0.02031 0.46823
# Poissons Ratio (z) = 0.12099 0.20158
#
# Static dielectric constant tensor:
#      x y z
#    x 1.626320 0.000000 0.000000 
#    y 0.000000 1.681300 0.000000 
#    z 0.000000 0.000000 1.623140 
# 
# From -- ./inp_files/32012.got.cif
#   From: 2010.05.17/outbox.cif.g08.bks.cpg/sg51_17_cif.got.tgz:32012.got - 2010.06.03 11:52:47.
