data_PCOD9400532
_publ_section_title
;
Structure prediction by ZEFSAII (Michael W. Deem and Ramdas Pophale) SiO2 
 PCOD9400532
Probable space group: P M M A
;
_chemical_formula_sum "Si O2"
_cell_formula_units_Z 56
_cell_length_a 8.939928
_cell_length_b 14.709302
_cell_length_c 23.888069
_cell_angle_alpha 90.000000
_cell_angle_beta 90.000000
_cell_angle_gamma 90.000000
_cell_volume 3141.283482
_symmetry_space_group_name_H-M "P M M A"
_symmetry_group_IT_number 51
_symmetry_cell_setting 'orthorhombic'
loop_
_space_group_symop_operation_xyz
x,y,z
1/2-x,-y,z
1/2+x,-y,-z
-x,y,-z
-x,-y,-z
1/2+x,y,-z
1/2-x,y,z
x,-y,z
loop_
_atom_site_type_symbol
_atom_site_label
_atom_site_fract_x
_atom_site_fract_y
_atom_site_fract_z
Si Si1 0.073945 0.108756 0.155893
Si Si2 0.072266 0.394308 0.106469
Si Si3 0.069723 0.723969 0.665811
Si Si4 0.574384 0.607405 0.225429
Si Si5 0.069725 0.895394 0.284149
Si Si6 0.572896 0.778642 0.057225
Si Si7 0.430315 0.605325 0.559907
O O1 0.250000 0.132434 0.150286
O O2 0.026548 0.128288 0.219888
O O3 0.981280 0.162384 0.109979
O O4 0.060916 0.000000 0.148296
O O5 0.250000 0.382833 0.100552
O O6 0.034354 0.500000 0.095319
O O7 0.022700 0.374356 0.170397
O O8 0.986577 0.323245 0.068002
O O9 0.250000 0.729540 0.664780
O O10 0.028820 0.664955 0.720657
O O11 0.021138 0.671167 0.610007
O O12 0.000962 0.823009 0.674302
O O13 0.750000 0.626194 0.212821
O O14 0.562742 0.500000 0.238393
O O15 0.250000 0.891330 0.286358
O O16 0.025596 0.000000 0.294726
O O17 0.750000 0.779445 0.052759
O O18 0.500000 0.813987 0.000000
O O19 0.500000 0.629108 0.500000
O O20 0.250000 0.609400 0.556120
O O21 0.470314 0.500000 0.572496
#
# Coordination Sequence:
#
# PCOD9400532 Si02
#       7
#     8   8   8   8   8   8   8
#     4   9  19  38  61  82 107 137 167 205 256 310
#     4  10  21  37  55  75 102 135 170 211 258 307
#     4  10  19  30  49  77 106 137 172 212 256 300
#     4   9  17  30  49  75 106 136 165 200 249 309
#     4   9  19  35  54  77 105 136 168 206 255 306
#     4  12  25  39  56  77 102 133 171 214 257 306
#     4   9  18  33  51  73 105 143 180 216 254 298
#
# _framework density 17.827107000000002
#
# number of rings (size 3 to 8) (size 9 to 14) (size 15 to 20)
#    0.000    2.286    0.000    3.857    0.000    7.714 
#    0.000    1.429    0.000    4.714    0.000    0.000 
#    0.000    0.000    0.000    0.000    0.000    0.000 
#
# Total GULP energy -312702.658194 kJ/mol
# GULP energy per Si atom -5583.976039 kJ/mol
# Density = 1.778653 g / cm^3
# Si number density = 17.827107 Si / 1000 Ang^3
#
#
#
# Elastic Constant Matrix: (Units=GPa)
#
#
# Indices 1 2 3 4 5 6 
#
# 1 47.3921 32.6948 34.0152 0.0000 0.0000 0.0000
# 2 32.6948 75.4369 65.3642 0.0000 0.0000 0.0000
# 3 34.0152 65.3642 90.7689 0.0000 0.0000 0.0000
# 4 0.0000 0.0000 0.0000 20.2863 0.0000 0.0000
# 5 0.0000 0.0000 0.0000 0.0000 27.0389 0.0000
# 6 0.0000 0.0000 0.0000 0.0000 0.0000 28.9223
#
#
#
# Elastic Compliance Matrix: (Units=1/GPa)
#
#
# Indices 1 2 3 4 5 6 
#
# 1 0.030984 -0.008956 -0.005161 0.000000 0.000000 0.000000
# 2 -0.008956 0.037841 -0.023894 0.000000 0.000000 0.000000
# 3 -0.005161 -0.023894 0.030158 0.000000 0.000000 0.000000
# 4 0.000000 0.000000 0.000000 0.049294 0.000000 0.000000
# 5 0.000000 0.000000 0.000000 0.000000 0.036984 0.000000
# 6 0.000000 0.000000 0.000000 0.000000 0.000000 0.034575
#
#
# Mechanical properties :
#
#
# Convention : Reuss Voigt Hill
#
# Bulk Modulus (GPa) = 43.55487 53.08293 48.31890
# Shear Modulus (GPa) = 16.47379 20.68441 18.57910
#
# Velocity S-wave (km/s) = 3.04318 3.40998 3.23179
# Velocity P-wave (km/s) = 6.06900 6.73388 6.41007
#
# Compressibility (1/GPa) = 0.02295955
#
# Stress axis : x y z
#
# Youngs Moduli (GPa) = 32.27477 26.42622 33.15921
#
# Poissons Ratio (x) = 0.23668 0.17115
# Poissons Ratio (y) = 0.28906 0.79230
# Poissons Ratio (z) = 0.16659 0.63142
#
# Static dielectric constant tensor:
#      x y z
#    x 1.598270 0.000000 0.000000 
#    y 0.000000 1.614890 0.000000 
#    z 0.000000 0.000000 1.591030 
# 
# From -- ./inp_files/31910.got.cif
#   From: 2010.05.17/outbox.cif.g08.bks.cpg/sg51_16_cif.got.tgz:31910.got - 2010.06.03 11:52:47.
