data_PCOD9400857
_publ_section_title
;
Structure prediction by ZEFSAII (Michael W. Deem and Ramdas Pophale) SiO2 
 PCOD9400857
Probable space group: P M M A
;
_chemical_formula_sum "Si O2"
_cell_formula_units_Z 64
_cell_length_a 8.925700
_cell_length_b 20.138183
_cell_length_c 20.049908
_cell_angle_alpha 90.000000
_cell_angle_beta 90.000000
_cell_angle_gamma 90.000000
_cell_volume 3603.918432
_symmetry_space_group_name_H-M "P M M A"
_symmetry_group_IT_number 51
_symmetry_cell_setting 'orthorhombic'
loop_
_space_group_symop_operation_xyz
x,y,z
1/2-x,-y,z
1/2+x,-y,-z
-x,y,-z
-x,-y,-z
1/2+x,y,-z
1/2-x,y,z
x,-y,z
loop_
_atom_site_type_symbol
_atom_site_label
_atom_site_fract_x
_atom_site_fract_y
_atom_site_fract_z
Si Si1 0.928588 0.688090 0.159188
Si Si2 0.428925 0.193092 0.073181
Si Si3 0.577133 0.898003 0.431185
Si Si4 0.074773 0.075687 0.845586
Si Si5 0.575141 0.894271 0.707323
Si Si6 0.073116 0.420771 0.071219
Si Si7 0.922753 0.263765 0.431612
Si Si8 0.075351 0.266604 0.293708
O O1 0.750000 0.691201 0.154028
O O2 0.003249 0.746176 0.115158
O O3 0.991137 0.619890 0.128809
O O4 0.981328 0.700928 0.234551
O O5 0.250000 0.198564 0.070029
O O6 0.477419 0.126280 0.111366
O O7 0.500000 0.193372 0.000000
O O8 0.500000 0.919933 0.500000
O O9 0.750000 0.918881 0.428348
O O10 0.489446 0.916670 0.364012
O O11 0.575416 0.817109 0.432179
O O12 0.250000 0.094865 0.848889
O O13 0.019040 0.079129 0.769339
O O14 0.059811 0.000000 0.869343
O O15 0.750000 0.911988 0.713346
O O16 0.563930 0.813782 0.711119
O O17 0.250000 0.405125 0.070227
O O18 0.055963 0.500000 0.079541
O O19 0.000000 0.402432 0.000000
O O20 0.750000 0.284334 0.428417
O O21 0.000000 0.285818 0.500000
O O22 0.012301 0.285185 0.366127
O O23 0.250000 0.283683 0.286885
#
# Coordination Sequence:
#
# PCOD9400857 Si02
#       8
#     8   8   8   8   8   8   8   8
#     4  12  23  36  57  84 116 149 184 227 272 323
#     4  12  25  42  62  84 109 139 176 221 271 327
#     4   9  16  26  43  68  99 132 170 214 261 317
#     4  11  24  41  60  81 105 135 174 221 274 331
#     4  10  19  32  52  75 102 136 174 218 267 323
#     4  10  21  38  59  83 114 151 190 229 270 320
#     4   9  16  26  41  65  99 139 178 219 267 320
#     4  10  19  31  49  75 106 141 180 224 271 322
#
# _framework density 17.758448999999999
#
# number of rings (size 3 to 8) (size 9 to 14) (size 15 to 20)
#    0.000    1.625    1.250    4.875    0.000    6.000 
#    0.000    0.000    0.000    0.375    0.000    0.000 
#    0.000    0.500    0.000    1.875    0.000    2.875 
#
# Total GULP energy -357724.603287 kJ/mol
# GULP energy per Si atom -5589.446926 kJ/mol
# Density = 1.771803 g / cm^3
# Si number density = 17.758449 Si / 1000 Ang^3
#
#
#
# Elastic Constant Matrix: (Units=GPa)
#
#
# Indices 1 2 3 4 5 6 
#
# 1 162.2323 41.1924 61.7620 0.0000 0.0000 0.0000
# 2 41.1924 36.6508 35.2424 0.0000 0.0000 0.0000
# 3 61.7620 35.2424 133.0162 0.0000 0.0000 0.0000
# 4 0.0000 0.0000 0.0000 24.1678 0.0000 0.0000
# 5 0.0000 0.0000 0.0000 0.0000 39.1760 0.0000
# 6 0.0000 0.0000 0.0000 0.0000 0.0000 31.1631
#
#
#
# Elastic Compliance Matrix: (Units=1/GPa)
#
#
# Indices 1 2 3 4 5 6 
#
# 1 0.009010 -0.008191 -0.002014 0.000000 0.000000 0.000000
# 2 -0.008191 0.044058 -0.007870 0.000000 0.000000 0.000000
# 3 -0.002014 -0.007870 0.010538 0.000000 0.000000 0.000000
# 4 0.000000 0.000000 0.000000 0.041377 0.000000 0.000000
# 5 0.000000 0.000000 0.000000 0.000000 0.025526 0.000000
# 6 0.000000 0.000000 0.000000 0.000000 0.000000 0.032089
#
#
# Mechanical properties :
#
#
# Convention : Reuss Voigt Hill
#
# Bulk Modulus (GPa) = 36.41975 67.58809 52.00392
# Shear Modulus (GPa) = 24.05017 31.81488 27.93252
#
# Velocity S-wave (km/s) = 3.68407 4.23724 3.97030
# Velocity P-wave (km/s) = 6.21686 7.87917 7.09685
#
# Compressibility (1/GPa) = 0.02745763
#
# Stress axis : x y z
#
# Youngs Moduli (GPa) = 110.98498 22.69759 94.89525
#
# Poissons Ratio (x) = 0.18591 0.19108
# Poissons Ratio (y) = 0.90903 0.74682
# Poissons Ratio (z) = 0.22347 0.17863
#
# Static dielectric constant tensor:
#      x y z
#    x 1.591530 0.000000 0.000000 
#    y 0.000000 1.606110 0.000000 
#    z 0.000000 0.000000 1.587130 
# 
# From -- ./inp_files/28485.got.cif
#   From: 2010.05.17/outbox.cif.g08.bks.cpg/sg51_15_cif.got.tgz:28485.got - 2010.06.03 11:52:47.
