data_PCOD9400546
_publ_section_title
;
Structure prediction by ZEFSAII (Michael W. Deem and Ramdas Pophale) SiO2 
 PCOD9400546
Probable space group: P M M A
;
_chemical_formula_sum "Si O2"
_cell_formula_units_Z 48
_cell_length_a 15.319175
_cell_length_b 19.876014
_cell_length_c 7.362469
_cell_angle_alpha 90.000000
_cell_angle_beta 90.000000
_cell_angle_gamma 90.000000
_cell_volume 2241.755018
_symmetry_space_group_name_H-M "P M M A"
_symmetry_group_IT_number 51
_symmetry_cell_setting 'orthorhombic'
loop_
_space_group_symop_operation_xyz
x,y,z
1/2-x,-y,z
1/2+x,-y,-z
-x,y,-z
-x,-y,-z
1/2+x,y,-z
1/2-x,y,z
x,-y,z
loop_
_atom_site_type_symbol
_atom_site_label
_atom_site_fract_x
_atom_site_fract_y
_atom_site_fract_z
Si Si1 0.471788 0.182981 0.284667
Si Si2 0.149853 0.332422 0.740601
Si Si3 0.347085 0.922563 0.396632
Si Si4 0.356706 0.423672 0.426577
Si Si5 0.343630 0.181605 0.728622
Si Si6 0.356154 0.306388 0.148053
O O1 0.500000 0.191387 0.500000
O O2 0.418268 0.114090 0.275536
O O3 0.562961 0.177033 0.177141
O O4 0.410381 0.244053 0.226505
O O5 0.250000 0.354142 0.769833
O O6 0.108794 0.386951 0.608487
O O7 0.154106 0.258191 0.650250
O O8 0.115196 0.320294 0.941251
O O9 0.250000 0.919741 0.314902
O O10 0.342923 0.876690 0.578097
O O11 0.367688 0.000000 0.437223
O O12 0.250000 0.425416 0.437800
O O13 0.386993 0.500000 0.405606
O O14 0.375557 0.372981 0.263515
O O15 0.250000 0.178050 0.829227
O O16 0.250000 0.294122 0.155173
#
# Coordination Sequence:
#
# PCOD9400546 Si02
#       6
#     8   8   8   8   8   8
#     4  10  19  30  51  79 106 142 184 227 273 323
#     4   9  18  33  53  76 106 145 186 229 275 323
#     4   9  17  30  51  80 114 150 185 224 273 327
#     4   9  17  30  51  81 116 150 182 220 271 333
#     4   9  18  32  49  72 102 138 183 228 271 322
#     4  10  20  34  54  81 111 144 185 230 274 326
#
# _framework density 21.411795999999999
#
# number of rings (size 3 to 8) (size 9 to 14) (size 15 to 20)
#    0.000    2.667    0.000    2.500    0.000    9.000 
#    0.000    3.333    0.000    5.500    0.000   16.333 
#    0.000    0.000    0.000    0.000    0.000    0.000 
#
# Total GULP energy -267551.019752 kJ/mol
# GULP energy per Si atom -5573.979578 kJ/mol
# Density = 2.136306 g / cm^3
# Si number density = 21.411796 Si / 1000 Ang^3
#
#
#
# Elastic Constant Matrix: (Units=GPa)
#
#
# Indices 1 2 3 4 5 6 
#
# 1 116.6556 62.6925 31.4317 0.0000 0.0000 0.0000
# 2 62.6925 178.8375 56.6637 0.0000 0.0000 0.0000
# 3 31.4317 56.6637 80.8463 0.0000 0.0000 0.0000
# 4 0.0000 0.0000 0.0000 3.7015 0.0000 0.0000
# 5 0.0000 0.0000 0.0000 0.0000 4.2588 0.0000
# 6 0.0000 0.0000 0.0000 0.0000 0.0000 3.1344
#
#
#
# Elastic Compliance Matrix: (Units=1/GPa)
#
#
# Indices 1 2 3 4 5 6 
#
# 1 0.010805 -0.003158 -0.001987 0.000000 0.000000 0.000000
# 2 -0.003158 0.008111 -0.004457 0.000000 0.000000 0.000000
# 3 -0.001987 -0.004457 0.016266 0.000000 0.000000 0.000000
# 4 0.000000 0.000000 0.000000 0.270161 0.000000 0.000000
# 5 0.000000 0.000000 0.000000 0.000000 0.234807 0.000000
# 6 0.000000 0.000000 0.000000 0.000000 0.000000 0.319044
#
#
# Mechanical properties :
#
#
# Convention : Reuss Voigt Hill
#
# Bulk Modulus (GPa) = 62.59130 75.32390 68.95760
# Shear Modulus (GPa) = 5.65787 17.25570 11.45679
#
# Velocity S-wave (km/s) = 1.62731 2.84191 2.31567
# Velocity P-wave (km/s) = 5.72944 6.78408 6.27894
#
# Compressibility (1/GPa) = 0.01597666
#
# Stress axis : x y z
#
# Youngs Moduli (GPa) = 92.55068 123.29071 61.47928
#
# Poissons Ratio (x) = 0.38936 0.12218
# Poissons Ratio (y) = 0.29228 0.27401
# Poissons Ratio (z) = 0.18393 0.54951
#
# Static dielectric constant tensor:
#      x y z
#    x 1.880930 0.000000 0.000000 
#    y 0.000000 1.730650 0.000000 
#    z 0.000000 0.000000 1.805180 
# 
# From -- ./inp_files/8251.got.cif
#   From: 2010.05.17/outbox.cif.g08.bks.cpg/sg51_5_cif.got.tgz:8251.got - 2010.06.03 11:52:47.
