data_PCOD9400570
_publ_section_title
;
Structure prediction by ZEFSAII (Michael W. Deem and Ramdas Pophale) SiO2 
 PCOD9400570
Probable space group: P M M A
;
_chemical_formula_sum "Si O2"
_cell_formula_units_Z 64
_cell_length_a 9.632605
_cell_length_b 15.278974
_cell_length_c 26.702524
_cell_angle_alpha 90.000000
_cell_angle_beta 90.000000
_cell_angle_gamma 90.000000
_cell_volume 3929.979253
_symmetry_space_group_name_H-M "P M M A"
_symmetry_group_IT_number 51
_symmetry_cell_setting 'orthorhombic'
loop_
_space_group_symop_operation_xyz
x,y,z
1/2-x,-y,z
1/2+x,-y,-z
-x,y,-z
-x,-y,-z
1/2+x,y,-z
1/2-x,y,z
x,-y,z
loop_
_atom_site_type_symbol
_atom_site_label
_atom_site_fract_x
_atom_site_fract_y
_atom_site_fract_z
Si Si1 0.592922 0.338665 0.545466
Si Si2 0.408020 0.870464 0.453685
Si Si3 0.414721 0.792939 0.242760
Si Si4 0.583405 0.103818 0.159402
Si Si5 0.406929 0.601757 0.634763
Si Si6 0.917927 0.900808 0.660001
Si Si7 0.910978 0.597755 0.733313
Si Si8 0.090255 0.893526 0.953196
O O1 0.500000 0.374275 0.500000
O O2 0.750000 0.373892 0.546139
O O3 0.601602 0.234166 0.540098
O O4 0.510210 0.353952 0.596208
O O5 0.500000 0.902590 0.500000
O O6 0.250000 0.903843 0.456209
O O7 0.465346 0.887616 0.397533
O O8 0.250000 0.812403 0.238002
O O9 0.501493 0.843352 0.201122
O O10 0.458882 0.829483 0.298026
O O11 0.431284 0.688176 0.237146
O O12 0.750000 0.115509 0.163764
O O13 0.542748 0.131185 0.102707
O O14 0.555724 0.000000 0.164759
O O15 0.250000 0.637675 0.634645
O O16 0.398922 0.500000 0.619969
O O17 0.479246 0.603564 0.688583
O O18 0.750000 0.895518 0.657227
O O19 0.954892 0.000000 0.676170
O O20 0.750000 0.601693 0.714608
O O21 0.926255 0.500000 0.756652
O O22 0.250000 0.866614 0.959324
O O23 0.088436 0.000000 0.953610
O O24 0.000000 0.862744 0.000000
#
# Coordination Sequence:
#
# PCOD9400570 Si02
#       8
#     8   8   8   8   8   8   8   8
#     4  10  19  31  46  62  82 107 135 169 210 260
#     4   9  18  32  48  64  81 104 137 176 217 261
#     4  10  19  31  49  71  93 122 162 199 233 281
#     4   9  18  31  45  66 101 139 168 198 240 282
#     4  10  20  32  46  65  86 107 135 172 217 274
#     4   9  17  29  45  65  89 115 143 179 222 267
#     4   9  18  33  51  69  90 117 150 191 237 281
#     4   8  14  25  41  62  91 129 170 206 237 270
#
# _framework density 16.285074000000002
#
# number of rings (size 3 to 8) (size 9 to 14) (size 15 to 20)
#    0.000    2.750    0.000    2.625    0.000    5.500 
#    0.000    1.875    0.000    0.750    0.000    0.000 
#    0.000    0.500    0.000    1.125    0.000    1.750 
#
# Total GULP energy -356331.435740 kJ/mol
# GULP energy per Si atom -5567.678683 kJ/mol
# Density = 1.624801 g / cm^3
# Si number density = 16.285074 Si / 1000 Ang^3
#
#
#
# Elastic Constant Matrix: (Units=GPa)
#
#
# Indices 1 2 3 4 5 6 
#
# 1 72.9633 34.3615 48.0970 0.0000 0.0000 0.0000
# 2 34.3615 62.8887 43.4039 0.0000 0.0000 0.0000
# 3 48.0970 43.4039 110.4204 0.0000 0.0000 0.0000
# 4 0.0000 0.0000 0.0000 7.0115 0.0000 0.0000
# 5 0.0000 0.0000 0.0000 0.0000 29.8659 0.0000
# 6 0.0000 0.0000 0.0000 0.0000 0.0000 15.9727
#
#
#
# Elastic Compliance Matrix: (Units=1/GPa)
#
#
# Indices 1 2 3 4 5 6 
#
# 1 0.021367 -0.007206 -0.006475 0.000000 0.000000 0.000000
# 2 -0.007206 0.024251 -0.006394 0.000000 0.000000 0.000000
# 3 -0.006475 -0.006394 0.014390 0.000000 0.000000 0.000000
# 4 0.000000 0.000000 0.000000 0.142624 0.000000 0.000000
# 5 0.000000 0.000000 0.000000 0.000000 0.033483 0.000000
# 6 0.000000 0.000000 0.000000 0.000000 0.000000 0.062607
#
#
# Mechanical properties :
#
#
# Convention : Reuss Voigt Hill
#
# Bulk Modulus (GPa) = 50.35455 55.33302 52.84379
# Shear Modulus (GPa) = 14.47217 18.59735 16.53476
#
# Velocity S-wave (km/s) = 2.98430 3.38300 3.18988
# Velocity P-wave (km/s) = 6.54695 7.02218 6.78873
#
# Compressibility (1/GPa) = 0.01985918
#
# Stress axis : x y z
#
# Youngs Moduli (GPa) = 46.80070 41.23493 69.49396
#
# Poissons Ratio (x) = 0.29715 0.44994
# Poissons Ratio (y) = 0.33726 0.44433
# Poissons Ratio (z) = 0.30301 0.26365
#
# Static dielectric constant tensor:
#      x y z
#    x 1.559050 0.000000 0.000000 
#    y 0.000000 1.578130 0.000000 
#    z 0.000000 0.000000 1.540110 
# 
# From -- ./inp_files/36476.got.cif
#   From: 2010.05.17/outbox.cif.g08.bks.cpg/sg51_19_cif.got.tgz:36476.got - 2010.06.03 11:52:47.
