data_PCOD9400698
_publ_section_title
;
Structure prediction by ZEFSAII (Michael W. Deem and Ramdas Pophale) SiO2 
 PCOD9400698
Probable space group: P M M A
;
_chemical_formula_sum "Si O2"
_cell_formula_units_Z 64
_cell_length_a 18.076322
_cell_length_b 8.889509
_cell_length_c 23.822647
_cell_angle_alpha 90.000000
_cell_angle_beta 90.000000
_cell_angle_gamma 90.000000
_cell_volume 3828.052263
_symmetry_space_group_name_H-M "P M M A"
_symmetry_group_IT_number 51
_symmetry_cell_setting 'orthorhombic'
loop_
_space_group_symop_operation_xyz
x,y,z
1/2-x,-y,z
1/2+x,-y,-z
-x,y,-z
-x,-y,-z
1/2+x,y,-z
1/2-x,y,z
x,-y,z
loop_
_atom_site_type_symbol
_atom_site_label
_atom_site_fract_x
_atom_site_fract_y
_atom_site_fract_z
Si Si1 0.973240 0.181063 0.741056
Si Si2 0.573933 0.327673 0.038513
Si Si3 0.452230 0.818739 0.628928
Si Si4 0.091139 0.678248 0.433774
Si Si5 0.977859 0.181704 0.868845
Si Si6 0.332984 0.679300 0.317327
Si Si7 0.335013 0.818471 0.057991
Si Si8 0.165439 0.181456 0.542315
O O1 0.984615 0.233518 0.804589
O O2 0.894192 0.236031 0.718560
O O3 0.031230 0.230373 0.692784
O O4 0.974015 0.000000 0.742364
O O5 0.594737 0.500000 0.049781
O O6 0.545064 0.244480 0.093925
O O7 0.500000 0.327876 0.000000
O O8 0.636283 0.246287 0.001413
O O9 0.515788 0.750214 0.589338
O O10 0.374730 0.778105 0.600605
O O11 0.459198 0.000000 0.627490
O O12 0.081536 0.500000 0.441130
O O13 0.149308 0.704026 0.383085
O O14 0.119840 0.751236 0.490629
O O15 0.898316 0.226692 0.896514
O O16 0.980106 0.000000 0.870717
O O17 0.250000 0.727494 0.304035
O O18 0.339646 0.500000 0.307782
O O19 0.250000 0.772083 0.070256
O O20 0.336135 0.000000 0.055468
O O21 0.250000 0.232894 0.540091
O O22 0.164315 0.000000 0.537538
#
# Coordination Sequence:
#
# PCOD9400698 Si02
#       8
#     8   8   8   8   8   8   8   8
#     4   9  18  31  48  68  89 119 158 195 227 263
#     4   9  17  29  46  68  93 122 155 187 220 261
#     4   9  18  33  49  66  91 121 154 192 232 276
#     4  10  19  31  48  69  92 118 150 188 232 283
#     4   9  17  30  48  69  93 122 157 194 228 266
#     4   9  18  31  44  61  90 124 152 183 227 276
#     4   9  17  29  46  69  97 125 150 182 228 275
#     4  10  20  32  47  67  90 117 149 188 236 285
#
# _framework density 16.718686000000002
#
# number of rings (size 3 to 8) (size 9 to 14) (size 15 to 20)
#    0.000    2.750    0.000    1.500    0.000    6.250 
#    0.000    1.250    0.000    0.750    0.000    3.500 
#    0.000    0.000    0.000    0.000    0.000    0.000 
#
# Total GULP energy -356580.928490 kJ/mol
# GULP energy per Si atom -5571.577008 kJ/mol
# Density = 1.668063 g / cm^3
# Si number density = 16.718686 Si / 1000 Ang^3
#
#
#
# Elastic Constant Matrix: (Units=GPa)
#
#
# Indices 1 2 3 4 5 6 
#
# 1 47.3377 12.7856 47.3736 0.0000 0.0000 0.0000
# 2 12.7856 7.9145 25.2110 0.0000 0.0000 0.0000
# 3 47.3736 25.2110 136.7064 0.0000 0.0000 0.0000
# 4 0.0000 0.0000 0.0000 11.8903 0.0000 0.0000
# 5 0.0000 0.0000 0.0000 0.0000 7.0166 0.0000
# 6 0.0000 0.0000 0.0000 0.0000 0.0000 8.3645
#
#
#
# Elastic Compliance Matrix: (Units=1/GPa)
#
#
# Indices 1 2 3 4 5 6 
#
# 1 0.038611 -0.047882 -0.004550 0.000000 0.000000 0.000000
# 2 -0.047882 0.365649 -0.050839 0.000000 0.000000 0.000000
# 3 -0.004550 -0.050839 0.018267 0.000000 0.000000 0.000000
# 4 0.000000 0.000000 0.000000 0.084102 0.000000 0.000000
# 5 0.000000 0.000000 0.000000 0.000000 0.142518 0.000000
# 6 0.000000 0.000000 0.000000 0.000000 0.000000 0.119553
#
#
# Mechanical properties :
#
#
# Convention : Reuss Voigt Hill
#
# Bulk Modulus (GPa) = 4.62995 40.29988 22.46492
# Shear Modulus (GPa) = 4.77447 12.56017 8.66732
#
# Velocity S-wave (km/s) = 1.69174 2.74390 2.27936
# Velocity P-wave (km/s) = 2.56735 5.84770 4.51591
#
# Compressibility (1/GPa) = 0.21598482
#
# Stress axis : x y z
#
# Youngs Moduli (GPa) = 25.89962 2.73487 54.74301
#
# Poissons Ratio (x) = 0.13095 0.24906
# Poissons Ratio (y) = 1.24013 2.78309
# Poissons Ratio (z) = 0.11783 0.13904
#
# Static dielectric constant tensor:
#      x y z
#    x 1.556000 0.000000 0.000000 
#    y 0.000000 1.559390 0.000000 
#    z 0.000000 0.000000 1.566330 
# 
# From -- ./inp_files/35896.got.cif
#   From: 2010.05.17/outbox.cif.g08.bks.cpg/sg51_18_cif.got.tgz:35896.got - 2010.06.03 11:52:47.
