data_PCOD9400923
_publ_section_title
;
Structure prediction by ZEFSAII (Michael W. Deem and Ramdas Pophale) SiO2 
 PCOD9400923
Probable space group: P M M A
;
_chemical_formula_sum "Si O2"
_cell_formula_units_Z 64
_cell_length_a 16.420693
_cell_length_b 8.046529
_cell_length_c 23.591116
_cell_angle_alpha 90.000000
_cell_angle_beta 90.000000
_cell_angle_gamma 90.000000
_cell_volume 3117.084306
_symmetry_space_group_name_H-M "P M M A"
_symmetry_group_IT_number 51
_symmetry_cell_setting 'orthorhombic'
loop_
_space_group_symop_operation_xyz
x,y,z
1/2-x,-y,z
1/2+x,-y,-z
-x,y,-z
-x,-y,-z
1/2+x,y,-z
1/2-x,y,z
x,-y,z
loop_
_atom_site_type_symbol
_atom_site_label
_atom_site_fract_x
_atom_site_fract_y
_atom_site_fract_z
Si Si1 0.160086 0.301161 0.302263
Si Si2 0.489284 0.802093 0.749357
Si Si3 0.513177 0.304480 0.124276
Si Si4 0.840218 0.304980 0.916457
Si Si5 0.571167 0.306881 0.584759
Si Si6 0.159316 0.201038 0.524772
Si Si7 0.340976 0.804399 0.956062
Si Si8 0.589793 0.189760 0.362926
O O1 0.250000 0.238033 0.286966
O O2 0.159224 0.500000 0.292962
O O3 0.141993 0.273987 0.369104
O O4 0.082958 0.230129 0.268708
O O5 0.471107 0.723030 0.809579
O O6 0.431995 0.735817 0.698191
O O7 0.477846 0.000000 0.753113
O O8 0.510874 0.500000 0.111253
O O9 0.422759 0.233501 0.110602
O O10 0.585463 0.231278 0.086348
O O11 0.750000 0.234140 0.902292
O O12 0.837345 0.500000 0.900853
O O13 0.850359 0.289201 0.984256
O O14 0.547081 0.500000 0.591361
O O15 0.598314 0.273552 0.521176
O O16 0.496579 0.194026 0.604267
O O17 0.250000 0.240653 0.505299
O O18 0.147388 0.264485 0.588997
O O19 0.149907 0.000000 0.525797
O O20 0.250000 0.763362 0.933243
O O21 0.341850 0.000000 0.969383
O O22 0.616633 0.000000 0.353016
#
# Coordination Sequence:
#
# PCOD9400923 Si02
#       8
#     8   8   8   8   8   8   8   8
#     4   9  18  33  51  71 100 137 172 209 259 319
#     4  10  21  36  53  74 101 135 179 226 265 307
#     4  11  22  36  57  83 112 149 188 225 269 322
#     4   9  19  36  57  83 116 151 183 215 259 320
#     4  10  19  31  50  76 102 128 161 203 254 311
#     4  10  20  33  50  72  97 126 161 203 254 312
#     4  10  21  37  58  85 115 146 182 227 276 319
#     4   9  19  36  53  69  95 132 171 209 253 307
#
# _framework density 20.532008000000001
#
# number of rings (size 3 to 8) (size 9 to 14) (size 15 to 20)
#    0.000    2.250    0.000    2.625    0.000    7.750 
#    0.000    1.875    0.000    2.250    0.000    0.000 
#    0.000    0.000    0.000    0.000    0.000    0.000 
#
# Total GULP energy -356969.309028 kJ/mol
# GULP energy per Si atom -5577.645454 kJ/mol
# Density = 2.048528 g / cm^3
# Si number density = 20.532008 Si / 1000 Ang^3
#
#
#
# Elastic Constant Matrix: (Units=GPa)
#
#
# Indices 1 2 3 4 5 6 
#
# 1 47.0352 4.8191 15.3208 0.0000 0.0000 0.0000
# 2 4.8191 22.7372 -10.6431 0.0000 0.0000 0.0000
# 3 15.3208 -10.6431 59.4234 0.0000 0.0000 0.0000
# 4 0.0000 0.0000 0.0000 27.2801 0.0000 0.0000
# 5 0.0000 0.0000 0.0000 0.0000 12.2022 0.0000
# 6 0.0000 0.0000 0.0000 0.0000 0.0000 17.4702
#
#
#
# Elastic Compliance Matrix: (Units=1/GPa)
#
#
# Indices 1 2 3 4 5 6 
#
# 1 0.024790 -0.009000 -0.008003 0.000000 0.000000 0.000000
# 2 -0.009000 0.051273 0.011504 0.000000 0.000000 0.000000
# 3 -0.008003 0.011504 0.020952 0.000000 0.000000 0.000000
# 4 0.000000 0.000000 0.000000 0.036657 0.000000 0.000000
# 5 0.000000 0.000000 0.000000 0.000000 0.081953 0.000000
# 6 0.000000 0.000000 0.000000 0.000000 0.000000 0.057240
#
#
# Mechanical properties :
#
#
# Convention : Reuss Voigt Hill
#
# Bulk Modulus (GPa) = 11.62582 16.46548 14.04565
# Shear Modulus (GPa) = 15.99812 19.37044 17.68428
#
# Velocity S-wave (km/s) = 2.79441 3.07486 2.93798
# Velocity P-wave (km/s) = 4.01076 4.54347 4.28540
#
# Compressibility (1/GPa) = 0.08601540
#
# Stress axis : x y z
#
# Youngs Moduli (GPa) = 40.33923 19.50331 47.72753
#
# Poissons Ratio (x) = 0.17554 0.38198
# Poissons Ratio (y) = 0.36307 -0.54905
# Poissons Ratio (z) = 0.32285 -0.22436
#
# Static dielectric constant tensor:
#      x y z
#    x 1.758070 0.000000 0.000000 
#    y 0.000000 1.750530 0.000000 
#    z 0.000000 0.000000 1.722500 
# 
# From -- ./inp_files/35698.got.cif
#   From: 2010.05.17/outbox.cif.g08.bks.cpg/sg51_18_cif.got.tgz:35698.got - 2010.06.03 11:52:47.
