data_PCOD9400875
_publ_section_title
;
Structure prediction by ZEFSAII (Michael W. Deem and Ramdas Pophale) SiO2 
 PCOD9400875
Probable space group: P M M A
;
_chemical_formula_sum "Si O2"
_cell_formula_units_Z 64
_cell_length_a 19.547607
_cell_length_b 8.897797
_cell_length_c 22.128619
_cell_angle_alpha 90.000000
_cell_angle_beta 90.000000
_cell_angle_gamma 90.000000
_cell_volume 3848.844841
_symmetry_space_group_name_H-M "P M M A"
_symmetry_group_IT_number 51
_symmetry_cell_setting 'orthorhombic'
loop_
_space_group_symop_operation_xyz
x,y,z
1/2-x,-y,z
1/2+x,-y,-z
-x,y,-z
-x,-y,-z
1/2+x,y,-z
1/2-x,y,z
x,-y,z
loop_
_atom_site_type_symbol
_atom_site_label
_atom_site_fract_x
_atom_site_fract_y
_atom_site_fract_z
Si Si1 0.911834 0.317819 0.851363
Si Si2 0.676746 0.179886 0.605363
Si Si3 0.027375 0.818226 0.434249
Si Si4 0.020767 0.671740 0.685561
Si Si5 0.670559 0.680954 0.969777
Si Si6 0.671290 0.819014 0.098798
Si Si7 0.554414 0.180318 0.192408
Si Si8 0.361339 0.671117 0.274167
O O1 0.919424 0.500000 0.849678
O O2 0.878262 0.273348 0.914699
O O3 0.861389 0.279226 0.795380
O O4 0.985082 0.244423 0.837888
O O5 0.750000 0.235365 0.580901
O O6 0.606261 0.233637 0.574919
O O7 0.672482 0.225886 0.675624
O O8 0.676201 0.000000 0.600578
O O9 0.000000 0.775073 0.500000
O O10 0.982983 0.752072 0.379204
O O11 0.026002 0.000000 0.429759
O O12 0.044055 0.500000 0.679957
O O13 0.059307 0.756674 0.739488
O O14 0.941782 0.669067 0.708280
O O15 0.750000 0.722091 0.957567
O O16 0.667569 0.500000 0.974155
O O17 0.651079 0.751006 0.034062
O O18 0.750000 0.773325 0.111062
O O19 0.618738 0.774634 0.151141
O O20 0.669789 0.000000 0.094364
O O21 0.549976 0.000000 0.194667
O O22 0.335552 0.500000 0.278883
#
# Coordination Sequence:
#
# PCOD9400875 Si02
#       8
#     8   8   8   8   8   8   8   8
#     4   9  18  31  46  67  95 123 152 189 232 277
#     4   9  17  28  42  63  91 119 150 190 227 258
#     4   9  17  30  49  71  95 126 160 188 220 268
#     4   9  17  30  48  70  95 119 146 184 227 269
#     4   9  18  32  48  65  88 122 161 197 235 283
#     4   9  19  35  51  67  89 118 154 197 244 290
#     4  10  19  31  50  72  93 119 152 193 237 281
#     4   8  15  27  42  61  86 117 149 179 216 264
#
# _framework density 16.628366
#
# number of rings (size 3 to 8) (size 9 to 14) (size 15 to 20)
#    0.000    3.000    0.000    1.500    0.000    6.000 
#    0.000    3.750    0.000    2.250    0.000    3.500 
#    0.000    0.000    0.000    0.000    0.000    0.000 
#
# Total GULP energy -356408.238887 kJ/mol
# GULP energy per Si atom -5568.878733 kJ/mol
# Density = 1.659052 g / cm^3
# Si number density = 16.628366 Si / 1000 Ang^3
#
#
#
# Elastic Constant Matrix: (Units=GPa)
#
#
# Indices 1 2 3 4 5 6 
#
# 1 72.0416 23.0036 72.8035 0.0000 0.0000 0.0000
# 2 23.0036 22.4453 37.5508 0.0000 0.0000 0.0000
# 3 72.8035 37.5508 159.9582 0.0000 0.0000 0.0000
# 4 0.0000 0.0000 0.0000 22.0427 0.0000 0.0000
# 5 0.0000 0.0000 0.0000 0.0000 10.9558 0.0000
# 6 0.0000 0.0000 0.0000 0.0000 0.0000 9.7636
#
#
#
# Elastic Compliance Matrix: (Units=1/GPa)
#
#
# Indices 1 2 3 4 5 6 
#
# 1 0.027517 -0.011937 -0.009722 0.000000 0.000000 0.000000
# 2 -0.011937 0.078545 -0.013006 0.000000 0.000000 0.000000
# 3 -0.009722 -0.013006 0.013730 0.000000 0.000000 0.000000
# 4 0.000000 0.000000 0.000000 0.045366 0.000000 0.000000
# 5 0.000000 0.000000 0.000000 0.000000 0.091275 0.000000
# 6 0.000000 0.000000 0.000000 0.000000 0.000000 0.102421
#
#
# Mechanical properties :
#
#
# Convention : Reuss Voigt Hill
#
# Bulk Modulus (GPa) = 19.81657 57.90677 38.86167
# Shear Modulus (GPa) = 11.23581 16.62491 13.93036
#
# Velocity S-wave (km/s) = 2.60225 3.16538 2.89753
# Velocity P-wave (km/s) = 4.57953 6.94688 5.88351
#
# Compressibility (1/GPa) = 0.05046282
#
# Stress axis : x y z
#
# Youngs Moduli (GPa) = 36.34085 12.73149 72.83485
#
# Poissons Ratio (x) = 0.15197 0.70810
# Poissons Ratio (y) = 0.43380 0.94728
# Poissons Ratio (z) = 0.35331 0.16558
#
# Static dielectric constant tensor:
#      x y z
#    x 1.573720 0.000000 0.000000 
#    y 0.000000 1.564990 0.000000 
#    z 0.000000 0.000000 1.549580 
# 
# From -- ./inp_files/34115.got.cif
#   From: 2010.05.17/outbox.cif.g08.bks.cpg/sg51_18_cif.got.tgz:34115.got - 2010.06.03 11:52:47.
