data_PCOD9400799
_publ_section_title
;
Structure prediction by ZEFSAII (Michael W. Deem and Ramdas Pophale) SiO2 
 PCOD9400799
Probable space group: P M M A
;
_chemical_formula_sum "Si O2"
_cell_formula_units_Z 64
_cell_length_a 28.863528
_cell_length_b 9.253654
_cell_length_c 13.366176
_cell_angle_alpha 90.000000
_cell_angle_beta 90.000000
_cell_angle_gamma 90.000000
_cell_volume 3570.013401
_symmetry_space_group_name_H-M "P M M A"
_symmetry_group_IT_number 51
_symmetry_cell_setting 'orthorhombic'
loop_
_space_group_symop_operation_xyz
x,y,z
1/2-x,-y,z
1/2+x,-y,-z
-x,y,-z
-x,-y,-z
1/2+x,y,-z
1/2-x,y,z
x,-y,z
loop_
_atom_site_type_symbol
_atom_site_label
_atom_site_fract_x
_atom_site_fract_y
_atom_site_fract_z
Si Si1 0.036040 0.341228 0.910810
Si Si2 0.194066 0.830997 0.089460
Si Si3 0.523631 0.168264 0.276643
Si Si4 0.805537 0.330959 0.707831
Si Si5 0.144072 0.330191 0.908082
Si Si6 0.358588 0.325720 0.495916
Si Si7 0.459456 0.336382 0.417670
Si Si8 0.130467 0.825156 0.697699
O O1 0.033289 0.500000 0.858601
O O2 0.022561 0.213187 0.837981
O O3 0.089744 0.323432 0.939129
O O4 0.000000 0.343692 0.000000
O O5 0.250000 0.820811 0.085354
O O6 0.179274 0.761497 0.195846
O O7 0.181252 0.000000 0.084837
O O8 0.173169 0.745306 0.995457
O O9 0.480963 0.242398 0.330706
O O10 0.575508 0.214805 0.310005
O O11 0.520946 0.000000 0.293972
O O12 0.750000 0.318655 0.700034
O O13 0.816985 0.500000 0.725961
O O14 0.827658 0.290482 0.601172
O O15 0.156133 0.500000 0.896801
O O16 0.147761 0.247480 0.801259
O O17 0.356461 0.500000 0.513192
O O18 0.411152 0.286852 0.464061
O O19 0.346811 0.241846 0.598040
O O20 0.500000 0.337183 0.500000
O O21 0.451916 0.500000 0.382172
O O22 0.134519 0.000000 0.702002
#
# Coordination Sequence:
#
# PCOD9400799 Si02
#       8
#     8   8   8   8   8   8   8   8
#     4   9  19  35  53  73 101 139 179 217 260 313
#     4  10  21  38  60  84 111 141 174 218 273 329
#     4  10  20  32  48  71 102 138 174 216 262 309
#     4   9  19  37  59  81 106 137 175 220 266 314
#     4  10  20  35  58  82 106 140 182 225 267 317
#     4  10  20  34  54  79 106 141 185 225 268 322
#     4  10  19  31  49  72 101 137 176 217 258 308
#     4  10  20  34  52  76 108 144 179 217 266 321
#
# _framework density 17.927104
#
# number of rings (size 3 to 8) (size 9 to 14) (size 15 to 20)
#    0.000    2.250    1.250    1.500    0.000    4.750 
#    0.000    5.625    0.000    2.250    0.000    0.000 
#    0.000    0.000    0.000    0.000    0.000    0.000 
#
# Total GULP energy -356746.264176 kJ/mol
# GULP energy per Si atom -5574.160378 kJ/mol
# Density = 1.788630 g / cm^3
# Si number density = 17.927104 Si / 1000 Ang^3
#
#
#
# Elastic Constant Matrix: (Units=GPa)
#
#
# Indices 1 2 3 4 5 6 
#
# 1 27.1010 30.9351 42.4478 0.0000 0.0000 0.0000
# 2 30.9351 67.9837 70.5101 0.0000 0.0000 0.0000
# 3 42.4478 70.5101 136.1481 0.0000 0.0000 0.0000
# 4 0.0000 0.0000 0.0000 51.6612 0.0000 0.0000
# 5 0.0000 0.0000 0.0000 0.0000 34.0601 0.0000
# 6 0.0000 0.0000 0.0000 0.0000 0.0000 25.3810
#
#
#
# Elastic Compliance Matrix: (Units=1/GPa)
#
#
# Indices 1 2 3 4 5 6 
#
# 1 0.088338 -0.025130 -0.014527 0.000000 0.000000 0.000000
# 2 -0.025130 0.038928 -0.012326 0.000000 0.000000 0.000000
# 3 -0.014527 -0.012326 0.018257 0.000000 0.000000 0.000000
# 4 0.000000 0.000000 0.000000 0.019357 0.000000 0.000000
# 5 0.000000 0.000000 0.000000 0.000000 0.029360 0.000000
# 6 0.000000 0.000000 0.000000 0.000000 0.000000 0.039400
#
#
# Mechanical properties :
#
#
# Convention : Reuss Voigt Hill
#
# Bulk Modulus (GPa) = 24.06274 57.66878 40.86576
# Shear Modulus (GPa) = 14.22643 28.04311 21.13477
#
# Velocity S-wave (km/s) = 2.82010 3.95940 3.43728
# Velocity P-wave (km/s) = 4.90465 7.28977 6.21274
#
# Compressibility (1/GPa) = 0.04155802
#
# Stress axis : x y z
#
# Youngs Moduli (GPa) = 11.32015 25.68826 54.77209
#
# Poissons Ratio (x) = 0.64555 0.79567
# Poissons Ratio (y) = 0.28448 0.67510
# Poissons Ratio (z) = 0.16445 0.31662
#
# Static dielectric constant tensor:
#      x y z
#    x 1.610610 0.000000 0.000000 
#    y 0.000000 1.621430 0.000000 
#    z 0.000000 0.000000 1.615150 
# 
# From -- ./inp_files/19563.got.cif
#   From: 2010.05.17/outbox.cif.g08.bks.cpg/sg51_10_cif.got.tgz:19563.got - 2010.06.03 11:52:47.
