data_PCOD9400816
_publ_section_title
;
Structure prediction by ZEFSAII (Michael W. Deem and Ramdas Pophale) SiO2 
 PCOD9400816
Probable space group: P M M A
;
_chemical_formula_sum "Si O2"
_cell_formula_units_Z 48
_cell_length_a 19.397599
_cell_length_b 7.444472
_cell_length_c 15.376386
_cell_angle_alpha 90.000000
_cell_angle_beta 90.000000
_cell_angle_gamma 90.000000
_cell_volume 2220.425215
_symmetry_space_group_name_H-M "P M M A"
_symmetry_group_IT_number 51
_symmetry_cell_setting 'orthorhombic'
loop_
_space_group_symop_operation_xyz
x,y,z
1/2-x,-y,z
1/2+x,-y,-z
-x,y,-z
-x,-y,-z
1/2+x,y,-z
1/2-x,y,z
x,-y,z
loop_
_atom_site_type_symbol
_atom_site_label
_atom_site_fract_x
_atom_site_fract_y
_atom_site_fract_z
Si Si1 0.431537 0.792193 0.381742
Si Si2 0.921714 0.214118 0.318742
Si Si3 0.671934 0.780098 0.470699
Si Si4 0.826355 0.282252 0.769182
Si Si5 0.444063 0.714849 0.880462
Si Si6 0.402742 0.281093 0.064430
O O1 0.506173 0.713221 0.358424
O O2 0.383884 0.716269 0.458368
O O3 0.384799 0.784082 0.295758
O O4 0.443556 0.000000 0.405968
O O5 0.857485 0.274805 0.376683
O O6 0.918673 0.244637 0.215847
O O7 0.924729 0.000000 0.329104
O O8 0.750000 0.719458 0.487175
O O9 0.673578 0.000000 0.474942
O O10 0.750000 0.222788 0.743220
O O11 0.827920 0.500000 0.765948
O O12 0.844985 0.225498 0.867233
O O13 0.446488 0.500000 0.886490
O O14 0.522904 0.775706 0.896649
O O15 0.400603 0.778614 0.964178
O O16 0.401910 0.500000 0.064013
#
# Coordination Sequence:
#
# PCOD9400816 Si02
#       6
#     8   8   8   8   8   8
#     4  10  19  32  51  74  98 126 162 204 245 289
#     4  10  19  31  50  77 100 122 161 210 246 280
#     4   9  18  33  51  69  95 133 168 196 238 297
#     4  10  19  31  49  73 101 130 161 201 247 293
#     4   9  16  30  52  71  93 127 163 197 235 285
#     4   8  15  29  48  69  94 127 163 192 229 287
#
# _framework density 21.61748
#
# number of rings (size 3 to 8) (size 9 to 14) (size 15 to 20)
#    0.000    2.667    1.667    2.000    0.000    3.000 
#    0.000    4.167    0.000    4.500    0.000    0.000 
#    0.000    0.000    0.000    0.000    0.000    0.000 
#
# Total GULP energy -267848.593825 kJ/mol
# GULP energy per Si atom -5580.179038 kJ/mol
# Density = 2.156828 g / cm^3
# Si number density = 21.617480 Si / 1000 Ang^3
#
#
#
# Elastic Constant Matrix: (Units=GPa)
#
#
# Indices 1 2 3 4 5 6 
#
# 1 33.4012 -1.3459 18.1058 0.0000 0.0000 0.0000
# 2 -1.3459 63.7149 -6.4522 0.0000 0.0000 0.0000
# 3 18.1058 -6.4522 134.4483 0.0000 0.0000 0.0000
# 4 0.0000 0.0000 0.0000 18.8847 0.0000 0.0000
# 5 0.0000 0.0000 0.0000 0.0000 16.3589 0.0000
# 6 0.0000 0.0000 0.0000 0.0000 0.0000 6.9371
#
#
#
# Elastic Compliance Matrix: (Units=1/GPa)
#
#
# Indices 1 2 3 4 5 6 
#
# 1 0.032300 0.000243 -0.004338 0.000000 0.000000 0.000000
# 2 0.000243 0.015773 0.000724 0.000000 0.000000 0.000000
# 3 -0.004338 0.000724 0.008057 0.000000 0.000000 0.000000
# 4 0.000000 0.000000 0.000000 0.052953 0.000000 0.000000
# 5 0.000000 0.000000 0.000000 0.000000 0.061129 0.000000
# 6 0.000000 0.000000 0.000000 0.000000 0.000000 0.144152
#
#
# Mechanical properties :
#
#
# Convention : Reuss Voigt Hill
#
# Bulk Modulus (GPa) = 20.24751 28.01997 24.13374
# Shear Modulus (GPa) = 14.81179 23.18660 18.99920
#
# Velocity S-wave (km/s) = 2.62043 3.27859 2.96781
# Velocity P-wave (km/s) = 4.30606 5.22705 4.78875
#
# Compressibility (1/GPa) = 0.04938879
#
# Stress axis : x y z
#
# Youngs Moduli (GPa) = 30.95934 63.39790 124.11923
#
# Poissons Ratio (x) = -0.01541 0.53845
# Poissons Ratio (y) = -0.00752 -0.08989
# Poissons Ratio (z) = 0.13431 -0.04592
#
# Static dielectric constant tensor:
#      x y z
#    x 1.750810 0.000000 0.000000 
#    y 0.000000 1.855320 0.000000 
#    z 0.000000 0.000000 1.796190 
# 
# From -- ./inp_files/25443.got.cif
#   From: 2010.05.17/outbox.cif.g08.bks.cpg/sg51_13_cif.got.tgz:25443.got - 2010.06.03 11:52:47.
