data_PCOD9400200
_publ_section_title
;
Structure prediction by ZEFSAII (Michael W. Deem and Ramdas Pophale) SiO2 
 PCOD9400200
Probable space group: P M M A
;
_chemical_formula_sum "Si O2"
_cell_formula_units_Z 40
_cell_length_a 8.821766
_cell_length_b 16.126988
_cell_length_c 20.002017
_cell_angle_alpha 90.000000
_cell_angle_beta 90.000000
_cell_angle_gamma 90.000000
_cell_volume 2845.657244
_symmetry_space_group_name_H-M "P M M A"
_symmetry_group_IT_number 51
_symmetry_cell_setting 'orthorhombic'
loop_
_space_group_symop_operation_xyz
x,y,z
1/2-x,-y,z
1/2+x,-y,-z
-x,y,-z
-x,-y,-z
1/2+x,y,-z
1/2-x,y,z
x,-y,z
loop_
_atom_site_type_symbol
_atom_site_label
_atom_site_fract_x
_atom_site_fract_y
_atom_site_fract_z
Si Si1 0.075166 0.100847 0.069212
Si Si2 0.932861 0.318600 0.574538
Si Si3 0.430226 0.901184 0.790355
Si Si4 0.568250 0.000000 0.425757
Si Si5 0.432621 0.500000 0.425498
Si Si6 0.432000 0.845130 0.345297
O O1 0.250000 0.126420 0.072959
O O2 0.986687 0.124917 0.136284
O O3 0.072087 0.000000 0.067672
O O4 0.000000 0.129400 0.000000
O O5 0.750000 0.317047 0.568701
O O6 0.977877 0.409804 0.602509
O O7 0.976986 0.242176 0.621354
O O8 0.000000 0.308845 0.500000
O O9 0.250000 0.890942 0.784724
O O10 0.514143 0.854190 0.730830
O O11 0.463276 0.000000 0.782888
O O12 0.500000 0.000000 0.500000
O O13 0.508982 0.080679 0.386656
O O14 0.750000 0.000000 0.427944
O O15 0.250000 0.500000 0.428471
O O16 0.500000 0.500000 0.500000
O O17 0.250000 0.853751 0.349076
#
# Coordination Sequence:
#
# PCOD9400200 Si02
#       6
#     8   8   8   4   4   8
#     4   9  16  26  41  60  81 106 138 176 213 248
#     4   9  18  30  46  65  83 106 135 172 215 260
#     4  10  19  30  43  59  81 111 145 177 213 251
#     4  12  24  36  46  58  77 108 145 182 218 250
#     4   8  14  28  46  64  84 102 127 164 211 262
#     4  11  21  32  45  62  83 110 143 178 215 253
#
# _framework density 14.056507
#
# number of rings (size 3 to 8) (size 9 to 14) (size 15 to 20)
#    0.000    2.200    1.000    3.300    0.000    6.400 
#    0.000    0.000    0.000    0.000    0.000    0.000 
#    0.000    0.000    0.000    0.900    0.000    9.000 
#
# Total GULP energy -222942.137096 kJ/mol
# GULP energy per Si atom -5573.553427 kJ/mol
# Density = 1.402451 g / cm^3
# Si number density = 14.056507 Si / 1000 Ang^3
#
#
#
# Elastic Constant Matrix: (Units=GPa)
#
#
# Indices 1 2 3 4 5 6 
#
# 1 53.5236 35.0139 36.2396 0.0000 0.0000 0.0000
# 2 35.0139 102.4670 51.7018 0.0000 0.0000 0.0000
# 3 36.2396 51.7018 106.8595 0.0000 0.0000 0.0000
# 4 0.0000 0.0000 0.0000 3.0019 0.0000 0.0000
# 5 0.0000 0.0000 0.0000 0.0000 26.7840 0.0000
# 6 0.0000 0.0000 0.0000 0.0000 0.0000 6.1830
#
#
#
# Elastic Compliance Matrix: (Units=1/GPa)
#
#
# Indices 1 2 3 4 5 6 
#
# 1 0.026818 -0.006053 -0.006166 0.000000 0.000000 0.000000
# 2 -0.006053 0.014277 -0.004855 0.000000 0.000000 0.000000
# 3 -0.006166 -0.004855 0.013798 0.000000 0.000000 0.000000
# 4 0.000000 0.000000 0.000000 0.333122 0.000000 0.000000
# 5 0.000000 0.000000 0.000000 0.000000 0.037336 0.000000
# 6 0.000000 0.000000 0.000000 0.000000 0.000000 0.161733
#
#
# Mechanical properties :
#
#
# Convention : Reuss Voigt Hill
#
# Bulk Modulus (GPa) = 48.20365 56.52894 52.36630
# Shear Modulus (GPa) = 7.95992 16.52011 12.24002
#
# Velocity S-wave (km/s) = 2.38225 3.43193 2.95409
# Velocity P-wave (km/s) = 6.47565 7.48378 6.99789
#
# Compressibility (1/GPa) = 0.02074532
#
# Stress axis : x y z
#
# Youngs Moduli (GPa) = 37.28851 70.04182 72.47232
#
# Poissons Ratio (x) = 0.42393 0.44690
# Poissons Ratio (y) = 0.22569 0.35186
# Poissons Ratio (z) = 0.22994 0.34006
#
# Static dielectric constant tensor:
#      x y z
#    x 1.468760 0.000000 0.000000 
#    y 0.000000 1.468860 0.000000 
#    z 0.000000 0.000000 1.445370 
# 
# From -- ./inp_files/27784.got.cif
#   From: 2010.05.17/outbox.cif.g08.bks.cpg/sg51_14_cif.got.tgz:27784.got - 2010.06.03 11:52:47.
