data_PCOD9400300
_publ_section_title
;
Structure prediction by ZEFSAII (Michael W. Deem and Ramdas Pophale) SiO2 
 PCOD9400300
Probable space group: P M M A
;
_chemical_formula_sum "Si O2"
_cell_formula_units_Z 56
_cell_length_a 8.107464
_cell_length_b 19.871526
_cell_length_c 19.226130
_cell_angle_alpha 90.000000
_cell_angle_beta 90.000000
_cell_angle_gamma 90.000000
_cell_volume 3097.477232
_symmetry_space_group_name_H-M "P M M A"
_symmetry_group_IT_number 51
_symmetry_cell_setting 'orthorhombic'
loop_
_space_group_symop_operation_xyz
x,y,z
1/2-x,-y,z
1/2+x,-y,-z
-x,y,-z
-x,-y,-z
1/2+x,y,-z
1/2-x,y,z
x,-y,z
loop_
_atom_site_type_symbol
_atom_site_label
_atom_site_fract_x
_atom_site_fract_y
_atom_site_fract_z
Si Si1 0.553639 0.282934 0.341958
Si Si2 0.448712 0.574479 0.312976
Si Si3 0.048968 0.574518 0.150975
Si Si4 0.949391 0.710472 0.921434
Si Si5 0.447221 0.204586 0.206899
Si Si6 0.053059 0.152524 0.577950
Si Si7 0.448260 0.924685 0.286560
O O1 0.750000 0.278265 0.336557
O O2 0.507122 0.360136 0.354081
O O3 0.479768 0.257857 0.268575
O O4 0.497349 0.227660 0.398442
O O5 0.250000 0.574713 0.313489
O O6 0.503953 0.500000 0.336425
O O7 0.500660 0.582313 0.231885
O O8 0.250000 0.575188 0.150623
O O9 0.996255 0.500000 0.127265
O O10 0.992008 0.637020 0.104977
O O11 0.750000 0.709831 0.918161
O O12 0.010318 0.765327 0.865411
O O13 0.000000 0.723651 0.000000
O O14 0.250000 0.197892 0.200364
O O15 0.513427 0.133015 0.234292
O O16 0.250000 0.150446 0.581649
O O17 0.000000 0.137242 0.500000
O O18 0.985561 0.101633 0.635924
O O19 0.250000 0.926540 0.279094
O O20 0.512472 0.000000 0.275292
#
# Coordination Sequence:
#
# PCOD9400300 Si02
#       7
#     8   8   8   8   8   8   8
#     4  10  19  30  48  73  99 124 158 205 249 281
#     4   9  16  28  48  70  92 124 165 204 245 294
#     4   8  14  26  43  62  87 120 157 195 236 285
#     4  10  19  30  45  65  91 126 163 202 245 286
#     4   9  17  32  51  69  93 126 163 198 238 292
#     4  10  21  35  51  75 105 137 164 191 231 282
#     4   9  18  33  55  80 101 125 159 198 238 283
#
# _framework density 18.079229999999999
#
# number of rings (size 3 to 8) (size 9 to 14) (size 15 to 20)
#    0.000    2.714    1.429    1.714    0.000    3.429 
#    0.000    0.000    0.000    0.857    0.000    0.000 
#    0.000    0.000    0.000    0.000    0.000    0.000 
#
# Total GULP energy -312128.767930 kJ/mol
# GULP energy per Si atom -5573.727999 kJ/mol
# Density = 1.803808 g / cm^3
# Si number density = 18.079230 Si / 1000 Ang^3
#
#
#
# Elastic Constant Matrix: (Units=GPa)
#
#
# Indices 1 2 3 4 5 6 
#
# 1 7.3642 10.0063 5.9780 0.0000 0.0000 0.0000
# 2 10.0063 156.3905 45.8057 0.0000 0.0000 0.0000
# 3 5.9780 45.8057 54.2745 0.0000 0.0000 0.0000
# 4 0.0000 0.0000 0.0000 -8.6198 0.0000 0.0000
# 5 0.0000 0.0000 0.0000 0.0000 16.7741 0.0000
# 6 0.0000 0.0000 0.0000 0.0000 0.0000 4.7338
#
#
#
# Elastic Compliance Matrix: (Units=1/GPa)
#
#
# Indices 1 2 3 4 5 6 
#
# 1 0.153923 -0.006486 -0.011480 0.000000 0.000000 0.000000
# 2 -0.006486 0.008767 -0.006685 0.000000 0.000000 0.000000
# 3 -0.011480 -0.006685 0.025331 0.000000 0.000000 0.000000
# 4 0.000000 0.000000 0.000000 -0.116011 0.000000 0.000000
# 5 0.000000 0.000000 0.000000 0.000000 0.059616 0.000000
# 6 0.000000 0.000000 0.000000 0.000000 0.000000 0.211248
#
#
# Mechanical properties :
#
#
# Convention : Reuss Voigt Hill
#
# Bulk Modulus (GPa) = 7.20876 37.95657 22.58267
# Shear Modulus (GPa) = 11.40472 12.99355 12.19914
#
# Velocity S-wave (km/s) = 2.51434 2.68377 2.60043
# Velocity P-wave (km/s) = 3.52493 5.53567 4.64052
#
# Compressibility (1/GPa) = 0.13872008
#
# Stress axis : x y z
#
# Youngs Moduli (GPa) = 6.49675 114.06189 39.47732
#
# Poissons Ratio (x) = 0.73981 0.45319
# Poissons Ratio (y) = 0.04214 0.26390
# Poissons Ratio (z) = 0.07458 0.76248
#
# Static dielectric constant tensor:
#      x y z
#    x 1.633850 0.000000 0.000000 
#    y 0.000000 1.658320 0.000000 
#    z 0.000000 0.000000 1.593440 
# 
# From -- ./inp_files/28161.got.cif
#   From: 2010.05.17/outbox.cif.g08.bks.cpg/sg51_15_cif.got.tgz:28161.got - 2010.06.03 11:52:47.
