data_PCOD9400695
_publ_section_title
;
Structure prediction by ZEFSAII (Michael W. Deem and Ramdas Pophale) SiO2 
 PCOD9400695
Probable space group: P M M A
;
_chemical_formula_sum "Si O2"
_cell_formula_units_Z 64
_cell_length_a 14.046979
_cell_length_b 35.849205
_cell_length_c 5.379387
_cell_angle_alpha 90.000000
_cell_angle_beta 90.000000
_cell_angle_gamma 90.000000
_cell_volume 2708.914210
_symmetry_space_group_name_H-M "P M M A"
_symmetry_group_IT_number 51
_symmetry_cell_setting 'orthorhombic'
loop_
_space_group_symop_operation_xyz
x,y,z
1/2-x,-y,z
1/2+x,-y,-z
-x,y,-z
-x,-y,-z
1/2+x,y,-z
1/2-x,y,z
x,-y,z
loop_
_atom_site_type_symbol
_atom_site_label
_atom_site_fract_x
_atom_site_fract_y
_atom_site_fract_z
Si Si1 0.606369 0.329100 0.768177
Si Si2 0.366450 0.457194 0.646808
Si Si3 0.634512 0.211028 0.352485
Si Si4 0.633333 0.169744 0.851458
Si Si5 0.366011 0.957490 0.747167
Si Si6 0.634451 0.415519 0.854165
Si Si7 0.865839 0.914589 0.752040
Si Si8 0.606553 0.297493 0.267568
O O1 0.604602 0.373007 0.813991
O O2 0.650078 0.318115 0.504737
O O3 0.499982 0.313228 0.750057
O O4 0.650368 0.308539 0.004615
O O5 0.250000 0.457206 0.647689
O O6 0.396909 0.500000 0.675826
O O7 0.395752 0.440227 0.382029
O O8 0.396709 0.432362 0.881911
O O9 0.750000 0.210492 0.353047
O O10 0.603957 0.195839 0.621253
O O11 0.605218 0.253495 0.308649
O O12 0.603816 0.185391 0.120078
O O13 0.750000 0.169297 0.854144
O O14 0.601283 0.127675 0.795223
O O15 0.250000 0.958538 0.744451
O O16 0.394131 0.932626 0.510312
O O17 0.400016 0.000000 0.723929
O O18 0.392741 0.939512 0.010623
O O19 0.750000 0.415658 0.856190
O O20 0.750000 0.913444 0.748630
#
# Coordination Sequence:
#
# PCOD9400695 Si02
#       8
#     8   8   8   8   8   8   8   8
#     4  10  21  36  52  73  99 131 166 197 235 288
#     4   9  17  30  49  77 111 139 164 198 238 277
#     4  10  19  31  48  69  91 115 152 203 251 295
#     4   9  17  28  42  62  86 113 147 195 254 301
#     4   9  15  21  30  46  69 102 146 191 229 270
#     4  10  19  31  51  79 107 135 168 202 234 273
#     4   9  15  23  34  48  72 105 140 185 239 284
#     4  10  21  36  52  70  93 127 161 199 245 295
#
# _framework density 23.625703000000001
#
# number of rings (size 3 to 8) (size 9 to 14) (size 15 to 20)
#    0.000    2.500    0.000    3.000    0.000    7.000 
#    0.000    0.000    0.000    0.000    0.000   35.000 
#    0.000    0.000    0.000    0.000    0.000    0.750 
#
# Total GULP energy -358235.033760 kJ/mol
# GULP energy per Si atom -5597.422403 kJ/mol
# Density = 2.357193 g / cm^3
# Si number density = 23.625703 Si / 1000 Ang^3
#
#
#
# Elastic Constant Matrix: (Units=GPa)
#
#
# Indices 1 2 3 4 5 6 
#
# 1 96.6607 14.2116 25.7192 0.0000 0.0000 0.0000
# 2 14.2116 226.3023 129.2632 0.0000 0.0000 0.0000
# 3 25.7192 129.2632 265.4957 0.0000 0.0000 0.0000
# 4 0.0000 0.0000 0.0000 51.1559 0.0000 0.0000
# 5 0.0000 0.0000 0.0000 0.0000 -4.3052 0.0000
# 6 0.0000 0.0000 0.0000 0.0000 0.0000 24.8416
#
#
#
# Elastic Compliance Matrix: (Units=1/GPa)
#
#
# Indices 1 2 3 4 5 6 
#
# 1 0.010621 -0.000110 -0.000975 0.000000 0.000000 0.000000
# 2 -0.000110 0.006122 -0.002970 0.000000 0.000000 0.000000
# 3 -0.000975 -0.002970 0.005307 0.000000 0.000000 0.000000
# 4 0.000000 0.000000 0.000000 0.019548 0.000000 0.000000
# 5 0.000000 0.000000 0.000000 0.000000 -0.232275 0.000000
# 6 0.000000 0.000000 0.000000 0.000000 0.000000 0.040255
#
#
# Mechanical properties :
#
#
# Convention : Reuss Voigt Hill
#
# Bulk Modulus (GPa) = 71.73733 102.98297 87.36015
# Shear Modulus (GPa) = -36.32031 42.28943 2.98456
#
# Velocity S-wave (km/s) = -3.92512 4.23540 1.12517
# Velocity P-wave (km/s) = 3.14450 8.22205 6.22455
#
# Compressibility (1/GPa) = 0.01393974
#
# Stress axis : x y z
#
# Youngs Moduli (GPa) = 94.15180 163.33700 188.42589
#
# Poissons Ratio (x) = 0.01794 0.18379
# Poissons Ratio (y) = 0.01034 0.55965
# Poissons Ratio (z) = 0.09184 0.48514
#
# Static dielectric constant tensor:
#      x y z
#    x 1.903880 0.000000 0.000000 
#    y 0.000000 1.791360 0.000000 
#    z 0.000000 0.000000 1.901430 
# 
# From -- ./inp_files/2107.got.cif
#   From: 2010.05.17/outbox.cif.g08.bks.cpg/sg51_2_cif.got.tgz:2107.got - 2010.06.03 11:52:47.
