data_PCOD9400423
_publ_section_title
;
Structure prediction by ZEFSAII (Michael W. Deem and Ramdas Pophale) SiO2 
 PCOD9400423
Probable space group: P M M A
;
_chemical_formula_sum "Si O2"
_cell_formula_units_Z 56
_cell_length_a 14.122910
_cell_length_b 7.454732
_cell_length_c 24.757263
_cell_angle_alpha 90.000000
_cell_angle_beta 90.000000
_cell_angle_gamma 90.000000
_cell_volume 2606.506767
_symmetry_space_group_name_H-M "P M M A"
_symmetry_group_IT_number 51
_symmetry_cell_setting 'orthorhombic'
loop_
_space_group_symop_operation_xyz
x,y,z
1/2-x,-y,z
1/2+x,-y,-z
-x,y,-z
-x,-y,-z
1/2+x,y,-z
1/2-x,y,z
x,-y,z
loop_
_atom_site_type_symbol
_atom_site_label
_atom_site_fract_x
_atom_site_fract_y
_atom_site_fract_z
Si Si1 0.143395 0.793471 0.652931
Si Si2 0.046533 0.281315 0.083036
Si Si3 0.865193 0.292685 0.468647
Si Si4 0.550087 0.294369 0.695116
Si Si5 0.360874 0.280963 0.414742
Si Si6 0.860013 0.280488 0.805693
Si Si7 0.856001 0.281329 0.028343
O O1 0.250000 0.717216 0.656443
O O2 0.113571 0.786896 0.589723
O O3 0.062812 0.706224 0.689038
O O4 0.147484 0.000000 0.668858
O O5 0.046832 0.500000 0.083642
O O6 0.087408 0.220123 0.140000
O O7 0.939613 0.224701 0.068689
O O8 0.111647 0.228668 0.032077
O O9 0.750000 0.287765 0.472675
O O10 0.895057 0.500000 0.464750
O O11 0.898204 0.218830 0.526596
O O12 0.584271 0.500000 0.694516
O O13 0.589073 0.213986 0.639240
O O14 0.589074 0.217812 0.750844
O O15 0.250000 0.237115 0.410438
O O16 0.368069 0.500000 0.417052
O O17 0.750000 0.228912 0.805833
O O18 0.862991 0.500000 0.806466
O O19 0.750000 0.220308 0.040633
O O20 0.855327 0.500000 0.028954
#
# Coordination Sequence:
#
# PCOD9400423 Si02
#       7
#     8   8   8   8   8   8   8
#     4  10  21  36  50  63  84 115 148 184 227 273
#     4   8  13  20  31  50  76 110 153 191 224 264
#     4   8  14  27  48  69  87 110 142 180 221 268
#     4  10  19  30  47  69  90 115 149 186 222 263
#     4   8  14  26  45  69  94 117 142 175 219 271
#     4   9  16  26  41  61  85 113 147 187 226 265
#     4   8  12  18  29  46  73 111 151 189 226 264
#
# _framework density 21.484694000000001
#
# number of rings (size 3 to 8) (size 9 to 14) (size 15 to 20)
#    0.000    3.286    0.000    3.000    0.000    4.857 
#    0.000    4.286    0.000    5.143    0.000    0.000 
#    0.000    0.000    0.000    2.571    0.000   12.571 
#
# Total GULP energy -312433.708874 kJ/mol
# GULP energy per Si atom -5579.173373 kJ/mol
# Density = 2.143579 g / cm^3
# Si number density = 21.484694 Si / 1000 Ang^3
#
#
#
# Elastic Constant Matrix: (Units=GPa)
#
#
# Indices 1 2 3 4 5 6 
#
# 1 155.9778 -2.1537 111.8154 0.0000 0.0000 0.0000
# 2 -2.1537 59.1911 5.8462 0.0000 0.0000 0.0000
# 3 111.8154 5.8462 158.4666 0.0000 0.0000 0.0000
# 4 0.0000 0.0000 0.0000 91.5101 0.0000 0.0000
# 5 0.0000 0.0000 0.0000 0.0000 30.7848 0.0000
# 6 0.0000 0.0000 0.0000 0.0000 0.0000 -16.2305
#
#
#
# Elastic Compliance Matrix: (Units=1/GPa)
#
#
# Indices 1 2 3 4 5 6 
#
# 1 0.013087 0.001393 -0.009286 0.000000 0.000000 0.000000
# 2 0.001393 0.017105 -0.001614 0.000000 0.000000 0.000000
# 3 -0.009286 -0.001614 0.012922 0.000000 0.000000 0.000000
# 4 0.000000 0.000000 0.000000 0.010928 0.000000 0.000000
# 5 0.000000 0.000000 0.000000 0.000000 0.032484 0.000000
# 6 0.000000 0.000000 0.000000 0.000000 0.000000 -0.061613
#
#
# Mechanical properties :
#
#
# Convention : Reuss Voigt Hill
#
# Bulk Modulus (GPa) = 41.49282 67.18348 54.33815
# Shear Modulus (GPa) = 96.22945 38.42140 67.32543
#
# Velocity S-wave (km/s) = 6.69978 4.23344 5.60397
# Velocity P-wave (km/s) = 8.89966 7.43197 8.19873
#
# Compressibility (1/GPa) = 0.02410055
#
# Stress axis : x y z
#
# Youngs Moduli (GPa) = 76.41139 58.46397 77.38665
#
# Poissons Ratio (x) = -0.08146 0.71859
# Poissons Ratio (y) = -0.10646 0.12491
# Poissons Ratio (z) = 0.70954 0.09437
#
# Static dielectric constant tensor:
#      x y z
#    x 1.794170 0.000000 0.000000 
#    y 0.000000 1.819840 0.000000 
#    z 0.000000 0.000000 1.752140 
# 
# From -- ./inp_files/33446.got.cif
#   From: 2010.05.17/outbox.cif.g08.bks.cpg/sg51_17_cif.got.tgz:33446.got - 2010.06.03 11:52:47.
