data_PCOD9400505
_publ_section_title
;
Structure prediction by ZEFSAII (Michael W. Deem and Ramdas Pophale) SiO2 
 PCOD9400505
Probable space group: P M M A
;
_chemical_formula_sum "Si O2"
_cell_formula_units_Z 56
_cell_length_a 20.919123
_cell_length_b 16.830878
_cell_length_c 9.489238
_cell_angle_alpha 90.000000
_cell_angle_beta 90.000000
_cell_angle_gamma 90.000000
_cell_volume 3341.039305
_symmetry_space_group_name_H-M "P M M A"
_symmetry_group_IT_number 51
_symmetry_cell_setting 'orthorhombic'
loop_
_space_group_symop_operation_xyz
x,y,z
1/2-x,-y,z
1/2+x,-y,-z
-x,y,-z
-x,-y,-z
1/2+x,y,-z
1/2-x,y,z
x,-y,z
loop_
_atom_site_type_symbol
_atom_site_label
_atom_site_fract_x
_atom_site_fract_y
_atom_site_fract_z
Si Si1 0.444205 0.593944 0.385036
Si Si2 0.998555 0.287006 0.833556
Si Si3 0.424309 0.083226 0.503873
Si Si4 0.673610 0.093120 0.043708
Si Si5 0.125889 0.213027 0.713445
Si Si6 0.177437 0.298313 0.449523
Si Si7 0.116869 0.830355 0.240006
O O1 0.500000 0.608507 0.500000
O O2 0.435455 0.500000 0.369145
O O3 0.470214 0.636474 0.245011
O O4 0.378436 0.636638 0.430701
O O5 0.949056 0.216097 0.794551
O O6 0.930254 0.265967 0.219057
O O7 0.000000 0.296836 0.000000
O O8 0.500000 0.079623 0.500000
O O9 0.407357 0.155400 0.601811
O O10 0.601453 0.099612 0.651310
O O11 0.397947 0.000000 0.559713
O O12 0.750000 0.090632 0.033861
O O13 0.646099 0.133114 0.901385
O O14 0.651739 0.000000 0.061075
O O15 0.655591 0.154023 0.170012
O O16 0.171233 0.263536 0.609068
O O17 0.250000 0.326215 0.427364
O O18 0.160840 0.230940 0.330776
#
# Coordination Sequence:
#
# PCOD9400505 Si02
#       7
#     8   8   8   8   8   8   8
#     4  10  21  38  62  90 116 141 177 224 274 332
#     4  11  20  35  57  84 110 147 175 226 280 335
#     4  10  19  30  48  74 106 140 179 235 292 328
#     4  11  23  37  51  72 108 152 194 238 286 332
#     4  11  20  35  53  79 109 143 189 232 273 336
#     4  10  21  36  60  85 111 148 186 226 275 333
#     4  10  20  34  54  77 109 140 193 231 279 328
#
# _framework density 16.761251999999999
#
# number of rings (size 3 to 8) (size 9 to 14) (size 15 to 20)
#    0.000    1.571    4.286    1.714    0.000    0.571 
#    0.000    0.714    0.000    6.857    0.000    0.000 
#    0.000    0.000    0.000    0.000    0.000    0.000 
#
# Total GULP energy -312089.558912 kJ/mol
# GULP energy per Si atom -5573.027838 kJ/mol
# Density = 1.672310 g / cm^3
# Si number density = 16.761252 Si / 1000 Ang^3
#
#
#
# Elastic Constant Matrix: (Units=GPa)
#
#
# Indices 1 2 3 4 5 6 
#
# 1 84.5181 32.0647 13.4758 0.0000 0.0000 0.0000
# 2 32.0647 76.6664 20.7914 0.0000 0.0000 0.0000
# 3 13.4758 20.7914 91.6646 0.0000 0.0000 0.0000
# 4 0.0000 0.0000 0.0000 11.1103 0.0000 0.0000
# 5 0.0000 0.0000 0.0000 0.0000 21.8475 0.0000
# 6 0.0000 0.0000 0.0000 0.0000 0.0000 13.4300
#
#
#
# Elastic Compliance Matrix: (Units=1/GPa)
#
#
# Indices 1 2 3 4 5 6 
#
# 1 0.014116 -0.005691 -0.000784 0.000000 0.000000 0.000000
# 2 -0.005691 0.016193 -0.002836 0.000000 0.000000 0.000000
# 3 -0.000784 -0.002836 0.011668 0.000000 0.000000 0.000000
# 4 0.000000 0.000000 0.000000 0.090006 0.000000 0.000000
# 5 0.000000 0.000000 0.000000 0.000000 0.045772 0.000000
# 6 0.000000 0.000000 0.000000 0.000000 0.000000 0.074460
#
#
# Mechanical properties :
#
#
# Convention : Reuss Voigt Hill
#
# Bulk Modulus (GPa) = 42.82018 42.83475 42.82747
# Shear Modulus (GPa) = 17.94539 21.71205 19.82872
#
# Velocity S-wave (km/s) = 3.27562 3.60303 3.44322
# Velocity P-wave (km/s) = 6.31735 6.55137 6.43542
#
# Compressibility (1/GPa) = 0.02335348
#
# Stress axis : x y z
#
# Youngs Moduli (GPa) = 70.84194 61.75545 85.70476
#
# Poissons Ratio (x) = 0.35146 0.06722
# Poissons Ratio (y) = 0.40317 0.24308
# Poissons Ratio (z) = 0.05557 0.17515
#
# Static dielectric constant tensor:
#      x y z
#    x 1.564930 0.000000 0.000000 
#    y 0.000000 1.563640 0.000000 
#    z 0.000000 0.000000 1.597690 
# 
# From -- ./inp_files/11026.got.cif
#   From: 2010.05.17/outbox.cif.g08.bks.cpg/sg51_6_cif.got.tgz:11026.got - 2010.06.03 11:52:47.
