data_PCOD9400934
_publ_section_title
;
Structure prediction by ZEFSAII (Michael W. Deem and Ramdas Pophale) SiO2 
 PCOD9400934
Probable space group: P M M A
;
_chemical_formula_sum "Si O2"
_cell_formula_units_Z 56
_cell_length_a 7.795045
_cell_length_b 20.880397
_cell_length_c 16.176125
_cell_angle_alpha 90.000000
_cell_angle_beta 90.000000
_cell_angle_gamma 90.000000
_cell_volume 2632.884893
_symmetry_space_group_name_H-M "P M M A"
_symmetry_group_IT_number 51
_symmetry_cell_setting 'orthorhombic'
loop_
_space_group_symop_operation_xyz
x,y,z
1/2-x,-y,z
1/2+x,-y,-z
-x,y,-z
-x,-y,-z
1/2+x,y,-z
1/2-x,y,z
x,-y,z
loop_
_atom_site_type_symbol
_atom_site_label
_atom_site_fract_x
_atom_site_fract_y
_atom_site_fract_z
Si Si1 0.452327 0.931061 0.229873
Si Si2 0.952636 0.249985 0.372959
Si Si3 0.460178 0.427554 0.230347
Si Si4 0.944135 0.390524 0.590701
Si Si5 0.458397 0.791614 0.190011
Si Si6 0.954748 0.108181 0.410916
Si Si7 0.455944 0.672944 0.093106
O O1 0.250000 0.932205 0.210824
O O2 0.522990 0.864861 0.191997
O O3 0.470872 0.924176 0.329165
O O4 0.526922 0.000000 0.204842
O O5 0.750000 0.256552 0.389446
O O6 0.016041 0.182324 0.409062
O O7 0.043022 0.313267 0.405635
O O8 0.983919 0.241896 0.275177
O O9 0.250000 0.422687 0.231945
O O10 0.503725 0.500000 0.207181
O O11 0.527245 0.413421 0.323220
O O12 0.520577 0.376588 0.162440
O O13 0.750000 0.411917 0.597022
O O14 0.000000 0.411867 0.500000
O O15 0.250000 0.793980 0.191832
O O16 0.514917 0.744730 0.116927
O O17 0.750000 0.108210 0.401162
O O18 0.000000 0.080090 0.500000
O O19 0.250000 0.673300 0.099515
O O20 0.500000 0.655195 0.000000
#
# Coordination Sequence:
#
# PCOD9400934 Si02
#       7
#     8   8   8   8   8   8   8
#     4   9  18  32  51  73  97 131 174 218 264 317
#     4  10  19  31  50  76 104 137 180 227 274 319
#     4   9  19  37  58  79 110 150 185 219 269 326
#     4  11  21  34  53  78 108 146 188 229 273 319
#     4   9  17  33  55  78 106 139 175 216 268 323
#     4  10  20  31  44  66  97 135 176 222 270 317
#     4  10  20  36  59  87 112 142 178 220 271 324
#
# _framework density 21.269442999999999
#
# number of rings (size 3 to 8) (size 9 to 14) (size 15 to 20)
#    0.000    2.286    1.429    1.714    0.000    4.571 
#    0.000    0.000    0.000    3.429    0.000    0.000 
#    0.000    0.000    0.000    0.000    0.000    0.000 
#
# Total GULP energy -312512.498184 kJ/mol
# GULP energy per Si atom -5580.580325 kJ/mol
# Density = 2.122103 g / cm^3
# Si number density = 21.269443 Si / 1000 Ang^3
#
#
#
# Elastic Constant Matrix: (Units=GPa)
#
#
# Indices 1 2 3 4 5 6 
#
# 1 27.1517 4.6058 2.8184 0.0000 0.0000 0.0000
# 2 4.6058 131.3107 62.9558 0.0000 0.0000 0.0000
# 3 2.8184 62.9558 122.7331 0.0000 0.0000 0.0000
# 4 0.0000 0.0000 0.0000********** 0.0000 0.0000
# 5 0.0000 0.0000 0.0000 0.0000 22.0289 0.0000
# 6 0.0000 0.0000 0.0000 0.0000 0.0000 14.1347
#
#
#
# Elastic Compliance Matrix: (Units=1/GPa)
#
#
# Indices 1 2 3 4 5 6 
#
# 1 0.037056 -0.001183 -0.000244 0.000000 0.000000 0.000000
# 2 -0.001183 0.010137 -0.005173 0.000000 0.000000 0.000000
# 3 -0.000244 -0.005173 0.010807 0.000000 0.000000 0.000000
# 4 0.000000 0.000000 0.000000 -0.000012 0.000000 0.000000
# 5 0.000000 0.000000 0.000000 0.000000 0.045395 0.000000
# 6 0.000000 0.000000 0.000000 0.000000 0.000000 0.070748
#
#
# Mechanical properties :
#
#
# Convention : Reuss Voigt Hill
#
# Bulk Modulus (GPa) = 22.32112 46.88395 34.60253
# Shear Modulus (GPa) = 24.72036 -16014.46997 -7994.87481
#
# Velocity S-wave (km/s) = 3.41287 -86.86586 -61.37601
# Velocity P-wave (km/s) = 5.10368 100.19388 70.75580
#
# Compressibility (1/GPa) = 0.04480063
#
# Stress axis : x y z
#
# Youngs Moduli (GPa) = 26.98611 98.64887 92.53560
#
# Poissons Ratio (x) = 0.11666 0.02261
# Poissons Ratio (y) = 0.03191 0.47865
# Poissons Ratio (z) = 0.00659 0.51027
#
# Static dielectric constant tensor:
#      x y z
#    x 1.778240 0.000000 0.000000 
#    y 0.000000 1.802170 0.000000 
#    z 0.000000 0.000000 1.761070 
# 
# From -- ./inp_files/21739.got.cif
#   From: 2010.05.17/outbox.cif.g08.bks.cpg/sg51_11_cif.got.tgz:21739.got - 2010.06.03 11:52:47.
