data_PCOD9400169
_publ_section_title
;
Structure prediction by ZEFSAII (Michael W. Deem and Ramdas Pophale) SiO2 
 PCOD9400169
Probable space group: P M M A
;
_chemical_formula_sum "Si O2"
_cell_formula_units_Z 64
_cell_length_a 19.097303
_cell_length_b 9.264775
_cell_length_c 21.662424
_cell_angle_alpha 90.000000
_cell_angle_beta 90.000000
_cell_angle_gamma 90.000000
_cell_volume 3832.780669
_symmetry_space_group_name_H-M "P M M A"
_symmetry_group_IT_number 51
_symmetry_cell_setting 'orthorhombic'
loop_
_space_group_symop_operation_xyz
x,y,z
1/2-x,-y,z
1/2+x,-y,-z
-x,y,-z
-x,-y,-z
1/2+x,y,-z
1/2-x,y,z
x,-y,z
loop_
_atom_site_type_symbol
_atom_site_label
_atom_site_fract_x
_atom_site_fract_y
_atom_site_fract_z
Si Si1 0.868393 0.663483 0.736798
Si Si2 0.526817 0.334617 0.316785
Si Si3 0.572664 0.170814 0.199884
Si Si4 0.914171 0.830323 0.851161
Si Si5 0.579092 0.327278 0.979276
Si Si6 0.672537 0.326379 0.602254
Si Si7 0.031492 0.170436 0.431936
Si Si8 0.332726 0.328002 0.899457
O O1 0.847447 0.500000 0.752887
O O2 0.867588 0.763460 0.796383
O O3 0.828346 0.710774 0.675292
O O4 0.948870 0.659912 0.712945
O O5 0.549893 0.500000 0.325919
O O6 0.571879 0.249854 0.266069
O O7 0.516168 0.250195 0.380753
O O8 0.495602 0.191664 0.169090
O O9 0.628868 0.240957 0.154362
O O10 0.583243 0.000000 0.207231
O O11 0.903013 0.751616 0.915899
O O12 0.902151 0.000000 0.856734
O O13 0.580959 0.500000 0.969337
O O14 0.500000 0.289124 0.000000
O O15 0.631080 0.291275 0.035275
O O16 0.750000 0.295796 0.576982
O O17 0.660157 0.500000 0.598766
O O18 0.608367 0.242193 0.571965
O O19 0.000000 0.187488 0.500000
O O20 0.035972 0.000000 0.417288
O O21 0.250000 0.300851 0.900994
O O22 0.344043 0.500000 0.889629
#
# Coordination Sequence:
#
# PCOD9400169 Si02
#       8
#     8   8   8   8   8   8   8   8
#     4   8  15  28  46  69  97 127 159 200 248 295
#     4   9  17  30  51  76 101 130 167 210 250 291
#     4  10  19  31  50  75 101 127 159 204 257 309
#     4  10  19  29  46  72  98 124 160 206 250 297
#     4  10  19  32  51  71  92 125 170 214 255 306
#     4   9  18  33  53  77 104 138 181 223 262 310
#     4  10  20  33  51  79 114 147 179 216 260 310
#     4  10  21  36  52  71  96 127 166 212 262 316
#
# _framework density 16.698060000000002
#
# number of rings (size 3 to 8) (size 9 to 14) (size 15 to 20)
#    0.000    2.500    1.250    2.250    0.000    6.250 
#    0.000    0.625    0.000    4.500    0.000    3.500 
#    0.000    0.000    0.000    0.000    0.000    0.000 
#
# Total GULP energy -356822.281819 kJ/mol
# GULP energy per Si atom -5575.348153 kJ/mol
# Density = 1.666005 g / cm^3
# Si number density = 16.698060 Si / 1000 Ang^3
#
#
#
# Elastic Constant Matrix: (Units=GPa)
#
#
# Indices 1 2 3 4 5 6 
#
# 1 69.4682 51.5887 42.8812 0.0000 0.0000 0.0000
# 2 51.5887 91.4667 78.5102 0.0000 0.0000 0.0000
# 3 42.8812 78.5102 116.7519 0.0000 0.0000 0.0000
# 4 0.0000 0.0000 0.0000 24.2814 0.0000 0.0000
# 5 0.0000 0.0000 0.0000 0.0000 14.4308 0.0000
# 6 0.0000 0.0000 0.0000 0.0000 0.0000 10.0815
#
#
#
# Elastic Compliance Matrix: (Units=1/GPa)
#
#
# Indices 1 2 3 4 5 6 
#
# 1 0.024794 -0.014588 0.000703 0.000000 0.000000 0.000000
# 2 -0.014588 0.034441 -0.017802 0.000000 0.000000 0.000000
# 3 0.000703 -0.017802 0.020278 0.000000 0.000000 0.000000
# 4 0.000000 0.000000 0.000000 0.041184 0.000000 0.000000
# 5 0.000000 0.000000 0.000000 0.000000 0.069296 0.000000
# 6 0.000000 0.000000 0.000000 0.000000 0.000000 0.099192
#
#
# Mechanical properties :
#
#
# Convention : Reuss Voigt Hill
#
# Bulk Modulus (GPa) = 61.95925 69.29412 65.62668
# Shear Modulus (GPa) = 13.96884 16.73919 15.35402
#
# Velocity S-wave (km/s) = 2.89546 3.16960 3.03563
# Velocity P-wave (km/s) = 6.95446 7.41509 7.18847
#
# Compressibility (1/GPa) = 0.01613964
#
# Stress axis : x y z
#
# Youngs Moduli (GPa) = 40.33170 29.03493 49.31433
#
# Poissons Ratio (x) = 0.42356 -0.03467
# Poissons Ratio (y) = 0.58836 0.87790
# Poissons Ratio (z) = -0.02836 0.51689
#
# Static dielectric constant tensor:
#      x y z
#    x 1.563470 0.000000 0.000000 
#    y 0.000000 1.560570 0.000000 
#    z 0.000000 0.000000 1.541770 
# 
# From -- ./inp_files/33914.got.cif
#   From: 2010.05.17/outbox.cif.g08.bks.cpg/sg51_17_cif.got.tgz:33914.got - 2010.06.03 11:52:47.
