data_PCOD9400226
_publ_section_title
;
Structure prediction by ZEFSAII (Michael W. Deem and Ramdas Pophale) SiO2 
 PCOD9400226
Probable space group: P M M A
;
_chemical_formula_sum "Si O2"
_cell_formula_units_Z 48
_cell_length_a 8.749731
_cell_length_b 21.636305
_cell_length_c 19.972334
_cell_angle_alpha 90.000000
_cell_angle_beta 90.000000
_cell_angle_gamma 90.000000
_cell_volume 3780.999470
_symmetry_space_group_name_H-M "P M M A"
_symmetry_group_IT_number 51
_symmetry_cell_setting 'orthorhombic'
loop_
_space_group_symop_operation_xyz
x,y,z
1/2-x,-y,z
1/2+x,-y,-z
-x,y,-z
-x,-y,-z
1/2+x,y,-z
1/2-x,y,z
x,-y,z
loop_
_atom_site_type_symbol
_atom_site_label
_atom_site_fract_x
_atom_site_fract_y
_atom_site_fract_z
Si Si1 0.432606 0.238022 0.075363
Si Si2 0.433821 0.000000 0.925866
Si Si3 0.432254 0.927103 0.289034
Si Si4 0.566306 0.500000 0.075175
Si Si5 0.066619 0.122969 0.844761
Si Si6 0.426105 0.075130 0.569591
Si Si7 0.065932 0.633983 0.924388
O O1 0.250000 0.239019 0.070962
O O2 0.490464 0.181898 0.120643
O O3 0.493683 0.303487 0.103956
O O4 0.500000 0.230704 0.000000
O O5 0.480301 0.938485 0.886028
O O6 0.250000 0.000000 0.929510
O O7 0.500000 0.000000 0.000000
O O8 0.250000 0.922483 0.282901
O O9 0.513039 0.888560 0.230940
O O10 0.484270 0.907440 0.363212
O O11 0.474576 0.000000 0.280925
O O12 0.750000 0.500000 0.069708
O O13 0.524491 0.433302 0.106199
O O14 0.500000 0.500000 0.000000
O O15 0.250000 0.128567 0.847760
O O16 0.500000 0.096735 0.500000
O O17 0.250000 0.094233 0.574085
O O18 0.429232 0.000000 0.567626
O O19 0.250000 0.639856 0.926186
O O20 0.000000 0.631939 0.000000
#
# Coordination Sequence:
#
# PCOD9400226 Si02
#       7
#     8   4   8   4   8   8   8
#     4  11  21  32  43  57  74  97 126 159 197 238
#     4  10  22  34  46  58  69  86 117 158 202 244
#     4  10  19  30  44  61  79  99 122 152 190 233
#     4   8  14  22  36  56  76  94 116 142 177 220
#     4  11  21  34  46  58  73  96 125 160 200 240
#     4   9  16  26  41  60  81 102 122 147 179 221
#     4   9  15  25  39  56  75  96 118 147 183 224
#
# _framework density 12.695055999999999
#
# number of rings (size 3 to 8) (size 9 to 14) (size 15 to 20)
#    0.000    2.167    0.833    5.000    0.000    6.000 
#    0.000    0.000    0.000    0.000    0.000    0.000 
#    0.000    0.000    0.000    0.000    0.000    0.000 
#
# Total GULP energy -267456.630014 kJ/mol
# GULP energy per Si atom -5572.013125 kJ/mol
# Density = 1.266616 g / cm^3
# Si number density = 12.695056 Si / 1000 Ang^3
#
#
#
# Elastic Constant Matrix: (Units=GPa)
#
#
# Indices 1 2 3 4 5 6 
#
# 1 65.1608 38.5098 25.4747 0.0000 0.0000 0.0000
# 2 38.5098 105.8892 36.6695 0.0000 0.0000 0.0000
# 3 25.4747 36.6695 69.3908 0.0000 0.0000 0.0000
# 4 0.0000 0.0000 0.0000 1.1596 0.0000 0.0000
# 5 0.0000 0.0000 0.0000 0.0000 20.9385 0.0000
# 6 0.0000 0.0000 0.0000 0.0000 0.0000 13.5624
#
#
#
# Elastic Compliance Matrix: (Units=1/GPa)
#
#
# Indices 1 2 3 4 5 6 
#
# 1 0.020595 -0.005963 -0.004410 0.000000 0.000000 0.000000
# 2 -0.005963 0.013286 -0.004832 0.000000 0.000000 0.000000
# 3 -0.004410 -0.004832 0.018583 0.000000 0.000000 0.000000
# 4 0.000000 0.000000 0.000000 0.862362 0.000000 0.000000
# 5 0.000000 0.000000 0.000000 0.000000 0.047759 0.000000
# 6 0.000000 0.000000 0.000000 0.000000 0.000000 0.073733
#
#
# Mechanical properties :
#
#
# Convention : Reuss Voigt Hill
#
# Bulk Modulus (GPa) = 45.34070 49.08317 47.21194
# Shear Modulus (GPa) = 4.65516 16.45124 10.55320
#
# Velocity S-wave (km/s) = 1.91699 3.60374 2.88633
# Velocity P-wave (km/s) = 6.37908 7.48752 6.95542
#
# Compressibility (1/GPa) = 0.02205524
#
# Stress axis : x y z
#
# Youngs Moduli (GPa) = 48.55648 75.26944 53.81172
#
# Poissons Ratio (x) = 0.44882 0.23729
# Poissons Ratio (y) = 0.28953 0.26000
# Poissons Ratio (z) = 0.21412 0.36368
#
# Static dielectric constant tensor:
#      x y z
#    x 1.423580 0.000000 0.000000 
#    y 0.000000 1.437640 0.000000 
#    z 0.000000 0.000000 1.388450 
# 
# From -- ./inp_files/28122.got.cif
#   From: 2010.05.17/outbox.cif.g08.bks.cpg/sg51_15_cif.got.tgz:28122.got - 2010.06.03 11:52:47.
