data_PCOD9400670
_publ_section_title
;
Structure prediction by ZEFSAII (Michael W. Deem and Ramdas Pophale) SiO2 
 PCOD9400670
Probable space group: P M M A
;
_chemical_formula_sum "Si O2"
_cell_formula_units_Z 64
_cell_length_a 14.763312
_cell_length_b 18.278374
_cell_length_c 12.171096
_cell_angle_alpha 90.000000
_cell_angle_beta 90.000000
_cell_angle_gamma 90.000000
_cell_volume 3284.362201
_symmetry_space_group_name_H-M "P M M A"
_symmetry_group_IT_number 51
_symmetry_cell_setting 'orthorhombic'
loop_
_space_group_symop_operation_xyz
x,y,z
1/2-x,-y,z
1/2+x,-y,-z
-x,y,-z
-x,-y,-z
1/2+x,y,-z
1/2-x,y,z
x,-y,z
loop_
_atom_site_type_symbol
_atom_site_label
_atom_site_fract_x
_atom_site_fract_y
_atom_site_fract_z
Si Si1 0.359157 0.710080 0.253141
Si Si2 0.899289 0.794481 0.544186
Si Si3 0.360304 0.202478 0.789211
Si Si4 0.850492 0.672335 0.385238
Si Si5 0.086145 0.420860 0.919132
Si Si6 0.854156 0.730541 0.994533
Si Si7 0.007077 0.582921 0.319883
Si Si8 0.641915 0.917834 0.381884
O O1 0.250000 0.699743 0.253469
O O2 0.385759 0.779409 0.328257
O O3 0.392153 0.722960 0.128029
O O4 0.411053 0.639818 0.303238
O O5 0.845170 0.729383 0.484834
O O6 0.872350 0.872399 0.493952
O O7 0.000000 0.782496 0.500000
O O8 0.250000 0.197778 0.793876
O O9 0.378125 0.274578 0.716113
O O10 0.393204 0.133288 0.718059
O O11 0.394499 0.215760 0.912692
O O12 0.750000 0.641244 0.364929
O O13 0.929897 0.614291 0.400775
O O14 0.132212 0.500000 0.934724
O O15 0.046646 0.418470 0.796685
O O16 0.142731 0.349890 0.950689
O O17 0.000000 0.418991 0.000000
O O18 0.750000 0.753022 0.979271
O O19 0.035447 0.500000 0.345048
O O20 0.750000 0.922461 0.366772
O O21 0.604691 0.000000 0.383953
#
# Coordination Sequence:
#
# PCOD9400670 Si02
#       8
#     8   8   8   8   8   8   8   8
#     4  11  23  38  54  78 113 153 195 235 280 342
#     4  11  21  37  61  83 109 146 190 233 279 331
#     4   8  15  29  51  80 109 140 177 219 271 329
#     4  10  19  35  57  79 107 139 182 240 291 333
#     4  10  19  31  47  71 107 141 181 234 280 324
#     4  10  19  31  51  77 109 147 189 230 277 339
#     4  11  22  35  54  81 108 142 190 241 297 346
#     4   9  18  34  59  89 117 144 179 229 281 325
#
# _framework density 19.486280000000001
#
# number of rings (size 3 to 8) (size 9 to 14) (size 15 to 20)
#    0.000    2.000    3.750    1.875    0.000    1.000 
#    0.000    3.750    0.000    2.250    0.000    4.375 
#    0.000    0.000    0.000    0.000    0.000    0.000 
#
# Total GULP energy -356876.897415 kJ/mol
# GULP energy per Si atom -5576.201522 kJ/mol
# Density = 1.944193 g / cm^3
# Si number density = 19.486280 Si / 1000 Ang^3
#
#
#
# Elastic Constant Matrix: (Units=GPa)
#
#
# Indices 1 2 3 4 5 6 
#
# 1 66.0099 21.5462 7.8267 0.0000 0.0000 0.0000
# 2 21.5462 132.7277 55.7779 0.0000 0.0000 0.0000
# 3 7.8267 55.7779 80.5022 0.0000 0.0000 0.0000
# 4 0.0000 0.0000 0.0000 0.4229 0.0000 0.0000
# 5 0.0000 0.0000 0.0000 0.0000 14.8873 0.0000
# 6 0.0000 0.0000 0.0000 0.0000 0.0000 18.6419
#
#
#
# Elastic Compliance Matrix: (Units=1/GPa)
#
#
# Indices 1 2 3 4 5 6 
#
# 1 0.016004 -0.002743 0.000344 0.000000 0.000000 0.000000
# 2 -0.002743 0.011099 -0.007424 0.000000 0.000000 0.000000
# 3 0.000344 -0.007424 0.017532 0.000000 0.000000 0.000000
# 4 0.000000 0.000000 0.000000 2.364716 0.000000 0.000000
# 5 0.000000 0.000000 0.000000 0.000000 0.067171 0.000000
# 6 0.000000 0.000000 0.000000 0.000000 0.000000 0.053643
#
#
# Mechanical properties :
#
#
# Convention : Reuss Voigt Hill
#
# Bulk Modulus (GPa) = 40.01419 49.94903 44.98161
# Shear Modulus (GPa) = 1.95455 19.72968 10.84211
#
# Velocity S-wave (km/s) = 1.00260 3.18542 2.36137
# Velocity P-wave (km/s) = 4.68182 6.26241 5.52889
#
# Compressibility (1/GPa) = 0.02499113
#
# Stress axis : x y z
#
# Youngs Moduli (GPa) = 62.48582 90.09656 57.03783
#
# Poissons Ratio (x) = 0.24710 -0.01964
# Poissons Ratio (y) = 0.17138 0.42343
# Poissons Ratio (z) = -0.02152 0.66885
#
# Static dielectric constant tensor:
#      x y z
#    x 1.732390 0.000000 0.000000 
#    y 0.000000 1.685430 0.000000 
#    z 0.000000 0.000000 1.756110 
# 
# From -- ./inp_files/16831.got.cif
#   From: 2010.05.17/outbox.cif.g08.bks.cpg/sg51_9_cif.got.tgz:16831.got - 2010.06.03 11:52:47.
