data_PCOD9400514
_publ_section_title
;
Structure prediction by ZEFSAII (Michael W. Deem and Ramdas Pophale) SiO2 
 PCOD9400514
Probable space group: P M M A
;
_chemical_formula_sum "Si O2"
_cell_formula_units_Z 64
_cell_length_a 15.466699
_cell_length_b 7.657106
_cell_length_c 24.260682
_cell_angle_alpha 90.000000
_cell_angle_beta 90.000000
_cell_angle_gamma 90.000000
_cell_volume 2873.196298
_symmetry_space_group_name_H-M "P M M A"
_symmetry_group_IT_number 51
_symmetry_cell_setting 'orthorhombic'
loop_
_space_group_symop_operation_xyz
x,y,z
1/2-x,-y,z
1/2+x,-y,-z
-x,y,-z
-x,-y,-z
1/2+x,y,-z
1/2-x,y,z
x,-y,z
loop_
_atom_site_type_symbol
_atom_site_label
_atom_site_fract_x
_atom_site_fract_y
_atom_site_fract_z
Si Si1 0.349801 0.802336 0.924632
Si Si2 0.030982 0.703073 0.367775
Si Si3 0.419365 0.300585 0.032582
Si Si4 0.650098 0.714262 0.850710
Si Si5 0.150865 0.710188 0.465159
Si Si6 0.475765 0.709350 0.247125
Si Si7 0.349045 0.210911 0.807900
Si Si8 0.846791 0.797264 0.407837
O O1 0.250000 0.816062 0.909561
O O2 0.385659 0.723455 0.867817
O O3 0.382262 0.000000 0.932444
O O4 0.353265 0.703119 0.982062
O O5 0.057298 0.500000 0.365601
O O6 0.928789 0.711007 0.379401
O O7 0.083916 0.777361 0.419564
O O8 0.048486 0.779670 0.307462
O O9 0.444501 0.500000 0.045813
O O10 0.384325 0.224904 0.089243
O O11 0.500000 0.218535 0.000000
O O12 0.750000 0.767355 0.843014
O O13 0.650362 0.500000 0.851696
O O14 0.586020 0.773224 0.802210
O O15 0.250000 0.744134 0.447901
O O16 0.140410 0.500000 0.471317
O O17 0.139319 0.785017 0.526256
O O18 0.465458 0.500000 0.248295
O O19 0.576677 0.743985 0.235126
O O20 0.250000 0.271262 0.796190
O O21 0.346042 0.000000 0.811785
O O22 0.750000 0.725888 0.396603
O O23 0.846987 0.000000 0.391570
#
# Coordination Sequence:
#
# PCOD9400514 Si02
#       8
#     8   8   8   8   8   8   8   8
#     4   9  18  32  49  70  95 123 158 201 251 308
#     4  10  21  35  53  79 108 138 175 219 264 307
#     4  10  19  30  48  75 103 130 164 208 258 312
#     4   9  18  33  52  74 104 142 179 217 264 313
#     4   9  18  34  56  81 110 142 174 212 260 310
#     4  10  21  36  54  77 103 135 180 226 260 300
#     4   9  19  36  55  74 101 137 172 211 267 329
#     4  10  21  36  55  81 111 142 175 210 254 312
#
# _framework density 22.274843000000001
#
# number of rings (size 3 to 8) (size 9 to 14) (size 15 to 20)
#    0.000    2.500    0.000    2.625    0.000    7.000 
#    0.000    6.875    0.000    1.125    0.000    1.750 
#    0.000    0.000    0.000    0.000    0.000    0.000 
#
# Total GULP energy -356846.506541 kJ/mol
# GULP energy per Si atom -5575.726665 kJ/mol
# Density = 2.222414 g / cm^3
# Si number density = 22.274843 Si / 1000 Ang^3
#
#
#
# Elastic Constant Matrix: (Units=GPa)
#
#
# Indices 1 2 3 4 5 6 
#
# 1 80.3646 -3.5812 14.5044 0.0000 0.0000 0.0000
# 2 -3.5812 40.7013 -6.5032 0.0000 0.0000 0.0000
# 3 14.5044 -6.5032 43.7701 0.0000 0.0000 0.0000
# 4 0.0000 0.0000 0.0000 3.9494 0.0000 0.0000
# 5 0.0000 0.0000 0.0000 0.0000 14.8191 0.0000
# 6 0.0000 0.0000 0.0000 0.0000 0.0000 -41.2850
#
#
#
# Elastic Compliance Matrix: (Units=1/GPa)
#
#
# Indices 1 2 3 4 5 6 
#
# 1 0.013244 0.000475 -0.004318 0.000000 0.000000 0.000000
# 2 0.000475 0.025184 0.003584 0.000000 0.000000 0.000000
# 3 -0.004318 0.003584 0.024810 0.000000 0.000000 0.000000
# 4 0.000000 0.000000 0.000000 0.253204 0.000000 0.000000
# 5 0.000000 0.000000 0.000000 0.000000 0.067481 0.000000
# 6 0.000000 0.000000 0.000000 0.000000 0.000000 -0.024222
#
#
# Mechanical properties :
#
#
# Convention : Reuss Voigt Hill
#
# Bulk Modulus (GPa) = 15.94371 19.29731 17.62051
# Shear Modulus (GPa) = 13.11909 6.19110 9.65509
#
# Velocity S-wave (km/s) = 2.42949 1.66897 2.08421
# Velocity P-wave (km/s) = 3.87855 3.52080 3.70400
#
# Compressibility (1/GPa) = 0.06272067
#
# Stress axis : x y z
#
# Youngs Moduli (GPa) = 75.50697 39.70814 40.30618
#
# Poissons Ratio (x) = -0.01888 0.17404
# Poissons Ratio (y) = -0.03589 -0.14447
# Poissons Ratio (z) = 0.32604 -0.14232
#
# Static dielectric constant tensor:
#      x y z
#    x 1.659100 0.000000 0.000000 
#    y 0.000000 1.856980 0.000000 
#    z 0.000000 0.000000 1.890590 
# 
# From -- ./inp_files/35867.got.cif
#   From: 2010.05.17/outbox.cif.g08.bks.cpg/sg51_18_cif.got.tgz:35867.got - 2010.06.03 11:52:47.
