data_PCOD9400020
_publ_section_title
;
Structure prediction by ZEFSAII (Michael W. Deem and Ramdas Pophale) SiO2 
 PCOD9400020
Probable space group: P M M A
;
_chemical_formula_sum "Si O2"
_cell_formula_units_Z 48
_cell_length_a 9.389889
_cell_length_b 18.305209
_cell_length_c 17.432267
_cell_angle_alpha 90.000000
_cell_angle_beta 90.000000
_cell_angle_gamma 90.000000
_cell_volume 2996.325700
_symmetry_space_group_name_H-M "P M M A"
_symmetry_group_IT_number 51
_symmetry_cell_setting 'orthorhombic'
loop_
_space_group_symop_operation_xyz
x,y,z
1/2-x,-y,z
1/2+x,-y,-z
-x,y,-z
-x,-y,-z
1/2+x,y,-z
1/2-x,y,z
x,-y,z
loop_
_atom_site_type_symbol
_atom_site_label
_atom_site_fract_x
_atom_site_fract_y
_atom_site_fract_z
Si Si1 0.078899 0.084055 0.918053
Si Si2 0.413147 0.300879 0.706429
Si Si3 0.091817 0.812861 0.566918
Si Si4 0.415906 0.190155 0.197438
Si Si5 0.081319 0.587056 0.579163
Si Si6 0.088200 0.082208 0.343050
O O1 0.250000 0.094082 0.924865
O O2 0.008426 0.146392 0.865276
O O3 0.056071 0.000000 0.888814
O O4 0.000000 0.087499 0.000000
O O5 0.250000 0.314030 0.733373
O O6 0.405676 0.239127 0.640379
O O7 0.510991 0.265231 0.772449
O O8 0.465786 0.370180 0.656271
O O9 0.250000 0.824870 0.539248
O O10 0.000000 0.778063 0.500000
O O11 0.017526 0.886829 0.593838
O O12 0.250000 0.200625 0.174585
O O13 0.416150 0.135254 0.270099
O O14 0.250000 0.604208 0.569528
O O15 0.066410 0.500000 0.589980
O O16 0.000000 0.605721 0.500000
O O17 0.250000 0.083905 0.372285
O O18 0.052766 0.000000 0.320165
#
# Coordination Sequence:
#
# PCOD9400020 Si02
#       6
#     8   8   8   8   8   8
#     4  10  20  33  50  72  98 127 157 190 229 273
#     4   9  18  31  45  63  88 117 150 186 226 275
#     4  10  19  29  41  56  75 102 137 178 221 263
#     4  10  19  31  48  68  90 117 150 187 227 271
#     4   9  17  29  46  68  94 124 157 195 239 285
#     4   9  18  31  44  57  75 102 137 177 219 261
#
# _framework density 16.01962
#
# number of rings (size 3 to 8) (size 9 to 14) (size 15 to 20)
#    0.000    2.500    0.000    2.500    0.000    4.333 
#    0.000    0.000    0.000    0.000    0.000    0.000 
#    0.000    0.667    0.000    1.833    0.000    2.667 
#
# Total GULP energy -267282.951431 kJ/mol
# GULP energy per Si atom -5568.394821 kJ/mol
# Density = 1.598316 g / cm^3
# Si number density = 16.019620 Si / 1000 Ang^3
#
#
#
# Elastic Constant Matrix: (Units=GPa)
#
#
# Indices 1 2 3 4 5 6 
#
# 1 99.3616 36.3901 43.1042 0.0000 0.0000 0.0000
# 2 36.3901 73.7618 26.2226 0.0000 0.0000 0.0000
# 3 43.1042 26.2226 54.0593 0.0000 0.0000 0.0000
# 4 0.0000 0.0000 0.0000 29.3468 0.0000 0.0000
# 5 0.0000 0.0000 0.0000 0.0000 26.5092 0.0000
# 6 0.0000 0.0000 0.0000 0.0000 0.0000 16.6614
#
#
#
# Elastic Compliance Matrix: (Units=1/GPa)
#
#
# Indices 1 2 3 4 5 6 
#
# 1 0.016376 -0.004153 -0.011043 0.000000 0.000000 0.000000
# 2 -0.004153 0.017436 -0.005146 0.000000 0.000000 0.000000
# 3 -0.011043 -0.005146 0.029799 0.000000 0.000000 0.000000
# 4 0.000000 0.000000 0.000000 0.034075 0.000000 0.000000
# 5 0.000000 0.000000 0.000000 0.000000 0.037723 0.000000
# 6 0.000000 0.000000 0.000000 0.000000 0.000000 0.060019
#
#
# Mechanical properties :
#
#
# Convention : Reuss Voigt Hill
#
# Bulk Modulus (GPa) = 43.61673 48.73517 46.17595
# Shear Modulus (GPa) = 20.51255 22.60119 21.55687
#
# Velocity S-wave (km/s) = 3.58224 3.76020 3.67230
# Velocity P-wave (km/s) = 6.66304 7.02427 6.84604
#
# Compressibility (1/GPa) = 0.02292698
#
# Stress axis : x y z
#
# Youngs Moduli (GPa) = 61.06599 57.35424 33.55805
#
# Poissons Ratio (x) = 0.23821 0.37057
# Poissons Ratio (y) = 0.25362 0.17269
# Poissons Ratio (z) = 0.67433 0.29514
#
# Static dielectric constant tensor:
#      x y z
#    x 1.567900 0.000000 0.000000 
#    y 0.000000 1.552560 0.000000 
#    z 0.000000 0.000000 1.530000 
# 
# From -- ./inp_files/27806.got.cif
#   From: 2010.05.17/outbox.cif.g08.bks.cpg/sg51_14_cif.got.tgz:27806.got - 2010.06.03 11:52:47.
