data_PCOD9400161
_publ_section_title
;
Structure prediction by ZEFSAII (Michael W. Deem and Ramdas Pophale) SiO2 
 PCOD9400161
Probable space group: P M M A
;
_chemical_formula_sum "Si O2"
_cell_formula_units_Z 64
_cell_length_a 22.029517
_cell_length_b 7.806394
_cell_length_c 17.447954
_cell_angle_alpha 90.000000
_cell_angle_beta 90.000000
_cell_angle_gamma 90.000000
_cell_volume 3000.543656
_symmetry_space_group_name_H-M "P M M A"
_symmetry_group_IT_number 51
_symmetry_cell_setting 'orthorhombic'
loop_
_space_group_symop_operation_xyz
x,y,z
1/2-x,-y,z
1/2+x,-y,-z
-x,y,-z
-x,-y,-z
1/2+x,y,-z
1/2-x,y,z
x,-y,z
loop_
_atom_site_type_symbol
_atom_site_label
_atom_site_fract_x
_atom_site_fract_y
_atom_site_fract_z
Si Si1 0.582956 0.809164 0.536936
Si Si2 0.615850 0.205611 0.791472
Si Si3 0.316573 0.704538 0.582473
Si Si4 0.511524 0.206109 0.674968
Si Si5 0.180296 0.205339 0.059886
Si Si6 0.682251 0.701989 0.650085
Si Si7 0.819780 0.293293 0.112342
Si Si8 0.621937 0.706631 0.267390
O O1 0.623290 0.735142 0.468392
O O2 0.528146 0.729470 0.588224
O O3 0.633941 0.809983 0.603707
O O4 0.566225 0.000000 0.512714
O O5 0.558592 0.270240 0.740848
O O6 0.632920 0.269520 0.876068
O O7 0.672911 0.254547 0.738552
O O8 0.609003 0.000000 0.795018
O O9 0.250000 0.770257 0.556192
O O10 0.311447 0.500000 0.584387
O O11 0.331033 0.767976 0.667929
O O12 0.444691 0.247293 0.703250
O O13 0.517763 0.000000 0.669848
O O14 0.250000 0.270939 0.069625
O O15 0.183399 0.000000 0.069038
O O16 0.160864 0.241942 0.972949
O O17 0.750000 0.739176 0.625338
O O18 0.670525 0.500000 0.636641
O O19 0.750000 0.234817 0.122854
O O20 0.819310 0.500000 0.114491
O O21 0.860732 0.230757 0.182743
O O22 0.625657 0.500000 0.265726
#
# Coordination Sequence:
#
# PCOD9400161 Si02
#       8
#     8   8   8   8   8   8   8   8
#     4  10  21  36  53  75 105 139 173 209 254 307
#     4   9  18  33  51  72 102 140 178 214 256 306
#     4  10  21  37  57  81 107 133 167 214 264 313
#     4   9  20  37  54  74 103 140 178 214 252 300
#     4   9  17  30  51  79 107 135 171 215 261 310
#     4  10  19  29  45  72 104 137 173 213 257 304
#     4   9  18  34  55  78 105 135 168 211 265 318
#     4  10  21  37  57  78 101 135 176 216 261 311
#
# _framework density 21.329467999999999
#
# number of rings (size 3 to 8) (size 9 to 14) (size 15 to 20)
#    0.000    2.500    0.000    2.625    0.000    9.250 
#    0.000    4.375    0.000    6.000    0.000    0.000 
#    0.000    0.000    0.000    0.000    0.000    0.000 
#
# Total GULP energy -356779.885692 kJ/mol
# GULP energy per Si atom -5574.685714 kJ/mol
# Density = 2.128092 g / cm^3
# Si number density = 21.329468 Si / 1000 Ang^3
#
#
#
# Elastic Constant Matrix: (Units=GPa)
#
#
# Indices 1 2 3 4 5 6 
#
# 1 89.0737 8.3116 43.6197 0.0000 0.0000 0.0000
# 2 8.3116 14.0730 2.9896 0.0000 0.0000 0.0000
# 3 43.6197 2.9896 144.0824 0.0000 0.0000 0.0000
# 4 0.0000 0.0000 0.0000 21.6625 0.0000 0.0000
# 5 0.0000 0.0000 0.0000 0.0000 21.6900 0.0000
# 6 0.0000 0.0000 0.0000 0.0000 0.0000 23.7210
#
#
#
# Elastic Compliance Matrix: (Units=1/GPa)
#
#
# Indices 1 2 3 4 5 6 
#
# 1 0.013898 -0.007347 -0.004055 0.000000 0.000000 0.000000
# 2 -0.007347 0.075257 0.000663 0.000000 0.000000 0.000000
# 3 -0.004055 0.000663 0.008154 0.000000 0.000000 0.000000
# 4 0.000000 0.000000 0.000000 0.046163 0.000000 0.000000
# 5 0.000000 0.000000 0.000000 0.000000 0.046104 0.000000
# 6 0.000000 0.000000 0.000000 0.000000 0.000000 0.042157
#
#
# Mechanical properties :
#
#
# Convention : Reuss Voigt Hill
#
# Bulk Modulus (GPa) = 13.18730 39.67454 26.43092
# Shear Modulus (GPa) = 17.95410 26.23523 22.09466
#
# Velocity S-wave (km/s) = 2.90444 3.51094 3.22199
# Velocity P-wave (km/s) = 4.17658 5.92257 5.12448
#
# Compressibility (1/GPa) = 0.07583054
#
# Stress axis : x y z
#
# Youngs Moduli (GPa) = 71.95293 13.28787 122.63387
#
# Poissons Ratio (x) = 0.09762 0.49729
# Poissons Ratio (y) = 0.52862 -0.08126
# Poissons Ratio (z) = 0.29177 -0.00881
#
# Static dielectric constant tensor:
#      x y z
#    x 1.806220 0.000000 0.000000 
#    y 0.000000 1.779870 0.000000 
#    z 0.000000 0.000000 1.815860 
# 
# From -- ./inp_files/30605.got.cif
#   From: 2010.05.17/outbox.cif.g08.bks.cpg/sg51_16_cif.got.tgz:30605.got - 2010.06.03 11:52:47.
