data_PCOD9400801
_publ_section_title
;
Structure prediction by ZEFSAII (Michael W. Deem and Ramdas Pophale) SiO2 
 PCOD9400801
Probable space group: P M M A
;
_chemical_formula_sum "Si O2"
_cell_formula_units_Z 64
_cell_length_a 16.271220
_cell_length_b 7.808001
_cell_length_c 23.988400
_cell_angle_alpha 90.000000
_cell_angle_beta 90.000000
_cell_angle_gamma 90.000000
_cell_volume 3047.623119
_symmetry_space_group_name_H-M "P M M A"
_symmetry_group_IT_number 51
_symmetry_cell_setting 'orthorhombic'
loop_
_space_group_symop_operation_xyz
x,y,z
1/2-x,-y,z
1/2+x,-y,-z
-x,y,-z
-x,-y,-z
1/2+x,y,-z
1/2-x,y,z
x,-y,z
loop_
_atom_site_type_symbol
_atom_site_label
_atom_site_fract_x
_atom_site_fract_y
_atom_site_fract_z
Si Si1 0.430406 0.800422 0.916129
Si Si2 0.016501 0.703757 0.368749
Si Si3 0.339942 0.292648 0.024088
Si Si4 0.594981 0.693987 0.864259
Si Si5 0.157350 0.707608 0.452556
Si Si6 0.486465 0.705051 0.244646
Si Si7 0.339738 0.205477 0.807023
Si Si8 0.841621 0.798173 0.417823
O O1 0.507321 0.690920 0.896063
O O2 0.358188 0.758005 0.872189
O O3 0.451843 0.000000 0.907873
O O4 0.404620 0.771738 0.979261
O O5 0.030523 0.500000 0.365883
O O6 0.083621 0.770243 0.413038
O O7 0.028204 0.774128 0.306413
O O8 0.922384 0.727585 0.387842
O O9 0.250000 0.244951 0.003086
O O10 0.345932 0.500000 0.026204
O O11 0.350118 0.226240 0.087208
O O12 0.625114 0.500000 0.854372
O O13 0.572532 0.774324 0.804608
O O14 0.250000 0.755972 0.433750
O O15 0.154220 0.500000 0.454441
O O16 0.147618 0.769779 0.515935
O O17 0.474010 0.500000 0.245129
O O18 0.581166 0.732646 0.226955
O O19 0.250000 0.272577 0.790490
O O20 0.338404 0.000000 0.800948
O O21 0.750000 0.728581 0.403046
O O22 0.840119 0.000000 0.406466
#
# Coordination Sequence:
#
# PCOD9400801 Si02
#       8
#     8   8   8   8   8   8   8   8
#     4  10  19  31  49  72  95 120 153 194 241 292
#     4  10  20  34  53  77 104 135 171 210 251 294
#     4  10  20  32  47  69  95 122 153 191 238 290
#     4   9  18  34  51  66  91 126 159 193 235 283
#     4   9  18  34  55  78 105 136 169 207 252 298
#     4   9  19  34  50  69  94 126 165 203 237 281
#     4   9  18  32  48  67  94 126 158 196 243 292
#     4  10  21  35  52  78 110 140 169 202 244 296
#
# _framework density 20.999973000000001
#
# number of rings (size 3 to 8) (size 9 to 14) (size 15 to 20)
#    0.000    2.500    0.000    1.875    0.000    7.250 
#    0.000    3.125    0.000    3.750    0.000    0.000 
#    0.000    5.000    0.000    0.000    0.000    0.000 
#
# Total GULP energy -356875.407171 kJ/mol
# GULP energy per Si atom -5576.178237 kJ/mol
# Density = 2.095218 g / cm^3
# Si number density = 20.999973 Si / 1000 Ang^3
#
#
#
# Elastic Constant Matrix: (Units=GPa)
#
#
# Indices 1 2 3 4 5 6 
#
# 1 41.9878 -1.8178 13.1171 0.0000 0.0000 0.0000
# 2 -1.8178 29.1102 -5.0844 0.0000 0.0000 0.0000
# 3 13.1171 -5.0844 78.8940 0.0000 0.0000 0.0000
# 4 0.0000 0.0000 0.0000 -59.6752 0.0000 0.0000
# 5 0.0000 0.0000 0.0000 0.0000 14.1847 0.0000
# 6 0.0000 0.0000 0.0000 0.0000 0.0000 -1.5140
#
#
#
# Elastic Compliance Matrix: (Units=1/GPa)
#
#
# Indices 1 2 3 4 5 6 
#
# 1 0.025142 0.000849 -0.004125 0.000000 0.000000 0.000000
# 2 0.000849 0.034772 0.002100 0.000000 0.000000 0.000000
# 3 -0.004125 0.002100 0.013496 0.000000 0.000000 0.000000
# 4 0.000000 0.000000 0.000000 -0.016757 0.000000 0.000000
# 5 0.000000 0.000000 0.000000 0.000000 0.070498 0.000000
# 6 0.000000 0.000000 0.000000 0.000000 0.000000 -0.660502
#
#
# Mechanical properties :
#
#
# Convention : Reuss Voigt Hill
#
# Bulk Modulus (GPa) = 14.07302 18.04685 16.05993
# Shear Modulus (GPa) = -9.85586 0.18425 -4.83581
#
# Velocity S-wave (km/s) = -2.16875 0.29653 -1.51913
# Velocity P-wave (km/s) = 0.66687 2.95460 2.14177
#
# Compressibility (1/GPa) = 0.07105796
#
# Stress axis : x y z
#
# Youngs Moduli (GPa) = 39.77408 28.75880 74.09358
#
# Poissons Ratio (x) = -0.02443 0.30567
# Poissons Ratio (y) = -0.03379 -0.15557
# Poissons Ratio (z) = 0.16408 -0.06038
#
# Static dielectric constant tensor:
#      x y z
#    x 1.771160 0.000000 0.000000 
#    y 0.000000 1.795560 0.000000 
#    z 0.000000 0.000000 1.773200 
# 
# From -- ./inp_files/35870.got.cif
#   From: 2010.05.17/outbox.cif.g08.bks.cpg/sg51_18_cif.got.tgz:35870.got - 2010.06.03 11:52:47.
