data_PCOD9400433
_publ_section_title
;
Structure prediction by ZEFSAII (Michael W. Deem and Ramdas Pophale) SiO2 
 PCOD9400433
Probable space group: P M M A
;
_chemical_formula_sum "Si O2"
_cell_formula_units_Z 64
_cell_length_a 8.830756
_cell_length_b 14.709999
_cell_length_c 29.077207
_cell_angle_alpha 90.000000
_cell_angle_beta 90.000000
_cell_angle_gamma 90.000000
_cell_volume 3777.141167
_symmetry_space_group_name_H-M "P M M A"
_symmetry_group_IT_number 51
_symmetry_cell_setting 'orthorhombic'
loop_
_space_group_symop_operation_xyz
x,y,z
1/2-x,-y,z
1/2+x,-y,-z
-x,y,-z
-x,-y,-z
1/2+x,y,-z
1/2-x,y,z
x,-y,z
loop_
_atom_site_type_symbol
_atom_site_label
_atom_site_fract_x
_atom_site_fract_y
_atom_site_fract_z
Si Si1 0.431246 0.605454 0.050377
Si Si2 0.069945 0.720538 0.867427
Si Si3 0.567315 0.396157 0.315564
Si Si4 0.928959 0.108241 0.720954
Si Si5 0.567243 0.105481 0.450371
Si Si6 0.431975 0.217889 0.637330
Si Si7 0.567302 0.894277 0.826264
Si Si8 0.427931 0.391392 0.215941
O O1 0.250000 0.614457 0.048967
O O2 0.466487 0.500000 0.062715
O O3 0.499674 0.672326 0.088051
O O4 0.500000 0.622204 0.000000
O O5 0.250000 0.719814 0.870161
O O6 0.008847 0.822385 0.859765
O O7 0.014515 0.663194 0.823213
O O8 0.750000 0.392721 0.310347
O O9 0.525388 0.500000 0.326929
O O10 0.521418 0.321765 0.353196
O O11 0.493096 0.372276 0.266571
O O12 0.750000 0.128360 0.717237
O O13 0.976227 0.129114 0.773392
O O14 0.016266 0.161532 0.681789
O O15 0.948291 0.000000 0.714722
O O16 0.500000 0.129288 0.500000
O O17 0.750000 0.110054 0.452850
O O18 0.512461 0.170088 0.409207
O O19 0.526702 0.000000 0.440350
O O20 0.250000 0.215676 0.635360
O O21 0.750000 0.887144 0.828877
O O22 0.527898 0.000000 0.834511
O O23 0.250000 0.368314 0.214130
O O24 0.443559 0.500000 0.208249
#
# Coordination Sequence:
#
# PCOD9400433 Si02
#       8
#     8   8   8   8   8   8   8   8
#     4  10  21  38  59  82 108 136 167 206 253 304
#     4  12  23  33  51  78 106 137 173 211 251 299
#     4   9  18  32  48  68  96 128 161 198 241 289
#     4   9  18  31  47  70  99 129 161 197 239 288
#     4   9  18  32  48  67  91 117 148 189 237 289
#     4  10  19  30  47  70  94 123 158 195 238 287
#     4   9  19  36  54  72 100 138 176 213 251 292
#     4  10  20  33  49  71 101 136 172 209 248 291
#
# _framework density 16.944032
#
# number of rings (size 3 to 8) (size 9 to 14) (size 15 to 20)
#    0.000    2.250    0.000    4.125    0.000    7.500 
#    0.000    2.500    0.000    0.750    0.000    0.000 
#    0.000    0.000    0.000    0.000    0.000    0.000 
#
# Total GULP energy -357251.048868 kJ/mol
# GULP energy per Si atom -5582.047639 kJ/mol
# Density = 1.690547 g / cm^3
# Si number density = 16.944032 Si / 1000 Ang^3
#
#
#
# Elastic Constant Matrix: (Units=GPa)
#
#
# Indices 1 2 3 4 5 6 
#
# 1 40.8341 44.8620 44.8147 0.0000 0.0000 0.0000
# 2 44.8620 103.4564 100.6621 0.0000 0.0000 0.0000
# 3 44.8147 100.6621 123.3729 0.0000 0.0000 0.0000
# 4 0.0000 0.0000 0.0000 33.6911 0.0000 0.0000
# 5 0.0000 0.0000 0.0000 0.0000 26.5753 0.0000
# 6 0.0000 0.0000 0.0000 0.0000 0.0000 22.0251
#
#
#
# Elastic Compliance Matrix: (Units=1/GPa)
#
#
# Indices 1 2 3 4 5 6 
#
# 1 0.046889 -0.018243 -0.002147 0.000000 0.000000 0.000000
# 2 -0.018243 0.053993 -0.037427 0.000000 0.000000 0.000000
# 3 -0.002147 -0.037427 0.039423 0.000000 0.000000 0.000000
# 4 0.000000 0.000000 0.000000 0.029681 0.000000 0.000000
# 5 0.000000 0.000000 0.000000 0.000000 0.037629 0.000000
# 6 0.000000 0.000000 0.000000 0.000000 0.000000 0.045403
#
#
# Mechanical properties :
#
#
# Convention : Reuss Voigt Hill
#
# Bulk Modulus (GPa) = 40.53581 72.03790 56.28685
# Shear Modulus (GPa) = 13.26700 21.61326 17.44013
#
# Velocity S-wave (km/s) = 2.80123 3.57538 3.21172
# Velocity P-wave (km/s) = 5.86837 7.72347 6.85893
#
# Compressibility (1/GPa) = 0.02466955
#
# Stress axis : x y z
#
# Youngs Moduli (GPa) = 21.32717 18.52098 25.36610
#
# Poissons Ratio (x) = 0.33788 0.05446
# Poissons Ratio (y) = 0.38908 0.94937
# Poissons Ratio (z) = 0.04579 0.69318
#
# Static dielectric constant tensor:
#      x y z
#    x 1.564640 0.000000 0.000000 
#    y 0.000000 1.592030 0.000000 
#    z 0.000000 0.000000 1.542420 
# 
# From -- ./inp_files/34918.got.cif
#   From: 2010.05.17/outbox.cif.g08.bks.cpg/sg51_18_cif.got.tgz:34918.got - 2010.06.03 11:52:47.
