data_PCOD9400465
_publ_section_title
;
Structure prediction by ZEFSAII (Michael W. Deem and Ramdas Pophale) SiO2 
 PCOD9400465
Probable space group: P M M A
;
_chemical_formula_sum "Si O2"
_cell_formula_units_Z 48
_cell_length_a 31.124003
_cell_length_b 7.460440
_cell_length_c 9.888619
_cell_angle_alpha 90.000000
_cell_angle_beta 90.000000
_cell_angle_gamma 90.000000
_cell_volume 2296.125040
_symmetry_space_group_name_H-M "P M M A"
_symmetry_group_IT_number 51
_symmetry_cell_setting 'orthorhombic'
loop_
_space_group_symop_operation_xyz
x,y,z
1/2-x,-y,z
1/2+x,-y,-z
-x,y,-z
-x,-y,-z
1/2+x,y,-z
1/2-x,y,z
x,-y,z
loop_
_atom_site_type_symbol
_atom_site_label
_atom_site_fract_x
_atom_site_fract_y
_atom_site_fract_z
Si Si1 0.626325 0.720056 0.658430
Si Si2 0.298813 0.787363 0.835540
Si Si3 0.047788 0.718062 0.156539
Si Si4 0.449878 0.719125 0.848552
Si Si5 0.701353 0.285311 0.855301
Si Si6 0.622682 0.708275 0.353032
O O1 0.627390 0.500000 0.659209
O O2 0.583067 0.775794 0.735864
O O3 0.667190 0.780621 0.746332
O O4 0.627037 0.782736 0.503784
O O5 0.250000 0.717360 0.819358
O O6 0.332979 0.715814 0.729335
O O7 0.297489 0.000000 0.817819
O O8 0.312390 0.750523 0.990223
O O9 0.047947 0.500000 0.156563
O O10 0.998736 0.772571 0.185200
O O11 0.059130 0.774124 0.003343
O O12 0.448767 0.500000 0.849145
O O13 0.414690 0.785173 0.742542
O O14 0.750000 0.215308 0.838585
O O15 0.703278 0.500000 0.841264
O O16 0.611156 0.500000 0.372002
#
# Coordination Sequence:
#
# PCOD9400465 Si02
#       6
#     8   8   8   8   8   8
#     4   9  17  27  43  71 103 130 156 191 236 284
#     4  10  21  36  52  70  92 121 159 199 238 282
#     4   8  13  23  39  63  97 130 159 194 233 271
#     4   8  14  24  41  66  95 127 160 194 232 273
#     4   9  17  31  51  72  93 119 154 197 240 280
#     4  10  19  30  47  73 101 128 158 192 235 284
#
# _framework density 20.904786000000001
#
# number of rings (size 3 to 8) (size 9 to 14) (size 15 to 20)
#    0.000    3.000    0.000    2.500    0.000    5.000 
#    0.000    5.833    0.000    2.000    0.000   11.667 
#    0.000    0.000    0.000    0.000    0.000    0.000 
#
# Total GULP energy -267916.938800 kJ/mol
# GULP energy per Si atom -5581.602892 kJ/mol
# Density = 2.085721 g / cm^3
# Si number density = 20.904786 Si / 1000 Ang^3
#
#
#
# Elastic Constant Matrix: (Units=GPa)
#
#
# Indices 1 2 3 4 5 6 
#
# 1 134.7812 -4.1501 135.3132 0.0000 0.0000 0.0000
# 2 -4.1501 59.4447 -3.1289 0.0000 0.0000 0.0000
# 3 135.3132 -3.1289 205.3637 0.0000 0.0000 0.0000
# 4 0.0000 0.0000 0.0000 -31.6552 0.0000 0.0000
# 5 0.0000 0.0000 0.0000 0.0000 9.0297 0.0000
# 6 0.0000 0.0000 0.0000 0.0000 0.0000 -19.8677
#
#
#
# Elastic Compliance Matrix: (Units=1/GPa)
#
#
# Indices 1 2 3 4 5 6 
#
# 1 0.021954 0.000772 -0.014453 0.000000 0.000000 0.000000
# 2 0.000772 0.016863 -0.000252 0.000000 0.000000 0.000000
# 3 -0.014453 -0.000252 0.014389 0.000000 0.000000 0.000000
# 4 0.000000 0.000000 0.000000 -0.031590 0.000000 0.000000
# 5 0.000000 0.000000 0.000000 0.000000 0.110745 0.000000
# 6 0.000000 0.000000 0.000000 0.000000 0.000000 -0.050333
#
#
# Mechanical properties :
#
#
# Convention : Reuss Voigt Hill
#
# Bulk Modulus (GPa) = 39.46457 72.85088 56.15773
# Shear Modulus (GPa) = 42.25104 9.60506 25.92805
#
# Velocity S-wave (km/s) = 4.50056 2.14584 3.52560
# Velocity P-wave (km/s) = 6.77687 6.40813 6.59508
#
# Compressibility (1/GPa) = 0.02533918
#
# Stress axis : x y z
#
# Youngs Moduli (GPa) = 45.55053 59.30139 69.49824
#
# Poissons Ratio (x) = -0.04578 1.00449
# Poissons Ratio (y) = -0.03516 0.01749
# Poissons Ratio (z) = 0.65836 0.01493
#
# Static dielectric constant tensor:
#      x y z
#    x 1.700440 0.000000 0.000000 
#    y 0.000000 1.799510 0.000000 
#    z 0.000000 0.000000 1.709900 
# 
# From -- ./inp_files/12795.got.cif
#   From: 2010.05.17/outbox.cif.g08.bks.cpg/sg51_7_cif.got.tgz:12795.got - 2010.06.03 11:52:47.
