data_PCOD9400233
_publ_section_title
;
Structure prediction by ZEFSAII (Michael W. Deem and Ramdas Pophale) SiO2 
 PCOD9400233
Probable space group: P M M A
;
_chemical_formula_sum "Si O2"
_cell_formula_units_Z 64
_cell_length_a 7.814822
_cell_length_b 14.969694
_cell_length_c 32.304823
_cell_angle_alpha 90.000000
_cell_angle_beta 90.000000
_cell_angle_gamma 90.000000
_cell_volume 3779.195677
_symmetry_space_group_name_H-M "P M M A"
_symmetry_group_IT_number 51
_symmetry_cell_setting 'orthorhombic'
loop_
_space_group_symop_operation_xyz
x,y,z
1/2-x,-y,z
1/2+x,-y,-z
-x,y,-z
-x,-y,-z
1/2+x,y,-z
1/2-x,y,z
x,-y,z
loop_
_atom_site_type_symbol
_atom_site_label
_atom_site_fract_x
_atom_site_fract_y
_atom_site_fract_z
Si Si1 0.456481 0.603469 0.365276
Si Si2 0.044837 0.602923 0.455884
Si Si3 0.543145 0.099063 0.841380
Si Si4 0.539947 0.715162 0.875328
Si Si5 0.453064 0.286807 0.715663
Si Si6 0.544164 0.398011 0.953369
Si Si7 0.954294 0.399047 0.796356
Si Si8 0.455243 0.099003 0.744863
O O1 0.250000 0.600757 0.365475
O O2 0.514287 0.500000 0.359663
O O3 0.513707 0.636967 0.410915
O O4 0.508672 0.665725 0.327590
O O5 0.250000 0.600236 0.454543
O O6 0.981018 0.500000 0.457307
O O7 0.000000 0.646083 0.500000
O O8 0.750000 0.098448 0.842490
O O9 0.483949 0.182877 0.868364
O O10 0.491629 0.113376 0.793566
O O11 0.482543 0.000000 0.853764
O O12 0.750000 0.715306 0.875355
O O13 0.482464 0.667683 0.917415
O O14 0.482313 0.657455 0.835611
O O15 0.250000 0.281539 0.720189
O O16 0.516116 0.347226 0.753693
O O17 0.522236 0.185743 0.720683
O O18 0.750000 0.401171 0.950274
O O19 0.480566 0.500000 0.947367
O O20 0.500000 0.370085 0.000000
O O21 0.750000 0.405400 0.801720
O O22 0.023490 0.500000 0.795040
O O23 0.250000 0.095764 0.739560
O O24 0.523081 0.000000 0.733837
#
# Coordination Sequence:
#
# PCOD9400233 Si02
#       8
#     8   8   8   8   8   8   8   8
#     4   9  18  31  44  59  85 123 157 180 211 259
#     4   8  14  25  41  60  81 108 145 185 220 253
#     4   9  16  27  46  69  86 103 136 180 217 250
#     4   9  16  28  46  66  86 109 140 175 211 254
#     4  11  21  30  42  62  87 115 147 182 217 253
#     4   9  17  30  47  65  85 110 140 173 209 250
#     4  10  19  30  44  61  84 117 149 174 206 252
#     4   9  18  32  46  60  83 114 144 177 221 266
#
# _framework density 16.934819999999998
#
# number of rings (size 3 to 8) (size 9 to 14) (size 15 to 20)
#    0.000    2.750    1.250    1.875    0.000    4.500 
#    0.000    2.500    0.000    1.875    0.000    0.000 
#    0.000    0.500    0.000    1.125    0.000    1.750 
#
# Total GULP energy -356561.220630 kJ/mol
# GULP energy per Si atom -5571.269072 kJ/mol
# Density = 1.689628 g / cm^3
# Si number density = 16.934820 Si / 1000 Ang^3
#
#
#
# Elastic Constant Matrix: (Units=GPa)
#
#
# Indices 1 2 3 4 5 6 
#
# 1 15.9455 6.7335 -4.8894 0.0000 0.0000 0.0000
# 2 6.7335 140.2186 88.1466 0.0000 0.0000 0.0000
# 3 -4.8894 88.1466 135.9424 0.0000 0.0000 0.0000
# 4 0.0000 0.0000 0.0000 3.4263 0.0000 0.0000
# 5 0.0000 0.0000 0.0000 0.0000 18.3787 0.0000
# 6 0.0000 0.0000 0.0000 0.0000 0.0000 10.7309
#
#
#
# Elastic Compliance Matrix: (Units=1/GPa)
#
#
# Indices 1 2 3 4 5 6 
#
# 1 0.068546 -0.008173 0.007765 0.000000 0.000000 0.000000
# 2 -0.008173 0.013013 -0.008732 0.000000 0.000000 0.000000
# 3 0.007765 -0.008732 0.013297 0.000000 0.000000 0.000000
# 4 0.000000 0.000000 0.000000 0.291859 0.000000 0.000000
# 5 0.000000 0.000000 0.000000 0.000000 0.054411 0.000000
# 6 0.000000 0.000000 0.000000 0.000000 0.000000 0.093189
#
#
# Mechanical properties :
#
#
# Convention : Reuss Voigt Hill
#
# Bulk Modulus (GPa) = 13.05887 52.45419 32.75653
# Shear Modulus (GPa) = 8.64871 19.98157 14.31514
#
# Velocity S-wave (km/s) = 2.26233 3.43871 2.91057
# Velocity P-wave (km/s) = 3.81473 6.84161 5.53895
#
# Compressibility (1/GPa) = 0.07657632
#
# Stress axis : x y z
#
# Youngs Moduli (GPa) = 14.58877 76.84341 75.20331
#
# Poissons Ratio (x) = 0.62803 -0.58394
# Poissons Ratio (y) = 0.11923 0.65668
# Poissons Ratio (z) = -0.11328 0.67100
#
# Static dielectric constant tensor:
#      x y z
#    x 1.622360 0.000000 0.000000 
#    y 0.000000 1.595250 0.000000 
#    z 0.000000 0.000000 1.572690 
# 
# From -- ./inp_files/37615.got.cif
#   From: 2010.05.17/outbox.cif.g08.bks.cpg/sg51_19_cif.got.tgz:37615.got - 2010.06.03 11:52:47.
