data_PCOD9400158
_publ_section_title
;
Structure prediction by ZEFSAII (Michael W. Deem and Ramdas Pophale) SiO2 
 PCOD9400158
Probable space group: P M M A
;
_chemical_formula_sum "Si O2"
_cell_formula_units_Z 56
_cell_length_a 8.881053
_cell_length_b 19.578294
_cell_length_c 18.961827
_cell_angle_alpha 90.000000
_cell_angle_beta 90.000000
_cell_angle_gamma 90.000000
_cell_volume 3297.004103
_symmetry_space_group_name_H-M "P M M A"
_symmetry_group_IT_number 51
_symmetry_cell_setting 'orthorhombic'
loop_
_space_group_symop_operation_xyz
x,y,z
1/2-x,-y,z
1/2+x,-y,-z
-x,y,-z
-x,-y,-z
1/2+x,y,-z
1/2-x,y,z
x,-y,z
loop_
_atom_site_type_symbol
_atom_site_label
_atom_site_fract_x
_atom_site_fract_y
_atom_site_fract_z
Si Si1 0.070066 0.790448 0.798020
Si Si2 0.571010 0.709541 0.348250
Si Si3 0.571004 0.291509 0.925002
Si Si4 0.070972 0.578409 0.854218
Si Si5 0.928754 0.422856 0.698632
Si Si6 0.568373 0.154264 0.425284
Si Si7 0.066544 0.077112 0.716388
O O1 0.250000 0.790167 0.811706
O O2 0.045600 0.742927 0.729154
O O3 0.022236 0.866317 0.773965
O O4 0.984218 0.759813 0.864148
O O5 0.750000 0.698544 0.355242
O O6 0.486244 0.637940 0.350617
O O7 0.524536 0.768401 0.403072
O O8 0.750000 0.292344 0.929321
O O9 0.510719 0.366056 0.901913
O O10 0.500000 0.273171 0.000000
O O11 0.250000 0.591183 0.854581
O O12 0.043865 0.500000 0.876616
O O13 0.010681 0.584717 0.774226
O O14 0.750000 0.416682 0.709677
O O15 0.960525 0.500000 0.672931
O O16 0.500000 0.135143 0.500000
O O17 0.750000 0.152440 0.428589
O O18 0.521513 0.105307 0.360674
O O19 0.250000 0.077154 0.716465
O O20 0.014814 0.000000 0.728711
#
# Coordination Sequence:
#
# PCOD9400158 Si02
#       7
#     8   8   8   8   8   8   8
#     4   9  17  32  53  75  99 128 168 212 250 298
#     4   9  17  30  49  69  95 132 172 210 251 299
#     4  12  24  36  52  73 100 134 171 213 259 305
#     4  10  20  34  51  71  99 134 169 207 253 304
#     4  10  19  29  45  72 100 126 163 212 260 302
#     4   9  18  31  48  75 107 140 172 204 242 294
#     4   8  15  30  54  81 107 137 169 201 244 298
#
# _framework density 16.985116999999999
#
# number of rings (size 3 to 8) (size 9 to 14) (size 15 to 20)
#    0.000    2.429    1.429    3.857    0.000    2.857 
#    0.000    2.143    0.000    2.143    0.000    0.000 
#    0.000    0.000    0.000    0.000    0.000    0.000 
#
# Total GULP energy -312345.313550 kJ/mol
# GULP energy per Si atom -5577.594885 kJ/mol
# Density = 1.694646 g / cm^3
# Si number density = 16.985117 Si / 1000 Ang^3
#
#
#
# Elastic Constant Matrix: (Units=GPa)
#
#
# Indices 1 2 3 4 5 6 
#
# 1 50.3915 46.9805 25.6208 0.0000 0.0000 0.0000
# 2 46.9805 122.9494 40.1613 0.0000 0.0000 0.0000
# 3 25.6208 40.1613 53.0562 0.0000 0.0000 0.0000
# 4 0.0000 0.0000 0.0000 15.5845 0.0000 0.0000
# 5 0.0000 0.0000 0.0000 0.0000 25.5385 0.0000
# 6 0.0000 0.0000 0.0000 0.0000 0.0000 12.4362
#
#
#
# Elastic Compliance Matrix: (Units=1/GPa)
#
#
# Indices 1 2 3 4 5 6 
#
# 1 0.033561 -0.010004 -0.008634 0.000000 0.000000 0.000000
# 2 -0.010004 0.013787 -0.005605 0.000000 0.000000 0.000000
# 3 -0.008634 -0.005605 0.027260 0.000000 0.000000 0.000000
# 4 0.000000 0.000000 0.000000 0.064166 0.000000 0.000000
# 5 0.000000 0.000000 0.000000 0.000000 0.039157 0.000000
# 6 0.000000 0.000000 0.000000 0.000000 0.000000 0.080410
#
#
# Mechanical properties :
#
#
# Convention : Reuss Voigt Hill
#
# Bulk Modulus (GPa) = 38.28210 50.21359 44.24784
# Shear Modulus (GPa) = 15.84605 18.28747 17.06676
#
# Velocity S-wave (km/s) = 3.05772 3.28483 3.17331
# Velocity P-wave (km/s) = 5.92062 6.63433 6.28761
#
# Compressibility (1/GPa) = 0.02612187
#
# Stress axis : x y z
#
# Youngs Moduli (GPa) = 29.79631 72.53220 36.68327
#
# Poissons Ratio (x) = 0.72560 0.31673
# Poissons Ratio (y) = 0.29808 0.20562
# Poissons Ratio (z) = 0.25727 0.40657
#
# Static dielectric constant tensor:
#      x y z
#    x 1.565630 0.000000 0.000000 
#    y 0.000000 1.594420 0.000000 
#    z 0.000000 0.000000 1.549180 
# 
# From -- ./inp_files/28233.got.cif
#   From: 2010.05.17/outbox.cif.g08.bks.cpg/sg51_15_cif.got.tgz:28233.got - 2010.06.03 11:52:47.
