data_PCOD9400782
_publ_section_title
;
Structure prediction by ZEFSAII (Michael W. Deem and Ramdas Pophale) SiO2 
 PCOD9400782
Probable space group: P M M A
;
_chemical_formula_sum "Si O2"
_cell_formula_units_Z 64
_cell_length_a 13.930714
_cell_length_b 21.233927
_cell_length_c 9.426040
_cell_angle_alpha 90.000000
_cell_angle_beta 90.000000
_cell_angle_gamma 90.000000
_cell_volume 2788.258113
_symmetry_space_group_name_H-M "P M M A"
_symmetry_group_IT_number 51
_symmetry_cell_setting 'orthorhombic'
loop_
_space_group_symop_operation_xyz
x,y,z
1/2-x,-y,z
1/2+x,-y,-z
-x,y,-z
-x,-y,-z
1/2+x,y,-z
1/2-x,y,z
x,-y,z
loop_
_atom_site_type_symbol
_atom_site_label
_atom_site_fract_x
_atom_site_fract_y
_atom_site_fract_z
Si Si1 0.904283 0.429945 0.905398
Si Si2 0.866830 0.191993 0.533317
Si Si3 0.865569 0.571729 0.583036
Si Si4 0.367003 0.681387 0.631286
Si Si5 0.858138 0.695916 0.053659
Si Si6 0.633111 0.070280 0.357608
Si Si7 0.132482 0.191620 0.143943
Si Si8 0.633580 0.929662 0.030213
O O1 0.859737 0.500000 0.920615
O O2 0.914362 0.420258 0.736585
O O3 0.852949 0.369207 0.968794
O O4 0.000000 0.431905 0.000000
O O5 0.750000 0.191485 0.536680
O O6 0.893443 0.253852 0.445641
O O7 0.896568 0.127916 0.455690
O O8 0.901042 0.195858 0.694748
O O9 0.750000 0.578894 0.608175
O O10 0.881743 0.500000 0.533902
O O11 0.894907 0.622047 0.465091
O O12 0.250000 0.677614 0.636246
O O13 0.403752 0.683170 0.792827
O O14 0.750000 0.718625 0.085472
O O15 0.898922 0.749637 0.951937
O O16 0.750000 0.069989 0.358592
O O17 0.604293 0.079860 0.193706
O O18 0.602446 0.000000 0.402421
O O19 0.250000 0.192635 0.148739
O O20 0.102630 0.126548 0.070769
O O21 0.750000 0.928400 0.030593
O O22 0.605846 0.000000 0.983127
#
# Coordination Sequence:
#
# PCOD9400782 Si02
#       8
#     8   8   8   8   8   8   8   8
#     4  10  21  36  52  71  96 124 153 187 230 280
#     4   9  15  22  33  51  78 110 145 186 228 269
#     4   9  17  31  51  72  94 121 152 186 225 270
#     4   9  17  28  44  67  92 118 151 192 233 272
#     4  10  19  31  49  71  94 121 156 196 234 276
#     4   8  13  20  29  42  66 106 151 187 221 266
#     4   9  16  24  37  59  85 115 152 192 232 274
#     4   8  13  21  32  48  76 114 151 186 226 271
#
# _framework density 22.953399000000001
#
# number of rings (size 3 to 8) (size 9 to 14) (size 15 to 20)
#    0.000    3.000    0.000    2.625    0.000    6.750 
#    0.000    4.375    0.000    2.250    0.000    0.000 
#    0.000    0.500    0.000    0.250    0.000   24.125 
#
# Total GULP energy -357631.477594 kJ/mol
# GULP energy per Si atom -5587.991837 kJ/mol
# Density = 2.290116 g / cm^3
# Si number density = 22.953399 Si / 1000 Ang^3
#
#
#
# Elastic Constant Matrix: (Units=GPa)
#
#
# Indices 1 2 3 4 5 6 
#
# 1 68.9527 5.2350 -4.7574 0.0000 0.0000 0.0000
# 2 5.2350 224.7819 150.3482 0.0000 0.0000 0.0000
# 3 -4.7574 150.3482 169.7337 0.0000 0.0000 0.0000
# 4 0.0000 0.0000 0.0000 27.5920 0.0000 0.0000
# 5 0.0000 0.0000 0.0000 0.0000 14.0094 0.0000
# 6 0.0000 0.0000 0.0000 0.0000 0.0000 -8.7941
#
#
#
# Elastic Compliance Matrix: (Units=1/GPa)
#
#
# Indices 1 2 3 4 5 6 
#
# 1 0.014740 -0.001520 0.001760 0.000000 0.000000 0.000000
# 2 -0.001520 0.011073 -0.009851 0.000000 0.000000 0.000000
# 3 0.001760 -0.009851 0.014667 0.000000 0.000000 0.000000
# 4 0.000000 0.000000 0.000000 0.036242 0.000000 0.000000
# 5 0.000000 0.000000 0.000000 0.000000 0.071381 0.000000
# 6 0.000000 0.000000 0.000000 0.000000 0.000000 -0.113713
#
#
# Mechanical properties :
#
#
# Convention : Reuss Voigt Hill
#
# Bulk Modulus (GPa) = 47.04468 85.01333 66.02901
# Shear Modulus (GPa) = 82.37435 27.40430 54.88932
#
# Velocity S-wave (km/s) = 5.99713 3.45905 4.89544
# Velocity P-wave (km/s) = 8.27613 7.28499 7.79633
#
# Compressibility (1/GPa) = 0.02125639
#
# Stress axis : x y z
#
# Youngs Moduli (GPa) = 67.84469 90.30771 68.18038
#
# Poissons Ratio (x) = 0.13730 -0.11999
# Poissons Ratio (y) = 0.10315 0.67166
# Poissons Ratio (z) = -0.11940 0.88964
#
# Static dielectric constant tensor:
#      x y z
#    x 1.933160 0.000000 0.000000 
#    y 0.000000 1.813470 0.000000 
#    z 0.000000 0.000000 1.791340 
# 
# From -- ./inp_files/10005.got.cif
#   From: 2010.05.17/outbox.cif.g08.bks.cpg/sg51_6_cif.got.tgz:10005.got - 2010.06.03 11:52:47.
