data_PCOD9400488
_publ_section_title
;
Structure prediction by ZEFSAII (Michael W. Deem and Ramdas Pophale) SiO2 
 PCOD9400488
Probable space group: P M M A
;
_chemical_formula_sum "Si O2"
_cell_formula_units_Z 64
_cell_length_a 18.886428
_cell_length_b 9.262050
_cell_length_c 21.979152
_cell_angle_alpha 90.000000
_cell_angle_beta 90.000000
_cell_angle_gamma 90.000000
_cell_volume 3844.748011
_symmetry_space_group_name_H-M "P M M A"
_symmetry_group_IT_number 51
_symmetry_cell_setting 'orthorhombic'
loop_
_space_group_symop_operation_xyz
x,y,z
1/2-x,-y,z
1/2+x,-y,-z
-x,y,-z
-x,-y,-z
1/2+x,y,-z
1/2-x,y,z
x,-y,z
loop_
_atom_site_type_symbol
_atom_site_label
_atom_site_fract_x
_atom_site_fract_y
_atom_site_fract_z
Si Si1 0.071544 0.668369 0.804067
Si Si2 0.419891 0.172472 0.022249
Si Si3 0.409041 0.330398 0.149109
Si Si4 0.470803 0.836117 0.690191
Si Si5 0.167553 0.826921 0.901978
Si Si6 0.034122 0.173654 0.434880
Si Si7 0.171005 0.671590 0.385470
Si Si8 0.634102 0.165301 0.735438
O O1 0.088582 0.500000 0.801972
O O2 0.070966 0.735798 0.736643
O O3 0.124150 0.751093 0.848669
O O4 0.991760 0.683076 0.830984
O O5 0.402440 0.258975 0.083145
O O6 0.415778 0.000000 0.034297
O O7 0.500000 0.203490 0.000000
O O8 0.367865 0.209086 0.966782
O O9 0.391547 0.500000 0.148646
O O10 0.364207 0.245311 0.199991
O O11 0.481270 0.786857 0.620679
O O12 0.551254 0.840559 0.715850
O O13 0.442962 0.000000 0.691349
O O14 0.250000 0.788149 0.900952
O O15 0.161157 0.000000 0.894803
O O16 0.108140 0.254029 0.423256
O O17 0.000000 0.204838 0.500000
O O18 0.045624 0.000000 0.429827
O O19 0.250000 0.694579 0.411041
O O20 0.158465 0.500000 0.380493
O O21 0.168779 0.743266 0.318517
O O22 0.659636 0.000000 0.738247
#
# Coordination Sequence:
#
# PCOD9400488 Si02
#       8
#     8   8   8   8   8   8   8   8
#     4  10  19  30  48  73  98 124 158 202 248 298
#     4  10  19  32  51  72  94 126 170 214 253 305
#     4  10  19  30  48  74 101 127 161 207 256 303
#     4   8  15  28  48  73 100 127 158 201 246 289
#     4  10  21  36  52  70  94 125 162 207 260 312
#     4   9  18  33  54  81 110 141 180 221 257 299
#     4  10  20  33  50  75 108 143 178 216 262 316
#     4   9  17  30  49  72  98 130 168 208 250 296
#
# _framework density 16.646084999999999
#
# number of rings (size 3 to 8) (size 9 to 14) (size 15 to 20)
#    0.000    2.500    1.250    2.250    0.000    6.250 
#    0.000    0.625    0.000    3.000    0.000    1.750 
#    0.000    0.000    0.000    0.000    0.000    0.000 
#
# Total GULP energy -356839.997331 kJ/mol
# GULP energy per Si atom -5575.624958 kJ/mol
# Density = 1.660820 g / cm^3
# Si number density = 16.646085 Si / 1000 Ang^3
#
#
#
# Elastic Constant Matrix: (Units=GPa)
#
#
# Indices 1 2 3 4 5 6 
#
# 1 63.6522 48.9473 49.4930 0.0000 0.0000 0.0000
# 2 48.9473 76.0321 71.7510 0.0000 0.0000 0.0000
# 3 49.4930 71.7510 153.5799 0.0000 0.0000 0.0000
# 4 0.0000 0.0000 0.0000 13.6904 0.0000 0.0000
# 5 0.0000 0.0000 0.0000 0.0000 11.5699 0.0000
# 6 0.0000 0.0000 0.0000 0.0000 0.0000 17.0676
#
#
#
# Elastic Compliance Matrix: (Units=1/GPa)
#
#
# Indices 1 2 3 4 5 6 
#
# 1 0.031236 -0.018975 -0.001201 0.000000 0.000000 0.000000
# 2 -0.018975 0.035051 -0.010260 0.000000 0.000000 0.000000
# 3 -0.001201 -0.010260 0.011692 0.000000 0.000000 0.000000
# 4 0.000000 0.000000 0.000000 0.073044 0.000000 0.000000
# 5 0.000000 0.000000 0.000000 0.000000 0.086432 0.000000
# 6 0.000000 0.000000 0.000000 0.000000 0.000000 0.058590
#
#
# Mechanical properties :
#
#
# Convention : Reuss Voigt Hill
#
# Bulk Modulus (GPa) = 58.46235 70.40522 64.43379
# Shear Modulus (GPa) = 13.78856 16.67044 15.22950
#
# Velocity S-wave (km/s) = 2.88121 3.16802 3.02801
# Velocity P-wave (km/s) = 6.80187 7.46787 7.14264
#
# Compressibility (1/GPa) = 0.01710503
#
# Stress axis : x y z
#
# Youngs Moduli (GPa) = 32.01437 28.53008 85.52979
#
# Poissons Ratio (x) = 0.54137 0.10273
# Poissons Ratio (y) = 0.60749 0.87756
# Poissons Ratio (z) = 0.03845 0.29273
#
# Static dielectric constant tensor:
#      x y z
#    x 1.552810 0.000000 0.000000 
#    y 0.000000 1.557710 0.000000 
#    z 0.000000 0.000000 1.546530 
# 
# From -- ./inp_files/33816.got.cif
#   From: 2010.05.17/outbox.cif.g08.bks.cpg/sg51_17_cif.got.tgz:33816.got - 2010.06.03 11:52:47.
