data_PCOD9400219
_publ_section_title
;
Structure prediction by ZEFSAII (Michael W. Deem and Ramdas Pophale) SiO2 
 PCOD9400219
Probable space group: P M M A
;
_chemical_formula_sum "Si O2"
_cell_formula_units_Z 64
_cell_length_a 29.720304
_cell_length_b 13.828582
_cell_length_c 9.693167
_cell_angle_alpha 90.000000
_cell_angle_beta 90.000000
_cell_angle_gamma 90.000000
_cell_volume 3983.791419
_symmetry_space_group_name_H-M "P M M A"
_symmetry_group_IT_number 51
_symmetry_cell_setting 'orthorhombic'
loop_
_space_group_symop_operation_xyz
x,y,z
1/2-x,-y,z
1/2+x,-y,-z
-x,y,-z
-x,-y,-z
1/2+x,y,-z
1/2-x,y,z
x,-y,z
loop_
_atom_site_type_symbol
_atom_site_label
_atom_site_fract_x
_atom_site_fract_y
_atom_site_fract_z
Si Si1 0.447502 0.616573 0.520448
Si Si2 0.878572 0.310208 0.257931
Si Si3 0.301493 0.617265 0.544033
Si Si4 0.408079 0.110664 0.829055
Si Si5 0.868431 0.383939 0.685138
Si Si6 0.954836 0.802992 0.919243
Si Si7 0.593802 0.612877 0.966313
Si Si8 0.502482 0.113173 0.660626
O O1 0.500000 0.639559 0.500000
O O2 0.444697 0.500000 0.539914
O O3 0.422737 0.665979 0.649486
O O4 0.415248 0.641979 0.391323
O O5 0.834753 0.347147 0.336675
O O6 0.877017 0.196029 0.228627
O O7 0.885872 0.366291 0.115232
O O8 0.250000 0.649260 0.555122
O O9 0.301633 0.500000 0.546119
O O10 0.326258 0.651267 0.403501
O O11 0.453990 0.118781 0.737101
O O12 0.392738 0.000000 0.819416
O O13 0.418314 0.139384 0.988855
O O14 0.866352 0.500000 0.678600
O O15 0.871359 0.359541 0.844965
O O16 0.945961 0.689361 0.941290
O O17 0.962810 0.831229 0.760823
O O18 0.000000 0.829852 0.000000
O O19 0.581201 0.500000 0.952104
O O20 0.500000 0.143864 0.500000
O O21 0.515539 0.000000 0.660110
#
# Coordination Sequence:
#
# PCOD9400219 Si02
#       8
#     8   8   8   8   8   8   8   8
#     4   9  17  29  44  63  91 129 164 188 218 266
#     4  10  19  31  49  70  92 119 157 199 233 273
#     4   9  17  32  53  73  94 121 150 180 222 279
#     4   9  18  31  45  62  88 121 152 190 241 285
#     4   8  16  29  43  62  90 122 152 182 219 266
#     4   9  18  30  44  61  86 126 164 192 231 281
#     4  10  19  30  43  63  94 124 152 192 234 271
#     4   9  17  29  45  64  84 110 155 209 242 263
#
# _framework density 16.065099
#
# number of rings (size 3 to 8) (size 9 to 14) (size 15 to 20)
#    0.000    2.875    0.000    2.250    0.000    7.250 
#    0.000    1.875    0.000    3.000    0.000    0.000 
#    0.000    0.000    0.000    0.000    0.000    0.000 
#
# Total GULP energy -356304.165245 kJ/mol
# GULP energy per Si atom -5567.252582 kJ/mol
# Density = 1.602853 g / cm^3
# Si number density = 16.065099 Si / 1000 Ang^3
#
#
#
# Elastic Constant Matrix: (Units=GPa)
#
#
# Indices 1 2 3 4 5 6 
#
# 1 82.4602 12.8323 36.5307 0.0000 0.0000 0.0000
# 2 12.8323 71.3307 19.3359 0.0000 0.0000 0.0000
# 3 36.5307 19.3359 129.7897 0.0000 0.0000 0.0000
# 4 0.0000 0.0000 0.0000 14.3284 0.0000 0.0000
# 5 0.0000 0.0000 0.0000 0.0000 9.1888 0.0000
# 6 0.0000 0.0000 0.0000 0.0000 0.0000 11.1817
#
#
#
# Elastic Compliance Matrix: (Units=1/GPa)
#
#
# Indices 1 2 3 4 5 6 
#
# 1 0.014009 -0.001512 -0.003718 0.000000 0.000000 0.000000
# 2 -0.001512 0.014772 -0.001775 0.000000 0.000000 0.000000
# 3 -0.003718 -0.001775 0.009016 0.000000 0.000000 0.000000
# 4 0.000000 0.000000 0.000000 0.069792 0.000000 0.000000
# 5 0.000000 0.000000 0.000000 0.000000 0.108828 0.000000
# 6 0.000000 0.000000 0.000000 0.000000 0.000000 0.089432
#
#
# Mechanical properties :
#
#
# Convention : Reuss Voigt Hill
#
# Bulk Modulus (GPa) = 42.04001 46.77538 44.40769
# Shear Modulus (GPa) = 15.25375 21.26523 18.25949
#
# Velocity S-wave (km/s) = 3.08473 3.64220 3.37500
# Velocity P-wave (km/s) = 6.23801 6.84594 6.54903
#
# Compressibility (1/GPa) = 0.02378687
#
# Stress axis : x y z
#
# Youngs Moduli (GPa) = 71.38044 67.69340 110.91842
#
# Poissons Ratio (x) = 0.10238 0.41237
# Poissons Ratio (y) = 0.10796 0.19689
# Poissons Ratio (z) = 0.26538 0.12016
#
# Static dielectric constant tensor:
#      x y z
#    x 1.524940 0.000000 0.000000 
#    y 0.000000 1.555790 0.000000 
#    z 0.000000 0.000000 1.572170 
# 
# From -- ./inp_files/13248.got.cif
#   From: 2010.05.17/outbox.cif.g08.bks.cpg/sg51_7_cif.got.tgz:13248.got - 2010.06.03 11:52:47.
