data_PCOD9400502
_publ_section_title
;
Structure prediction by ZEFSAII (Michael W. Deem and Ramdas Pophale) SiO2 
 PCOD9400502
Probable space group: P M M A
;
_chemical_formula_sum "Si O2"
_cell_formula_units_Z 56
_cell_length_a 7.560659
_cell_length_b 15.365652
_cell_length_c 23.421039
_cell_angle_alpha 90.000000
_cell_angle_beta 90.000000
_cell_angle_gamma 90.000000
_cell_volume 2720.926443
_symmetry_space_group_name_H-M "P M M A"
_symmetry_group_IT_number 51
_symmetry_cell_setting 'orthorhombic'
loop_
_space_group_symop_operation_xyz
x,y,z
1/2-x,-y,z
1/2+x,-y,-z
-x,y,-z
-x,-y,-z
1/2+x,y,-z
1/2-x,y,z
x,-y,z
loop_
_atom_site_type_symbol
_atom_site_label
_atom_site_fract_x
_atom_site_fract_y
_atom_site_fract_z
Si Si1 0.536370 0.901008 0.228206
Si Si2 0.534435 0.400759 0.837007
Si Si3 0.542996 0.904650 0.904315
Si Si4 0.962354 0.597560 0.707545
Si Si5 0.462289 0.901033 0.565074
Si Si6 0.538777 0.783234 0.331756
Si Si7 0.537722 0.278348 0.937864
O O1 0.750000 0.896544 0.224947
O O2 0.468165 0.888974 0.163979
O O3 0.471800 0.830651 0.274060
O O4 0.490703 0.000000 0.246525
O O5 0.750000 0.397214 0.836431
O O6 0.485476 0.500000 0.850794
O O7 0.474754 0.382688 0.772305
O O8 0.470237 0.334902 0.884995
O O9 0.750000 0.909135 0.919413
O O10 0.464910 0.819868 0.934016
O O11 0.464167 0.000000 0.916253
O O12 0.750000 0.592975 0.709776
O O13 0.025161 0.500000 0.691588
O O14 0.006482 0.680364 0.669280
O O15 0.500000 0.874767 0.500000
O O16 0.250000 0.904837 0.570719
O O17 0.529434 0.834572 0.612863
O O18 0.529457 0.000000 0.573420
O O19 0.750000 0.794922 0.330754
O O20 0.750000 0.273781 0.931517
O O21 0.500000 0.316385 0.000000
#
# Coordination Sequence:
#
# PCOD9400502 Si02
#       7
#     8   8   8   8   8   8   8
#     4   9  17  29  46  70  98 125 153 187 232 287
#     4   8  15  30  50  68  88 116 147 181 228 282
#     4   9  18  32  47  63  86 117 152 190 231 274
#     4   9  18  33  53  75  97 124 160 199 238 285
#     4   9  18  33  51  72 102 139 174 204 235 275
#     4  10  19  30  48  74 103 132 159 194 242 288
#     4  10  20  32  46  64  86 113 147 187 228 273
#
# _framework density 20.581225
#
# number of rings (size 3 to 8) (size 9 to 14) (size 15 to 20)
#    0.000    2.857    0.000    2.143    0.000    5.429 
#    0.000    0.714    0.000    5.571    0.000    0.000 
#    0.000    0.000    0.000    0.000    0.000    0.000 
#
# Total GULP energy -312485.710100 kJ/mol
# GULP energy per Si atom -5580.101966 kJ/mol
# Density = 2.053438 g / cm^3
# Si number density = 20.581225 Si / 1000 Ang^3
#
#
#
# Elastic Constant Matrix: (Units=GPa)
#
#
# Indices 1 2 3 4 5 6 
#
# 1 48.9249 0.0007 -4.9083 0.0000 0.0000 0.0000
# 2 0.0007 109.6967 58.0937 0.0000 0.0000 0.0000
# 3 -4.9083 58.0937 62.7398 0.0000 0.0000 0.0000
# 4 0.0000 0.0000 0.0000 9.4689 0.0000 0.0000
# 5 0.0000 0.0000 0.0000 0.0000 16.4399 0.0000
# 6 0.0000 0.0000 0.0000 0.0000 0.0000 7.8840
#
#
#
# Elastic Compliance Matrix: (Units=1/GPa)
#
#
# Indices 1 2 3 4 5 6 
#
# 1 0.020759 -0.001688 0.003187 0.000000 0.000000 0.000000
# 2 -0.001688 0.018025 -0.016822 0.000000 0.000000 0.000000
# 3 0.003187 -0.016822 0.031764 0.000000 0.000000 0.000000
# 4 0.000000 0.000000 0.000000 0.105609 0.000000 0.000000
# 5 0.000000 0.000000 0.000000 0.000000 0.060828 0.000000
# 6 0.000000 0.000000 0.000000 0.000000 0.000000 0.126839
#
#
# Mechanical properties :
#
#
# Convention : Reuss Voigt Hill
#
# Bulk Modulus (GPa) = 25.06104 36.41483 30.73794
# Shear Modulus (GPa) = 12.26178 17.97025 15.11601
#
# Velocity S-wave (km/s) = 2.44350 2.95810 2.71303
# Velocity P-wave (km/s) = 4.49043 5.42206 4.97809
#
# Compressibility (1/GPa) = 0.03990257
#
# Stress axis : x y z
#
# Youngs Moduli (GPa) = 48.17130 55.47951 31.48184
#
# Poissons Ratio (x) = 0.09364 -0.10033
# Poissons Ratio (y) = 0.08131 0.52958
# Poissons Ratio (z) = -0.15352 0.93327
#
# Static dielectric constant tensor:
#      x y z
#    x 1.777130 0.000000 0.000000 
#    y 0.000000 1.758160 0.000000 
#    z 0.000000 0.000000 1.708540 
# 
# From -- ./inp_files/31906.got.cif
#   From: 2010.05.17/outbox.cif.g08.bks.cpg/sg51_16_cif.got.tgz:31906.got - 2010.06.03 11:52:47.
