data_PCOD9400361
_publ_section_title
;
Structure prediction by ZEFSAII (Michael W. Deem and Ramdas Pophale) SiO2 
 PCOD9400361
Probable space group: P M M A
;
_chemical_formula_sum "Si O2"
_cell_formula_units_Z 48
_cell_length_a 20.318902
_cell_length_b 9.532503
_cell_length_c 14.111113
_cell_angle_alpha 90.000000
_cell_angle_beta 90.000000
_cell_angle_gamma 90.000000
_cell_volume 2733.181396
_symmetry_space_group_name_H-M "P M M A"
_symmetry_group_IT_number 51
_symmetry_cell_setting 'orthorhombic'
loop_
_space_group_symop_operation_xyz
x,y,z
1/2-x,-y,z
1/2+x,-y,-z
-x,y,-z
-x,-y,-z
1/2+x,y,-z
1/2-x,y,z
x,-y,z
loop_
_atom_site_type_symbol
_atom_site_label
_atom_site_fract_x
_atom_site_fract_y
_atom_site_fract_z
Si Si1 0.673822 0.333547 0.499419
Si Si2 0.539855 0.666423 0.402560
Si Si3 0.074000 0.661638 0.954339
Si Si4 0.328191 0.841582 0.318281
Si Si5 0.117315 0.839694 0.122418
Si Si6 0.027356 0.839513 0.785455
O O1 0.750000 0.294462 0.476099
O O2 0.673373 0.500000 0.517698
O O3 0.617473 0.306772 0.422245
O O4 0.651291 0.254322 0.594596
O O5 0.500000 0.695115 0.500000
O O6 0.530795 0.500000 0.381784
O O7 0.518683 0.761175 0.314370
O O8 0.092534 0.500000 0.940055
O O9 0.071757 0.747346 0.856422
O O10 0.118336 0.741720 0.031277
O O11 0.000000 0.661716 0.000000
O O12 0.250000 0.852043 0.326444
O O13 0.343754 0.785834 0.213982
O O14 0.356538 0.000000 0.324764
O O15 0.042579 0.845850 0.160833
O O16 0.138146 0.000000 0.100713
O O17 0.050397 0.000000 0.773349
#
# Coordination Sequence:
#
# PCOD9400361 Si02
#       6
#     8   8   8   8   8   8
#     4   9  18  32  48  66  91 124 158 190 227 273
#     4  10  20  32  47  69  96 123 153 193 236 273
#     4   9  17  29  46  67  90 118 150 182 221 273
#     4   9  17  29  46  68  93 121 152 186 224 268
#     4   9  17  29  45  67  95 122 148 182 226 272
#     4  10  19  30  46  68  94 122 151 187 230 273
#
# _framework density 17.561952000000002
#
# number of rings (size 3 to 8) (size 9 to 14) (size 15 to 20)
#    0.000    2.667    0.000    2.000    0.000    4.333 
#    0.000    0.000    0.000    1.000    0.000    0.000 
#    0.000    0.000    0.000    0.000    0.000    0.000 
#
# Total GULP energy -267361.678282 kJ/mol
# GULP energy per Si atom -5570.034964 kJ/mol
# Density = 1.752198 g / cm^3
# Si number density = 17.561952 Si / 1000 Ang^3
#
#
#
# Elastic Constant Matrix: (Units=GPa)
#
#
# Indices 1 2 3 4 5 6 
#
# 1 20.6887 9.3161 -0.7959 0.0000 0.0000 0.0000
# 2 9.3161 84.0441 58.3218 0.0000 0.0000 0.0000
# 3 -0.7959 58.3218 83.3848 0.0000 0.0000 0.0000
# 4 0.0000 0.0000 0.0000 92.6839 0.0000 0.0000
# 5 0.0000 0.0000 0.0000 0.0000 26.1714 0.0000
# 6 0.0000 0.0000 0.0000 0.0000 0.0000 12.1811
#
#
#
# Elastic Compliance Matrix: (Units=1/GPa)
#
#
# Indices 1 2 3 4 5 6 
#
# 1 0.054267 -0.012387 0.009182 0.000000 0.000000 0.000000
# 2 -0.012387 0.025948 -0.018267 0.000000 0.000000 0.000000
# 3 0.009182 -0.018267 0.024857 0.000000 0.000000 0.000000
# 4 0.000000 0.000000 0.000000 0.010789 0.000000 0.000000
# 5 0.000000 0.000000 0.000000 0.000000 0.038210 0.000000
# 6 0.000000 0.000000 0.000000 0.000000 0.000000 0.082094
#
#
# Mechanical properties :
#
#
# Convention : Reuss Voigt Hill
#
# Bulk Modulus (GPa) = 16.09607 35.75571 25.92589
# Shear Modulus (GPa) = 16.67682 34.29231 25.48457
#
# Velocity S-wave (km/s) = 3.08490 4.42367 3.81349
# Velocity P-wave (km/s) = 4.67697 6.81878 5.84679
#
# Compressibility (1/GPa) = 0.06212697
#
# Stress axis : x y z
#
# Youngs Moduli (GPa) = 18.42752 38.53905 40.23079
#
# Poissons Ratio (x) = 0.47738 -0.36939
# Poissons Ratio (y) = 0.22826 0.73489
# Poissons Ratio (z) = -0.16920 0.70399
#
# Static dielectric constant tensor:
#      x y z
#    x 1.631530 0.000000 0.000000 
#    y 0.000000 1.614980 0.000000 
#    z 0.000000 0.000000 1.594100 
# 
# From -- ./inp_files/18532.got.cif
#   From: 2010.05.17/outbox.cif.g08.bks.cpg/sg51_10_cif.got.tgz:18532.got - 2010.06.03 11:52:47.
