data_PCOD9400086
_publ_section_title
;
Structure prediction by ZEFSAII (Michael W. Deem and Ramdas Pophale) SiO2 
 PCOD9400086
Probable space group: P M M A
;
_chemical_formula_sum "Si O2"
_cell_formula_units_Z 64
_cell_length_a 27.004182
_cell_length_b 9.032619
_cell_length_c 18.498821
_cell_angle_alpha 90.000000
_cell_angle_beta 90.000000
_cell_angle_gamma 90.000000
_cell_volume 4512.204437
_symmetry_space_group_name_H-M "P M M A"
_symmetry_group_IT_number 51
_symmetry_cell_setting 'orthorhombic'
loop_
_space_group_symop_operation_xyz
x,y,z
1/2-x,-y,z
1/2+x,-y,-z
-x,y,-z
-x,-y,-z
1/2+x,y,-z
1/2-x,y,z
x,-y,z
loop_
_atom_site_type_symbol
_atom_site_label
_atom_site_fract_x
_atom_site_fract_y
_atom_site_fract_z
Si Si1 0.449590 0.829574 0.547820
Si Si2 0.897157 0.322430 0.913604
Si Si3 0.692443 0.177531 0.665727
Si Si4 0.048228 0.669769 0.947526
Si Si5 0.488909 0.176294 0.170969
Si Si6 0.104712 0.324146 0.421146
Si Si7 0.692064 0.823370 0.834609
Si Si8 0.994290 0.323810 0.672963
O O1 0.500000 0.828902 0.500000
O O2 0.409083 0.753540 0.496672
O O3 0.463765 0.739667 0.619478
O O4 0.437299 0.000000 0.563881
O O5 0.902152 0.500000 0.906840
O O6 0.939445 0.245496 0.864914
O O7 0.844780 0.266357 0.885124
O O8 0.908281 0.285040 0.997591
O O9 0.750000 0.214272 0.651187
O O10 0.653937 0.259664 0.614779
O O11 0.682325 0.212802 0.750148
O O12 0.686986 0.000000 0.657916
O O13 0.055521 0.500000 0.923127
O O14 0.033988 0.772651 0.880866
O O15 0.000000 0.669646 0.000000
O O16 0.495014 0.242824 0.250496
O O17 0.484840 0.000000 0.173018
O O18 0.108091 0.500000 0.431164
O O19 0.058548 0.295826 0.366554
O O20 0.750000 0.793720 0.848572
O O21 0.684016 0.000000 0.843138
O O22 0.999522 0.500000 0.681832
#
# Coordination Sequence:
#
# PCOD9400086 Si02
#       8
#     8   8   8   8   8   8   8   8
#     4   9  17  29  44  61  82 109 140 173 208 247
#     4  10  19  30  44  61  83 113 145 176 213 254
#     4   9  18  31  44  59  82 112 144 178 214 248
#     4   8  16  30  43  57  81 110 139 173 212 251
#     4  11  20  28  42  63  85 111 144 177 210 251
#     4  10  19  29  43  62  83 111 144 175 210 250
#     4   9  18  31  45  62  85 112 143 180 217 250
#     4  10  19  30  43  61  87 114 141 174 210 250
#
# _framework density 14.183755
#
# number of rings (size 3 to 8) (size 9 to 14) (size 15 to 20)
#    0.000    2.500    0.000    4.875    0.000    8.750 
#    0.000    1.250    0.000    0.000    0.000    0.000 
#    0.000    1.000    0.000    7.250    0.000    6.000 
#
# Total GULP energy -356784.514072 kJ/mol
# GULP energy per Si atom -5574.758032 kJ/mol
# Density = 1.415147 g / cm^3
# Si number density = 14.183755 Si / 1000 Ang^3
#
#
#
# Elastic Constant Matrix: (Units=GPa)
#
#
# Indices 1 2 3 4 5 6 
#
# 1 65.0750 41.1727 38.7561 0.0000 0.0000 0.0000
# 2 41.1727 81.4867 58.4362 0.0000 0.0000 0.0000
# 3 38.7561 58.4362 82.4196 0.0000 0.0000 0.0000
# 4 0.0000 0.0000 0.0000 24.4954 0.0000 0.0000
# 5 0.0000 0.0000 0.0000 0.0000 27.7066 0.0000
# 6 0.0000 0.0000 0.0000 0.0000 0.0000 20.0653
#
#
#
# Elastic Compliance Matrix: (Units=1/GPa)
#
#
# Indices 1 2 3 4 5 6 
#
# 1 0.023714 -0.008108 -0.005403 0.000000 0.000000 0.000000
# 2 -0.008108 0.027738 -0.015854 0.000000 0.000000 0.000000
# 3 -0.005403 -0.015854 0.025914 0.000000 0.000000 0.000000
# 4 0.000000 0.000000 0.000000 0.040824 0.000000 0.000000
# 5 0.000000 0.000000 0.000000 0.000000 0.036093 0.000000
# 6 0.000000 0.000000 0.000000 0.000000 0.000000 0.049837
#
#
# Mechanical properties :
#
#
# Convention : Reuss Voigt Hill
#
# Bulk Modulus (GPa) = 53.65501 56.19015 54.92258
# Shear Modulus (GPa) = 18.58318 20.49453 19.53886
#
# Velocity S-wave (km/s) = 3.62356 3.80535 3.71557
# Velocity P-wave (km/s) = 7.44429 7.68176 7.56396
#
# Compressibility (1/GPa) = 0.01863759
#
# Stress axis : x y z
#
# Youngs Moduli (GPa) = 42.16886 36.05211 38.58910
#
# Poissons Ratio (x) = 0.29230 0.20849
# Poissons Ratio (y) = 0.34189 0.61178
# Poissons Ratio (z) = 0.22783 0.57156
#
# Static dielectric constant tensor:
#      x y z
#    x 1.455290 0.000000 0.000000 
#    y 0.000000 1.471190 0.000000 
#    z 0.000000 0.000000 1.457250 
# 
# From -- ./inp_files/30980.got.cif
#   From: 2010.05.17/outbox.cif.g08.bks.cpg/sg51_16_cif.got.tgz:30980.got - 2010.06.03 11:52:47.
