data_PCOD9400249
_publ_section_title
;
Structure prediction by ZEFSAII (Michael W. Deem and Ramdas Pophale) SiO2 
 PCOD9400249
Probable space group: P M M A
;
_chemical_formula_sum "Si O2"
_cell_formula_units_Z 64
_cell_length_a 9.087956
_cell_length_b 14.673445
_cell_length_c 31.851797
_cell_angle_alpha 90.000000
_cell_angle_beta 90.000000
_cell_angle_gamma 90.000000
_cell_volume 4247.488810
_symmetry_space_group_name_H-M "P M M A"
_symmetry_group_IT_number 51
_symmetry_cell_setting 'orthorhombic'
loop_
_space_group_symop_operation_xyz
x,y,z
1/2-x,-y,z
1/2+x,-y,-z
-x,y,-z
-x,-y,-z
1/2+x,y,-z
1/2-x,y,z
x,-y,z
loop_
_atom_site_type_symbol
_atom_site_label
_atom_site_fract_x
_atom_site_fract_y
_atom_site_fract_z
Si Si1 0.575252 0.108022 0.044585
Si Si2 0.925236 0.891767 0.200989
Si Si3 0.071973 0.106661 0.365195
Si Si4 0.926874 0.397664 0.249866
Si Si5 0.420021 0.889152 0.458014
Si Si6 0.926629 0.790407 0.288349
Si Si7 0.573647 0.602116 0.840949
Si Si8 0.073639 0.792659 0.122447
O O1 0.750000 0.123954 0.042469
O O2 0.502562 0.164836 0.081834
O O3 0.552454 0.000000 0.052966
O O4 0.500000 0.128729 0.000000
O O5 0.750000 0.877376 0.193600
O O6 0.961571 0.846175 0.245720
O O7 0.015117 0.845421 0.163575
O O8 0.951725 0.000000 0.202324
O O9 0.250000 0.111086 0.364749
O O10 0.021814 0.137045 0.411911
O O11 0.005033 0.165558 0.328061
O O12 0.031676 0.000000 0.359471
O O13 0.750000 0.393413 0.245124
O O14 0.965851 0.500000 0.264337
O O15 0.969868 0.314418 0.279738
O O16 0.997807 0.384121 0.204137
O O17 0.500000 0.857030 0.500000
O O18 0.250000 0.862276 0.460498
O O19 0.424761 0.000000 0.458067
O O20 0.750000 0.795076 0.294026
O O21 0.750000 0.604856 0.834913
O O22 0.534548 0.500000 0.855913
O O23 0.535225 0.686146 0.870838
O O24 0.250000 0.801557 0.119470
#
# Coordination Sequence:
#
# PCOD9400249 Si02
#       8
#     8   8   8   8   8   8   8   8
#     4  10  21  37  56  76  99 126 154 187 227 269
#     4  10  20  32  44  62  92 126 157 190 224 260
#     4   9  18  30  42  59  87 122 156 188 224 268
#     4   9  17  30  48  67  87 114 150 193 235 271
#     4   8  14  25  40  58  80 108 145 188 228 265
#     4  10  19  30  44  63  89 120 155 190 225 270
#     4   9  18  32  49  70  95 121 151 189 231 271
#     4  11  21  32  50  74  97 122 155 191 226 269
#
# _framework density 15.067727
#
# number of rings (size 3 to 8) (size 9 to 14) (size 15 to 20)
#    0.000    2.500    1.250    2.250    0.000    5.250 
#    0.000    1.250    0.000    0.375    0.000    0.000 
#    0.000    0.500    0.000    1.125    0.000    1.750 
#
# Total GULP energy -356710.642019 kJ/mol
# GULP energy per Si atom -5573.603782 kJ/mol
# Density = 1.503343 g / cm^3
# Si number density = 15.067727 Si / 1000 Ang^3
#
#
#
# Elastic Constant Matrix: (Units=GPa)
#
#
# Indices 1 2 3 4 5 6 
#
# 1 36.5291 45.2727 55.0154 0.0000 0.0000 0.0000
# 2 45.2727 104.4450 81.4480 0.0000 0.0000 0.0000
# 3 55.0154 81.4480 141.8236 0.0000 0.0000 0.0000
# 4 0.0000 0.0000 0.0000 7.0801 0.0000 0.0000
# 5 0.0000 0.0000 0.0000 0.0000 30.1449 0.0000
# 6 0.0000 0.0000 0.0000 0.0000 0.0000 18.2273
#
#
#
# Elastic Compliance Matrix: (Units=1/GPa)
#
#
# Indices 1 2 3 4 5 6 
#
# 1 0.083726 -0.019858 -0.021074 0.000000 0.000000 0.000000
# 2 -0.019858 0.022050 -0.004960 0.000000 0.000000 0.000000
# 3 -0.021074 -0.004960 0.018075 0.000000 0.000000 0.000000
# 4 0.000000 0.000000 0.000000 0.141240 0.000000 0.000000
# 5 0.000000 0.000000 0.000000 0.000000 0.033173 0.000000
# 6 0.000000 0.000000 0.000000 0.000000 0.000000 0.054863
#
#
# Mechanical properties :
#
#
# Convention : Reuss Voigt Hill
#
# Bulk Modulus (GPa) = 31.18546 71.80777 51.49661
# Shear Modulus (GPa) = 10.97456 17.82790 14.40123
#
# Velocity S-wave (km/s) = 2.70172 3.44348 3.09490
# Velocity P-wave (km/s) = 5.52034 7.97309 6.85727
#
# Compressibility (1/GPa) = 0.03206623
#
# Stress axis : x y z
#
# Youngs Moduli (GPa) = 11.94372 45.35203 55.32648
#
# Poissons Ratio (x) = 0.90059 1.16598
# Poissons Ratio (y) = 0.23717 0.27441
# Poissons Ratio (z) = 0.25171 0.22494
#
# Static dielectric constant tensor:
#      x y z
#    x 1.504160 0.000000 0.000000 
#    y 0.000000 1.506740 0.000000 
#    z 0.000000 0.000000 1.477940 
# 
# From -- ./inp_files/37655.got.cif
#   From: 2010.05.17/outbox.cif.g08.bks.cpg/sg51_19_cif.got.tgz:37655.got - 2010.06.03 11:52:47.
