data_PCOD9400371
_publ_section_title
;
Structure prediction by ZEFSAII (Michael W. Deem and Ramdas Pophale) SiO2 
 PCOD9400371
Probable space group: P M M A
;
_chemical_formula_sum "Si O2"
_cell_formula_units_Z 48
_cell_length_a 38.947948
_cell_length_b 7.339677
_cell_length_c 7.929284
_cell_angle_alpha 90.000000
_cell_angle_beta 90.000000
_cell_angle_gamma 90.000000
_cell_volume 2266.707610
_symmetry_space_group_name_H-M "P M M A"
_symmetry_group_IT_number 51
_symmetry_cell_setting 'orthorhombic'
loop_
_space_group_symop_operation_xyz
x,y,z
1/2-x,-y,z
1/2+x,-y,-z
-x,y,-z
-x,-y,-z
1/2+x,y,-z
1/2-x,y,z
x,-y,z
loop_
_atom_site_type_symbol
_atom_site_label
_atom_site_fract_x
_atom_site_fract_y
_atom_site_fract_z
Si Si1 0.664951 0.218004 0.250000
Si Si2 0.710650 0.221910 0.940984
Si Si3 0.210650 0.778090 0.440984
Si Si4 0.538248 0.722145 0.941373
Si Si5 0.038248 0.277855 0.441373
Si Si6 0.084175 0.283406 0.750000
O O1 0.684331 0.285454 0.417303
O O2 0.624657 0.253954 0.250000
O O3 0.669143 0.000000 0.250000
O O4 0.684331 0.285454 0.082696
O O5 0.750000 0.274754 0.979660
O O6 0.702423 0.279770 0.750000
O O7 0.710199 0.000000 0.940503
O O8 0.250000 0.725246 0.479661
O O9 0.210199 0.000000 0.440503
O O10 0.538770 0.500000 0.938936
O O11 0.544928 0.782189 0.750000
O O12 0.500000 0.774507 0.000000
O O13 0.565472 0.785064 0.080943
O O14 0.038770 0.500000 0.438936
O O15 0.065472 0.214936 0.580943
O O16 0.000000 0.225493 0.500000
O O17 0.078361 0.500000 0.750000
#
# Coordination Sequence:
#
# PCOD9400371 Si02
#       6
#     8   8   8   8   8   8
#     4  10  19  30  46  68  96 124 150 182 226 275
#     4   8  14  26  46  70  91 115 154 197 226 253
#     4   8  14  26  46  70  91 115 154 197 226 253
#     4   9  15  26  46  69  88 109 146 194 231 259
#     4   9  15  26  46  69  88 109 146 194 231 259
#     4  10  20  31  45  69  96 120 148 186 231 273
#
# _framework density 21.176088
#
# number of rings (size 3 to 8) (size 9 to 14) (size 15 to 20)
#    0.000    3.000    1.667    1.500    0.000    3.333 
#    0.000    0.000    0.000    3.000    0.000    2.333 
#    0.000    0.000    0.000    0.000    0.000    0.000 
#
# Total GULP energy -268022.170207 kJ/mol
# GULP energy per Si atom -5583.795213 kJ/mol
# Density = 2.112789 g / cm^3
# Si number density = 21.176088 Si / 1000 Ang^3
#
#
#
# Elastic Constant Matrix: (Units=GPa)
#
#
# Indices 1 2 3 4 5 6 
#
# 1 196.0392 -1.8735 164.8690 0.0000 0.0000 0.0000
# 2 -1.8735 79.8408 8.7955 0.0000 0.0000 0.0000
# 3 164.8690 8.7955 253.0499 0.0000 0.0000 0.0000
# 4 0.0000 0.0000 0.0000 -15.8767 0.0000 0.0000
# 5 0.0000 0.0000 0.0000 0.0000 10.1799 0.0000
# 6 0.0000 0.0000 0.0000 0.0000 0.0000 18.0748
#
#
#
# Elastic Compliance Matrix: (Units=1/GPa)
#
#
# Indices 1 2 3 4 5 6 
#
# 1 0.011377 0.001088 -0.007450 0.000000 0.000000 0.000000
# 2 0.001088 0.012677 -0.001149 0.000000 0.000000 0.000000
# 3 -0.007450 -0.001149 0.008846 0.000000 0.000000 0.000000
# 4 0.000000 0.000000 0.000000 -0.062986 0.000000 0.000000
# 5 0.000000 0.000000 0.000000 0.000000 0.098233 0.000000
# 6 0.000000 0.000000 0.000000 0.000000 0.000000 0.055326
#
#
# Mechanical properties :
#
#
# Convention : Reuss Voigt Hill
#
# Bulk Modulus (GPa) = 55.94027 96.94576 76.44302
# Shear Modulus (GPa) = 34.61268 26.28486 30.44877
#
# Velocity S-wave (km/s) = 4.04730 3.52696 3.79606
# Velocity P-wave (km/s) = 6.95089 7.90355 7.44248
#
# Compressibility (1/GPa) = 0.01787621
#
# Stress axis : x y z
#
# Youngs Moduli (GPa) = 87.89552 78.88259 113.04759
#
# Poissons Ratio (x) = -0.08580 0.84224
# Poissons Ratio (y) = -0.09561 0.12993
# Poissons Ratio (z) = 0.65485 0.09066
#
# Static dielectric constant tensor:
#      x y z
#    x 1.701690 0.000000 0.000000 
#    y 0.000000 1.843730 0.000000 
#    z 0.000000 0.000000 1.749870 
# 
# From -- ./inp_files/12823.got.cif
#   From: 2010.05.17/outbox.cif.g08.bks.cpg/sg51_7_cif.got.tgz:12823.got - 2010.06.03 11:52:47.
