data_PCOD9400749
_publ_section_title
;
Structure prediction by ZEFSAII (Michael W. Deem and Ramdas Pophale) SiO2 
 PCOD9400749
Probable space group: P M M A
;
_chemical_formula_sum "Si O2"
_cell_formula_units_Z 64
_cell_length_a 8.753576
_cell_length_b 29.719029
_cell_length_c 14.205122
_cell_angle_alpha 90.000000
_cell_angle_beta 90.000000
_cell_angle_gamma 90.000000
_cell_volume 3695.430939
_symmetry_space_group_name_H-M "P M M A"
_symmetry_group_IT_number 51
_symmetry_cell_setting 'orthorhombic'
loop_
_space_group_symop_operation_xyz
x,y,z
1/2-x,-y,z
1/2+x,-y,-z
-x,y,-z
-x,-y,-z
1/2+x,y,-z
1/2-x,y,z
x,-y,z
loop_
_atom_site_type_symbol
_atom_site_label
_atom_site_fract_x
_atom_site_fract_y
_atom_site_fract_z
Si Si1 0.932550 0.636929 0.102242
Si Si2 0.433011 0.598050 0.398563
Si Si3 0.433709 0.448980 0.203863
Si Si4 0.922796 0.054134 0.094071
Si Si5 0.569880 0.947939 0.708244
Si Si6 0.930964 0.135433 0.396264
Si Si7 0.933723 0.684671 0.295812
Si Si8 0.067276 0.771580 0.393808
O O1 0.750000 0.636331 0.095860
O O2 0.975129 0.670303 0.188720
O O3 0.990803 0.588097 0.136997
O O4 0.000000 0.648095 0.000000
O O5 0.500000 0.585255 0.500000
O O6 0.250000 0.602270 0.405533
O O7 0.468242 0.563984 0.312652
O O8 0.504299 0.645287 0.364074
O O9 0.250000 0.445896 0.193295
O O10 0.481593 0.500000 0.183795
O O11 0.750000 0.070978 0.109691
O O12 0.031409 0.060671 0.182805
O O13 0.910678 0.000000 0.083183
O O14 0.000000 0.072499 0.000000
O O15 0.750000 0.942989 0.689826
O O16 0.475151 0.910812 0.653380
O O17 0.527071 0.000000 0.687129
O O18 0.750000 0.141595 0.399238
O O19 0.000000 0.132236 0.500000
O O20 0.008188 0.180426 0.355003
O O21 0.750000 0.686599 0.302648
O O22 0.006337 0.731055 0.330157
O O23 0.250000 0.771298 0.399366
O O24 0.000000 0.766460 0.500000
#
# Coordination Sequence:
#
# PCOD9400749 Si02
#       8
#     8   8   8   8   8   8   8   8
#     4  10  21  36  56  79 104 134 170 214 260 308
#     4  10  19  31  48  72 102 135 170 210 257 307
#     4   9  19  35  52  71  99 136 178 220 260 305
#     4   9  16  27  45  70  98 128 164 207 254 301
#     4  10  20  34  52  75 104 139 179 221 264 310
#     4  11  22  37  55  76 105 139 176 216 257 305
#     4  10  20  35  54  78 104 131 166 207 253 305
#     4  11  21  35  56  81 108 137 168 205 252 304
#
# _framework density 17.318684000000001
#
# number of rings (size 3 to 8) (size 9 to 14) (size 15 to 20)
#    0.000    2.000    0.000    5.250    0.000    5.250 
#    0.000    0.000    0.000    0.750    0.000    3.500 
#    0.000    0.000    0.000    0.000    0.000    0.000 
#
# Total GULP energy -357086.665751 kJ/mol
# GULP energy per Si atom -5579.479152 kJ/mol
# Density = 1.727927 g / cm^3
# Si number density = 17.318684 Si / 1000 Ang^3
#
#
#
# Elastic Constant Matrix: (Units=GPa)
#
#
# Indices 1 2 3 4 5 6 
#
# 1 92.1423 38.8369 30.1976 0.0000 0.0000 0.0000
# 2 38.8369 97.7615 35.8927 0.0000 0.0000 0.0000
# 3 30.1976 35.8927 71.8525 0.0000 0.0000 0.0000
# 4 0.0000 0.0000 0.0000 11.9898 0.0000 0.0000
# 5 0.0000 0.0000 0.0000 0.0000 28.4963 0.0000
# 6 0.0000 0.0000 0.0000 0.0000 0.0000 23.4752
#
#
#
# Elastic Compliance Matrix: (Units=1/GPa)
#
#
# Indices 1 2 3 4 5 6 
#
# 1 0.013815 -0.004110 -0.003753 0.000000 0.000000 0.000000
# 2 -0.004110 0.013749 -0.005141 0.000000 0.000000 0.000000
# 3 -0.003753 -0.005141 0.018063 0.000000 0.000000 0.000000
# 4 0.000000 0.000000 0.000000 0.083404 0.000000 0.000000
# 5 0.000000 0.000000 0.000000 0.000000 0.035092 0.000000
# 6 0.000000 0.000000 0.000000 0.000000 0.000000 0.042598
#
#
# Mechanical properties :
#
#
# Convention : Reuss Voigt Hill
#
# Bulk Modulus (GPa) = 50.97081 52.40119 51.68600
# Shear Modulus (GPa) = 20.89694 23.24754 22.07224
#
# Velocity S-wave (km/s) = 3.47740 3.66777 3.57385
# Velocity P-wave (km/s) = 6.75412 6.94690 6.85119
#
# Compressibility (1/GPa) = 0.01961907
#
# Stress axis : x y z
#
# Youngs Moduli (GPa) = 72.38417 72.73107 55.36309
#
# Poissons Ratio (x) = 0.29895 0.20777
# Poissons Ratio (y) = 0.29753 0.28461
# Poissons Ratio (z) = 0.27165 0.37389
#
# Static dielectric constant tensor:
#      x y z
#    x 1.579840 0.000000 0.000000 
#    y 0.000000 1.586790 0.000000 
#    z 0.000000 0.000000 1.579810 
# 
# From -- ./inp_files/14805.got.cif
#   From: 2010.05.17/outbox.cif.g08.bks.cpg/sg51_8_cif.got.tgz:14805.got - 2010.06.03 11:52:47.
