data_PCOD9400896
_publ_section_title
;
Structure prediction by ZEFSAII (Michael W. Deem and Ramdas Pophale) SiO2 
 PCOD9400896
Probable space group: P M M A
;
_chemical_formula_sum "Si O2"
_cell_formula_units_Z 48
_cell_length_a 32.003900
_cell_length_b 7.609394
_cell_length_c 9.912526
_cell_angle_alpha 90.000000
_cell_angle_beta 90.000000
_cell_angle_gamma 90.000000
_cell_volume 2414.000278
_symmetry_space_group_name_H-M "P M M A"
_symmetry_group_IT_number 51
_symmetry_cell_setting 'orthorhombic'
loop_
_space_group_symop_operation_xyz
x,y,z
1/2-x,-y,z
1/2+x,-y,-z
-x,y,-z
-x,-y,-z
1/2+x,y,-z
1/2-x,y,z
x,-y,z
loop_
_atom_site_type_symbol
_atom_site_label
_atom_site_fract_x
_atom_site_fract_y
_atom_site_fract_z
Si Si1 0.435929 0.202180 0.695102
Si Si2 0.867517 0.212392 0.513002
Si Si3 0.633609 0.707501 0.101190
Si Si4 0.485823 0.784645 0.149940
Si Si5 0.609348 0.212021 0.806979
Si Si6 0.203049 0.709754 0.695781
O O1 0.406581 0.279184 0.577815
O O2 0.406639 0.205419 0.828481
O O3 0.480206 0.278427 0.740689
O O4 0.443947 0.000000 0.656170
O O5 0.871250 0.273906 0.666243
O O6 0.824868 0.258010 0.436562
O O7 0.870078 0.000000 0.512203
O O8 0.629562 0.500000 0.128321
O O9 0.674613 0.774519 0.179416
O O10 0.633333 0.735446 0.942214
O O11 0.438740 0.728410 0.179760
O O12 0.486677 0.000000 0.151665
O O13 0.500000 0.730816 0.000000
O O14 0.608659 0.000000 0.803987
O O15 0.250000 0.781425 0.689814
O O16 0.206301 0.500000 0.711721
#
# Coordination Sequence:
#
# PCOD9400896 Si02
#       6
#     8   8   8   8   8   8
#     4   9  16  30  49  69  96 132 171 205 240 281
#     4   9  19  32  50  76 103 131 161 201 249 294
#     4  10  19  31  50  74  97 124 162 204 245 288
#     4   9  15  25  46  71  95 132 175 207 234 276
#     4  10  19  32  48  71 104 135 164 200 243 286
#     4   9  19  37  58  75  93 122 160 200 243 298
#
# _framework density 19.884005999999999
#
# number of rings (size 3 to 8) (size 9 to 14) (size 15 to 20)
#    0.000    2.667    1.667    0.500    0.000    2.333 
#    0.000    5.833    0.000    3.000    0.000    5.833 
#    0.000    0.000    0.000    0.000    0.000    0.000 
#
# Total GULP energy -267759.591321 kJ/mol
# GULP energy per Si atom -5578.324819 kJ/mol
# Density = 1.983875 g / cm^3
# Si number density = 19.884006 Si / 1000 Ang^3
#
#
#
# Elastic Constant Matrix: (Units=GPa)
#
#
# Indices 1 2 3 4 5 6 
#
# 1 146.7748 2.4221 73.3959 0.0000 0.0000 0.0000
# 2 2.4221 43.4997 -7.5837 0.0000 0.0000 0.0000
# 3 73.3959 -7.5837 143.8998 0.0000 0.0000 0.0000
# 4 0.0000 0.0000 0.0000 7.2095 0.0000 0.0000
# 5 0.0000 0.0000 0.0000 0.0000 14.7691 0.0000
# 6 0.0000 0.0000 0.0000 0.0000 0.0000 18.1292
#
#
#
# Elastic Compliance Matrix: (Units=1/GPa)
#
#
# Indices 1 2 3 4 5 6 
#
# 1 0.009223 -0.001346 -0.004775 0.000000 0.000000 0.000000
# 2 -0.001346 0.023398 0.001920 0.000000 0.000000 0.000000
# 3 -0.004775 0.001920 0.009486 0.000000 0.000000 0.000000
# 4 0.000000 0.000000 0.000000 0.138705 0.000000 0.000000
# 5 0.000000 0.000000 0.000000 0.000000 0.067709 0.000000
# 6 0.000000 0.000000 0.000000 0.000000 0.000000 0.055160
#
#
# Mechanical properties :
#
#
# Convention : Reuss Voigt Hill
#
# Bulk Modulus (GPa) = 29.66979 52.29367 40.98173
# Shear Modulus (GPa) = 15.46458 25.75091 20.60775
#
# Velocity S-wave (km/s) = 2.79182 3.60259 3.22281
# Velocity P-wave (km/s) = 5.03450 6.60767 5.87399
#
# Compressibility (1/GPa) = 0.03370432
#
# Stress axis : x y z
#
# Youngs Moduli (GPa) = 108.42130 42.73820 105.41774
#
# Poissons Ratio (x) = 0.05753 0.50340
# Poissons Ratio (y) = 0.14594 -0.20237
# Poissons Ratio (z) = 0.51774 -0.08204
#
# Static dielectric constant tensor:
#      x y z
#    x 1.690910 0.000000 0.000000 
#    y 0.000000 1.764340 0.000000 
#    z 0.000000 0.000000 1.693460 
# 
# From -- ./inp_files/12856.got.cif
#   From: 2010.05.17/outbox.cif.g08.bks.cpg/sg51_7_cif.got.tgz:12856.got - 2010.06.03 11:52:47.
