data_PCOD9400499
_publ_section_title
;
Structure prediction by ZEFSAII (Michael W. Deem and Ramdas Pophale) SiO2 
 PCOD9400499
Probable space group: P M M A
;
_chemical_formula_sum "Si O2"
_cell_formula_units_Z 52
_cell_length_a 9.840110
_cell_length_b 21.464647
_cell_length_c 13.991087
_cell_angle_alpha 90.000000
_cell_angle_beta 90.000000
_cell_angle_gamma 90.000000
_cell_volume 2955.120272
_symmetry_space_group_name_H-M "P M M A"
_symmetry_group_IT_number 51
_symmetry_cell_setting 'orthorhombic'
loop_
_space_group_symop_operation_xyz
x,y,z
1/2-x,-y,z
1/2+x,-y,-z
-x,y,-z
-x,-y,-z
1/2+x,y,-z
1/2-x,y,z
x,-y,z
loop_
_atom_site_type_symbol
_atom_site_label
_atom_site_fract_x
_atom_site_fract_y
_atom_site_fract_z
Si Si1 0.092918 0.375800 0.777106
Si Si2 0.909141 0.500000 0.097020
Si Si3 0.407472 0.929388 0.591208
Si Si4 0.408276 0.305920 0.593742
Si Si5 0.904263 0.821080 0.917355
Si Si6 0.909303 0.813497 0.269384
Si Si7 0.900003 0.324752 0.921704
O O1 0.250000 0.356531 0.798425
O O2 0.070743 0.441027 0.831393
O O3 0.076849 0.366070 0.663689
O O4 0.980465 0.331825 0.823970
O O5 0.750000 0.500000 0.068068
O O6 0.000000 0.500000 0.000000
O O7 0.500000 0.916623 0.500000
O O8 0.250000 0.927679 0.561053
O O9 0.424476 0.876565 0.669882
O O10 0.436708 0.000000 0.625532
O O11 0.500000 0.307619 0.500000
O O12 0.250000 0.301673 0.565718
O O13 0.436584 0.245175 0.660289
O O14 0.750000 0.846726 0.909967
O O15 0.886613 0.748051 0.943529
O O16 0.988762 0.819376 0.819187
O O17 0.000000 0.849633 0.000000
O O18 0.750000 0.807585 0.238182
O O19 0.750000 0.353030 0.921230
O O20 0.000000 0.353615 0.000000
#
# Coordination Sequence:
#
# PCOD9400499 Si02
#       7
#     8   4   8   8   8   8   8
#     4  10  20  36  54  74 103 137 171 211 257 308
#     4  10  22  38  57  80 106 136 171 210 257 312
#     4   9  18  32  51  77 108 142 179 219 263 312
#     4  10  21  35  53  76 104 137 174 216 261 307
#     4  10  20  32  49  75 106 137 170 211 259 314
#     4  10  19  33  53  77 107 141 176 216 263 312
#     4  10  19  30  48  74 102 133 165 203 251 305
#
# _framework density 17.596575000000001
#
# number of rings (size 3 to 8) (size 9 to 14) (size 15 to 20)
#    0.000    2.154    1.538    1.846    0.000    4.923 
#    0.000    0.385    0.000    0.462    0.000    0.000 
#    0.000    0.000    0.000    0.000    0.000    0.000 
#
# Total GULP energy -289570.218271 kJ/mol
# GULP energy per Si atom -5568.658044 kJ/mol
# Density = 1.755652 g / cm^3
# Si number density = 17.596575 Si / 1000 Ang^3
#
#
#
# Elastic Constant Matrix: (Units=GPa)
#
#
# Indices 1 2 3 4 5 6 
#
# 1 136.4110 33.8128 99.5133 0.0000 0.0000 0.0000
# 2 33.8128 54.1140 35.6328 0.0000 0.0000 0.0000
# 3 99.5133 35.6328 128.4450 0.0000 0.0000 0.0000
# 4 0.0000 0.0000 0.0000 15.6891 0.0000 0.0000
# 5 0.0000 0.0000 0.0000 0.0000 30.3915 0.0000
# 6 0.0000 0.0000 0.0000 0.0000 0.0000 14.1828
#
#
#
# Elastic Compliance Matrix: (Units=1/GPa)
#
#
# Indices 1 2 3 4 5 6 
#
# 1 0.017111 -0.002401 -0.012591 0.000000 0.000000 0.000000
# 2 -0.002401 0.022947 -0.004506 0.000000 0.000000 0.000000
# 3 -0.012591 -0.004506 0.018790 0.000000 0.000000 0.000000
# 4 0.000000 0.000000 0.000000 0.063739 0.000000 0.000000
# 5 0.000000 0.000000 0.000000 0.000000 0.032904 0.000000
# 6 0.000000 0.000000 0.000000 0.000000 0.000000 0.070508
#
#
# Mechanical properties :
#
#
# Convention : Reuss Voigt Hill
#
# Bulk Modulus (GPa) = 50.37015 72.98754 61.67884
# Shear Modulus (GPa) = 18.40872 22.05341 20.23107
#
# Velocity S-wave (km/s) = 3.23794 3.54401 3.39442
# Velocity P-wave (km/s) = 6.53193 7.63642 7.10567
#
# Compressibility (1/GPa) = 0.01985303
#
# Stress axis : x y z
#
# Youngs Moduli (GPa) = 58.44184 43.57946 53.21956
#
# Poissons Ratio (x) = 0.10464 0.67007
# Poissons Ratio (y) = 0.14032 0.23978
# Poissons Ratio (z) = 0.73583 0.19635
#
# Static dielectric constant tensor:
#      x y z
#    x 1.628380 0.000000 0.000000 
#    y 0.000000 1.642370 0.000000 
#    z 0.000000 0.000000 1.595120 
# 
# From -- ./inp_files/21537.got.cif
#   From: 2010.05.17/outbox.cif.g08.bks.cpg/sg51_11_cif.got.tgz:21537.got - 2010.06.03 11:52:47.
