data_PCOD9400939
_publ_section_title
;
Structure prediction by ZEFSAII (Michael W. Deem and Ramdas Pophale) SiO2 
 PCOD9400939
Probable space group: P M M A
;
_chemical_formula_sum "Si O2"
_cell_formula_units_Z 40
_cell_length_a 9.096370
_cell_length_b 7.642696
_cell_length_c 30.258014
_cell_angle_alpha 90.000000
_cell_angle_beta 90.000000
_cell_angle_gamma 90.000000
_cell_volume 2103.561056
_symmetry_space_group_name_H-M "P M M A"
_symmetry_group_IT_number 51
_symmetry_cell_setting 'orthorhombic'
loop_
_space_group_symop_operation_xyz
x,y,z
1/2-x,-y,z
1/2+x,-y,-z
-x,y,-z
-x,-y,-z
1/2+x,y,-z
1/2-x,y,z
x,-y,z
loop_
_atom_site_type_symbol
_atom_site_label
_atom_site_fract_x
_atom_site_fract_y
_atom_site_fract_z
Si Si1 0.071399 0.000000 0.709251
Si Si2 0.428107 0.000000 0.606911
Si Si3 0.581082 0.786016 0.044600
Si Si4 0.924915 0.706484 0.547617
Si Si5 0.419178 0.787882 0.133796
Si Si6 0.924204 0.301593 0.224952
O O1 0.023670 0.832561 0.737733
O O2 0.250000 0.000000 0.708611
O O3 0.026797 0.000000 0.658389
O O4 0.495354 0.831048 0.582558
O O5 0.250000 0.000000 0.603675
O O6 0.750000 0.731199 0.044381
O O7 0.501420 0.728996 0.089427
O O8 0.578425 0.000000 0.044556
O O9 0.500000 0.728984 0.000000
O O10 0.750000 0.743372 0.545455
O O11 0.943299 0.500000 0.557926
O O12 0.000000 0.738007 0.500000
O O13 0.250000 0.732890 0.132615
O O14 0.495915 0.725853 0.178473
O O15 0.423513 0.000000 0.134247
O O16 0.750000 0.270616 0.217616
O O17 0.943821 0.500000 0.239968
#
# Coordination Sequence:
#
# PCOD9400939 Si02
#       6
#     4   4   8   8   8   8
#     4   9  20  38  58  83 114 147 188 236 285 336
#     4  11  22  36  59  89 120 157 197 244 297 350
#     4   9  16  26  43  70 104 140 177 219 266 322
#     4  10  21  38  60  87 121 161 203 246 290 341
#     4  10  19  31  50  76 106 141 179 222 273 329
#     4  10  20  36  59  82 105 139 184 232 281 332
#
# _framework density 19.015374999999999
#
# number of rings (size 3 to 8) (size 9 to 14) (size 15 to 20)
#    0.000    2.200    1.000    2.400    0.000    5.600 
#    0.000    4.000    0.000    0.600    0.000    0.000 
#    0.000    0.000    0.000    0.000    0.000    0.000 
#
# Total GULP energy -223426.760059 kJ/mol
# GULP energy per Si atom -5585.669001 kJ/mol
# Density = 1.897209 g / cm^3
# Si number density = 19.015375 Si / 1000 Ang^3
#
#
#
# Elastic Constant Matrix: (Units=GPa)
#
#
# Indices 1 2 3 4 5 6 
#
# 1 119.2477 65.0728 90.7333 0.0000 0.0000 0.0000
# 2 65.0728 76.0258 83.0899 0.0000 0.0000 0.0000
# 3 90.7333 83.0899 202.1303 0.0000 0.0000 0.0000
# 4 0.0000 0.0000 0.0000 133.9815 0.0000 0.0000
# 5 0.0000 0.0000 0.0000 0.0000 31.1131 0.0000
# 6 0.0000 0.0000 0.0000 0.0000 0.0000 15.4803
#
#
#
# Elastic Compliance Matrix: (Units=1/GPa)
#
#
# Indices 1 2 3 4 5 6 
#
# 1 0.016641 -0.011039 -0.002932 0.000000 0.000000 0.000000
# 2 -0.011039 0.031206 -0.007873 0.000000 0.000000 0.000000
# 3 -0.002932 -0.007873 0.009500 0.000000 0.000000 0.000000
# 4 0.000000 0.000000 0.000000 0.007464 0.000000 0.000000
# 5 0.000000 0.000000 0.000000 0.000000 0.032141 0.000000
# 6 0.000000 0.000000 0.000000 0.000000 0.000000 0.064598
#
#
# Mechanical properties :
#
#
# Convention : Reuss Voigt Hill
#
# Bulk Modulus (GPa) = 73.21004 97.24400 85.22702
# Shear Modulus (GPa) = 23.83340 46.68216 35.25778
#
# Velocity S-wave (km/s) = 3.54415 4.96014 4.31068
# Velocity P-wave (km/s) = 7.43855 9.16813 8.34825
#
# Compressibility (1/GPa) = 0.01365933
#
# Stress axis : x y z
#
# Youngs Moduli (GPa) = 60.09399 32.04496 105.26626
#
# Poissons Ratio (x) = 0.35374 0.30864
# Poissons Ratio (y) = 0.66336 0.82874
# Poissons Ratio (z) = 0.17620 0.25228
#
# Static dielectric constant tensor:
#      x y z
#    x 1.639870 0.000000 0.000000 
#    y 0.000000 1.693120 0.000000 
#    z 0.000000 0.000000 1.610190 
# 
# From -- ./inp_files/36011.got.cif
#   From: 2010.05.17/outbox.cif.g08.bks.cpg/sg51_19_cif.got.tgz:36011.got - 2010.06.03 11:52:47.
