data_PCOD9400409
_publ_section_title
;
Structure prediction by ZEFSAII (Michael W. Deem and Ramdas Pophale) SiO2 
 PCOD9400409
Probable space group: P M M A
;
_chemical_formula_sum "Si O2"
_cell_formula_units_Z 48
_cell_length_a 8.842602
_cell_length_b 10.538934
_cell_length_c 29.086707
_cell_angle_alpha 90.000000
_cell_angle_beta 90.000000
_cell_angle_gamma 90.000000
_cell_volume 2710.636731
_symmetry_space_group_name_H-M "P M M A"
_symmetry_group_IT_number 51
_symmetry_cell_setting 'orthorhombic'
loop_
_space_group_symop_operation_xyz
x,y,z
1/2-x,-y,z
1/2+x,-y,-z
-x,y,-z
-x,-y,-z
1/2+x,y,-z
1/2-x,y,z
x,-y,z
loop_
_atom_site_type_symbol
_atom_site_label
_atom_site_fract_x
_atom_site_fract_y
_atom_site_fract_z
Si Si1 0.933782 0.000000 0.712592
Si Si2 0.932268 0.500000 0.703305
Si Si3 0.431425 0.500000 0.601843
Si Si4 0.930544 0.649284 0.143689
Si Si5 0.067110 0.743977 0.236616
Si Si6 0.932849 0.000000 0.605562
Si Si7 0.424553 0.345578 0.047468
Si Si8 0.567611 0.761747 0.448981
O O1 0.982806 0.126510 0.739006
O O2 0.750000 0.000000 0.712885
O O3 0.978024 0.000000 0.659223
O O4 0.750000 0.500000 0.700417
O O5 0.978649 0.624599 0.731760
O O6 0.997316 0.500000 0.652273
O O7 0.250000 0.500000 0.606470
O O8 0.473659 0.627134 0.574214
O O9 0.750000 0.656876 0.144538
O O10 0.973619 0.500000 0.149259
O O11 0.000955 0.724734 0.186041
O O12 0.990856 0.692724 0.094043
O O13 0.250000 0.743590 0.233721
O O14 0.998953 0.876047 0.580766
O O15 0.750000 0.000000 0.602491
O O16 0.250000 0.307672 0.049310
O O17 0.429960 0.500000 0.046619
O O18 0.500000 0.301587 0.000000
O O19 0.500000 0.768069 0.500000
O O20 0.750000 0.772116 0.450634
#
# Coordination Sequence:
#
# PCOD9400409 Si02
#       8
#     4   4   4   8   8   4   8   8
#     4   9  20  36  56  79 106 137 176 220 265 312
#     4  10  20  33  55  80 106 141 182 220 263 320
#     4  10  23  39  57  82 114 145 177 220 269 320
#     4  10  19  30  46  71 103 138 177 220 266 315
#     4  10  19  34  53  76 103 137 178 221 263 312
#     4  11  22  40  63  85 110 143 181 224 271 322
#     4   9  16  26  42  66  99 137 175 217 266 317
#     4  11  23  40  60  85 113 144 180 220 267 320
#
# _framework density 17.708016000000001
#
# number of rings (size 3 to 8) (size 9 to 14) (size 15 to 20)
#    0.000    2.000    0.833    3.250    0.000    6.000 
#    0.000    2.083    0.000    0.000    0.000    0.583 
#    0.000    0.000    0.000    0.000    0.000    0.000 
#
# Total GULP energy -268008.302552 kJ/mol
# GULP energy per Si atom -5583.506303 kJ/mol
# Density = 1.766771 g / cm^3
# Si number density = 17.708016 Si / 1000 Ang^3
#
#
#
# Elastic Constant Matrix: (Units=GPa)
#
#
# Indices 1 2 3 4 5 6 
#
# 1 48.1701 41.6519 57.0838 0.0000 0.0000 0.0000
# 2 41.6519 137.2503 94.0496 0.0000 0.0000 0.0000
# 3 57.0838 94.0496 211.3292 0.0000 0.0000 0.0000
# 4 0.0000 0.0000 0.0000 -59.1668 0.0000 0.0000
# 5 0.0000 0.0000 0.0000 0.0000 37.9806 0.0000
# 6 0.0000 0.0000 0.0000 0.0000 0.0000 1.8235
#
#
#
# Elastic Compliance Matrix: (Units=1/GPa)
#
#
# Indices 1 2 3 4 5 6 
#
# 1 0.033352 -0.005680 -0.006481 0.000000 0.000000 0.000000
# 2 -0.005680 0.011450 -0.003561 0.000000 0.000000 0.000000
# 3 -0.006481 -0.003561 0.008068 0.000000 0.000000 0.000000
# 4 0.000000 0.000000 0.000000 -0.016901 0.000000 0.000000
# 5 0.000000 0.000000 0.000000 0.000000 0.026329 0.000000
# 6 0.000000 0.000000 0.000000 0.000000 0.000000 0.548399
#
#
# Mechanical properties :
#
#
# Convention : Reuss Voigt Hill
#
# Bulk Modulus (GPa) = 46.67654 86.92447 66.80050
# Shear Modulus (GPa) = 7.70080 9.72508 8.71294
#
# Velocity S-wave (km/s) = 2.08763 2.34602 2.22059
# Velocity P-wave (km/s) = 5.67690 7.51882 6.66182
#
# Compressibility (1/GPa) = 0.02142404
#
# Stress axis : x y z
#
# Youngs Moduli (GPa) = 29.98348 87.33442 123.95373
#
# Poissons Ratio (x) = 0.49609 0.80333
# Poissons Ratio (y) = 0.17032 0.44145
# Poissons Ratio (z) = 0.19432 0.31103
#
# Static dielectric constant tensor:
#      x y z
#    x 1.593580 0.000000 0.000000 
#    y 0.000000 1.589530 0.000000 
#    z 0.000000 0.000000 1.576590 
# 
# From -- ./inp_files/37249.got.cif
#   From: 2010.05.17/outbox.cif.g08.bks.cpg/sg51_19_cif.got.tgz:37249.got - 2010.06.03 11:52:47.
