data_PCOD9400744
_publ_section_title
;
Structure prediction by ZEFSAII (Michael W. Deem and Ramdas Pophale) SiO2 
 PCOD9400744
Probable space group: P M M A
;
_chemical_formula_sum "Si O2"
_cell_formula_units_Z 44
_cell_length_a 8.666942
_cell_length_b 29.845134
_cell_length_c 9.721569
_cell_angle_alpha 90.000000
_cell_angle_beta 90.000000
_cell_angle_gamma 90.000000
_cell_volume 2514.639808
_symmetry_space_group_name_H-M "P M M A"
_symmetry_group_IT_number 51
_symmetry_cell_setting 'orthorhombic'
loop_
_space_group_symop_operation_xyz
x,y,z
1/2-x,-y,z
1/2+x,-y,-z
-x,y,-z
-x,-y,-z
1/2+x,y,-z
1/2-x,y,z
x,-y,z
loop_
_atom_site_type_symbol
_atom_site_label
_atom_site_fract_x
_atom_site_fract_y
_atom_site_fract_z
Si Si1 0.065148 0.226973 0.344581
Si Si2 0.935234 0.680446 0.345017
Si Si3 0.434763 0.050848 0.846929
Si Si4 0.436606 0.402060 0.845063
Si Si5 0.564074 0.500000 0.155003
Si Si6 0.565195 0.128056 0.654542
O O1 0.250000 0.231185 0.347954
O O2 0.024906 0.177776 0.287227
O O3 0.000000 0.225948 0.500000
O O4 0.993923 0.272205 0.283607
O O5 0.750000 0.681415 0.352080
O O6 0.986031 0.638620 0.252087
O O7 0.000000 0.676104 0.500000
O O8 0.250000 0.053590 0.850573
O O9 0.500072 0.088332 0.746419
O O10 0.477680 0.000000 0.803677
O O11 0.500000 0.057545 0.000000
O O12 0.250000 0.401084 0.852077
O O13 0.483730 0.451383 0.787760
O O14 0.500000 0.397428 0.000000
O O15 0.750000 0.500000 0.151989
O O16 0.500000 0.500000 0.000000
O O17 0.500000 0.124776 0.500000
O O18 0.750000 0.125426 0.648358
#
# Coordination Sequence:
#
# PCOD9400744 Si02
#       6
#     8   8   8   8   4   8
#     4   9  17  30  49  72  97 128 163 199 241 288
#     4  10  19  31  48  71  97 128 162 196 238 288
#     4  10  21  37  56  77 103 136 170 204 247 298
#     4   9  18  31  49  71  94 122 158 198 241 286
#     4   8  14  28  47  66  90 120 154 194 237 284
#     4  10  20  34  54  79 104 131 167 209 250 292
#
# _framework density 17.497534999999999
#
# number of rings (size 3 to 8) (size 9 to 14) (size 15 to 20)
#    0.000    2.545    0.000    3.273    0.000    5.091 
#    0.000    1.364    0.000    2.182    0.000    0.000 
#    0.000    0.000    0.000    0.000    0.000    0.000 
#
# Total GULP energy -245116.270422 kJ/mol
# GULP energy per Si atom -5570.824328 kJ/mol
# Density = 1.745771 g / cm^3
# Si number density = 17.497535 Si / 1000 Ang^3
#
#
#
# Elastic Constant Matrix: (Units=GPa)
#
#
# Indices 1 2 3 4 5 6 
#
# 1 46.0214 54.5010 21.4957 0.0000 0.0000 0.0000
# 2 54.5010 225.1820 80.3132 0.0000 0.0000 0.0000
# 3 21.4957 80.3132 51.1045 0.0000 0.0000 0.0000
# 4 0.0000 0.0000 0.0000 49.3003 0.0000 0.0000
# 5 0.0000 0.0000 0.0000 0.0000 24.7530 0.0000
# 6 0.0000 0.0000 0.0000 0.0000 0.0000 28.3195
#
#
#
# Elastic Compliance Matrix: (Units=1/GPa)
#
#
# Indices 1 2 3 4 5 6 
#
# 1 0.030635 -0.006414 -0.002806 0.000000 0.000000 0.000000
# 2 -0.006414 0.011447 -0.015292 0.000000 0.000000 0.000000
# 3 -0.002806 -0.015292 0.044781 0.000000 0.000000 0.000000
# 4 0.000000 0.000000 0.000000 0.020284 0.000000 0.000000
# 5 0.000000 0.000000 0.000000 0.000000 0.040399 0.000000
# 6 0.000000 0.000000 0.000000 0.000000 0.000000 0.035311
#
#
# Mechanical properties :
#
#
# Convention : Reuss Voigt Hill
#
# Bulk Modulus (GPa) = 26.42797 70.54751 48.48774
# Shear Modulus (GPa) = 20.45030 31.54108 25.99569
#
# Velocity S-wave (km/s) = 3.42241 4.25031 3.85863
# Velocity P-wave (km/s) = 5.54561 8.03075 6.90097
#
# Compressibility (1/GPa) = 0.03783870
#
# Stress axis : x y z
#
# Youngs Moduli (GPa) = 32.64199 87.35684 22.33109
#
# Poissons Ratio (x) = 0.56029 0.06267
# Poissons Ratio (y) = 0.20936 0.34149
# Poissons Ratio (z) = 0.09160 1.33588
#
# Static dielectric constant tensor:
#      x y z
#    x 1.588150 0.000000 0.000000 
#    y 0.000000 1.657720 0.000000 
#    z 0.000000 0.000000 1.546790 
# 
# From -- ./inp_files/5716.got.cif
#   From: 2010.05.17/outbox.cif.g08.bks.cpg/sg51_3_cif.got.tgz:5716.got - 2010.06.03 11:52:47.
