data_PCOD9400636
_publ_section_title
;
Structure prediction by ZEFSAII (Michael W. Deem and Ramdas Pophale) SiO2 
 PCOD9400636
Probable space group: P M M A
;
_chemical_formula_sum "Si O2"
_cell_formula_units_Z 56
_cell_length_a 9.568249
_cell_length_b 19.558617
_cell_length_c 15.648793
_cell_angle_alpha 90.000000
_cell_angle_beta 90.000000
_cell_angle_gamma 90.000000
_cell_volume 2928.542000
_symmetry_space_group_name_H-M "P M M A"
_symmetry_group_IT_number 51
_symmetry_cell_setting 'orthorhombic'
loop_
_space_group_symop_operation_xyz
x,y,z
1/2-x,-y,z
1/2+x,-y,-z
-x,y,-z
-x,-y,-z
1/2+x,y,-z
1/2-x,y,z
x,-y,z
loop_
_atom_site_type_symbol
_atom_site_label
_atom_site_fract_x
_atom_site_fract_y
_atom_site_fract_z
Si Si1 0.909581 0.181058 0.081934
Si Si2 0.907503 0.421892 0.606598
Si Si3 0.094434 0.654561 0.923034
Si Si4 0.083423 0.712736 0.581946
Si Si5 0.412911 0.918006 0.413714
Si Si6 0.597111 0.577664 0.810249
Si Si7 0.581535 0.171519 0.281004
O O1 0.750000 0.155698 0.073831
O O2 0.904886 0.263570 0.075542
O O3 0.957106 0.168649 0.180198
O O4 0.000000 0.157073 0.000000
O O5 0.750000 0.404203 0.574711
O O6 0.939143 0.500000 0.580844
O O7 0.897681 0.424013 0.708792
O O8 0.021440 0.363913 0.588694
O O9 0.250000 0.628802 0.930876
O O10 0.022920 0.627845 0.838410
O O11 0.000000 0.628784 0.000000
O O12 0.250000 0.713665 0.568217
O O13 0.055834 0.756782 0.668197
O O14 0.000000 0.742887 0.500000
O O15 0.500000 0.903322 0.500000
O O16 0.250000 0.895998 0.420714
O O17 0.492836 0.882567 0.335373
O O18 0.413655 0.000000 0.402626
O O19 0.750000 0.600781 0.842020
O O20 0.572779 0.500000 0.840518
O O21 0.750000 0.159677 0.286111
#
# Coordination Sequence:
#
# PCOD9400636 Si02
#       7
#     8   8   8   8   8   8   8
#     4   9  19  35  54  79 109 140 178 224 272 323
#     4   9  19  36  55  73  96 131 176 224 274 329
#     4  10  19  31  47  67  93 125 163 209 263 323
#     4  11  23  37  54  79 110 143 182 229 279 332
#     4  10  21  37  59  89 123 158 195 231 270 323
#     4   9  18  32  48  66  89 118 157 208 264 322
#     4  10  21  37  58  85 117 150 186 231 280 329
#
# _framework density 19.122143000000001
#
# number of rings (size 3 to 8) (size 9 to 14) (size 15 to 20)
#    0.000    2.286    0.000    3.429    0.000    7.143 
#    0.000    1.429    0.000    0.429    0.000    0.000 
#    0.000    0.000    0.000    0.000    0.000    0.000 
#
# Total GULP energy -312168.346878 kJ/mol
# GULP energy per Si atom -5574.434766 kJ/mol
# Density = 1.907862 g / cm^3
# Si number density = 19.122143 Si / 1000 Ang^3
#
#
#
# Elastic Constant Matrix: (Units=GPa)
#
#
# Indices 1 2 3 4 5 6 
#
# 1 119.6467 40.7896 73.1545 0.0000 0.0000 0.0000
# 2 40.7896 48.8429 28.7346 0.0000 0.0000 0.0000
# 3 73.1545 28.7346 149.9045 0.0000 0.0000 0.0000
# 4 0.0000 0.0000 0.0000 25.5327 0.0000 0.0000
# 5 0.0000 0.0000 0.0000 0.0000 34.8243 0.0000
# 6 0.0000 0.0000 0.0000 0.0000 0.0000 19.0286
#
#
#
# Elastic Compliance Matrix: (Units=1/GPa)
#
#
# Indices 1 2 3 4 5 6 
#
# 1 0.014834 -0.009163 -0.005483 0.000000 0.000000 0.000000
# 2 -0.009163 0.028736 -0.001037 0.000000 0.000000 0.000000
# 3 -0.005483 -0.001037 0.009545 0.000000 0.000000 0.000000
# 4 0.000000 0.000000 0.000000 0.039165 0.000000 0.000000
# 5 0.000000 0.000000 0.000000 0.000000 0.028716 0.000000
# 6 0.000000 0.000000 0.000000 0.000000 0.000000 0.052552
#
#
# Mechanical properties :
#
#
# Convention : Reuss Voigt Hill
#
# Bulk Modulus (GPa) = 45.97577 67.08352 56.52965
# Shear Modulus (GPa) = 23.56684 27.59146 25.57915
#
# Velocity S-wave (km/s) = 3.51442 3.80268 3.66139
# Velocity P-wave (km/s) = 6.36895 7.37823 6.89209
#
# Compressibility (1/GPa) = 0.02175059
#
# Stress axis : x y z
#
# Youngs Moduli (GPa) = 67.41346 34.80004 104.76401
#
# Poissons Ratio (x) = 0.31886 0.57439
# Poissons Ratio (y) = 0.61768 0.10862
# Poissons Ratio (z) = 0.36961 0.03608
#
# Static dielectric constant tensor:
#      x y z
#    x 1.645620 0.000000 0.000000 
#    y 0.000000 1.664210 0.000000 
#    z 0.000000 0.000000 1.710250 
# 
# From -- ./inp_files/21797.got.cif
#   From: 2010.05.17/outbox.cif.g08.bks.cpg/sg51_11_cif.got.tgz:21797.got - 2010.06.03 11:52:47.
