data_PCOD9400680
_publ_section_title
;
Structure prediction by ZEFSAII (Michael W. Deem and Ramdas Pophale) SiO2 
 PCOD9400680
Probable space group: P M M A
;
_chemical_formula_sum "Si O2"
_cell_formula_units_Z 48
_cell_length_a 25.903176
_cell_length_b 10.446973
_cell_length_c 11.370610
_cell_angle_alpha 90.000000
_cell_angle_beta 90.000000
_cell_angle_gamma 90.000000
_cell_volume 3076.998274
_symmetry_space_group_name_H-M "P M M A"
_symmetry_group_IT_number 51
_symmetry_cell_setting 'orthorhombic'
loop_
_space_group_symop_operation_xyz
x,y,z
1/2-x,-y,z
1/2+x,-y,-z
-x,y,-z
-x,-y,-z
1/2+x,y,-z
1/2-x,y,z
x,-y,z
loop_
_atom_site_type_symbol
_atom_site_label
_atom_site_fract_x
_atom_site_fract_y
_atom_site_fract_z
Si Si1 0.528128 0.777910 0.114184
Si Si2 0.122968 0.351783 0.005213
Si Si3 0.310979 0.148284 0.865094
Si Si4 0.937735 0.649693 0.494904
Si Si5 0.931768 0.651537 0.759525
Si Si6 0.102138 0.140840 0.686119
O O1 0.483187 0.720176 0.194707
O O2 0.564207 0.858425 0.200378
O O3 0.500000 0.838476 0.000000
O O4 0.567704 0.673396 0.059219
O O5 0.137788 0.500000 0.988986
O O6 0.111905 0.326015 0.142687
O O7 0.163006 0.251276 0.951452
O O8 0.250000 0.168139 0.854414
O O9 0.341360 0.161752 0.741724
O O10 0.319764 0.000000 0.903459
O O11 0.925704 0.500000 0.469805
O O12 0.918579 0.685164 0.625890
O O13 0.915025 0.745698 0.399085
O O14 0.000000 0.660342 0.500000
O O15 0.942823 0.500000 0.759543
O O16 0.099273 0.000000 0.630086
#
# Coordination Sequence:
#
# PCOD9400680 Si02
#       6
#     8   8   8   8   8   8
#     4   9  16  27  43  66  97 130 158 185 230 286
#     4   9  17  28  48  74  96 118 154 200 236 275
#     4   9  19  36  54  70  93 124 155 195 251 302
#     4  10  19  31  48  67  96 137 170 191 226 282
#     4   9  16  28  44  67  98 131 160 186 225 277
#     4  10  20  32  47  70  96 123 163 207 242 274
#
# _framework density 15.599619000000001
#
# number of rings (size 3 to 8) (size 9 to 14) (size 15 to 20)
#    0.000    2.667    1.667    0.500    0.000    5.667 
#    0.000    3.333    0.000    1.000    0.000    4.667 
#    0.000    0.000    0.000    0.000    0.000    0.000 
#
# Total GULP energy -267217.989588 kJ/mol
# GULP energy per Si atom -5567.041450 kJ/mol
# Density = 1.556411 g / cm^3
# Si number density = 15.599619 Si / 1000 Ang^3
#
#
#
# Elastic Constant Matrix: (Units=GPa)
#
#
# Indices 1 2 3 4 5 6 
#
# 1 80.9178 54.7563 35.1901 0.0000 0.0000 0.0000
# 2 54.7563 100.9466 66.6486 0.0000 0.0000 0.0000
# 3 35.1901 66.6486 95.8443 0.0000 0.0000 0.0000
# 4 0.0000 0.0000 0.0000 17.7488 0.0000 0.0000
# 5 0.0000 0.0000 0.0000 0.0000 11.6495 0.0000
# 6 0.0000 0.0000 0.0000 0.0000 0.0000 6.4606
#
#
#
# Elastic Compliance Matrix: (Units=1/GPa)
#
#
# Indices 1 2 3 4 5 6 
#
# 1 0.019532 -0.010834 0.000362 0.000000 0.000000 0.000000
# 2 -0.010834 0.024324 -0.012937 0.000000 0.000000 0.000000
# 3 0.000362 -0.012937 0.019297 0.000000 0.000000 0.000000
# 4 0.000000 0.000000 0.000000 0.056342 0.000000 0.000000
# 5 0.000000 0.000000 0.000000 0.000000 0.085841 0.000000
# 6 0.000000 0.000000 0.000000 0.000000 0.000000 0.154785
#
#
# Mechanical properties :
#
#
# Convention : Reuss Voigt Hill
#
# Bulk Modulus (GPa) = 61.21480 65.65542 63.43511
# Shear Modulus (GPa) = 12.12469 15.24603 13.68536
#
# Velocity S-wave (km/s) = 2.79093 3.12962 2.96512
# Velocity P-wave (km/s) = 7.05068 7.43227 7.24399
#
# Compressibility (1/GPa) = 0.01633592
#
# Stress axis : x y z
#
# Youngs Moduli (GPa) = 51.19868 41.11129 51.82245
#
# Poissons Ratio (x) = 0.44539 -0.01878
# Poissons Ratio (y) = 0.55468 0.67042
# Poissons Ratio (z) = -0.01855 0.53185
#
# Static dielectric constant tensor:
#      x y z
#    x 1.503990 0.000000 0.000000 
#    y 0.000000 1.521630 0.000000 
#    z 0.000000 0.000000 1.542310 
# 
# From -- ./inp_files/18985.got.cif
#   From: 2010.05.17/outbox.cif.g08.bks.cpg/sg51_10_cif.got.tgz:18985.got - 2010.06.03 11:52:47.
