data_PCOD9400252
_publ_section_title
;
Structure prediction by ZEFSAII (Michael W. Deem and Ramdas Pophale) SiO2 
 PCOD9400252
Probable space group: P M M A
;
_chemical_formula_sum "Si O2"
_cell_formula_units_Z 48
_cell_length_a 17.521345
_cell_length_b 14.057083
_cell_length_c 12.075156
_cell_angle_alpha 90.000000
_cell_angle_beta 90.000000
_cell_angle_gamma 90.000000
_cell_volume 2974.098859
_symmetry_space_group_name_H-M "P M M A"
_symmetry_group_IT_number 51
_symmetry_cell_setting 'orthorhombic'
loop_
_space_group_symop_operation_xyz
x,y,z
1/2-x,-y,z
1/2+x,-y,-z
-x,y,-z
-x,-y,-z
1/2+x,y,-z
1/2-x,y,z
x,-y,z
loop_
_atom_site_type_symbol
_atom_site_label
_atom_site_fract_x
_atom_site_fract_y
_atom_site_fract_z
Si Si1 0.926232 0.763416 0.685495
Si Si2 0.070324 0.887385 0.665078
Si Si3 0.836390 0.885054 0.122482
Si Si4 0.160982 0.744645 0.537481
Si Si5 0.035229 0.391065 0.624896
Si Si6 0.658369 0.111799 0.866488
O O1 0.865635 0.740394 0.589745
O O2 0.885959 0.816187 0.787088
O O3 0.990346 0.836875 0.640727
O O4 0.976162 0.667585 0.701296
O O5 0.101118 0.857356 0.787007
O O6 0.133603 0.846922 0.582165
O O7 0.063120 0.000000 0.659883
O O8 0.750000 0.850216 0.148130
O O9 0.832733 0.000000 0.127454
O O10 0.855540 0.862950 0.995334
O O11 0.250000 0.730748 0.548907
O O12 0.112850 0.668284 0.608942
O O13 0.046008 0.500000 0.658459
O O14 0.000000 0.390319 0.500000
O O15 0.750000 0.117058 0.848698
O O16 0.636248 0.000000 0.848800
#
# Coordination Sequence:
#
# PCOD9400252 Si02
#       6
#     8   8   8   8   8   8
#     4  10  19  30  45  67  94 119 149 186 227 281
#     4  10  19  30  44  63  91 125 158 190 222 261
#     4   8  15  28  44  62  86 119 160 199 227 255
#     4  10  20  31  45  67  91 117 151 187 226 276
#     4   8  16  32  50  66  87 114 143 182 229 271
#     4   9  17  29  45  66  94 126 156 188 227 267
#
# _framework density 16.139343
#
# number of rings (size 3 to 8) (size 9 to 14) (size 15 to 20)
#    0.000    2.833    0.000    4.000    0.000    4.000 
#    0.000    2.500    0.000    1.500    0.000    9.333 
#    0.000    5.333    0.000    0.000    0.000    0.000 
#
# Total GULP energy -267298.663639 kJ/mol
# GULP energy per Si atom -5568.722159 kJ/mol
# Density = 1.610261 g / cm^3
# Si number density = 16.139343 Si / 1000 Ang^3
#
#
#
# Elastic Constant Matrix: (Units=GPa)
#
#
# Indices 1 2 3 4 5 6 
#
# 1 75.9279 21.0283 13.0467 0.0000 0.0000 0.0000
# 2 21.0283 75.2852 3.5219 0.0000 0.0000 0.0000
# 3 13.0467 3.5219 25.3667 0.0000 0.0000 0.0000
# 4 0.0000 0.0000 0.0000 3.4884 0.0000 0.0000
# 5 0.0000 0.0000 0.0000 0.0000 16.0225 0.0000
# 6 0.0000 0.0000 0.0000 0.0000 0.0000 13.5242
#
#
#
# Elastic Compliance Matrix: (Units=1/GPa)
#
#
# Indices 1 2 3 4 5 6 
#
# 1 0.015557 -0.003997 -0.007446 0.000000 0.000000 0.000000
# 2 -0.003997 0.014397 0.000057 0.000000 0.000000 0.000000
# 3 -0.007446 0.000057 0.043244 0.000000 0.000000 0.000000
# 4 0.000000 0.000000 0.000000 0.286665 0.000000 0.000000
# 5 0.000000 0.000000 0.000000 0.000000 0.062412 0.000000
# 6 0.000000 0.000000 0.000000 0.000000 0.000000 0.073941
#
#
# Mechanical properties :
#
#
# Convention : Reuss Voigt Hill
#
# Bulk Modulus (GPa) = 19.83169 27.97485 23.90327
# Shear Modulus (GPa) = 9.33190 15.87254 12.60222
#
# Velocity S-wave (km/s) = 2.40720 3.13943 2.79738
# Velocity P-wave (km/s) = 4.47668 5.52380 5.02757
#
# Compressibility (1/GPa) = 0.05042436
#
# Stress axis : x y z
#
# Youngs Moduli (GPa) = 64.28047 69.46106 23.12478
#
# Poissons Ratio (x) = 0.27763 0.17219
# Poissons Ratio (y) = 0.25692 -0.00131
# Poissons Ratio (z) = 0.47865 -0.00395
#
# Static dielectric constant tensor:
#      x y z
#    x 1.551530 0.000000 0.000000 
#    y 0.000000 1.538600 0.000000 
#    z 0.000000 0.000000 1.555720 
# 
# From -- ./inp_files/16440.got.cif
#   From: 2010.05.17/outbox.cif.g08.bks.cpg/sg51_9_cif.got.tgz:16440.got - 2010.06.03 11:52:47.
