data_PCOD9400812
_publ_section_title
;
Structure prediction by ZEFSAII (Michael W. Deem and Ramdas Pophale) SiO2 
 PCOD9400812
Probable space group: P M M A
;
_chemical_formula_sum "Si O2"
_cell_formula_units_Z 64
_cell_length_a 20.270420
_cell_length_b 7.710313
_cell_length_c 20.884198
_cell_angle_alpha 90.000000
_cell_angle_beta 90.000000
_cell_angle_gamma 90.000000
_cell_volume 3264.018097
_symmetry_space_group_name_H-M "P M M A"
_symmetry_group_IT_number 51
_symmetry_cell_setting 'orthorhombic'
loop_
_space_group_symop_operation_xyz
x,y,z
1/2-x,-y,z
1/2+x,-y,-z
-x,y,-z
-x,-y,-z
1/2+x,y,-z
1/2-x,y,z
x,-y,z
loop_
_atom_site_type_symbol
_atom_site_label
_atom_site_fract_x
_atom_site_fract_y
_atom_site_fract_z
Si Si1 0.062888 0.792887 0.739127
Si Si2 0.825774 0.793356 0.887402
Si Si3 0.418794 0.794036 0.224916
Si Si4 0.674794 0.793447 0.167347
Si Si5 0.174467 0.706935 0.972357
Si Si6 0.048950 0.709115 0.592555
Si Si7 0.176425 0.710169 0.341023
Si Si8 0.595079 0.288664 0.541467
O O1 0.124575 0.723206 0.779658
O O2 0.068388 0.765573 0.663167
O O3 0.992222 0.722454 0.763567
O O4 0.061594 0.000000 0.749329
O O5 0.750000 0.723967 0.882971
O O6 0.875156 0.722138 0.833696
O O7 0.820912 0.000000 0.877791
O O8 0.852809 0.763654 0.959116
O O9 0.376225 0.769183 0.288929
O O10 0.425937 0.000000 0.213716
O O11 0.750000 0.722263 0.170330
O O12 0.646476 0.764654 0.095771
O O13 0.680022 0.000000 0.176437
O O14 0.250000 0.775455 0.972329
O O15 0.175932 0.500000 0.972198
O O16 0.049049 0.500000 0.592622
O O17 0.093318 0.768409 0.532349
O O18 0.974256 0.763381 0.574442
O O19 0.250000 0.770858 0.325403
O O20 0.176481 0.500000 0.340230
O O21 0.153127 0.767064 0.411541
O O22 0.595422 0.500000 0.540430
#
# Coordination Sequence:
#
# PCOD9400812 Si02
#       8
#     8   8   8   8   8   8   8   8
#     4  10  20  33  50  75 101 126 162 206 247 290
#     4   9  17  30  48  68  93 129 165 192 230 287
#     4  10  20  33  48  70 101 133 165 203 243 288
#     4   9  18  34  54  72  94 127 162 197 245 304
#     4   9  17  30  50  75  98 120 156 205 245 281
#     4   9  16  30  52  70  92 127 163 199 241 291
#     4  10  19  31  49  72  99 131 167 206 245 288
#     4   8  15  29  48  70  93 123 164 200 236 286
#
# _framework density 19.607733
#
# number of rings (size 3 to 8) (size 9 to 14) (size 15 to 20)
#    0.000    2.750    1.250    1.500    0.000    3.250 
#    0.000    4.375    0.000    4.500    0.000    0.000 
#    0.000    0.000    0.000    0.000    0.000    0.000 
#
# Total GULP energy -356715.590181 kJ/mol
# GULP energy per Si atom -5573.681097 kJ/mol
# Density = 1.956311 g / cm^3
# Si number density = 19.607733 Si / 1000 Ang^3
#
#
#
# Elastic Constant Matrix: (Units=GPa)
#
#
# Indices 1 2 3 4 5 6 
#
# 1 92.1372 5.4252 76.4345 0.0000 0.0000 0.0000
# 2 5.4252 29.7187 -3.2788 0.0000 0.0000 0.0000
# 3 76.4345 -3.2788 171.0719 0.0000 0.0000 0.0000
# 4 0.0000 0.0000 0.0000 24.2180 0.0000 0.0000
# 5 0.0000 0.0000 0.0000 0.0000 29.3941 0.0000
# 6 0.0000 0.0000 0.0000 0.0000 0.0000 7.3822
#
#
#
# Elastic Compliance Matrix: (Units=1/GPa)
#
#
# Indices 1 2 3 4 5 6 
#
# 1 0.017735 -0.004121 -0.008003 0.000000 0.000000 0.000000
# 2 -0.004121 0.034678 0.002506 0.000000 0.000000 0.000000
# 3 -0.008003 0.002506 0.009469 0.000000 0.000000 0.000000
# 4 0.000000 0.000000 0.000000 0.041292 0.000000 0.000000
# 5 0.000000 0.000000 0.000000 0.000000 0.034020 0.000000
# 6 0.000000 0.000000 0.000000 0.000000 0.000000 0.135462
#
#
# Mechanical properties :
#
#
# Convention : Reuss Voigt Hill
#
# Bulk Modulus (GPa) = 23.44872 50.00993 36.72933
# Shear Modulus (GPa) = 16.33418 26.48864 21.41141
#
# Velocity S-wave (km/s) = 2.88939 3.67948 3.30811
# Velocity P-wave (km/s) = 4.80794 6.60394 5.77617
#
# Compressibility (1/GPa) = 0.04264625
#
# Stress axis : x y z
#
# Youngs Moduli (GPa) = 56.38564 28.83710 105.60543
#
# Poissons Ratio (x) = 0.11882 0.84515
# Poissons Ratio (y) = 0.23234 -0.26461
# Poissons Ratio (z) = 0.45125 -0.07226
#
# Static dielectric constant tensor:
#      x y z
#    x 1.695730 0.000000 0.000000 
#    y 0.000000 1.725170 0.000000 
#    z 0.000000 0.000000 1.694540 
# 
# From -- ./inp_files/30647.got.cif
#   From: 2010.05.17/outbox.cif.g08.bks.cpg/sg51_16_cif.got.tgz:30647.got - 2010.06.03 11:52:47.
