data_PCOD9400957
_publ_section_title
;
Structure prediction by ZEFSAII (Michael W. Deem and Ramdas Pophale) SiO2 
 PCOD9400957
Probable space group: P M M A
;
_chemical_formula_sum "Si O2"
_cell_formula_units_Z 64
_cell_length_a 25.917211
_cell_length_b 7.626055
_cell_length_c 15.174000
_cell_angle_alpha 90.000000
_cell_angle_beta 90.000000
_cell_angle_gamma 90.000000
_cell_volume 2999.081565
_symmetry_space_group_name_H-M "P M M A"
_symmetry_group_IT_number 51
_symmetry_cell_setting 'orthorhombic'
loop_
_space_group_symop_operation_xyz
x,y,z
1/2-x,-y,z
1/2+x,-y,-z
-x,y,-z
-x,-y,-z
1/2+x,y,-z
1/2-x,y,z
x,-y,z
loop_
_atom_site_type_symbol
_atom_site_label
_atom_site_fract_x
_atom_site_fract_y
_atom_site_fract_z
Si Si1 0.807642 0.711122 0.220440
Si Si2 0.990093 0.203154 0.236612
Si Si3 0.902468 0.297468 0.717426
Si Si4 0.193688 0.285445 0.169878
Si Si5 0.099521 0.208764 0.645132
Si Si6 0.336060 0.713394 0.977456
Si Si7 0.055712 0.706491 0.467341
Si Si8 0.950434 0.711759 0.052205
O O1 0.750000 0.770195 0.246645
O O2 0.807210 0.500000 0.215577
O O3 0.851985 0.753916 0.291473
O O4 0.818494 0.774005 0.119831
O O5 0.045155 0.293112 0.225053
O O6 0.953583 0.281149 0.312048
O O7 0.955584 0.219226 0.150301
O O8 0.000694 0.000000 0.254149
O O9 0.888620 0.500000 0.699943
O O10 0.854265 0.221822 0.771182
O O11 0.921403 0.219369 0.623964
O O12 0.250000 0.237814 0.205713
O O13 0.190582 0.500000 0.167426
O O14 0.190399 0.228040 0.067619
O O15 0.097522 0.273638 0.545183
O O16 0.094552 0.000000 0.642761
O O17 0.331484 0.500000 0.974996
O O18 0.395994 0.761081 0.987845
O O19 0.046849 0.500000 0.451199
O O20 0.000000 0.780331 0.500000
O O21 0.951994 0.500000 0.055956
O O22 0.000000 0.775402 0.000000
#
# Coordination Sequence:
#
# PCOD9400957 Si02
#       8
#     8   8   8   8   8   8   8   8
#     4  10  20  35  57  82 108 144 188 231 274 324
#     4  11  22  34  51  78 112 147 179 221 278 333
#     4  10  20  35  57  83 110 143 184 229 279 333
#     4   9  17  31  53  82 112 138 173 225 275 320
#     4  11  23  37  55  80 112 147 182 226 282 339
#     4   9  16  28  49  79 111 140 175 219 268 320
#     4  10  20  35  57  83 111 145 184 232 282 330
#     4  10  19  31  50  77 109 147 186 225 271 327
#
# _framework density 21.339867000000002
#
# number of rings (size 3 to 8) (size 9 to 14) (size 15 to 20)
#    0.000    2.000    2.500    1.875    0.000    5.750 
#    0.000    0.625    0.000    2.625    0.000    0.000 
#    0.000    0.000    0.000    0.000    0.000    0.000 
#
# Total GULP energy -357155.791898 kJ/mol
# GULP energy per Si atom -5580.559248 kJ/mol
# Density = 2.129130 g / cm^3
# Si number density = 21.339867 Si / 1000 Ang^3
#
#
#
# Elastic Constant Matrix: (Units=GPa)
#
#
# Indices 1 2 3 4 5 6 
#
# 1 153.8156 5.2883 56.2877 0.0000 0.0000 0.0000
# 2 5.2883 41.1428 -0.3534 0.0000 0.0000 0.0000
# 3 56.2877 -0.3534 93.0862 0.0000 0.0000 0.0000
# 4 0.0000 0.0000 0.0000 7.2462 0.0000 0.0000
# 5 0.0000 0.0000 0.0000 0.0000 16.2971 0.0000
# 6 0.0000 0.0000 0.0000 0.0000 0.0000 15.4106
#
#
#
# Elastic Compliance Matrix: (Units=1/GPa)
#
#
# Indices 1 2 3 4 5 6 
#
# 1 0.008400 -0.001123 -0.005084 0.000000 0.000000 0.000000
# 2 -0.001123 0.024457 0.000772 0.000000 0.000000 0.000000
# 3 -0.005084 0.000772 0.013820 0.000000 0.000000 0.000000
# 4 0.000000 0.000000 0.000000 0.138004 0.000000 0.000000
# 5 0.000000 0.000000 0.000000 0.000000 0.061361 0.000000
# 6 0.000000 0.000000 0.000000 0.000000 0.000000 0.064891
#
#
# Mechanical properties :
#
#
# Convention : Reuss Voigt Hill
#
# Bulk Modulus (GPa) = 27.92780 45.60997 36.76889
# Shear Modulus (GPa) = 14.98185 22.91224 18.94704
#
# Velocity S-wave (km/s) = 2.65251 3.28026 2.98295
# Velocity P-wave (km/s) = 4.74307 5.98050 5.39736
#
# Compressibility (1/GPa) = 0.03580661
#
# Stress axis : x y z
#
# Youngs Moduli (GPa) = 119.04359 40.88870 72.36024
#
# Poissons Ratio (x) = 0.04593 0.36786
# Poissons Ratio (y) = 0.13373 -0.05587
# Poissons Ratio (z) = 0.60519 -0.03157
#
# Static dielectric constant tensor:
#      x y z
#    x 1.770360 0.000000 0.000000 
#    y 0.000000 1.794610 0.000000 
#    z 0.000000 0.000000 1.800930 
# 
# From -- ./inp_files/26256.got.cif
#   From: 2010.05.17/outbox.cif.g08.bks.cpg/sg51_14_cif.got.tgz:26256.got - 2010.06.03 11:52:47.
