data_PCOD9400781
_publ_section_title
;
Structure prediction by ZEFSAII (Michael W. Deem and Ramdas Pophale) SiO2 
 PCOD9400781
Probable space group: P M M A
;
_chemical_formula_sum "Si O2"
_cell_formula_units_Z 64
_cell_length_a 18.249861
_cell_length_b 8.745331
_cell_length_c 23.173477
_cell_angle_alpha 90.000000
_cell_angle_beta 90.000000
_cell_angle_gamma 90.000000
_cell_volume 3698.511844
_symmetry_space_group_name_H-M "P M M A"
_symmetry_group_IT_number 51
_symmetry_cell_setting 'orthorhombic'
loop_
_space_group_symop_operation_xyz
x,y,z
1/2-x,-y,z
1/2+x,-y,-z
-x,y,-z
-x,-y,-z
1/2+x,y,-z
1/2-x,y,z
x,-y,z
loop_
_atom_site_type_symbol
_atom_site_label
_atom_site_fract_x
_atom_site_fract_y
_atom_site_fract_z
Si Si1 0.928123 0.824872 0.041174
Si Si2 0.622235 0.682693 0.423057
Si Si3 0.462444 0.185574 0.135159
Si Si4 0.830077 0.184219 0.543416
Si Si5 0.834530 0.682716 0.944253
Si Si6 0.017153 0.184069 0.741758
Si Si7 0.470947 0.185057 0.385717
Si Si8 0.668821 0.315692 0.294007
O O1 0.963832 0.765850 0.100409
O O2 0.903126 0.000000 0.048616
O O3 0.867057 0.732595 0.006489
O O4 0.000000 0.827648 0.000000
O O5 0.624144 0.500000 0.427154
O O6 0.659080 0.753478 0.479088
O O7 0.539264 0.742749 0.419132
O O8 0.658548 0.726489 0.361736
O O9 0.390562 0.248992 0.103186
O O10 0.472926 0.231995 0.201421
O O11 0.459525 0.000000 0.131125
O O12 0.750000 0.230084 0.565188
O O13 0.895772 0.234737 0.584723
O O14 0.832985 0.000000 0.540849
O O15 0.750000 0.733363 0.937282
O O16 0.836751 0.500000 0.940094
O O17 0.099904 0.246882 0.739575
O O18 0.979354 0.229685 0.681377
O O19 0.020965 0.000000 0.742700
O O20 0.476374 0.000000 0.388995
O O21 0.750000 0.267251 0.274757
O O22 0.664850 0.500000 0.290851
#
# Coordination Sequence:
#
# PCOD9400781 Si02
#       8
#     8   8   8   8   8   8   8   8
#     4   8  15  29  49  71  95 123 154 189 231 278
#     4  10  19  31  49  71  93 119 154 195 239 290
#     4   9  18  33  52  74  98 126 163 201 236 279
#     4  10  20  32  46  66  93 123 154 192 241 292
#     4  10  20  32  48  74 104 130 160 198 236 276
#     4   9  18  33  52  72  94 124 164 202 233 274
#     4   9  18  33  50  68  93 124 157 195 238 285
#     4   9  18  32  48  68  95 124 154 192 240 290
#
# _framework density 17.304257
#
# number of rings (size 3 to 8) (size 9 to 14) (size 15 to 20)
#    0.000    2.750    0.000    2.250    0.000    7.250 
#    0.000    1.250    0.000    6.000    0.000    0.000 
#    0.000    0.000    0.000    0.000    0.000    0.000 
#
# Total GULP energy -356653.753993 kJ/mol
# GULP energy per Si atom -5572.714906 kJ/mol
# Density = 1.726487 g / cm^3
# Si number density = 17.304257 Si / 1000 Ang^3
#
#
#
# Elastic Constant Matrix: (Units=GPa)
#
#
# Indices 1 2 3 4 5 6 
#
# 1 125.3169 24.4762 44.2462 0.0000 0.0000 0.0000
# 2 24.4762 9.6617 13.3111 0.0000 0.0000 0.0000
# 3 44.2462 13.3111 60.5447 0.0000 0.0000 0.0000
# 4 0.0000 0.0000 0.0000 14.4334 0.0000 0.0000
# 5 0.0000 0.0000 0.0000 0.0000 17.3248 0.0000
# 6 0.0000 0.0000 0.0000 0.0000 0.0000 12.6057
#
#
#
# Elastic Compliance Matrix: (Units=1/GPa)
#
#
# Indices 1 2 3 4 5 6 
#
# 1 0.016478 -0.036083 -0.004109 0.000000 0.000000 0.000000
# 2 -0.036083 0.227487 -0.023645 0.000000 0.000000 0.000000
# 3 -0.004109 -0.023645 0.024718 0.000000 0.000000 0.000000
# 4 0.000000 0.000000 0.000000 0.069284 0.000000 0.000000
# 5 0.000000 0.000000 0.000000 0.000000 0.057721 0.000000
# 6 0.000000 0.000000 0.000000 0.000000 0.000000 0.079329
#
#
# Mechanical properties :
#
#
# Convention : Reuss Voigt Hill
#
# Bulk Modulus (GPa) = 7.09172 39.95447 23.52310
# Shear Modulus (GPa) = 7.69592 16.43878 12.06735
#
# Velocity S-wave (km/s) = 2.11118 3.08553 2.64363
# Velocity P-wave (km/s) = 3.17016 5.98611 4.78975
#
# Compressibility (1/GPa) = 0.14100946
#
# Stress axis : x y z
#
# Youngs Moduli (GPa) = 60.68642 4.39585 40.45603
#
# Poissons Ratio (x) = 0.15862 0.16624
# Poissons Ratio (y) = 2.18975 0.95658
# Poissons Ratio (z) = 0.24937 0.10394
#
# Static dielectric constant tensor:
#      x y z
#    x 1.586730 0.000000 0.000000 
#    y 0.000000 1.585670 0.000000 
#    z 0.000000 0.000000 1.596690 
# 
# From -- ./inp_files/33929.got.cif
#   From: 2010.05.17/outbox.cif.g08.bks.cpg/sg51_17_cif.got.tgz:33929.got - 2010.06.03 11:52:47.
