data_PCOD9400746
_publ_section_title
;
Structure prediction by ZEFSAII (Michael W. Deem and Ramdas Pophale) SiO2 
 PCOD9400746
Probable space group: P M M A
;
_chemical_formula_sum "Si O2"
_cell_formula_units_Z 44
_cell_length_a 8.524574
_cell_length_b 30.347618
_cell_length_c 9.404068
_cell_angle_alpha 90.000000
_cell_angle_beta 90.000000
_cell_angle_gamma 90.000000
_cell_volume 2432.837238
_symmetry_space_group_name_H-M "P M M A"
_symmetry_group_IT_number 51
_symmetry_cell_setting 'orthorhombic'
loop_
_space_group_symop_operation_xyz
x,y,z
1/2-x,-y,z
1/2+x,-y,-z
-x,y,-z
-x,-y,-z
1/2+x,y,-z
1/2-x,y,z
x,-y,z
loop_
_atom_site_type_symbol
_atom_site_label
_atom_site_fract_x
_atom_site_fract_y
_atom_site_fract_z
Si Si1 0.438843 0.582321 0.337871
Si Si2 0.061042 0.321151 0.338302
Si Si3 0.938242 0.774693 0.661287
Si Si4 0.061780 0.856647 0.838783
Si Si5 0.060482 0.047320 0.837434
Si Si6 0.563323 0.500000 0.159890
O O1 0.500000 0.578170 0.500000
O O2 0.250000 0.580106 0.340527
O O3 0.487764 0.630998 0.280315
O O4 0.503828 0.543050 0.243255
O O5 0.250000 0.321199 0.339728
O O6 0.011365 0.273561 0.277851
O O7 0.000000 0.320986 0.500000
O O8 0.750000 0.775943 0.659163
O O9 0.000000 0.777573 0.500000
O O10 0.000062 0.815689 0.749907
O O11 0.250000 0.855439 0.840871
O O12 0.011224 0.904928 0.778413
O O13 0.000000 0.853680 0.000000
O O14 0.250000 0.047238 0.839024
O O15 0.009040 0.000000 0.773484
O O16 0.000000 0.047241 0.000000
O O17 0.750000 0.500000 0.158217
O O18 0.500000 0.500000 0.000000
#
# Coordination Sequence:
#
# PCOD9400746 Si02
#       6
#     8   8   8   8   8   4
#     4  10  19  35  58  83 106 132 168 209 248 290
#     4   8  16  30  51  76 101 128 163 205 246 288
#     4  10  19  33  52  75 102 133 167 204 247 296
#     4  10  19  31  48  72 100 130 164 204 249 297
#     4   8  14  25  42  64  90 120 156 199 245 291
#     4  12  25  40  55  76 106 140 172 206 251 300
#
# _framework density 18.085878000000001
#
# number of rings (size 3 to 8) (size 9 to 14) (size 15 to 20)
#    0.000    2.545    0.000    2.727    0.000    2.182 
#    0.000    0.909    0.000    0.545    0.000    0.000 
#    0.000    0.000    0.000    0.000    0.000    0.000 
#
# Total GULP energy -244978.896672 kJ/mol
# GULP energy per Si atom -5567.702197 kJ/mol
# Density = 1.804471 g / cm^3
# Si number density = 18.085878 Si / 1000 Ang^3
#
#
#
# Elastic Constant Matrix: (Units=GPa)
#
#
# Indices 1 2 3 4 5 6 
#
# 1 52.0709 51.7167 19.8984 0.0000 0.0000 0.0000
# 2 51.7167 260.6082 71.3612 0.0000 0.0000 0.0000
# 3 19.8984 71.3612 48.6537 0.0000 0.0000 0.0000
# 4 0.0000 0.0000 0.0000 24.5617 0.0000 0.0000
# 5 0.0000 0.0000 0.0000 0.0000 25.2554 0.0000
# 6 0.0000 0.0000 0.0000 0.0000 0.0000 23.0776
#
#
#
# Elastic Compliance Matrix: (Units=1/GPa)
#
#
# Indices 1 2 3 4 5 6 
#
# 1 0.024584 -0.003552 -0.004844 0.000000 0.000000 0.000000
# 2 -0.003552 0.006926 -0.008706 0.000000 0.000000 0.000000
# 3 -0.004844 -0.008706 0.035303 0.000000 0.000000 0.000000
# 4 0.000000 0.000000 0.000000 0.040714 0.000000 0.000000
# 5 0.000000 0.000000 0.000000 0.000000 0.039596 0.000000
# 6 0.000000 0.000000 0.000000 0.000000 0.000000 0.043332
#
#
# Mechanical properties :
#
#
# Convention : Reuss Voigt Hill
#
# Bulk Modulus (GPa) = 30.66661 71.92061 51.29361
# Shear Modulus (GPa) = 21.22891 29.13605 25.18248
#
# Velocity S-wave (km/s) = 3.42977 4.01806 3.73551
# Velocity P-wave (km/s) = 5.71641 7.83447 6.85771
#
# Compressibility (1/GPa) = 0.03260876
#
# Stress axis : x y z
#
# Youngs Moduli (GPa) = 40.67740 144.38620 28.32594
#
# Poissons Ratio (x) = 0.51286 0.13722
# Poissons Ratio (y) = 0.14449 0.24659
# Poissons Ratio (z) = 0.19706 1.25697
#
# Static dielectric constant tensor:
#      x y z
#    x 1.624590 0.000000 0.000000 
#    y 0.000000 1.708550 0.000000 
#    z 0.000000 0.000000 1.567910 
# 
# From -- ./inp_files/5778.got.cif
#   From: 2010.05.17/outbox.cif.g08.bks.cpg/sg51_3_cif.got.tgz:5778.got - 2010.06.03 11:52:47.
