data_PCOD9400551
_publ_section_title
;
Structure prediction by ZEFSAII (Michael W. Deem and Ramdas Pophale) SiO2 
 PCOD9400551
Probable space group: P M M A
;
_chemical_formula_sum "Si O2"
_cell_formula_units_Z 64
_cell_length_a 19.711463
_cell_length_b 19.133340
_cell_length_c 9.661265
_cell_angle_alpha 90.000000
_cell_angle_beta 90.000000
_cell_angle_gamma 90.000000
_cell_volume 3643.708643
_symmetry_space_group_name_H-M "P M M A"
_symmetry_group_IT_number 51
_symmetry_cell_setting 'orthorhombic'
loop_
_space_group_symop_operation_xyz
x,y,z
1/2-x,-y,z
1/2+x,-y,-z
-x,y,-z
-x,-y,-z
1/2+x,y,-z
1/2-x,y,z
x,-y,z
loop_
_atom_site_type_symbol
_atom_site_label
_atom_site_fract_x
_atom_site_fract_y
_atom_site_fract_z
Si Si1 0.918360 0.420901 0.152076
Si Si2 0.911046 0.292737 0.644416
Si Si3 0.172118 0.079399 0.601618
Si Si4 0.416698 0.421505 0.167716
Si Si5 0.928824 0.862670 0.182010
Si Si6 0.574010 0.082713 0.873409
Si Si7 0.330064 0.843346 0.318761
Si Si8 0.074273 0.713845 0.677955
O O1 0.896355 0.500000 0.191325
O O2 0.898541 0.355227 0.245225
O O3 0.000772 0.421352 0.162839
O O4 0.897723 0.408343 0.992495
O O5 0.892110 0.363950 0.723887
O O6 0.870821 0.227796 0.708030
O O7 0.899156 0.289087 0.479429
O O8 0.992126 0.287217 0.666088
O O9 0.250000 0.091180 0.646957
O O10 0.120125 0.090160 0.725376
O O11 0.156923 0.131246 0.475633
O O12 0.167532 0.000000 0.549296
O O13 0.395372 0.500000 0.205827
O O14 0.913163 0.784097 0.233683
O O15 0.007516 0.884882 0.201813
O O16 0.917967 0.878169 0.020142
O O17 0.639114 0.098384 0.781312
O O18 0.563864 0.000000 0.895182
O O19 0.250000 0.834568 0.300958
#
# Coordination Sequence:
#
# PCOD9400551 Si02
#       8
#     8   8   8   8   8   8   8   8
#     4   8  15  27  45  76 111 145 175 207 261 323
#     4  10  19  33  49  78 110 138 180 219 269 320
#     4  10  21  38  59  79 105 144 184 223 271 326
#     4   8  15  27  48  74 108 144 175 212 262 322
#     4  11  21  37  57  83 113 140 180 224 273 331
#     4  11  24  38  56  82 109 142 180 230 283 330
#     4  11  23  39  56  77 107 143 184 231 276 327
#     4  10  19  30  52  79 110 144 173 221 268 319
#
# _framework density 17.564520999999999
#
# number of rings (size 3 to 8) (size 9 to 14) (size 15 to 20)
#    0.000    2.125    2.500    2.625    1.750    3.250 
#    0.000    3.750    0.000    0.375    0.000    0.000 
#    0.000    0.500    0.000    0.000    0.000    0.000 
#
# Total GULP energy -356601.218307 kJ/mol
# GULP energy per Si atom -5571.894036 kJ/mol
# Density = 1.752454 g / cm^3
# Si number density = 17.564521 Si / 1000 Ang^3
#
#
#
# Elastic Constant Matrix: (Units=GPa)
#
#
# Indices 1 2 3 4 5 6 
#
# 1 32.7801 16.6553 29.4421 0.0000 0.0000 0.0000
# 2 16.6553 138.9655 60.7039 0.0000 0.0000 0.0000
# 3 29.4421 60.7039 71.0413 0.0000 0.0000 0.0000
# 4 0.0000 0.0000 0.0000 33.6293 0.0000 0.0000
# 5 0.0000 0.0000 0.0000 0.0000 15.2669 0.0000
# 6 0.0000 0.0000 0.0000 0.0000 0.0000 13.4594
#
#
#
# Elastic Compliance Matrix: (Units=1/GPa)
#
#
# Indices 1 2 3 4 5 6 
#
# 1 0.050638 0.004943 -0.025210 0.000000 0.000000 0.000000
# 2 0.004943 0.011964 -0.012272 0.000000 0.000000 0.000000
# 3 -0.025210 -0.012272 0.035011 0.000000 0.000000 0.000000
# 4 0.000000 0.000000 0.000000 0.029736 0.000000 0.000000
# 5 0.000000 0.000000 0.000000 0.000000 0.065501 0.000000
# 6 0.000000 0.000000 0.000000 0.000000 0.000000 0.074298
#
#
# Mechanical properties :
#
#
# Convention : Reuss Voigt Hill
#
# Bulk Modulus (GPa) = 30.73618 50.70994 40.72306
# Shear Modulus (GPa) = 14.57429 21.53684 18.05556
#
# Velocity S-wave (km/s) = 2.88368 3.50545 3.20965
# Velocity P-wave (km/s) = 5.35018 6.73183 6.08038
#
# Compressibility (1/GPa) = 0.03253495
#
# Stress axis : x y z
#
# Youngs Moduli (GPa) = 19.74819 83.58167 28.56271
#
# Poissons Ratio (x) = -0.41318 0.72007
# Poissons Ratio (y) = -0.09762 0.35053
# Poissons Ratio (z) = 0.49785 1.02572
#
# Static dielectric constant tensor:
#      x y z
#    x 1.579730 0.000000 0.000000 
#    y 0.000000 1.613370 0.000000 
#    z 0.000000 0.000000 1.590710 
# 
# From -- ./inp_files/11225.got.cif
#   From: 2010.05.17/outbox.cif.g08.bks.cpg/sg51_6_cif.got.tgz:11225.got - 2010.06.03 11:52:47.
