data_PCOD9400763
_publ_section_title
;
Structure prediction by ZEFSAII (Michael W. Deem and Ramdas Pophale) SiO2 
 PCOD9400763
Probable space group: P M M A
;
_chemical_formula_sum "Si O2"
_cell_formula_units_Z 56
_cell_length_a 8.663764
_cell_length_b 23.163074
_cell_length_c 15.228245
_cell_angle_alpha 90.000000
_cell_angle_beta 90.000000
_cell_angle_gamma 90.000000
_cell_volume 3055.995171
_symmetry_space_group_name_H-M "P M M A"
_symmetry_group_IT_number 51
_symmetry_cell_setting 'orthorhombic'
loop_
_space_group_symop_operation_xyz
x,y,z
1/2-x,-y,z
1/2+x,-y,-z
-x,y,-z
-x,-y,-z
1/2+x,y,-z
1/2-x,y,z
x,-y,z
loop_
_atom_site_type_symbol
_atom_site_label
_atom_site_fract_x
_atom_site_fract_y
_atom_site_fract_z
Si Si1 0.435513 0.241461 0.594992
Si Si2 0.435942 0.433560 0.405168
Si Si3 0.934057 0.836626 0.904262
Si Si4 0.065376 0.893674 0.592604
Si Si5 0.064672 0.334390 0.271510
Si Si6 0.434162 0.709437 0.903705
Si Si7 0.063442 0.064488 0.780922
O O1 0.500000 0.260310 0.500000
O O2 0.250000 0.246291 0.596234
O O3 0.478086 0.173872 0.605027
O O4 0.507027 0.279896 0.671539
O O5 0.500000 0.414998 0.500000
O O6 0.250000 0.432382 0.409786
O O7 0.484940 0.500000 0.390382
O O8 0.483196 0.390557 0.327712
O O9 0.750000 0.831395 0.907795
O O10 0.005408 0.774107 0.882482
O O11 0.985820 0.885321 0.836599
O O12 0.000000 0.852236 0.000000
O O13 0.250000 0.895891 0.587014
O O14 0.017996 0.927946 0.679088
O O15 0.000000 0.914253 0.500000
O O16 0.250000 0.333039 0.265276
O O17 0.993503 0.330704 0.174792
O O18 0.250000 0.710087 0.907153
O O19 0.500000 0.694518 0.000000
O O20 0.250000 0.070998 0.786080
O O21 0.023748 0.000000 0.811593
#
# Coordination Sequence:
#
# PCOD9400763 Si02
#       7
#     8   8   8   8   8   8   8
#     4  10  19  31  48  73 106 140 176 220 271 324
#     4   9  19  35  54  78 112 153 193 231 268 310
#     4  11  22  38  60  83 108 137 171 213 266 324
#     4   9  19  34  51  71  98 134 172 213 260 311
#     4  11  21  33  53  81 111 143 182 225 271 320
#     4  11  22  38  59  83 111 140 174 216 267 324
#     4  10  21  37  55  76 104 138 177 220 265 315
#
# _framework density 18.324636000000002
#
# number of rings (size 3 to 8) (size 9 to 14) (size 15 to 20)
#    0.000    1.857    0.000    5.571    0.000    5.429 
#    0.000    0.000    0.000    0.429    0.000    0.000 
#    0.000    0.000    0.000    0.000    0.000    0.000 
#
# Total GULP energy -312864.839133 kJ/mol
# GULP energy per Si atom -5586.872127 kJ/mol
# Density = 1.828293 g / cm^3
# Si number density = 18.324636 Si / 1000 Ang^3
#
#
#
# Elastic Constant Matrix: (Units=GPa)
#
#
# Indices 1 2 3 4 5 6 
#
# 1 79.1368 34.8845 47.3637 0.0000 0.0000 0.0000
# 2 34.8845 64.5820 69.0259 0.0000 0.0000 0.0000
# 3 47.3637 69.0259 137.7271 0.0000 0.0000 0.0000
# 4 0.0000 0.0000 0.0000 67.9676 0.0000 0.0000
# 5 0.0000 0.0000 0.0000 0.0000 34.5622 0.0000
# 6 0.0000 0.0000 0.0000 0.0000 0.0000 91.7863
#
#
#
# Elastic Compliance Matrix: (Units=1/GPa)
#
#
# Indices 1 2 3 4 5 6 
#
# 1 0.017034 -0.006332 -0.002685 0.000000 0.000000 0.000000
# 2 -0.006332 0.035701 -0.015715 0.000000 0.000000 0.000000
# 3 -0.002685 -0.015715 0.016060 0.000000 0.000000 0.000000
# 4 0.000000 0.000000 0.000000 0.014713 0.000000 0.000000
# 5 0.000000 0.000000 0.000000 0.000000 0.028933 0.000000
# 6 0.000000 0.000000 0.000000 0.000000 0.000000 0.010895
#
#
# Mechanical properties :
#
#
# Convention : Reuss Voigt Hill
#
# Bulk Modulus (GPa) = 51.72747 64.88823 58.30785
# Shear Modulus (GPa) = 27.89511 47.54133 37.71822
#
# Velocity S-wave (km/s) = 3.90587 5.09905 4.54181
# Velocity P-wave (km/s) = 6.97357 8.37581 7.70665
#
# Compressibility (1/GPa) = 0.01933209
#
# Stress axis : x y z
#
# Youngs Moduli (GPa) = 58.70526 28.01064 62.26665
#
# Poissons Ratio (x) = 0.17736 0.16716
# Poissons Ratio (y) = 0.37171 0.97852
# Poissons Ratio (z) = 0.15760 0.44019
#
# Static dielectric constant tensor:
#      x y z
#    x 1.616000 0.000000 0.000000 
#    y 0.000000 1.632500 0.000000 
#    z 0.000000 0.000000 1.634470 
# 
# From -- ./inp_files/21725.got.cif
#   From: 2010.05.17/outbox.cif.g08.bks.cpg/sg51_11_cif.got.tgz:21725.got - 2010.06.03 11:52:47.
