data_PCOD9400117
_publ_section_title
;
Structure prediction by ZEFSAII (Michael W. Deem and Ramdas Pophale) SiO2 
 PCOD9400117
Probable space group: P M M A
;
_chemical_formula_sum "Si O2"
_cell_formula_units_Z 36
_cell_length_a 8.722228
_cell_length_b 18.842269
_cell_length_c 14.718568
_cell_angle_alpha 90.000000
_cell_angle_beta 90.000000
_cell_angle_gamma 90.000000
_cell_volume 2418.946111
_symmetry_space_group_name_H-M "P M M A"
_symmetry_group_IT_number 51
_symmetry_cell_setting 'orthorhombic'
loop_
_space_group_symop_operation_xyz
x,y,z
1/2-x,-y,z
1/2+x,-y,-z
-x,y,-z
-x,-y,-z
1/2+x,y,-z
1/2-x,y,z
x,-y,z
loop_
_atom_site_type_symbol
_atom_site_label
_atom_site_fract_x
_atom_site_fract_y
_atom_site_fract_z
Si Si1 0.567051 0.500000 0.898785
Si Si2 0.066225 0.223811 0.897965
Si Si3 0.065776 0.582765 0.596189
Si Si4 0.433763 0.077492 0.102484
Si Si5 0.564570 0.634209 0.209130
O O1 0.750000 0.500000 0.902273
O O2 0.507600 0.569452 0.846404
O O3 0.500000 0.500000 0.000000
O O4 0.250000 0.219996 0.904399
O O5 0.023043 0.291271 0.836951
O O6 0.003517 0.149571 0.858050
O O7 0.000000 0.232751 0.000000
O O8 0.250000 0.584059 0.591066
O O9 0.018926 0.500000 0.608933
O O10 0.018616 0.625989 0.685492
O O11 0.000000 0.607503 0.500000
O O12 0.250000 0.083459 0.098559
O O13 0.472068 0.000000 0.143644
O O14 0.500000 0.075937 0.000000
O O15 0.750000 0.627147 0.204741
#
# Coordination Sequence:
#
# PCOD9400117 Si02
#       5
#     4   8   8   8   8
#     4  12  24  34  47  64  85 118 157 190 220 258
#     4  10  19  29  44  63  87 119 151 182 218 257
#     4   9  17  31  50  67  87 111 140 183 228 270
#     4   9  16  26  41  60  84 114 146 180 217 255
#     4  10  20  35  49  64  89 119 149 185 227 264
#
# _framework density 14.882514
#
# number of rings (size 3 to 8) (size 9 to 14) (size 15 to 20)
#    0.000    2.222    1.111    4.333    0.000    5.778 
#    0.000    0.000    0.000    0.000    0.000    0.000 
#    0.000    0.889    0.000    2.000    0.000    4.000 
#
# Total GULP energy -200652.164109 kJ/mol
# GULP energy per Si atom -5573.671225 kJ/mol
# Density = 1.484864 g / cm^3
# Si number density = 14.882514 Si / 1000 Ang^3
#
#
#
# Elastic Constant Matrix: (Units=GPa)
#
#
# Indices 1 2 3 4 5 6 
#
# 1 35.0103 45.4655 27.7790 0.0000 0.0000 0.0000
# 2 45.4655 153.0355 66.3374 0.0000 0.0000 0.0000
# 3 27.7790 66.3374 103.3854 0.0000 0.0000 0.0000
# 4 0.0000 0.0000 0.0000 3.3381 0.0000 0.0000
# 5 0.0000 0.0000 0.0000 0.0000 19.3043 0.0000
# 6 0.0000 0.0000 0.0000 0.0000 0.0000 22.2185
#
#
#
# Elastic Compliance Matrix: (Units=1/GPa)
#
#
# Indices 1 2 3 4 5 6 
#
# 1 0.048473 -0.012129 -0.005242 0.000000 0.000000 0.000000
# 2 -0.012129 0.012087 -0.004497 0.000000 0.000000 0.000000
# 3 -0.005242 -0.004497 0.013966 0.000000 0.000000 0.000000
# 4 0.000000 0.000000 0.000000 0.299569 0.000000 0.000000
# 5 0.000000 0.000000 0.000000 0.000000 0.051802 0.000000
# 6 0.000000 0.000000 0.000000 0.000000 0.000000 0.045008
#
#
# Mechanical properties :
#
#
# Convention : Reuss Voigt Hill
#
# Bulk Modulus (GPa) = 32.47650 63.39945 47.93798
# Shear Modulus (GPa) = 9.52557 19.09547 14.31052
#
# Velocity S-wave (km/s) = 2.53267 3.58590 3.10428
# Velocity P-wave (km/s) = 5.51560 7.73546 6.71786
#
# Compressibility (1/GPa) = 0.03079150
#
# Stress axis : x y z
#
# Youngs Moduli (GPa) = 20.63014 82.73378 71.60051
#
# Poissons Ratio (x) = 1.00344 0.37533
# Poissons Ratio (y) = 0.25021 0.32197
# Poissons Ratio (z) = 0.10814 0.37203
#
# Static dielectric constant tensor:
#      x y z
#    x 1.503550 0.000000 0.000000 
#    y 0.000000 1.520180 0.000000 
#    z 0.000000 0.000000 1.470220 
# 
# From -- ./inp_files/20773.got.cif
#   From: 2010.05.17/outbox.cif.g08.bks.cpg/sg51_11_cif.got.tgz:20773.got - 2010.06.03 11:52:47.
