data_PCOD9400116
_publ_section_title
;
Structure prediction by ZEFSAII (Michael W. Deem and Ramdas Pophale) SiO2 
 PCOD9400116
Probable space group: P M M A
;
_chemical_formula_sum "Si O2"
_cell_formula_units_Z 64
_cell_length_a 25.488713
_cell_length_b 9.156458
_cell_length_c 17.548955
_cell_angle_alpha 90.000000
_cell_angle_beta 90.000000
_cell_angle_gamma 90.000000
_cell_volume 4095.686204
_symmetry_space_group_name_H-M "P M M A"
_symmetry_group_IT_number 51
_symmetry_cell_setting 'orthorhombic'
loop_
_space_group_symop_operation_xyz
x,y,z
1/2-x,-y,z
1/2+x,-y,-z
-x,y,-z
-x,-y,-z
1/2+x,y,-z
1/2-x,y,z
x,-y,z
loop_
_atom_site_type_symbol
_atom_site_label
_atom_site_fract_x
_atom_site_fract_y
_atom_site_fract_z
Si Si1 0.563722 0.168507 0.493392
Si Si2 0.895621 0.173957 0.821993
Si Si3 0.504484 0.174131 0.089682
Si Si4 0.058652 0.175911 0.339572
Si Si5 0.099698 0.325696 0.821927
Si Si6 0.445460 0.673524 0.658224
Si Si7 0.811710 0.327053 0.924404
Si Si8 0.811990 0.172886 0.085109
O O1 0.500000 0.172956 0.500000
O O2 0.581869 0.216213 0.577578
O O3 0.577808 0.264018 0.420437
O O4 0.578625 0.000000 0.480412
O O5 0.949473 0.204131 0.868106
O O6 0.906292 0.209613 0.733634
O O7 0.848673 0.262794 0.859358
O O8 0.885548 0.000000 0.828414
O O9 0.550999 0.262221 0.129657
O O10 0.515038 0.000000 0.097121
O O11 0.500000 0.207853 0.000000
O O12 0.002335 0.252177 0.330606
O O13 0.050097 0.000000 0.341046
O O14 0.102716 0.500000 0.831926
O O15 0.088441 0.294334 0.733160
O O16 0.151830 0.249228 0.852651
O O17 0.452293 0.500000 0.652081
O O18 0.750000 0.302476 0.908313
O O19 0.819948 0.500000 0.933856
O O20 0.824365 0.244722 0.003304
O O21 0.750000 0.194740 0.099325
O O22 0.822460 0.000000 0.081963
#
# Coordination Sequence:
#
# PCOD9400116 Si02
#       8
#     8   8   8   8   8   8   8   8
#     4   8  15  27  44  64  90 126 164 197 234 280
#     4  10  19  31  49  72  99 130 164 203 242 283
#     4  10  20  32  47  68  95 129 165 197 235 286
#     4   9  17  30  46  67  95 129 164 197 238 284
#     4  11  22  33  48  72 100 130 160 195 241 292
#     4  10  19  29  43  68  99 129 161 194 234 285
#     4  10  21  36  53  73  98 127 160 202 249 291
#     4  10  21  37  56  74  92 121 164 208 246 285
#
# _framework density 15.626198
#
# number of rings (size 3 to 8) (size 9 to 14) (size 15 to 20)
#    0.000    2.250    1.250    3.000    0.000    7.500 
#    0.000    0.000    0.000    0.000    0.000    0.875 
#    0.000    1.000    0.000    0.000    0.000    0.000 
#
# Total GULP energy -356989.500162 kJ/mol
# GULP energy per Si atom -5577.960940 kJ/mol
# Density = 1.559063 g / cm^3
# Si number density = 15.626198 Si / 1000 Ang^3
#
#
#
# Elastic Constant Matrix: (Units=GPa)
#
#
# Indices 1 2 3 4 5 6 
#
# 1 51.7384 47.2084 61.5039 0.0000 0.0000 0.0000
# 2 47.2084 65.7119 75.0691 0.0000 0.0000 0.0000
# 3 61.5039 75.0691 162.5513 0.0000 0.0000 0.0000
# 4 0.0000 0.0000 0.0000 26.1455 0.0000 0.0000
# 5 0.0000 0.0000 0.0000 0.0000 15.4367 0.0000
# 6 0.0000 0.0000 0.0000 0.0000 0.0000 24.1829
#
#
#
# Elastic Compliance Matrix: (Units=1/GPa)
#
#
# Indices 1 2 3 4 5 6 
#
# 1 0.058560 -0.035473 -0.005775 0.000000 0.000000 0.000000
# 2 -0.035473 0.053701 -0.011378 0.000000 0.000000 0.000000
# 3 -0.005775 -0.011378 0.013592 0.000000 0.000000 0.000000
# 4 0.000000 0.000000 0.000000 0.038248 0.000000 0.000000
# 5 0.000000 0.000000 0.000000 0.000000 0.064781 0.000000
# 6 0.000000 0.000000 0.000000 0.000000 0.000000 0.041351
#
#
# Mechanical properties :
#
#
# Convention : Reuss Voigt Hill
#
# Bulk Modulus (GPa) = 48.54384 71.95159 60.24772
# Shear Modulus (GPa) = 13.07698 19.56772 16.32235
#
# Velocity S-wave (km/s) = 2.89600 3.54254 3.23546
# Velocity P-wave (km/s) = 6.50504 7.92958 7.25237
#
# Compressibility (1/GPa) = 0.02059994
#
# Stress axis : x y z
#
# Youngs Moduli (GPa) = 17.07640 18.62178 73.57481
#
# Poissons Ratio (x) = 0.66057 0.42490
# Poissons Ratio (y) = 0.60575 0.83714
# Poissons Ratio (z) = 0.09862 0.21188
#
# Static dielectric constant tensor:
#      x y z
#    x 1.492220 0.000000 0.000000 
#    y 0.000000 1.519250 0.000000 
#    z 0.000000 0.000000 1.537230 
# 
# From -- ./inp_files/30871.got.cif
#   From: 2010.05.17/outbox.cif.g08.bks.cpg/sg51_16_cif.got.tgz:30871.got - 2010.06.03 11:52:47.
