data_PCOD9400218
_publ_section_title
;
Structure prediction by ZEFSAII (Michael W. Deem and Ramdas Pophale) SiO2 
 PCOD9400218
Probable space group: P M M A
;
_chemical_formula_sum "Si O2"
_cell_formula_units_Z 64
_cell_length_a 29.409365
_cell_length_b 9.048641
_cell_length_c 15.929149
_cell_angle_alpha 90.000000
_cell_angle_beta 90.000000
_cell_angle_gamma 90.000000
_cell_volume 4238.982076
_symmetry_space_group_name_H-M "P M M A"
_symmetry_group_IT_number 51
_symmetry_cell_setting 'orthorhombic'
loop_
_space_group_symop_operation_xyz
x,y,z
1/2-x,-y,z
1/2+x,-y,-z
-x,y,-z
-x,-y,-z
1/2+x,y,-z
1/2-x,y,z
x,-y,z
loop_
_atom_site_type_symbol
_atom_site_label
_atom_site_fract_x
_atom_site_fract_y
_atom_site_fract_z
Si Si1 0.395490 0.678299 0.340239
Si Si2 0.300861 0.322187 0.411195
Si Si3 0.053221 0.822637 0.496729
Si Si4 0.198762 0.177510 0.593564
Si Si5 0.944784 0.829939 0.001255
Si Si6 0.104681 0.177720 0.670012
Si Si7 0.946609 0.677538 0.828363
Si Si8 0.553817 0.676477 0.174665
O O1 0.398723 0.500000 0.344113
O O2 0.342652 0.720372 0.351772
O O3 0.422645 0.745060 0.418652
O O4 0.417797 0.725015 0.252495
O O5 0.250000 0.279832 0.382565
O O6 0.301804 0.500000 0.420022
O O7 0.308135 0.251429 0.502781
O O8 0.077650 0.784113 0.584382
O O9 0.000000 0.783923 0.500000
O O10 0.056982 0.000000 0.486425
O O11 0.250000 0.215081 0.622408
O O12 0.157330 0.218979 0.654116
O O13 0.196483 0.000000 0.582557
O O14 0.930826 0.752913 0.914536
O O15 0.930152 0.000000 0.004679
O O16 0.931211 0.743920 0.085381
O O17 0.000000 0.827212 0.000000
O O18 0.082085 0.255977 0.749024
O O19 0.101752 0.000000 0.680765
O O20 0.943397 0.500000 0.837499
O O21 0.000046 0.712835 0.814148
O O22 0.557892 0.500000 0.172943
#
# Coordination Sequence:
#
# PCOD9400218 Si02
#       8
#     8   8   8   8   8   8   8   8
#     4  10  19  30  45  65  90 121 154 187 223 267
#     4   9  17  29  45  65  88 115 150 192 232 266
#     4  10  20  31  42  60  90 125 157 188 221 259
#     4   9  17  30  47  64  84 114 152 193 234 271
#     4   9  17  30  48  68  89 115 147 185 228 268
#     4  10  19  30  43  63  90 119 151 187 225 267
#     4   9  18  31  45  65  92 120 151 185 222 267
#     4  10  19  30  46  66  90 120 151 184 222 267
#
# _framework density 15.097965
#
# number of rings (size 3 to 8) (size 9 to 14) (size 15 to 20)
#    0.000    2.500    1.250    1.500    0.000    3.750 
#    0.000    0.000    0.000    0.000    0.000    0.875 
#    0.000    3.000    0.000    0.000    0.000    0.000 
#
# Total GULP energy -356733.867351 kJ/mol
# GULP energy per Si atom -5573.966677 kJ/mol
# Density = 1.506360 g / cm^3
# Si number density = 15.097965 Si / 1000 Ang^3
#
#
#
# Elastic Constant Matrix: (Units=GPa)
#
#
# Indices 1 2 3 4 5 6 
#
# 1 110.4032 38.1524 79.7877 0.0000 0.0000 0.0000
# 2 38.1524 27.0580 48.4749 0.0000 0.0000 0.0000
# 3 79.7877 48.4749 148.7734 0.0000 0.0000 0.0000
# 4 0.0000 0.0000 0.0000 22.0254 0.0000 0.0000
# 5 0.0000 0.0000 0.0000 0.0000 8.7386 0.0000
# 6 0.0000 0.0000 0.0000 0.0000 0.0000 11.2372
#
#
#
# Elastic Compliance Matrix: (Units=1/GPa)
#
#
# Indices 1 2 3 4 5 6 
#
# 1 0.018350 -0.019803 -0.003389 0.000000 0.000000 0.000000
# 2 -0.019803 0.110155 -0.025271 0.000000 0.000000 0.000000
# 3 -0.003389 -0.025271 0.016773 0.000000 0.000000 0.000000
# 4 0.000000 0.000000 0.000000 0.045402 0.000000 0.000000
# 5 0.000000 0.000000 0.000000 0.000000 0.114434 0.000000
# 6 0.000000 0.000000 0.000000 0.000000 0.000000 0.088990
#
#
# Mechanical properties :
#
#
# Convention : Reuss Voigt Hill
#
# Bulk Modulus (GPa) = 20.68182 68.78498 44.73340
# Shear Modulus (GPa) = 9.85904 16.38820 13.12362
#
# Velocity S-wave (km/s) = 2.55817 3.29820 2.95147
# Velocity P-wave (km/s) = 4.73854 7.75643 6.42713
#
# Compressibility (1/GPa) = 0.04835163
#
# Stress axis : x y z
#
# Youngs Moduli (GPa) = 54.49520 9.07814 59.61882
#
# Poissons Ratio (x) = 0.17978 0.20204
# Poissons Ratio (y) = 1.07918 1.50664
# Poissons Ratio (z) = 0.18467 0.22942
#
# Static dielectric constant tensor:
#      x y z
#    x 1.511610 0.000000 0.000000 
#    y 0.000000 1.503500 0.000000 
#    z 0.000000 0.000000 1.469280 
# 
# From -- ./inp_files/26565.got.cif
#   From: 2010.05.17/outbox.cif.g08.bks.cpg/sg51_14_cif.got.tgz:26565.got - 2010.06.03 11:52:47.
