data_PCOD9400065
_publ_section_title
;
Structure prediction by ZEFSAII (Michael W. Deem and Ramdas Pophale) SiO2 
 PCOD9400065
Probable space group: P M M A
;
_chemical_formula_sum "Si O2"
_cell_formula_units_Z 64
_cell_length_a 14.292779
_cell_length_b 9.117174
_cell_length_c 32.246027
_cell_angle_alpha 90.000000
_cell_angle_beta 90.000000
_cell_angle_gamma 90.000000
_cell_volume 4201.971816
_symmetry_space_group_name_H-M "P M M A"
_symmetry_group_IT_number 51
_symmetry_cell_setting 'orthorhombic'
loop_
_space_group_symop_operation_xyz
x,y,z
1/2-x,-y,z
1/2+x,-y,-z
-x,y,-z
-x,-y,-z
1/2+x,y,-z
1/2-x,y,z
x,-y,z
loop_
_atom_site_type_symbol
_atom_site_label
_atom_site_fract_x
_atom_site_fract_y
_atom_site_fract_z
Si Si1 0.860024 0.676139 0.186210
Si Si2 0.359440 0.174438 0.064044
Si Si3 0.355560 0.822052 0.479592
Si Si4 0.361363 0.671938 0.977894
Si Si5 0.025259 0.323499 0.895446
Si Si6 0.861193 0.674972 0.356490
Si Si7 0.136416 0.831344 0.728783
Si Si8 0.042693 0.177368 0.565297
O O1 0.750000 0.710418 0.179013
O O2 0.866229 0.500000 0.191343
O O3 0.920704 0.719095 0.146328
O O4 0.891916 0.754220 0.228392
O O5 0.250000 0.210316 0.070297
O O6 0.425684 0.248658 0.097807
O O7 0.370213 0.000000 0.064366
O O8 0.386390 0.237353 0.018754
O O9 0.250000 0.768809 0.472084
O O10 0.392327 0.784002 0.525640
O O11 0.436977 0.778321 0.447496
O O12 0.353612 0.000000 0.478420
O O13 0.250000 0.686019 0.971291
O O14 0.381619 0.500000 0.986009
O O15 0.413686 0.716192 0.936037
O O16 0.015869 0.500000 0.895327
O O17 0.750000 0.706748 0.362158
O O18 0.872336 0.500000 0.355826
O O19 0.891030 0.743618 0.312446
O O20 0.918264 0.746760 0.393897
O O21 0.250000 0.830262 0.729164
O O22 0.105533 0.000000 0.726906
O O23 0.045383 0.000000 0.569813
#
# Coordination Sequence:
#
# PCOD9400065 Si02
#       8
#     8   8   8   8   8   8   8   8
#     4   9  17  30  47  68  95 120 140 168 210 260
#     4  10  21  34  45  60  85 116 149 186 224 254
#     4   8  14  25  41  62  89 119 150 185 224 263
#     4   9  17  30  47  66  89 116 145 176 210 253
#     4  10  19  30  47  69  89 114 147 177 210 256
#     4  10  19  29  42  62  89 119 148 181 222 261
#     4   9  17  29  45  65  89 117 147 176 208 253
#     4   9  16  26  43  65  86 114 153 190 221 258
#
# _framework density 15.230945
#
# number of rings (size 3 to 8) (size 9 to 14) (size 15 to 20)
#    0.000    2.750    0.000    3.000    0.000    7.500 
#    0.000    1.250    0.000    4.875    0.000    0.875 
#    0.000    5.000    0.000    0.000    0.000    0.000 
#
# Total GULP energy -356733.457990 kJ/mol
# GULP energy per Si atom -5573.960281 kJ/mol
# Density = 1.519628 g / cm^3
# Si number density = 15.230945 Si / 1000 Ang^3
#
#
#
# Elastic Constant Matrix: (Units=GPa)
#
#
# Indices 1 2 3 4 5 6 
#
# 1 88.6939 39.1196 73.8913 0.0000 0.0000 0.0000
# 2 39.1196 38.4569 56.7001 0.0000 0.0000 0.0000
# 3 73.8913 56.7001 144.6139 0.0000 0.0000 0.0000
# 4 0.0000 0.0000 0.0000 29.9221 0.0000 0.0000
# 5 0.0000 0.0000 0.0000 0.0000 25.1716 0.0000
# 6 0.0000 0.0000 0.0000 0.0000 0.0000 16.8080
#
#
#
# Elastic Compliance Matrix: (Units=1/GPa)
#
#
# Indices 1 2 3 4 5 6 
#
# 1 0.022426 -0.014026 -0.005959 0.000000 0.000000 0.000000
# 2 -0.014026 0.070402 -0.020437 0.000000 0.000000 0.000000
# 3 -0.005959 -0.020437 0.017973 0.000000 0.000000 0.000000
# 4 0.000000 0.000000 0.000000 0.033420 0.000000 0.000000
# 5 0.000000 0.000000 0.000000 0.000000 0.039727 0.000000
# 6 0.000000 0.000000 0.000000 0.000000 0.000000 0.059496
#
#
# Mechanical properties :
#
#
# Convention : Reuss Voigt Hill
#
# Bulk Modulus (GPa) = 33.38132 67.90963 50.64548
# Shear Modulus (GPa) = 14.95784 21.18390 18.07087
#
# Velocity S-wave (km/s) = 3.13720 3.73345 3.44824
# Velocity P-wave (km/s) = 5.92343 7.95414 7.01268
#
# Compressibility (1/GPa) = 0.02995687
#
# Stress axis : x y z
#
# Youngs Moduli (GPa) = 44.59152 14.20413 55.64014
#
# Poissons Ratio (x) = 0.19923 0.33158
# Poissons Ratio (y) = 0.62544 1.13709
# Poissons Ratio (z) = 0.26573 0.29028
#
# Static dielectric constant tensor:
#      x y z
#    x 1.511240 0.000000 0.000000 
#    y 0.000000 1.506970 0.000000 
#    z 0.000000 0.000000 1.484000 
# 
# From -- ./inp_files/37807.got.cif
#   From: 2010.05.17/outbox.cif.g08.bks.cpg/sg51_19_cif.got.tgz:37807.got - 2010.06.03 11:52:47.
