data_PCOD9400508
_publ_section_title
;
Structure prediction by ZEFSAII (Michael W. Deem and Ramdas Pophale) SiO2 
 PCOD9400508
Probable space group: P M M A
;
_chemical_formula_sum "Si O2"
_cell_formula_units_Z 48
_cell_length_a 7.456914
_cell_length_b 17.106101
_cell_length_c 15.694332
_cell_angle_alpha 90.000000
_cell_angle_beta 90.000000
_cell_angle_gamma 90.000000
_cell_volume 2001.948964
_symmetry_space_group_name_H-M "P M M A"
_symmetry_group_IT_number 51
_symmetry_cell_setting 'orthorhombic'
loop_
_space_group_symop_operation_xyz
x,y,z
1/2-x,-y,z
1/2+x,-y,-z
-x,y,-z
-x,-y,-z
1/2+x,y,-z
1/2-x,y,z
x,-y,z
loop_
_atom_site_type_symbol
_atom_site_label
_atom_site_fract_x
_atom_site_fract_y
_atom_site_fract_z
Si Si1 0.959313 0.745556 0.167308
Si Si2 0.464647 0.916728 0.399620
Si Si3 0.458431 0.416084 0.866629
Si Si4 0.532006 0.415823 0.663466
Si Si5 0.037527 0.084125 0.100454
Si Si6 0.049378 0.251387 0.358597
O O1 0.750000 0.729655 0.184882
O O2 0.026802 0.671283 0.111461
O O3 0.968832 0.832798 0.131966
O O4 0.060295 0.745073 0.256543
O O5 0.500000 0.920537 0.500000
O O6 0.250000 0.915172 0.382352
O O7 0.539787 0.832334 0.374257
O O8 0.531396 0.000000 0.363003
O O9 0.250000 0.418546 0.891869
O O10 0.539315 0.500000 0.894398
O O11 0.472909 0.416228 0.762873
O O12 0.750000 0.412516 0.663808
O O13 0.477084 0.500000 0.626896
O O14 0.467714 0.335852 0.619148
O O15 0.250000 0.085170 0.115788
O O16 0.969166 0.000000 0.135075
O O17 0.000000 0.082568 0.000000
O O18 0.250000 0.248182 0.396928
#
# Coordination Sequence:
#
# PCOD9400508 Si02
#       6
#     8   8   8   8   8   8
#     4  10  19  30  48  75 102 126 155 193 233 273
#     4   9  18  32  48  64  84 114 151 188 228 276
#     4   8  14  25  41  63  93 126 155 184 222 267
#     4   8  13  22  38  60  85 114 148 184 221 263
#     4  10  21  37  55  72  93 124 159 194 234 281
#     4   9  17  29  45  67  94 121 151 189 231 273
#
# _framework density 23.976635999999999
#
# number of rings (size 3 to 8) (size 9 to 14) (size 15 to 20)
#    0.000    3.000    0.000    1.000    0.000    3.000 
#    0.000    1.667    0.000    1.000    0.000    0.000 
#    0.000    0.000    0.000    0.000    0.000    0.000 
#
# Total GULP energy -267208.582971 kJ/mol
# GULP energy per Si atom -5566.845479 kJ/mol
# Density = 2.392206 g / cm^3
# Si number density = 23.976636 Si / 1000 Ang^3
#
#
#
# Elastic Constant Matrix: (Units=GPa)
#
#
# Indices 1 2 3 4 5 6 
#
# 1 90.0087 13.0056 -9.2189 0.0000 0.0000 0.0000
# 2 13.0056 341.9629 26.6336 0.0000 0.0000 0.0000
# 3 -9.2189 26.6336 13.6686 0.0000 0.0000 0.0000
# 4 0.0000 0.0000 0.0000 68.4013 0.0000 0.0000
# 5 0.0000 0.0000 0.0000 0.0000 6.7264 0.0000
# 6 0.0000 0.0000 0.0000 0.0000 0.0000 -6.0256
#
#
#
# Elastic Compliance Matrix: (Units=1/GPa)
#
#
# Indices 1 2 3 4 5 6 
#
# 1 0.012425 -0.001327 0.010965 0.000000 0.000000 0.000000
# 2 -0.001327 0.003589 -0.007888 0.000000 0.000000 0.000000
# 3 0.010965 -0.007888 0.095926 0.000000 0.000000 0.000000
# 4 0.000000 0.000000 0.000000 0.014620 0.000000 0.000000
# 5 0.000000 0.000000 0.000000 0.000000 0.148668 0.000000
# 6 0.000000 0.000000 0.000000 0.000000 0.000000 -0.165960
#
#
# Mechanical properties :
#
#
# Convention : Reuss Voigt Hill
#
# Bulk Modulus (GPa) = 8.66248 56.27562 32.46905
# Shear Modulus (GPa) = 34.66245 41.50175 38.08210
#
# Velocity S-wave (km/s) = 3.80633 4.16495 3.98967
# Velocity P-wave (km/s) = 4.78939 6.83016 5.89870
#
# Compressibility (1/GPa) = 0.11544042
#
# Stress axis : x y z
#
# Youngs Moduli (GPa) = 80.48446 278.62057 10.42467
#
# Poissons Ratio (x) = 0.36960 -0.11430
# Poissons Ratio (y) = 0.10676 0.08223
# Poissons Ratio (z) = -0.88250 2.19781
#
# Static dielectric constant tensor:
#      x y z
#    x 2.069460 0.000000 0.000000 
#    y 0.000000 2.089050 0.000000 
#    z 0.000000 0.000000 1.864460 
# 
# From -- ./inp_files/31562.got.cif
#   From: 2010.05.17/outbox.cif.g08.bks.cpg/sg51_16_cif.got.tgz:31562.got - 2010.06.03 11:52:47.
