data_PCOD9400007
_publ_section_title
;
Structure prediction by ZEFSAII (Michael W. Deem and Ramdas Pophale) SiO2 
 PCOD9400007
Probable space group: P M M A
;
_chemical_formula_sum "Si O2"
_cell_formula_units_Z 64
_cell_length_a 17.413715
_cell_length_b 13.000478
_cell_length_c 17.729320
_cell_angle_alpha 90.000000
_cell_angle_beta 90.000000
_cell_angle_gamma 90.000000
_cell_volume 4013.680808
_symmetry_space_group_name_H-M "P M M A"
_symmetry_group_IT_number 51
_symmetry_cell_setting 'orthorhombic'
loop_
_space_group_symop_operation_xyz
x,y,z
1/2-x,-y,z
1/2+x,-y,-z
-x,y,-z
-x,-y,-z
1/2+x,y,-z
1/2-x,y,z
x,-y,z
loop_
_atom_site_type_symbol
_atom_site_label
_atom_site_fract_x
_atom_site_fract_y
_atom_site_fract_z
Si Si1 0.162941 0.771599 0.608507
Si Si2 0.841553 0.623515 0.812139
Si Si3 0.339693 0.385532 0.472076
Si Si4 0.903332 0.380063 0.274234
Si Si5 0.664692 0.624371 0.120083
Si Si6 0.992099 0.118944 0.410097
Si Si7 0.568095 0.690821 0.669419
Si Si8 0.584203 0.625066 0.971010
O O1 0.250000 0.810722 0.605665
O O2 0.148070 0.700824 0.534889
O O3 0.151422 0.693583 0.677870
O O4 0.096113 0.855620 0.610933
O O5 0.750000 0.637983 0.821420
O O6 0.854114 0.500000 0.800177
O O7 0.874771 0.683374 0.740172
O O8 0.886945 0.655125 0.888167
O O9 0.250000 0.380260 0.449016
O O10 0.353451 0.500000 0.503855
O O11 0.393057 0.367265 0.400547
O O12 0.882209 0.500000 0.282365
O O13 0.894949 0.351181 0.186250
O O14 0.988951 0.362155 0.304393
O O15 0.750000 0.659183 0.141185
O O16 0.665941 0.500000 0.116129
O O17 0.641367 0.659992 0.037181
O O18 0.000000 0.138677 0.500000
O O19 0.044704 0.196989 0.362283
O O20 0.010734 0.000000 0.396366
O O21 0.584106 0.500000 0.969448
O O22 0.500000 0.656608 0.000000
#
# Coordination Sequence:
#
# PCOD9400007 Si02
#       8
#     8   8   8   8   8   8   8   8
#     4  10  20  33  49  71  95 122 158 196 238 290
#     4  10  19  30  46  70 103 140 172 205 246 292
#     4  10  19  30  45  67  98 132 160 188 226 280
#     4  10  19  28  43  67  98 132 164 197 234 278
#     4   9  16  26  39  57  87 128 166 195 226 266
#     4  10  21  39  56  70  89 116 155 206 257 298
#     4  11  20  32  49  69  92 126 164 204 243 295
#     4   9  16  26  41  62  92 131 174 208 232 269
#
# _framework density 15.945463999999999
#
# number of rings (size 3 to 8) (size 9 to 14) (size 15 to 20)
#    0.000    2.125    1.250    3.375    0.000    6.000 
#    0.000    1.875    0.000    1.500    0.000    0.000 
#    0.000   12.500    0.000    5.500    0.000    0.000 
#
# Total GULP energy -356759.762594 kJ/mol
# GULP energy per Si atom -5574.371291 kJ/mol
# Density = 1.590917 g / cm^3
# Si number density = 15.945464 Si / 1000 Ang^3
#
#
#
# Elastic Constant Matrix: (Units=GPa)
#
#
# Indices 1 2 3 4 5 6 
#
# 1 55.0047 17.8557 23.3319 0.0000 0.0000 0.0000
# 2 17.8557 48.4582 22.0799 0.0000 0.0000 0.0000
# 3 23.3319 22.0799 90.7734 0.0000 0.0000 0.0000
# 4 0.0000 0.0000 0.0000 4.9666 0.0000 0.0000
# 5 0.0000 0.0000 0.0000 0.0000 31.4565 0.0000
# 6 0.0000 0.0000 0.0000 0.0000 0.0000 9.7391
#
#
#
# Elastic Compliance Matrix: (Units=1/GPa)
#
#
# Indices 1 2 3 4 5 6 
#
# 1 0.021947 -0.006204 -0.004132 0.000000 0.000000 0.000000
# 2 -0.006204 0.024962 -0.004477 0.000000 0.000000 0.000000
# 3 -0.004132 -0.004477 0.013168 0.000000 0.000000 0.000000
# 4 0.000000 0.000000 0.000000 0.201345 0.000000 0.000000
# 5 0.000000 0.000000 0.000000 0.000000 0.031790 0.000000
# 6 0.000000 0.000000 0.000000 0.000000 0.000000 0.102679
#
#
# Mechanical properties :
#
#
# Convention : Reuss Voigt Hill
#
# Bulk Modulus (GPa) = 32.84056 35.64126 34.24091
# Shear Modulus (GPa) = 11.47665 17.96371 14.72018
#
# Velocity S-wave (km/s) = 2.68572 3.36009 3.04165
# Velocity P-wave (km/s) = 5.50070 6.11997 5.81858
#
# Compressibility (1/GPa) = 0.03045015
#
# Stress axis : x y z
#
# Youngs Moduli (GPa) = 45.56433 40.06009 75.94424
#
# Poissons Ratio (x) = 0.24854 0.31380
# Poissons Ratio (y) = 0.28269 0.34002
# Poissons Ratio (z) = 0.18827 0.17936
#
# Static dielectric constant tensor:
#      x y z
#    x 1.566420 0.000000 0.000000 
#    y 0.000000 1.498550 0.000000 
#    z 0.000000 0.000000 1.543260 
# 
# From -- ./inp_files/29869.got.cif
#   From: 2010.05.17/outbox.cif.g08.bks.cpg/sg51_15_cif.got.tgz:29869.got - 2010.06.03 11:52:47.
