data_PCOD9400485
_publ_section_title
;
Structure prediction by ZEFSAII (Michael W. Deem and Ramdas Pophale) SiO2 
 PCOD9400485
Probable space group: P M M A
;
_chemical_formula_sum "Si O2"
_cell_formula_units_Z 40
_cell_length_a 27.584759
_cell_length_b 7.547069
_cell_length_c 9.259289
_cell_angle_alpha 90.000000
_cell_angle_beta 90.000000
_cell_angle_gamma 90.000000
_cell_volume 1927.636557
_symmetry_space_group_name_H-M "P M M A"
_symmetry_group_IT_number 51
_symmetry_cell_setting 'orthorhombic'
loop_
_space_group_symop_operation_xyz
x,y,z
1/2-x,-y,z
1/2+x,-y,-z
-x,y,-z
-x,-y,-z
1/2+x,y,-z
1/2-x,y,z
x,-y,z
loop_
_atom_site_type_symbol
_atom_site_label
_atom_site_fract_x
_atom_site_fract_y
_atom_site_fract_z
Si Si1 0.802266 0.785108 0.828252
Si Si2 0.406972 0.283795 0.852720
Si Si3 0.505489 0.295553 0.342188
Si Si4 0.092571 0.793419 0.192038
Si Si5 0.301971 0.708221 0.829510
O O1 0.750000 0.729179 0.765372
O O2 0.853775 0.723811 0.765415
O O3 0.803450 0.000000 0.827621
O O4 0.802059 0.727022 0.995952
O O5 0.406454 0.500000 0.858044
O O6 0.452574 0.220225 0.760071
O O7 0.355092 0.222693 0.787972
O O8 0.410959 0.223893 0.018591
O O9 0.500000 0.212722 0.500000
O O10 0.520566 0.500000 0.364611
O O11 0.453780 0.293579 0.264024
O O12 0.090380 0.000000 0.230334
O O13 0.250000 0.784789 0.779537
O O14 0.301369 0.500000 0.793869
#
# Coordination Sequence:
#
# PCOD9400485 Si02
#       5
#     8   8   8   8   8
#     4   8  14  25  41  63  91 118 141 170 215 268
#     4   9  17  30  48  68  90 118 150 183 223 271
#     4  10  21  35  48  62  87 125 161 190 225 271
#     4  10  19  30  48  73  95 116 147 188 228 266
#     4   8  13  22  39  64  89 110 137 177 221 262
#
# _framework density 20.750800000000002
#
# number of rings (size 3 to 8) (size 9 to 14) (size 15 to 20)
#    0.000    3.000    0.000    1.200    0.000    4.400 
#    0.000    0.000    0.000    1.200    0.000    2.800 
#    0.000    6.400    0.000    0.000    0.000    0.000 
#
# Total GULP energy -222722.770528 kJ/mol
# GULP energy per Si atom -5568.069263 kJ/mol
# Density = 2.070357 g / cm^3
# Si number density = 20.750800 Si / 1000 Ang^3
#
#
#
# Elastic Constant Matrix: (Units=GPa)
#
#
# Indices 1 2 3 4 5 6 
#
# 1 207.6401 -7.2907 47.6549 0.0000 0.0000 0.0000
# 2 -7.2907 53.1108 -6.6250 0.0000 0.0000 0.0000
# 3 47.6549 -6.6250 38.7348 0.0000 0.0000 0.0000
# 4 0.0000 0.0000 0.0000 14.7069 0.0000 0.0000
# 5 0.0000 0.0000 0.0000 0.0000 -6.6267 0.0000
# 6 0.0000 0.0000 0.0000 0.0000 0.0000 80.7165
#
#
#
# Elastic Compliance Matrix: (Units=1/GPa)
#
#
# Indices 1 2 3 4 5 6 
#
# 1 0.006712 -0.000111 -0.008276 0.000000 0.000000 0.000000
# 2 -0.000111 0.019241 0.003427 0.000000 0.000000 0.000000
# 3 -0.008276 0.003427 0.036585 0.000000 0.000000 0.000000
# 4 0.000000 0.000000 0.000000 0.067995 0.000000 0.000000
# 5 0.000000 0.000000 0.000000 0.000000 -0.150905 0.000000
# 6 0.000000 0.000000 0.000000 0.000000 0.000000 0.012389
#
#
# Mechanical properties :
#
#
# Convention : Reuss Voigt Hill
#
# Bulk Modulus (GPa) = 19.00500 40.77379 29.88939
# Shear Modulus (GPa) = 256.73676 35.47579 146.10627
#
# Velocity S-wave (km/s) = 11.13519 4.13923 8.40017
# Velocity P-wave (km/s) = 13.20991 6.52198 10.41724
#
# Compressibility (1/GPa) = 0.05261774
#
# Stress axis : x y z
#
# Youngs Moduli (GPa) = 148.99687 51.97272 27.33382
#
# Poissons Ratio (x) = 0.00577 0.22622
# Poissons Ratio (y) = 0.01654 -0.09369
# Poissons Ratio (z) = 1.23311 -0.17813
#
# Static dielectric constant tensor:
#      x y z
#    x 1.830540 0.000000 0.000000 
#    y 0.000000 1.815150 0.000000 
#    z 0.000000 0.000000 1.685810 
# 
# From -- ./inp_files/12090.got.cif
#   From: 2010.05.17/outbox.cif.g08.bks.cpg/sg51_7_cif.got.tgz:12090.got - 2010.06.03 11:52:47.
