data_PCOD9400238
_publ_section_title
;
Structure prediction by ZEFSAII (Michael W. Deem and Ramdas Pophale) SiO2 
 PCOD9400238
Probable space group: P M M A
;
_chemical_formula_sum "Si O2"
_cell_formula_units_Z 64
_cell_length_a 8.887488
_cell_length_b 26.976209
_cell_length_c 18.970085
_cell_angle_alpha 90.000000
_cell_angle_beta 90.000000
_cell_angle_gamma 90.000000
_cell_volume 4548.091798
_symmetry_space_group_name_H-M "P M M A"
_symmetry_group_IT_number 51
_symmetry_cell_setting 'orthorhombic'
loop_
_space_group_symop_operation_xyz
x,y,z
1/2-x,-y,z
1/2+x,-y,-z
-x,y,-z
-x,-y,-z
1/2+x,y,-z
1/2-x,y,z
x,-y,z
loop_
_atom_site_type_symbol
_atom_site_label
_atom_site_fract_x
_atom_site_fract_y
_atom_site_fract_z
Si Si1 0.431207 0.556843 0.924032
Si Si2 0.429906 0.238453 0.423266
Si Si3 0.429165 0.058464 0.575947
Si Si4 0.930451 0.801081 0.210029
Si Si5 0.430498 0.706005 0.289089
Si Si6 0.930443 0.256101 0.076917
Si Si7 0.569570 0.141741 0.669617
Si Si8 0.431443 0.648154 0.828728
O O1 0.250000 0.558688 0.929896
O O2 0.474808 0.500000 0.907731
O O3 0.475521 0.596693 0.865265
O O4 0.500000 0.569903 0.000000
O O5 0.500000 0.241363 0.500000
O O6 0.250000 0.237024 0.430187
O O7 0.467794 0.284228 0.371008
O O8 0.473862 0.187773 0.382180
O O9 0.500000 0.071534 0.500000
O O10 0.250000 0.066346 0.573531
O O11 0.502954 0.092523 0.635238
O O12 0.457543 0.000000 0.587877
O O13 0.750000 0.803362 0.215604
O O14 0.970693 0.789697 0.128765
O O15 0.991855 0.752345 0.249870
O O16 0.003971 0.845815 0.253253
O O17 0.250000 0.709333 0.281758
O O18 0.492527 0.659152 0.246415
O O19 0.750000 0.257013 0.070910
O O20 0.973839 0.307008 0.117628
O O21 0.000000 0.253328 0.000000
O O22 0.750000 0.140120 0.672661
O O23 0.250000 0.649808 0.820648
#
# Coordination Sequence:
#
# PCOD9400238 Si02
#       8
#     8   8   8   8   8   8   8   8
#     4   9  17  28  41  58  81 107 137 173 207 241
#     4   9  18  28  39  58  81 104 132 163 196 237
#     4  10  20  32  45  62  85 113 144 178 213 246
#     4   9  17  29  42  58  81 108 137 169 205 244
#     4   9  17  28  40  57  79 103 134 169 201 237
#     4   9  17  26  38  57  80 106 136 168 200 239
#     4  10  19  30  44  62  83 110 143 174 206 244
#     4   9  17  28  40  56  78 107 140 168 202 244
#
# _framework density 14.071837
#
# number of rings (size 3 to 8) (size 9 to 14) (size 15 to 20)
#    0.000    2.750    0.000    3.750    0.000    7.750 
#    0.000    0.000    0.000    0.000    0.000    0.000 
#    0.000    1.000    0.000    2.750    0.000    3.750 
#
# Total GULP energy -356373.768922 kJ/mol
# GULP energy per Si atom -5568.340139 kJ/mol
# Density = 1.403981 g / cm^3
# Si number density = 14.071837 Si / 1000 Ang^3
#
#
#
# Elastic Constant Matrix: (Units=GPa)
#
#
# Indices 1 2 3 4 5 6 
#
# 1 31.6319 26.0580 32.1225 0.0000 0.0000 0.0000
# 2 26.0580 55.3487 35.8021 0.0000 0.0000 0.0000
# 3 32.1225 35.8021 93.2045 0.0000 0.0000 0.0000
# 4 0.0000 0.0000 0.0000 28.6949 0.0000 0.0000
# 5 0.0000 0.0000 0.0000 0.0000 27.6384 0.0000
# 6 0.0000 0.0000 0.0000 0.0000 0.0000 16.4416
#
#
#
# Elastic Compliance Matrix: (Units=1/GPa)
#
#
# Indices 1 2 3 4 5 6 
#
# 1 0.062358 -0.020567 -0.013591 0.000000 0.000000 0.000000
# 2 -0.020567 0.030824 -0.004752 0.000000 0.000000 0.000000
# 3 -0.013591 -0.004752 0.017239 0.000000 0.000000 0.000000
# 4 0.000000 0.000000 0.000000 0.034849 0.000000 0.000000
# 5 0.000000 0.000000 0.000000 0.000000 0.036182 0.000000
# 6 0.000000 0.000000 0.000000 0.000000 0.000000 0.060821
#
#
# Mechanical properties :
#
#
# Convention : Reuss Voigt Hill
#
# Bulk Modulus (GPa) = 30.67406 40.90559 35.78982
# Shear Modulus (GPa) = 15.10759 20.30181 17.70470
#
# Velocity S-wave (km/s) = 3.28015 3.80244 3.55091
# Velocity P-wave (km/s) = 6.01592 6.95775 6.50391
#
# Compressibility (1/GPa) = 0.03260084
#
# Stress axis : x y z
#
# Youngs Moduli (GPa) = 16.03640 32.44252 58.00929
#
# Poissons Ratio (x) = 0.66723 0.78842
# Poissons Ratio (y) = 0.32981 0.27566
# Poissons Ratio (z) = 0.21796 0.15417
#
# Static dielectric constant tensor:
#      x y z
#    x 1.468330 0.000000 0.000000 
#    y 0.000000 1.472560 0.000000 
#    z 0.000000 0.000000 1.466300 
# 
# From -- ./inp_files/28667.got.cif
#   From: 2010.05.17/outbox.cif.g08.bks.cpg/sg51_15_cif.got.tgz:28667.got - 2010.06.03 11:52:47.
