data_PCOD9400064
_publ_section_title
;
Structure prediction by ZEFSAII (Michael W. Deem and Ramdas Pophale) SiO2 
 PCOD9400064
Probable space group: P M M A
;
_chemical_formula_sum "Si O2"
_cell_formula_units_Z 64
_cell_length_a 14.268028
_cell_length_b 9.097996
_cell_length_c 32.435018
_cell_angle_alpha 90.000000
_cell_angle_beta 90.000000
_cell_angle_gamma 90.000000
_cell_volume 4210.404661
_symmetry_space_group_name_H-M "P M M A"
_symmetry_group_IT_number 51
_symmetry_cell_setting 'orthorhombic'
loop_
_space_group_symop_operation_xyz
x,y,z
1/2-x,-y,z
1/2+x,-y,-z
-x,y,-z
-x,-y,-z
1/2+x,y,-z
1/2-x,y,z
x,-y,z
loop_
_atom_site_type_symbol
_atom_site_label
_atom_site_fract_x
_atom_site_fract_y
_atom_site_fract_z
Si Si1 0.862891 0.329993 0.973720
Si Si2 0.138735 0.175358 0.357068
Si Si3 0.457229 0.677724 0.435008
Si Si4 0.540243 0.823499 0.896517
Si Si5 0.142554 0.824050 0.940705
Si Si6 0.636195 0.330968 0.727806
Si Si7 0.860841 0.176284 0.812415
Si Si8 0.855619 0.678367 0.479809
O O1 0.750000 0.323218 0.971124
O O2 0.891679 0.500000 0.973926
O O3 0.904629 0.248152 0.934411
O O4 0.888291 0.253490 0.016940
O O5 0.250000 0.208140 0.362660
O O6 0.081516 0.246895 0.394288
O O7 0.108656 0.243223 0.313198
O O8 0.128076 0.000000 0.356516
O O9 0.454559 0.500000 0.430624
O O10 0.392056 0.716767 0.474374
O O11 0.562972 0.722259 0.447870
O O12 0.431223 0.789439 0.904884
O O13 0.581396 0.776131 0.852618
O O14 0.552111 0.000000 0.898784
O O15 0.250000 0.781739 0.931699
O O16 0.140395 0.000000 0.947419
O O17 0.750000 0.329409 0.728264
O O18 0.605549 0.500000 0.725812
O O19 0.607504 0.254476 0.770453
O O20 0.750000 0.207399 0.819068
O O21 0.869746 0.000000 0.807563
O O22 0.750000 0.731673 0.472215
O O23 0.853811 0.500000 0.478712
#
# Coordination Sequence:
#
# PCOD9400064 Si02
#       8
#     8   8   8   8   8   8   8   8
#     4  10  20  31  43  62  88 115 142 175 214 251
#     4  10  19  29  42  62  89 118 145 177 219 260
#     4   9  16  26  43  65  86 114 153 189 218 254
#     4  10  19  30  46  66  86 113 146 174 206 251
#     4   9  18  32  47  62  83 112 146 181 212 245
#     4   9  17  29  45  64  86 112 140 170 207 255
#     4   9  17  29  44  63  88 113 135 164 206 256
#     4   8  14  25  41  62  89 119 150 185 223 259
#
# _framework density 15.20044
#
# number of rings (size 3 to 8) (size 9 to 14) (size 15 to 20)
#    0.000    2.750    0.000    3.000    0.000    6.500 
#    0.000    2.500    0.000    1.125    0.000    0.875 
#    0.000    3.000    0.000    0.000    0.000    0.000 
#
# Total GULP energy -356673.697128 kJ/mol
# GULP energy per Si atom -5573.026518 kJ/mol
# Density = 1.516584 g / cm^3
# Si number density = 15.200440 Si / 1000 Ang^3
#
#
#
# Elastic Constant Matrix: (Units=GPa)
#
#
# Indices 1 2 3 4 5 6 
#
# 1 83.2938 35.6603 71.7368 0.0000 0.0000 0.0000
# 2 35.6603 34.8783 53.0391 0.0000 0.0000 0.0000
# 3 71.7368 53.0391 153.1449 0.0000 0.0000 0.0000
# 4 0.0000 0.0000 0.0000 31.4518 0.0000 0.0000
# 5 0.0000 0.0000 0.0000 0.0000 25.3402 0.0000
# 6 0.0000 0.0000 0.0000 0.0000 0.0000 13.0845
#
#
#
# Elastic Compliance Matrix: (Units=1/GPa)
#
#
# Indices 1 2 3 4 5 6 
#
# 1 0.023471 -0.015377 -0.005669 0.000000 0.000000 0.000000
# 2 -0.015377 0.070646 -0.017264 0.000000 0.000000 0.000000
# 3 -0.005669 -0.017264 0.015165 0.000000 0.000000 0.000000
# 4 0.000000 0.000000 0.000000 0.031795 0.000000 0.000000
# 5 0.000000 0.000000 0.000000 0.000000 0.039463 0.000000
# 6 0.000000 0.000000 0.000000 0.000000 0.000000 0.076426
#
#
# Mechanical properties :
#
#
# Convention : Reuss Voigt Hill
#
# Bulk Modulus (GPa) = 30.61666 65.79881 48.20773
# Shear Modulus (GPa) = 14.51490 21.36737 17.94113
#
# Velocity S-wave (km/s) = 3.09350 3.75334 3.43928
# Velocity P-wave (km/s) = 5.73980 7.88447 6.89602
#
# Compressibility (1/GPa) = 0.03266196
#
# Stress axis : x y z
#
# Youngs Moduli (GPa) = 42.60499 14.15502 65.94344
#
# Poissons Ratio (x) = 0.21766 0.37384
# Poissons Ratio (y) = 0.65513 1.13847
# Poissons Ratio (z) = 0.24153 0.24438
#
# Static dielectric constant tensor:
#      x y z
#    x 1.518050 0.000000 0.000000 
#    y 0.000000 1.507570 0.000000 
#    z 0.000000 0.000000 1.478170 
# 
# From -- ./inp_files/37790.got.cif
#   From: 2010.05.17/outbox.cif.g08.bks.cpg/sg51_19_cif.got.tgz:37790.got - 2010.06.03 11:52:47.
