data_PCOD9400641
_publ_section_title
;
Structure prediction by ZEFSAII (Michael W. Deem and Ramdas Pophale) SiO2 
 PCOD9400641
Probable space group: P M M A
;
_chemical_formula_sum "Si O2"
_cell_formula_units_Z 64
_cell_length_a 8.468188
_cell_length_b 19.243625
_cell_length_c 22.166404
_cell_angle_alpha 90.000000
_cell_angle_beta 90.000000
_cell_angle_gamma 90.000000
_cell_volume 3612.206923
_symmetry_space_group_name_H-M "P M M A"
_symmetry_group_IT_number 51
_symmetry_cell_setting 'orthorhombic'
loop_
_space_group_symop_operation_xyz
x,y,z
1/2-x,-y,z
1/2+x,-y,-z
-x,y,-z
-x,-y,-z
1/2+x,y,-z
1/2-x,y,z
x,-y,z
loop_
_atom_site_type_symbol
_atom_site_label
_atom_site_fract_x
_atom_site_fract_y
_atom_site_fract_z
Si Si1 0.440565 0.922956 0.692793
Si Si2 0.439287 0.578499 0.068302
Si Si3 0.559624 0.423391 0.406717
Si Si4 0.560687 0.319063 0.168539
Si Si5 0.561507 0.276836 0.608022
Si Si6 0.441215 0.574821 0.733278
Si Si7 0.437669 0.221350 0.260957
Si Si8 0.938126 0.131028 0.437241
O O1 0.250000 0.917230 0.697871
O O2 0.517511 0.858394 0.726779
O O3 0.480679 0.912657 0.622079
O O4 0.488053 0.000000 0.712795
O O5 0.250000 0.579303 0.068930
O O6 0.491378 0.500000 0.088602
O O7 0.500012 0.642301 0.108983
O O8 0.500000 0.586273 0.000000
O O9 0.750000 0.422972 0.411418
O O10 0.506216 0.500000 0.430324
O O11 0.498246 0.347374 0.424309
O O12 0.511356 0.422775 0.336051
O O13 0.750000 0.320154 0.166200
O O14 0.496576 0.367805 0.222642
O O15 0.507401 0.246010 0.196746
O O16 0.750000 0.280217 0.610344
O O17 0.502943 0.263100 0.677986
O O18 0.508170 0.208050 0.573048
O O19 0.250000 0.579306 0.732705
O O20 0.486448 0.500000 0.758083
O O21 0.250000 0.229859 0.259488
O O22 0.750000 0.136625 0.439594
O O23 0.000000 0.101782 0.500000
#
# Coordination Sequence:
#
# PCOD9400641 Si02
#       8
#     8   8   8   8   8   8   8   8
#     4   9  19  36  56  77 103 135 166 197 239 295
#     4  10  21  36  51  69  98 138 184 230 272 312
#     4   9  16  27  43  63  88 119 155 194 239 291
#     4  11  19  29  49  71  96 131 172 215 257 301
#     4  10  19  31  47  67  95 127 160 201 248 295
#     4   8  14  23  37  60  88 118 154 194 237 286
#     4  10  20  32  47  72 103 132 164 203 249 300
#     4  10  20  34  53  75  99 127 162 201 241 289
#
# _framework density 17.717700000000001
#
# number of rings (size 3 to 8) (size 9 to 14) (size 15 to 20)
#    0.000    2.375    1.250    3.000    0.000    3.500 
#    0.000    0.000    0.000    0.375    0.000    0.000 
#    0.000    0.500    0.000    1.875    0.000    2.875 
#
# Total GULP energy -356523.824168 kJ/mol
# GULP energy per Si atom -5570.684753 kJ/mol
# Density = 1.767737 g / cm^3
# Si number density = 17.717700 Si / 1000 Ang^3
#
#
#
# Elastic Constant Matrix: (Units=GPa)
#
#
# Indices 1 2 3 4 5 6 
#
# 1 37.7475 24.9343 20.0401 0.0000 0.0000 0.0000
# 2 24.9343 97.9778 29.5845 0.0000 0.0000 0.0000
# 3 20.0401 29.5845 80.8327 0.0000 0.0000 0.0000
# 4 0.0000 0.0000 0.0000 8.7872 0.0000 0.0000
# 5 0.0000 0.0000 0.0000 0.0000 21.1874 0.0000
# 6 0.0000 0.0000 0.0000 0.0000 0.0000 16.0968
#
#
#
# Elastic Compliance Matrix: (Units=1/GPa)
#
#
# Indices 1 2 3 4 5 6 
#
# 1 0.034217 -0.006910 -0.005954 0.000000 0.000000 0.000000
# 2 -0.006910 0.012870 -0.002997 0.000000 0.000000 0.000000
# 3 -0.005954 -0.002997 0.014944 0.000000 0.000000 0.000000
# 4 0.000000 0.000000 0.000000 0.113802 0.000000 0.000000
# 5 0.000000 0.000000 0.000000 0.000000 0.047198 0.000000
# 6 0.000000 0.000000 0.000000 0.000000 0.000000 0.062124
#
#
# Mechanical properties :
#
#
# Convention : Reuss Voigt Hill
#
# Bulk Modulus (GPa) = 32.99368 40.63064 36.81216
# Shear Modulus (GPa) = 15.29140 18.68089 16.98614
#
# Velocity S-wave (km/s) = 2.94097 3.25062 3.09966
# Velocity P-wave (km/s) = 5.49497 6.08857 5.79937
#
# Compressibility (1/GPa) = 0.03030883
#
# Stress axis : x y z
#
# Youngs Moduli (GPa) = 29.22491 77.70035 66.91489
#
# Poissons Ratio (x) = 0.53692 0.39842
# Poissons Ratio (y) = 0.20195 0.20056
# Poissons Ratio (z) = 0.17401 0.23288
#
# Static dielectric constant tensor:
#      x y z
#    x 1.606390 0.000000 0.000000 
#    y 0.000000 1.664290 0.000000 
#    z 0.000000 0.000000 1.622510 
# 
# From -- ./inp_files/32443.got.cif
#   From: 2010.05.17/outbox.cif.g08.bks.cpg/sg51_17_cif.got.tgz:32443.got - 2010.06.03 11:52:47.
