data_PCOD9400605
_publ_section_title
;
Structure prediction by ZEFSAII (Michael W. Deem and Ramdas Pophale) SiO2 
 PCOD9400605
Probable space group: P M M A
;
_chemical_formula_sum "Si O2"
_cell_formula_units_Z 64
_cell_length_a 9.092133
_cell_length_b 14.817717
_cell_length_c 28.916340
_cell_angle_alpha 90.000000
_cell_angle_beta 90.000000
_cell_angle_gamma 90.000000
_cell_volume 3895.743893
_symmetry_space_group_name_H-M "P M M A"
_symmetry_group_IT_number 51
_symmetry_cell_setting 'orthorhombic'
loop_
_space_group_symop_operation_xyz
x,y,z
1/2-x,-y,z
1/2+x,-y,-z
-x,y,-z
-x,-y,-z
1/2+x,y,-z
1/2-x,y,z
x,-y,z
loop_
_atom_site_type_symbol
_atom_site_label
_atom_site_fract_x
_atom_site_fract_y
_atom_site_fract_z
Si Si1 0.926266 0.097386 0.768674
Si Si2 0.573044 0.795832 0.952160
Si Si3 0.080607 0.390163 0.546666
Si Si4 0.073469 0.596785 0.081241
Si Si5 0.583122 0.353862 0.173431
Si Si6 0.572596 0.704983 0.735712
Si Si7 0.426471 0.605891 0.358301
Si Si8 0.582690 0.146651 0.138639
O O1 0.750000 0.101912 0.774500
O O2 0.968808 0.189276 0.742051
O O3 0.000555 0.099637 0.819012
O O4 0.962032 0.000000 0.746573
O O5 0.750000 0.801699 0.953504
O O6 0.529802 0.689877 0.943768
O O7 0.508320 0.850976 0.908799
O O8 0.500000 0.825190 0.000000
O O9 0.250000 0.362293 0.546518
O O10 0.076582 0.500000 0.546013
O O11 0.000000 0.359337 0.500000
O O12 0.001215 0.363393 0.594112
O O13 0.250000 0.599542 0.084275
O O14 0.030091 0.500000 0.059717
O O15 0.006986 0.599231 0.132706
O O16 0.750000 0.387615 0.177325
O O17 0.501770 0.350153 0.222498
O O18 0.589794 0.250385 0.155870
O O19 0.750000 0.698112 0.740205
O O20 0.530325 0.664058 0.686303
O O21 0.250000 0.611392 0.363547
O O22 0.463107 0.500000 0.350575
O O23 0.750000 0.114732 0.131994
#
# Coordination Sequence:
#
# PCOD9400605 Si02
#       8
#     8   8   8   8   8   8   8   8
#     4   9  17  30  49  71  93 118 148 181 218 262
#     4  10  19  31  47  65  85 110 140 174 215 262
#     4   9  16  26  41  60  83 114 153 195 234 269
#     4   9  18  31  44  58  79 109 144 179 215 258
#     4   9  17  28  42  60  81 107 140 178 217 255
#     4   9  17  29  44  63  90 122 152 183 221 266
#     4   9  17  28  41  59  86 121 158 191 223 261
#     4   9  17  30  47  66  87 110 138 171 208 254
#
# _framework density 16.428184000000002
#
# number of rings (size 3 to 8) (size 9 to 14) (size 15 to 20)
#    0.000    2.875    0.000    1.500    0.000    6.750 
#    0.000    1.250    0.000    0.375    0.000    0.000 
#    0.000    0.500    0.000    0.875    0.000    1.250 
#
# Total GULP energy -356490.677851 kJ/mol
# GULP energy per Si atom -5570.166841 kJ/mol
# Density = 1.639079 g / cm^3
# Si number density = 16.428184 Si / 1000 Ang^3
#
#
#
# Elastic Constant Matrix: (Units=GPa)
#
#
# Indices 1 2 3 4 5 6 
#
# 1 34.2215 12.0992 45.1356 0.0000 0.0000 0.0000
# 2 12.0992 46.7520 24.9622 0.0000 0.0000 0.0000
# 3 45.1356 24.9622 137.1877 0.0000 0.0000 0.0000
# 4 0.0000 0.0000 0.0000 10.9354 0.0000 0.0000
# 5 0.0000 0.0000 0.0000 0.0000 26.6276 0.0000
# 6 0.0000 0.0000 0.0000 0.0000 0.0000 2.5659
#
#
#
# Elastic Compliance Matrix: (Units=1/GPa)
#
#
# Indices 1 2 3 4 5 6 
#
# 1 0.052593 -0.004843 -0.016422 0.000000 0.000000 0.000000
# 2 -0.004843 0.024137 -0.002799 0.000000 0.000000 0.000000
# 3 -0.016422 -0.002799 0.013202 0.000000 0.000000 0.000000
# 4 0.000000 0.000000 0.000000 0.091446 0.000000 0.000000
# 5 0.000000 0.000000 0.000000 0.000000 0.037555 0.000000
# 6 0.000000 0.000000 0.000000 0.000000 0.000000 0.389722
#
#
# Mechanical properties :
#
#
# Convention : Reuss Voigt Hill
#
# Bulk Modulus (GPa) = 23.92075 42.50615 33.21345
# Shear Modulus (GPa) = 7.45471 17.09008 12.27239
#
# Velocity S-wave (km/s) = 2.13251 3.22885 2.73616
# Velocity P-wave (km/s) = 4.54487 6.31116 5.49939
#
# Compressibility (1/GPa) = 0.04180471
#
# Stress axis : x y z
#
# Youngs Moduli (GPa) = 19.01378 41.43017 75.74843
#
# Poissons Ratio (x) = 0.20063 1.24397
# Poissons Ratio (y) = 0.09208 0.21199
# Poissons Ratio (z) = 0.31225 0.11595
#
# Static dielectric constant tensor:
#      x y z
#    x 1.554790 0.000000 0.000000 
#    y 0.000000 1.590740 0.000000 
#    z 0.000000 0.000000 1.522290 
# 
# From -- ./inp_files/35156.got.cif
#   From: 2010.05.17/outbox.cif.g08.bks.cpg/sg51_18_cif.got.tgz:35156.got - 2010.06.03 11:52:47.
