data_PCOD9400185
_publ_section_title
;
Structure prediction by ZEFSAII (Michael W. Deem and Ramdas Pophale) SiO2 
 PCOD9400185
Probable space group: P M M A
;
_chemical_formula_sum "Si O2"
_cell_formula_units_Z 64
_cell_length_a 9.190866
_cell_length_b 28.042180
_cell_length_c 15.858450
_cell_angle_alpha 90.000000
_cell_angle_beta 90.000000
_cell_angle_gamma 90.000000
_cell_volume 4087.228747
_symmetry_space_group_name_H-M "P M M A"
_symmetry_group_IT_number 51
_symmetry_cell_setting 'orthorhombic'
loop_
_space_group_symop_operation_xyz
x,y,z
1/2-x,-y,z
1/2+x,-y,-z
-x,y,-z
-x,-y,-z
1/2+x,y,-z
1/2-x,y,z
x,-y,z
loop_
_atom_site_type_symbol
_atom_site_label
_atom_site_fract_x
_atom_site_fract_y
_atom_site_fract_z
Si Si1 0.582609 0.189567 0.244366
Si Si2 0.918387 0.810201 0.585546
Si Si3 0.415833 0.074675 0.751601
Si Si4 0.576023 0.346086 0.909153
Si Si5 0.088140 0.943508 0.078591
Si Si6 0.074685 0.760529 0.092295
Si Si7 0.074608 0.448566 0.092200
Si Si8 0.582629 0.073448 0.584370
O O1 0.750000 0.206444 0.240575
O O2 0.501837 0.205687 0.330002
O O3 0.586665 0.132205 0.249615
O O4 0.494553 0.204751 0.161387
O O5 0.750000 0.795157 0.586241
O O6 0.918500 0.868357 0.585082
O O7 0.000000 0.795204 0.500000
O O8 0.250000 0.057715 0.753236
O O9 0.500776 0.061084 0.835466
O O10 0.499135 0.057993 0.668248
O O11 0.750000 0.346454 0.920498
O O12 0.542187 0.293599 0.874396
O O13 0.536086 0.397100 0.867194
O O14 0.500000 0.346694 0.000000
O O15 0.250000 0.922746 0.085629
O O16 0.103129 0.000000 0.062412
O O17 0.000000 0.922213 0.000000
O O18 0.250000 0.766324 0.085225
O O19 0.000000 0.765919 0.000000
O O20 0.250000 0.448722 0.082284
O O21 0.034896 0.500000 0.132289
O O22 0.000000 0.448519 0.000000
O O23 0.500000 0.058321 0.500000
O O24 0.750000 0.058332 0.584524
#
# Coordination Sequence:
#
# PCOD9400185 Si02
#       8
#     8   8   8   8   8   8   8   8
#     4  10  20  32  45  64  88 113 144 178 210 246
#     4   9  16  27  44  65  88 113 139 170 208 247
#     4  10  20  33  50  71  93 116 142 174 210 247
#     4   8  14  23  34  48  66  92 128 166 204 247
#     4  10  21  37  56  75  93 114 141 173 210 253
#     4  10  19  30  42  55  76 109 146 181 215 251
#     4   8  12  18  29  45  64  85 113 155 204 247
#     4   9  16  27  45  69  96 122 146 171 201 241
#
# _framework density 15.658531
#
# number of rings (size 3 to 8) (size 9 to 14) (size 15 to 20)
#    0.000    2.750    0.000    2.250    0.000    6.250 
#    0.000    0.000    0.000    0.375    0.000    0.000 
#    0.000    0.000    0.000    0.000    0.000    0.625 
#
# Total GULP energy -356326.817043 kJ/mol
# GULP energy per Si atom -5567.606516 kJ/mol
# Density = 1.562289 g / cm^3
# Si number density = 15.658531 Si / 1000 Ang^3
#
#
#
# Elastic Constant Matrix: (Units=GPa)
#
#
# Indices 1 2 3 4 5 6 
#
# 1 128.8751 15.3900 73.9401 0.0000 0.0000 0.0000
# 2 15.3900 41.1759 12.0863 0.0000 0.0000 0.0000
# 3 73.9401 12.0863 117.0494 0.0000 0.0000 0.0000
# 4 0.0000 0.0000 0.0000 0.6212 0.0000 0.0000
# 5 0.0000 0.0000 0.0000 0.0000 25.3636 0.0000
# 6 0.0000 0.0000 0.0000 0.0000 0.0000 7.4140
#
#
#
# Elastic Compliance Matrix: (Units=1/GPa)
#
#
# Indices 1 2 3 4 5 6 
#
# 1 0.012398 -0.002408 -0.007583 0.000000 0.000000 0.000000
# 2 -0.002408 0.025513 -0.001113 0.000000 0.000000 0.000000
# 3 -0.007583 -0.001113 0.013448 0.000000 0.000000 0.000000
# 4 0.000000 0.000000 0.000000 1.609754 0.000000 0.000000
# 5 0.000000 0.000000 0.000000 0.000000 0.039427 0.000000
# 6 0.000000 0.000000 0.000000 0.000000 0.000000 0.134880
#
#
# Mechanical properties :
#
#
# Convention : Reuss Voigt Hill
#
# Bulk Modulus (GPa) = 34.30460 54.43699 44.37080
# Shear Modulus (GPa) = 2.67760 19.05870 10.86815
#
# Velocity S-wave (km/s) = 1.30909 3.49254 2.63738
# Velocity P-wave (km/s) = 4.92346 7.14873 6.13778
#
# Compressibility (1/GPa) = 0.02915061
#
# Stress axis : x y z
#
# Youngs Moduli (GPa) = 80.66093 39.19592 74.35789
#
# Poissons Ratio (x) = 0.09438 0.56385
# Poissons Ratio (y) = 0.19423 0.08278
# Poissons Ratio (z) = 0.61164 0.04364
#
# Static dielectric constant tensor:
#      x y z
#    x 1.534010 0.000000 0.000000 
#    y 0.000000 1.588760 0.000000 
#    z 0.000000 0.000000 1.485850 
# 
# From -- ./inp_files/22566.got.cif
#   From: 2010.05.17/outbox.cif.g08.bks.cpg/sg51_12_cif.got.tgz:22566.got - 2010.06.03 11:52:47.
