data_PCOD9400760
_publ_section_title
;
Structure prediction by ZEFSAII (Michael W. Deem and Ramdas Pophale) SiO2 
 PCOD9400760
Probable space group: P M M A
;
_chemical_formula_sum "Si O2"
_cell_formula_units_Z 32
_cell_length_a 31.058184
_cell_length_b 5.599201
_cell_length_c 6.905641
_cell_angle_alpha 90.000000
_cell_angle_beta 90.000000
_cell_angle_gamma 90.000000
_cell_volume 1200.897979
_symmetry_space_group_name_H-M "P M M A"
_symmetry_group_IT_number 51
_symmetry_cell_setting 'orthorhombic'
loop_
_space_group_symop_operation_xyz
x,y,z
1/2-x,-y,z
1/2+x,-y,-z
-x,y,-z
-x,-y,-z
1/2+x,y,-z
1/2-x,y,z
x,-y,z
loop_
_atom_site_type_symbol
_atom_site_label
_atom_site_fract_x
_atom_site_fract_y
_atom_site_fract_z
Si Si1 0.078168 0.000000 0.305638
Si Si2 0.462640 0.500000 0.660349
Si Si3 0.342174 0.000000 0.810755
Si Si4 0.443640 0.000000 0.742939
Si Si5 0.700970 0.500000 0.235603
Si Si6 0.912197 0.500000 0.719872
Si Si7 0.809918 0.500000 0.779248
Si Si8 0.678507 0.000000 0.728453
O O1 0.053882 0.000000 0.507433
O O2 0.069475 0.749549 0.205347
O O3 0.129619 0.000000 0.352600
O O4 0.500000 0.500000 0.500000
O O5 0.463218 0.258778 0.784127
O O6 0.420356 0.500000 0.514620
O O7 0.323812 0.750733 0.723961
O O8 0.393671 0.000000 0.802108
O O9 0.328640 0.000000 0.037574
O O10 0.750000 0.500000 0.308167
O O11 0.703707 0.500000 0.000896
O O12 0.862105 0.500000 0.772600
O O13 0.798304 0.248092 0.685720
#
# Coordination Sequence:
#
# PCOD9400760 Si02
#       8
#     4   4   4   4   4   4   4   4
#     4   8  14  25  42  65  86 114 155 196 227 271
#     4  10  19  31  48  73 101 130 166 214 257 293
#     4  10  19  31  48  73  99 126 159 202 242 289
#     4  10  19  31  48  73  97 126 167 206 240 293
#     4  10  19  31  48  73  99 126 159 200 246 293
#     4   8  14  25  42  65  89 117 154 196 241 285
#     4   8  14  25  42  65  89 117 155 194 231 279
#     4   8  14  25  42  65  88 114 149 190 229 269
#
# _framework density 26.646729000000001
#
# number of rings (size 3 to 8) (size 9 to 14) (size 15 to 20)
#    0.000    3.000    0.000    1.500    0.000    0.000 
#    0.000    0.000    0.000    0.000    0.000  168.000 
#    0.000    0.000    0.000    0.000    0.000    0.000 
#
# Total GULP energy -178808.701039 kJ/mol
# GULP energy per Si atom -5587.771907 kJ/mol
# Density = 2.658608 g / cm^3
# Si number density = 26.646729 Si / 1000 Ang^3
#
#
#
# Elastic Constant Matrix: (Units=GPa)
#
#
# Indices 1 2 3 4 5 6 
#
# 1 129.7108 45.8924 7.1167 0.0000 0.0000 0.0000
# 2 45.8924 340.8970 -4.9711 0.0000 0.0000 0.0000
# 3 7.1167 -4.9711 95.2671 0.0000 0.0000 0.0000
# 4 0.0000 0.0000 0.0000 -23.4811 0.0000 0.0000
# 5 0.0000 0.0000 0.0000 0.0000 8.2052 0.0000
# 6 0.0000 0.0000 0.0000 0.0000 0.0000 21.2958
#
#
#
# Elastic Compliance Matrix: (Units=1/GPa)
#
#
# Indices 1 2 3 4 5 6 
#
# 1 0.008137 -0.001105 -0.000666 0.000000 0.000000 0.000000
# 2 -0.001105 0.003086 0.000244 0.000000 0.000000 0.000000
# 3 -0.000666 0.000244 0.010559 0.000000 0.000000 0.000000
# 4 0.000000 0.000000 0.000000 -0.042587 0.000000 0.000000
# 5 0.000000 0.000000 0.000000 0.000000 0.121874 0.000000
# 6 0.000000 0.000000 0.000000 0.000000 0.000000 0.046958
#
#
# Mechanical properties :
#
#
# Convention : Reuss Voigt Hill
#
# Bulk Modulus (GPa) = 53.39648 73.55009 63.47328
# Shear Modulus (GPa) = 31.78173 35.72644 33.75409
#
# Velocity S-wave (km/s) = 3.45731 3.66559 3.56297
# Velocity P-wave (km/s) = 6.00162 6.75109 6.38736
#
# Compressibility (1/GPa) = 0.01872783
#
# Stress axis : x y z
#
# Youngs Moduli (GPa) = 122.89589 324.06891 94.70389
#
# Poissons Ratio (x) = 0.35814 0.06303
# Poissons Ratio (y) = 0.13582 -0.02307
# Poissons Ratio (z) = 0.08179 -0.07893
#
# Static dielectric constant tensor:
#      x y z
#    x 1.534990 0.000000 0.000000 
#    y 0.000000 2.195810 0.000000 
#    z 0.000000 0.000000 2.025050 
# 
# From -- ./inp_files/12548.got.cif
#   From: 2010.05.17/outbox.cif.g08.bks.cpg/sg51_7_cif.got.tgz:12548.got - 2010.06.03 11:52:47.
