data_PCOD9400167
_publ_section_title
;
Structure prediction by ZEFSAII (Michael W. Deem and Ramdas Pophale) SiO2 
 PCOD9400167
Probable space group: P M M A
;
_chemical_formula_sum "Si O2"
_cell_formula_units_Z 40
_cell_length_a 16.062603
_cell_length_b 14.268835
_cell_length_c 7.249451
_cell_angle_alpha 90.000000
_cell_angle_beta 90.000000
_cell_angle_gamma 90.000000
_cell_volume 1661.535253
_symmetry_space_group_name_H-M "P M M A"
_symmetry_group_IT_number 51
_symmetry_cell_setting 'orthorhombic'
loop_
_space_group_symop_operation_xyz
x,y,z
1/2-x,-y,z
1/2+x,-y,-z
-x,y,-z
-x,-y,-z
1/2+x,y,-z
1/2-x,y,z
x,-y,z
loop_
_atom_site_type_symbol
_atom_site_label
_atom_site_fract_x
_atom_site_fract_y
_atom_site_fract_z
Si Si1 0.099208 0.301486 0.970425
Si Si2 0.401184 0.300118 0.531563
Si Si3 0.150639 0.100328 0.537191
Si Si4 0.099113 0.899712 0.964445
Si Si5 0.598464 0.500000 0.463303
Si Si6 0.846853 0.500000 0.044847
O O1 0.117005 0.300221 0.750848
O O2 0.132211 0.200196 0.036854
O O3 0.131040 0.400530 0.046497
O O4 0.000000 0.302029 0.000000
O O5 0.500000 0.302533 0.500000
O O6 0.373269 0.200326 0.452673
O O7 0.366294 0.400755 0.467100
O O8 0.250000 0.098981 0.551243
O O9 0.113629 0.101148 0.744213
O O10 0.122703 0.000000 0.453227
O O11 0.134190 0.000000 0.030715
O O12 0.000000 0.900022 0.000000
O O13 0.500000 0.500000 0.500000
O O14 0.606070 0.500000 0.241204
O O15 0.750000 0.500000 0.085998
#
# Coordination Sequence:
#
# PCOD9400167 Si02
#       6
#     8   8   8   8   4   4
#     4   9  17  29  46  67  92 122 150 184 229 273
#     4   9  17  29  46  67  91 119 152 190 226 270
#     4   9  17  28  43  66  94 120 149 189 231 267
#     4   8  14  25  41  62  89 118 147 181 220 264
#     4   8  16  29  42  61  90 120 144 180 228 269
#     4  10  19  29  46  71  93 116 154 196 225 261
#
# _framework density 24.074121000000002
#
# number of rings (size 3 to 8) (size 9 to 14) (size 15 to 20)
#    0.000    3.200    0.000    0.300    0.000    7.600 
#    0.000    0.000    0.000    1.200    0.000   30.800 
#    0.000   52.800    0.000    0.000    0.000    0.000 
#
# Total GULP energy -222872.527707 kJ/mol
# GULP energy per Si atom -5571.813193 kJ/mol
# Density = 2.401933 g / cm^3
# Si number density = 24.074121 Si / 1000 Ang^3
#
#
#
# Elastic Constant Matrix: (Units=GPa)
#
#
# Indices 1 2 3 4 5 6 
#
# 1 37.3055 30.8370 -9.8143 0.0000 0.0000 0.0000
# 2 30.8370 369.7092 19.8406 0.0000 0.0000 0.0000
# 3 -9.8143 19.8406 104.1842 0.0000 0.0000 0.0000
# 4 0.0000 0.0000 0.0000 -18.3175 0.0000 0.0000
# 5 0.0000 0.0000 0.0000 0.0000 -2.9004 0.0000
# 6 0.0000 0.0000 0.0000 0.0000 0.0000 45.4983
#
#
#
# Elastic Compliance Matrix: (Units=1/GPa)
#
#
# Indices 1 2 3 4 5 6 
#
# 1 0.029888 -0.002671 0.003324 0.000000 0.000000 0.000000
# 2 -0.002671 0.002972 -0.000818 0.000000 0.000000 0.000000
# 3 0.003324 -0.000818 0.010067 0.000000 0.000000 0.000000
# 4 0.000000 0.000000 0.000000 -0.054593 0.000000 0.000000
# 5 0.000000 0.000000 0.000000 0.000000 -0.344775 0.000000
# 6 0.000000 0.000000 0.000000 0.000000 0.000000 0.021979
#
#
# Mechanical properties :
#
#
# Convention : Reuss Voigt Hill
#
# Bulk Modulus (GPa) = 23.47530 65.88059 44.67795
# Shear Modulus (GPa) = -15.62827 36.21178 10.29176
#
# Velocity S-wave (km/s) = -2.55065 3.88258 2.06986
# Velocity P-wave (km/s) = 1.04785 6.89379 4.93064
#
# Compressibility (1/GPa) = 0.04259796
#
# Stress axis : x y z
#
# Youngs Moduli (GPa) = 33.45775 336.52854 99.33220
#
# Poissons Ratio (x) = 0.89899 -0.33021
# Poissons Ratio (y) = 0.08938 0.08121
# Poissons Ratio (z) = -0.11122 0.27512
#
# Static dielectric constant tensor:
#      x y z
#    x 1.806360 0.000000 0.000000 
#    y 0.000000 2.081540 0.000000 
#    z 0.000000 0.000000 1.863060 
# 
# From -- ./inp_files/8021.got.cif
#   From: 2010.05.17/outbox.cif.g08.bks.cpg/sg51_5_cif.got.tgz:8021.got - 2010.06.03 11:52:47.
