data_PCOD9400192
_publ_section_title
;
Structure prediction by ZEFSAII (Michael W. Deem and Ramdas Pophale) SiO2 
 PCOD9400192
Probable space group: P M M A
;
_chemical_formula_sum "Si O2"
_cell_formula_units_Z 52
_cell_length_a 8.702730
_cell_length_b 18.723849
_cell_length_c 25.597646
_cell_angle_alpha 90.000000
_cell_angle_beta 90.000000
_cell_angle_gamma 90.000000
_cell_volume 4171.100641
_symmetry_space_group_name_H-M "P M M A"
_symmetry_group_IT_number 51
_symmetry_cell_setting 'orthorhombic'
loop_
_space_group_symop_operation_xyz
x,y,z
1/2-x,-y,z
1/2+x,-y,-z
-x,y,-z
-x,-y,-z
1/2+x,y,-z
1/2-x,y,z
x,-y,z
loop_
_atom_site_type_symbol
_atom_site_label
_atom_site_fract_x
_atom_site_fract_y
_atom_site_fract_z
Si Si1 0.068359 0.415098 0.777416
Si Si2 0.570894 0.586819 0.667803
Si Si3 0.066291 0.226183 0.940942
Si Si4 0.565805 0.500000 0.058363
Si Si5 0.934339 0.078240 0.941030
Si Si6 0.935147 0.583780 0.553697
Si Si7 0.067252 0.637603 0.117940
O O1 0.250000 0.407357 0.786123
O O2 0.031093 0.500000 0.782356
O O3 0.023923 0.392347 0.718776
O O4 0.976949 0.372871 0.821588
O O5 0.750000 0.606279 0.674778
O O6 0.565983 0.500000 0.665396
O O7 0.516996 0.613012 0.610612
O O8 0.250000 0.227337 0.943616
O O9 0.008643 0.149941 0.918572
O O10 0.003431 0.291058 0.906651
O O11 0.000000 0.233348 0.000000
O O12 0.750000 0.500000 0.057781
O O13 0.505180 0.430080 0.088005
O O14 0.500000 0.500000 0.000000
O O15 0.750000 0.086032 0.942982
O O16 0.969585 0.000000 0.917278
O O17 0.000000 0.075795 0.000000
O O18 0.750000 0.585915 0.552342
O O19 0.982073 0.500000 0.553806
O O20 0.000000 0.615738 0.500000
O O21 0.250000 0.637395 0.111103
#
# Coordination Sequence:
#
# PCOD9400192 Si02
#       7
#     8   8   8   4   8   8   8
#     4  10  19  30  43  57  72  89 117 156 190 224
#     4   8  14  24  36  49  66  88 114 142 177 220
#     4  11  21  33  47  63  83 102 123 151 183 223
#     4  12  24  38  50  62  76  92 119 152 189 232
#     4   9  16  27  44  65  86 105 124 144 170 211
#     4   8  13  20  30  45  65  87 109 136 170 213
#     4  12  23  35  48  60  75  98 124 153 192 230
#
# _framework density 12.466733
#
# number of rings (size 3 to 8) (size 9 to 14) (size 15 to 20)
#    0.000    2.154    0.769    6.692    0.000    2.154 
#    0.000    3.077    0.000    0.000    0.000    0.000 
#    0.000    0.000    0.000    0.000    0.000    0.000 
#
# Total GULP energy -289717.039564 kJ/mol
# GULP energy per Si atom -5571.481530 kJ/mol
# Density = 1.243836 g / cm^3
# Si number density = 12.466733 Si / 1000 Ang^3
#
#
#
# Elastic Constant Matrix: (Units=GPa)
#
#
# Indices 1 2 3 4 5 6 
#
# 1 82.6850 37.0445 32.0828 0.0000 0.0000 0.0000
# 2 37.0445 77.5168 31.2507 0.0000 0.0000 0.0000
# 3 32.0828 31.2507 79.7866 0.0000 0.0000 0.0000
# 4 0.0000 0.0000 0.0000 -0.0295 0.0000 0.0000
# 5 0.0000 0.0000 0.0000 0.0000 20.9192 0.0000
# 6 0.0000 0.0000 0.0000 0.0000 0.0000 14.3558
#
#
#
# Elastic Compliance Matrix: (Units=1/GPa)
#
#
# Indices 1 2 3 4 5 6 
#
# 1 0.016500 -0.006187 -0.004211 0.000000 0.000000 0.000000
# 2 -0.006187 0.017640 -0.004421 0.000000 0.000000 0.000000
# 3 -0.004211 -0.004421 0.015959 0.000000 0.000000 0.000000
# 4 0.000000 0.000000 0.000000-33.851620 0.000000 0.000000
# 5 0.000000 0.000000 0.000000 0.000000 0.047803 0.000000
# 6 0.000000 0.000000 0.000000 0.000000 0.000000 0.069658
#
#
# Mechanical properties :
#
#
# Convention : Reuss Voigt Hill
#
# Bulk Modulus (GPa) = 48.87918 48.97160 48.92539
# Shear Modulus (GPa) = -0.14860 16.35647 8.10393
#
# Velocity S-wave (km/s) = -0.34562 3.62610 2.55236
# Velocity P-wave (km/s) = 6.25568 7.54311 6.92936
#
# Compressibility (1/GPa) = 0.02045861
#
# Stress axis : x y z
#
# Youngs Moduli (GPa) = 60.60504 56.69031 62.66252
#
# Poissons Ratio (x) = 0.35077 0.26390
# Poissons Ratio (y) = 0.37499 0.27703
# Poissons Ratio (z) = 0.25523 0.25063
#
# Static dielectric constant tensor:
#      x y z
#    x 1.416660 0.000000 0.000000 
#    y 0.000000 1.400570 0.000000 
#    z 0.000000 0.000000 1.422510 
# 
# From -- ./inp_files/35058.got.cif
#   From: 2010.05.17/outbox.cif.g08.bks.cpg/sg51_18_cif.got.tgz:35058.got - 2010.06.03 11:52:47.
