data_PCOD9400438
_publ_section_title
;
Structure prediction by ZEFSAII (Michael W. Deem and Ramdas Pophale) SiO2 
 PCOD9400438
Probable space group: P M M A
;
_chemical_formula_sum "Si O2"
_cell_formula_units_Z 64
_cell_length_a 8.982242
_cell_length_b 23.834475
_cell_length_c 19.385815
_cell_angle_alpha 90.000000
_cell_angle_beta 90.000000
_cell_angle_gamma 90.000000
_cell_volume 4150.251410
_symmetry_space_group_name_H-M "P M M A"
_symmetry_group_IT_number 51
_symmetry_cell_setting 'orthorhombic'
loop_
_space_group_symop_operation_xyz
x,y,z
1/2-x,-y,z
1/2+x,-y,-z
-x,y,-z
-x,-y,-z
1/2+x,y,-z
1/2-x,y,z
x,-y,z
loop_
_atom_site_type_symbol
_atom_site_label
_atom_site_fract_x
_atom_site_fract_y
_atom_site_fract_z
Si Si1 0.927199 0.065634 0.290007
Si Si2 0.573968 0.750858 0.572306
Si Si3 0.427469 0.334744 0.848581
Si Si4 0.926832 0.162814 0.790489
Si Si5 0.927176 0.434208 0.925619
Si Si6 0.927042 0.229937 0.926948
Si Si7 0.573454 0.885631 0.572582
Si Si8 0.927205 0.732154 0.287353
O O1 0.750000 0.075091 0.292118
O O2 0.000190 0.104719 0.231874
O O3 0.997605 0.084339 0.362854
O O4 0.955204 0.000000 0.278307
O O5 0.500000 0.734268 0.500000
O O6 0.750000 0.740683 0.571178
O O7 0.551325 0.818339 0.579834
O O8 0.498259 0.722419 0.638203
O O9 0.250000 0.335979 0.859500
O O10 0.500107 0.393180 0.870096
O O11 0.499092 0.286337 0.896372
O O12 0.455592 0.315728 0.769781
O O13 0.750000 0.161577 0.777213
O O14 0.951414 0.181997 0.869267
O O15 0.999871 0.211544 0.743949
O O16 0.750000 0.425247 0.929381
O O17 0.954462 0.500000 0.911031
O O18 0.000000 0.421519 0.000000
O O19 0.750000 0.238468 0.934109
O O20 0.000000 0.216497 0.000000
O O21 0.500000 0.902671 0.500000
O O22 0.750000 0.896391 0.571702
O O23 0.750000 0.740018 0.293381
#
# Coordination Sequence:
#
# PCOD9400438 Si02
#       8
#     8   8   8   8   8   8   8   8
#     4  11  23  36  51  70  92 120 153 191 234 282
#     4  10  19  30  47  70  96 127 160 193 234 284
#     4  10  20  32  48  72 101 133 166 201 241 280
#     4  10  20  34  51  71  93 120 152 189 234 284
#     4  10  20  33  49  69  97 136 176 211 245 281
#     4  10  20  33  51  74  99 124 154 192 237 285
#     4  10  20  33  50  70  93 123 156 191 231 276
#     4  10  19  31  49  71  97 127 158 196 239 284
#
# _framework density 15.420752999999999
#
# number of rings (size 3 to 8) (size 9 to 14) (size 15 to 20)
#    0.000    1.875    1.250    3.375    0.000    6.000 
#    0.000    0.000    0.000    0.375    0.000    0.000 
#    0.000    0.500    0.000    1.625    0.000    2.375 
#
# Total GULP energy -357325.180779 kJ/mol
# GULP energy per Si atom -5583.205950 kJ/mol
# Density = 1.538565 g / cm^3
# Si number density = 15.420753 Si / 1000 Ang^3
#
#
#
# Elastic Constant Matrix: (Units=GPa)
#
#
# Indices 1 2 3 4 5 6 
#
# 1 100.8187 61.6044 79.4949 0.0000 0.0000 0.0000
# 2 61.6044 72.8066 56.7556 0.0000 0.0000 0.0000
# 3 79.4949 56.7556 134.5529 0.0000 0.0000 0.0000
# 4 0.0000 0.0000 0.0000 23.0583 0.0000 0.0000
# 5 0.0000 0.0000 0.0000 0.0000 31.2851 0.0000
# 6 0.0000 0.0000 0.0000 0.0000 0.0000 24.0858
#
#
#
# Elastic Compliance Matrix: (Units=1/GPa)
#
#
# Indices 1 2 3 4 5 6 
#
# 1 0.026507 -0.015228 -0.009237 0.000000 0.000000 0.000000
# 2 -0.015228 0.029212 -0.003325 0.000000 0.000000 0.000000
# 3 -0.009237 -0.003325 0.014292 0.000000 0.000000 0.000000
# 4 0.000000 0.000000 0.000000 0.043368 0.000000 0.000000
# 5 0.000000 0.000000 0.000000 0.000000 0.031964 0.000000
# 6 0.000000 0.000000 0.000000 0.000000 0.000000 0.041518
#
#
# Mechanical properties :
#
#
# Convention : Reuss Voigt Hill
#
# Bulk Modulus (GPa) = 69.29765 78.20977 73.75371
# Shear Modulus (GPa) = 20.22218 23.04074 21.63146
#
# Velocity S-wave (km/s) = 3.62520 3.86960 3.74939
# Velocity P-wave (km/s) = 7.90938 8.41382 8.16550
#
# Compressibility (1/GPa) = 0.01443050
#
# Stress axis : x y z
#
# Youngs Moduli (GPa) = 37.72535 34.23251 69.96839
#
# Poissons Ratio (x) = 0.52129 0.64633
# Poissons Ratio (y) = 0.57448 0.23265
# Poissons Ratio (z) = 0.34849 0.11383
#
# Static dielectric constant tensor:
#      x y z
#    x 1.510330 0.000000 0.000000 
#    y 0.000000 1.493090 0.000000 
#    z 0.000000 0.000000 1.508790 
# 
# From -- ./inp_files/28325.got.cif
#   From: 2010.05.17/outbox.cif.g08.bks.cpg/sg51_15_cif.got.tgz:28325.got - 2010.06.03 11:52:47.
