data_PCOD9400566
_publ_section_title
;
Structure prediction by ZEFSAII (Michael W. Deem and Ramdas Pophale) SiO2 
 PCOD9400566
Probable space group: P M M A
;
_chemical_formula_sum "Si O2"
_cell_formula_units_Z 56
_cell_length_a 8.467246
_cell_length_b 30.403613
_cell_length_c 14.056918
_cell_angle_alpha 90.000000
_cell_angle_beta 90.000000
_cell_angle_gamma 90.000000
_cell_volume 3618.740866
_symmetry_space_group_name_H-M "P M M A"
_symmetry_group_IT_number 51
_symmetry_cell_setting 'orthorhombic'
loop_
_space_group_symop_operation_xyz
x,y,z
1/2-x,-y,z
1/2+x,-y,-z
-x,y,-z
-x,-y,-z
1/2+x,y,-z
1/2-x,y,z
x,-y,z
loop_
_atom_site_type_symbol
_atom_site_label
_atom_site_fract_x
_atom_site_fract_y
_atom_site_fract_z
Si Si1 0.562146 0.219086 0.105214
Si Si2 0.439505 0.864799 0.217907
Si Si3 0.940727 0.950384 0.893337
Si Si4 0.939371 0.269351 0.716793
Si Si5 0.937613 0.185424 0.395172
Si Si6 0.558864 0.356378 0.608553
Si Si7 0.440812 0.452744 0.391100
O O1 0.750000 0.214472 0.104377
O O2 0.487971 0.173572 0.144226
O O3 0.513232 0.255752 0.182416
O O4 0.500000 0.228562 0.000000
O O5 0.250000 0.864499 0.227149
O O6 0.492414 0.911762 0.177084
O O7 0.514121 0.851295 0.318305
O O8 0.750000 0.949867 0.894983
O O9 0.992078 0.000000 0.867374
O O10 0.000000 0.941343 0.000000
O O11 0.750000 0.269612 0.726438
O O12 0.993206 0.315870 0.673851
O O13 0.986704 0.230699 0.643697
O O14 0.750000 0.190512 0.396093
O O15 0.000000 0.175675 0.500000
O O16 0.500000 0.351107 0.500000
O O17 0.750000 0.355470 0.605713
O O18 0.508387 0.404797 0.646057
O O19 0.500000 0.452958 0.500000
O O20 0.250000 0.452785 0.390691
O O21 0.492920 0.500000 0.348521
#
# Coordination Sequence:
#
# PCOD9400566 Si02
#       7
#     8   8   8   8   8   8   8
#     4  11  21  33  48  66  89 116 146 178 216 259
#     4  10  19  32  50  71  94 119 148 180 215 255
#     4   9  18  31  48  71  97 122 146 175 213 257
#     4  10  19  31  45  64  89 115 147 182 218 259
#     4  11  21  33  48  66  89 117 151 186 221 258
#     4   9  17  26  39  59  84 115 147 180 214 251
#     4   8  13  22  35  52  76 107 142 176 210 248
#
# _framework density 15.474997
#
# number of rings (size 3 to 8) (size 9 to 14) (size 15 to 20)
#    0.000    2.286    0.000    6.000    0.000    4.571 
#    0.000    0.000    0.000    0.429    0.000    0.000 
#    0.000    0.571    0.000    1.000    0.000    1.714 
#
# Total GULP energy -312125.659073 kJ/mol
# GULP energy per Si atom -5573.672483 kJ/mol
# Density = 1.543978 g / cm^3
# Si number density = 15.474997 Si / 1000 Ang^3
#
#
#
# Elastic Constant Matrix: (Units=GPa)
#
#
# Indices 1 2 3 4 5 6 
#
# 1 24.8695 -0.7784 4.9865 0.0000 0.0000 0.0000
# 2 -0.7784 127.5157 59.0629 0.0000 0.0000 0.0000
# 3 4.9865 59.0629 91.0478 0.0000 0.0000 0.0000
# 4 0.0000 0.0000 0.0000 20.8747 0.0000 0.0000
# 5 0.0000 0.0000 0.0000 0.0000 23.5884 0.0000
# 6 0.0000 0.0000 0.0000 0.0000 0.0000 20.7405
#
#
#
# Elastic Compliance Matrix: (Units=1/GPa)
#
#
# Indices 1 2 3 4 5 6 
#
# 1 0.040957 0.001843 -0.003438 0.000000 0.000000 0.000000
# 2 0.001843 0.011293 -0.007427 0.000000 0.000000 0.000000
# 3 -0.003438 -0.007427 0.015989 0.000000 0.000000 0.000000
# 4 0.000000 0.000000 0.000000 0.047905 0.000000 0.000000
# 5 0.000000 0.000000 0.000000 0.000000 0.042394 0.000000
# 6 0.000000 0.000000 0.000000 0.000000 0.000000 0.048215
#
#
# Mechanical properties :
#
#
# Convention : Reuss Voigt Hill
#
# Bulk Modulus (GPa) = 19.92259 41.10833 30.51546
# Shear Modulus (GPa) = 20.70131 25.05151 22.87641
#
# Velocity S-wave (km/s) = 3.66146 4.02784 3.84901
# Velocity P-wave (km/s) = 5.54771 6.94647 6.28611
#
# Compressibility (1/GPa) = 0.05019429
#
# Stress axis : x y z
#
# Youngs Moduli (GPa) = 24.41585 88.54667 62.54105
#
# Poissons Ratio (x) = -0.16316 0.21505
# Poissons Ratio (y) = -0.04499 0.46449
# Poissons Ratio (z) = 0.08395 0.65764
#
# Static dielectric constant tensor:
#      x y z
#    x 1.524480 0.000000 0.000000 
#    y 0.000000 1.555270 0.000000 
#    z 0.000000 0.000000 1.483890 
# 
# From -- ./inp_files/22519.got.cif
#   From: 2010.05.17/outbox.cif.g08.bks.cpg/sg51_12_cif.got.tgz:22519.got - 2010.06.03 11:52:47.
