data_PCOD9400133
_publ_section_title
;
Structure prediction by ZEFSAII (Michael W. Deem and Ramdas Pophale) SiO2 
 PCOD9400133
Probable space group: P M M A
;
_chemical_formula_sum "Si O2"
_cell_formula_units_Z 48
_cell_length_a 17.533581
_cell_length_b 16.898237
_cell_length_c 7.263904
_cell_angle_alpha 90.000000
_cell_angle_beta 90.000000
_cell_angle_gamma 90.000000
_cell_volume 2152.197471
_symmetry_space_group_name_H-M "P M M A"
_symmetry_group_IT_number 51
_symmetry_cell_setting 'orthorhombic'
loop_
_space_group_symop_operation_xyz
x,y,z
1/2-x,-y,z
1/2+x,-y,-z
-x,y,-z
-x,-y,-z
1/2+x,y,-z
1/2-x,y,z
x,-y,z
loop_
_atom_site_type_symbol
_atom_site_label
_atom_site_fract_x
_atom_site_fract_y
_atom_site_fract_z
Si Si1 0.658961 0.413033 0.931198
Si Si2 0.589599 0.251889 0.965038
Si Si3 0.660775 0.084641 0.529525
Si Si4 0.839659 0.087309 0.976084
Si Si5 0.907871 0.584730 0.518677
Si Si6 0.409712 0.754086 0.473385
O O1 0.750000 0.406317 0.903782
O O2 0.643518 0.500000 0.016404
O O3 0.628904 0.333622 0.027925
O O4 0.616955 0.415530 0.732783
O O5 0.619064 0.167437 0.038461
O O6 0.605082 0.248581 0.745603
O O7 0.500000 0.258455 0.000000
O O8 0.750000 0.085417 0.484660
O O9 0.655098 0.085998 0.752495
O O10 0.624525 0.164487 0.455809
O O11 0.627712 0.000000 0.468690
O O12 0.750000 0.092755 0.021742
O O13 0.867597 0.000000 0.037883
O O14 0.880473 0.500000 0.442112
O O15 0.880627 0.670292 0.447742
O O16 0.000000 0.585509 0.500000
O O17 0.500000 0.757276 0.500000
#
# Coordination Sequence:
#
# PCOD9400133 Si02
#       6
#     8   8   8   8   8   8
#     4   9  17  29  46  68  91 118 157 198 229 267
#     4  10  19  29  44  67  94 119 147 187 233 274
#     4   8  14  25  42  63  84 108 142 183 221 255
#     4   8  14  26  44  64  85 112 149 190 228 267
#     4   8  14  25  41  63  91 117 141 179 228 268
#     4   9  17  28  43  63  87 114 144 175 214 264
#
# _framework density 22.302786999999999
#
# number of rings (size 3 to 8) (size 9 to 14) (size 15 to 20)
#    0.000    3.333    0.000    1.500    0.000    5.000 
#    0.000    0.000    0.000    2.000    0.000    9.333 
#    0.000   45.333    0.000    0.000    0.000    0.000 
#
# Total GULP energy -267424.353752 kJ/mol
# GULP energy per Si atom -5571.340703 kJ/mol
# Density = 2.225202 g / cm^3
# Si number density = 22.302787 Si / 1000 Ang^3
#
#
#
# Elastic Constant Matrix: (Units=GPa)
#
#
# Indices 1 2 3 4 5 6 
#
# 1 44.4324 80.3895 2.9423 0.0000 0.0000 0.0000
# 2 80.3895 329.6445 17.5001 0.0000 0.0000 0.0000
# 3 2.9423 17.5001 97.1006 0.0000 0.0000 0.0000
# 4 0.0000 0.0000 0.0000 54.5917 0.0000 0.0000
# 5 0.0000 0.0000 0.0000 0.0000 13.5689 0.0000
# 6 0.0000 0.0000 0.0000 0.0000 0.0000 35.2274
#
#
#
# Elastic Compliance Matrix: (Units=1/GPa)
#
#
# Indices 1 2 3 4 5 6 
#
# 1 0.040307 -0.009859 0.000555 0.000000 0.000000 0.000000
# 2 -0.009859 0.005474 -0.000688 0.000000 0.000000 0.000000
# 3 0.000555 -0.000688 0.010406 0.000000 0.000000 0.000000
# 4 0.000000 0.000000 0.000000 0.018318 0.000000 0.000000
# 5 0.000000 0.000000 0.000000 0.000000 0.073698 0.000000
# 6 0.000000 0.000000 0.000000 0.000000 0.000000 0.028387
#
#
# Mechanical properties :
#
#
# Convention : Reuss Voigt Hill
#
# Bulk Modulus (GPa) = 27.62122 74.76014 51.19068
# Shear Modulus (GPa) = 23.96472 45.36733 34.66603
#
# Velocity S-wave (km/s) = 3.28154 4.51505 3.94678
# Velocity P-wave (km/s) = 5.17393 7.79578 6.61603
#
# Compressibility (1/GPa) = 0.03620405
#
# Stress axis : x y z
#
# Youngs Moduli (GPa) = 24.80979 182.66960 96.10080
#
# Poissons Ratio (x) = 1.80093 -0.05338
# Poissons Ratio (y) = 0.24460 0.06611
# Poissons Ratio (z) = -0.01378 0.12566
#
# Static dielectric constant tensor:
#      x y z
#    x 1.735540 0.000000 0.000000 
#    y 0.000000 1.909230 0.000000 
#    z 0.000000 0.000000 1.822360 
# 
# From -- ./inp_files/8241.got.cif
#   From: 2010.05.17/outbox.cif.g08.bks.cpg/sg51_5_cif.got.tgz:8241.got - 2010.06.03 11:52:47.
