data_PCOD9400985
_publ_section_title
;
Structure prediction by ZEFSAII (Michael W. Deem and Ramdas Pophale) SiO2 
 PCOD9400985
Probable space group: P M M A
;
_chemical_formula_sum "Si O2"
_cell_formula_units_Z 40
_cell_length_a 26.250613
_cell_length_b 7.511995
_cell_length_c 9.539781
_cell_angle_alpha 90.000000
_cell_angle_beta 90.000000
_cell_angle_gamma 90.000000
_cell_volume 1881.192093
_symmetry_space_group_name_H-M "P M M A"
_symmetry_group_IT_number 51
_symmetry_cell_setting 'orthorhombic'
loop_
_space_group_symop_operation_xyz
x,y,z
1/2-x,-y,z
1/2+x,-y,-z
-x,y,-z
-x,-y,-z
1/2+x,y,-z
1/2-x,y,z
x,-y,z
loop_
_atom_site_type_symbol
_atom_site_label
_atom_site_fract_x
_atom_site_fract_y
_atom_site_fract_z
Si Si1 0.405765 0.292794 0.650034
Si Si2 0.598589 0.718188 0.666834
Si Si3 0.807318 0.286345 0.851432
Si Si4 0.501689 0.282244 0.160758
Si Si5 0.807544 0.788658 0.175741
O O1 0.419448 0.500000 0.632418
O O2 0.404694 0.218115 0.493157
O O3 0.448586 0.218926 0.754704
O O4 0.350830 0.283201 0.722718
O O5 0.600066 0.500000 0.665741
O O6 0.649532 0.779308 0.746193
O O7 0.548899 0.769090 0.755001
O O8 0.750000 0.217701 0.825787
O O9 0.805555 0.500000 0.837564
O O10 0.820575 0.248394 0.013326
O O11 0.502935 0.500000 0.156527
O O12 0.500000 0.222103 0.000000
O O13 0.750000 0.719385 0.200296
O O14 0.806422 0.000000 0.194658
#
# Coordination Sequence:
#
# PCOD9400985 Si02
#       5
#     8   8   8   8   8
#     4  10  19  31  51  77 103 132 166 205 247 292
#     4   9  17  29  48  77 108 132 160 203 251 295
#     4   9  17  31  52  75  97 125 165 209 248 290
#     4   9  16  27  47  75 104 133 165 201 243 291
#     4  10  21  36  52  71  98 132 168 206 249 297
#
# _framework density 21.263114999999999
#
# number of rings (size 3 to 8) (size 9 to 14) (size 15 to 20)
#    0.000    2.600    0.000    2.400    0.000    7.600 
#    0.000    3.000    0.000   10.200    0.000    0.000 
#    0.000    0.000    0.000    0.000    0.000    0.000 
#
# Total GULP energy -223402.281527 kJ/mol
# GULP energy per Si atom -5585.057038 kJ/mol
# Density = 2.121472 g / cm^3
# Si number density = 21.263115 Si / 1000 Ang^3
#
#
#
# Elastic Constant Matrix: (Units=GPa)
#
#
# Indices 1 2 3 4 5 6 
#
# 1 145.7019 -4.5086 136.8254 0.0000 0.0000 0.0000
# 2 -4.5086 53.2796 -3.1821 0.0000 0.0000 0.0000
# 3 136.8254 -3.1821 219.4707 0.0000 0.0000 0.0000
# 4 0.0000 0.0000 0.0000 -35.9203 0.0000 0.0000
# 5 0.0000 0.0000 0.0000 0.0000 -2.3952 0.0000
# 6 0.0000 0.0000 0.0000 0.0000 0.0000 -12.7226
#
#
#
# Elastic Compliance Matrix: (Units=1/GPa)
#
#
# Indices 1 2 3 4 5 6 
#
# 1 0.016589 0.000787 -0.010331 0.000000 0.000000 0.000000
# 2 0.000787 0.018823 -0.000218 0.000000 0.000000 0.000000
# 3 -0.010331 -0.000218 0.010994 0.000000 0.000000 0.000000
# 4 0.000000 0.000000 0.000000 -0.027839 0.000000 0.000000
# 5 0.000000 0.000000 0.000000 0.000000 -0.417498 0.000000
# 6 0.000000 0.000000 0.000000 0.000000 0.000000 -0.078601
#
#
# Mechanical properties :
#
#
# Convention : Reuss Voigt Hill
#
# Bulk Modulus (GPa) = 37.19933 75.19128 56.19530
# Shear Modulus (GPa) = -11.13466 9.08023 -1.02722
#
# Velocity S-wave (km/s) = -2.29085 2.06874 -0.69581
# Velocity P-wave (km/s) = 3.24584 6.41446 5.08334
#
# Compressibility (1/GPa) = 0.02688221
#
# Stress axis : x y z
#
# Youngs Moduli (GPa) = 60.28067 53.12790 90.96031
#
# Poissons Ratio (x) = -0.04180 0.93969
# Poissons Ratio (y) = -0.04743 0.01979
# Poissons Ratio (z) = 0.62275 0.01156
#
# Static dielectric constant tensor:
#      x y z
#    x 1.721090 0.000000 0.000000 
#    y 0.000000 1.801820 0.000000 
#    z 0.000000 0.000000 1.719670 
# 
# From -- ./inp_files/11419.got.cif
#   From: 2010.05.17/outbox.cif.g08.bks.cpg/sg51_6_cif.got.tgz:11419.got - 2010.06.03 11:52:47.
