data_PCOD9400307
_publ_section_title
;
Structure prediction by ZEFSAII (Michael W. Deem and Ramdas Pophale) SiO2 
 PCOD9400307
Probable space group: P M M A
;
_chemical_formula_sum "Si O2"
_cell_formula_units_Z 48
_cell_length_a 7.950683
_cell_length_b 18.531013
_cell_length_c 14.068208
_cell_angle_alpha 90.000000
_cell_angle_beta 90.000000
_cell_angle_gamma 90.000000
_cell_volume 2072.728312
_symmetry_space_group_name_H-M "P M M A"
_symmetry_group_IT_number 51
_symmetry_cell_setting 'orthorhombic'
loop_
_space_group_symop_operation_xyz
x,y,z
1/2-x,-y,z
1/2+x,-y,-z
-x,y,-z
-x,-y,-z
1/2+x,y,-z
1/2-x,y,z
x,-y,z
loop_
_atom_site_type_symbol
_atom_site_label
_atom_site_fract_x
_atom_site_fract_y
_atom_site_fract_z
Si Si1 0.948220 0.889041 0.898155
Si Si2 0.942927 0.231670 0.366215
Si Si3 0.049526 0.078222 0.683513
Si Si4 0.544610 0.578145 0.813568
Si Si5 0.953036 0.266942 0.841639
Si Si6 0.441376 0.387650 0.398473
O O1 0.750000 0.899195 0.887733
O O2 0.986737 0.803371 0.902711
O O3 0.023824 0.915475 0.797957
O O4 0.000000 0.920249 0.000000
O O5 0.750000 0.233709 0.400640
O O6 0.015831 0.150342 0.369647
O O7 0.948616 0.248681 0.254321
O O8 0.042499 0.300549 0.404013
O O9 0.250000 0.079547 0.667961
O O10 0.982040 0.000000 0.652949
O O11 0.750000 0.576984 0.813012
O O12 0.486657 0.500000 0.848826
O O13 0.498365 0.651578 0.868888
O O14 0.483606 0.588348 0.703354
O O15 0.750000 0.267157 0.822145
O O16 0.500000 0.416118 0.500000
O O17 0.250000 0.408665 0.390350
#
# Coordination Sequence:
#
# PCOD9400307 Si02
#       6
#     8   8   8   8   8   8
#     4  10  19  30  45  66  91 120 152 185 222 262
#     4   9  16  28  47  67  87 114 147 181 217 259
#     4   9  18  32  49  69  92 117 145 179 221 268
#     4   8  14  26  45  67  89 114 145 182 223 264
#     4   8  15  28  45  64  86 114 150 186 217 257
#     4  10  19  30  45  66  92 120 150 183 218 259
#
# _framework density 23.157882000000001
#
# number of rings (size 3 to 8) (size 9 to 14) (size 15 to 20)
#    0.000    3.000    0.000    2.500    0.000    2.333 
#    0.000    0.000    0.000   13.000    0.000    0.000 
#    0.000    0.000    0.000    0.000    0.000    1.500 
#
# Total GULP energy -267251.695558 kJ/mol
# GULP energy per Si atom -5567.743657 kJ/mol
# Density = 2.310517 g / cm^3
# Si number density = 23.157882 Si / 1000 Ang^3
#
#
#
# Elastic Constant Matrix: (Units=GPa)
#
#
# Indices 1 2 3 4 5 6 
#
# 1 -43.6498 3.9029 26.8650 0.0000 0.0000 0.0000
# 2 3.9029 197.6395 -10.1170 0.0000 0.0000 0.0000
# 3 26.8650 -10.1170 14.6320 0.0000 0.0000 0.0000
# 4 0.0000 0.0000 0.0000 -15.2967 0.0000 0.0000
# 5 0.0000 0.0000 0.0000 0.0000 8.6818 0.0000
# 6 0.0000 0.0000 0.0000 0.0000 0.0000 16.3748
#
#
#
# Elastic Compliance Matrix: (Units=1/GPa)
#
#
# Indices 1 2 3 4 5 6 
#
# 1 -0.010457 0.001233 0.020053 0.000000 0.000000 0.000000
# 2 0.001233 0.005100 0.001262 0.000000 0.000000 0.000000
# 3 0.020053 0.001262 0.032398 0.000000 0.000000 0.000000
# 4 0.000000 0.000000 0.000000 -0.065374 0.000000 0.000000
# 5 0.000000 0.000000 0.000000 0.000000 0.115183 0.000000
# 6 0.000000 0.000000 0.000000 0.000000 0.000000 0.061070
#
#
# Mechanical properties :
#
#
# Convention : Reuss Voigt Hill
#
# Bulk Modulus (GPa) = 13.86243 23.32484 18.59364
# Shear Modulus (GPa) = 42.78292 11.81669 27.29981
#
# Velocity S-wave (km/s) = 4.30285 2.26136 3.43717
# Velocity P-wave (km/s) = 5.53942 4.11245 4.87839
#
# Compressibility (1/GPa) = 0.07213742
#
# Stress axis : x y z
#
# Youngs Moduli (GPa) = -95.62545 196.07877 30.86588
#
# Poissons Ratio (x) = -0.24176 -0.61895
# Poissons Ratio (y) = 0.11791 -0.03897
# Poissons Ratio (z) = 1.91757 -0.24754
#
# Static dielectric constant tensor:
#      x y z
#    x 1.828390 0.000000 0.000000 
#    y 0.000000 1.963260 0.000000 
#    z 0.000000 0.000000 1.888850 
# 
# From -- ./inp_files/27584.got.cif
#   From: 2010.05.17/outbox.cif.g08.bks.cpg/sg51_14_cif.got.tgz:27584.got - 2010.06.03 11:52:47.
