data_PCOD9400418
_publ_section_title
;
Structure prediction by ZEFSAII (Michael W. Deem and Ramdas Pophale) SiO2 
 PCOD9400418
Probable space group: P M M A
;
_chemical_formula_sum "Si O2"
_cell_formula_units_Z 64
_cell_length_a 30.760718
_cell_length_b 7.773399
_cell_length_c 15.462923
_cell_angle_alpha 90.000000
_cell_angle_beta 90.000000
_cell_angle_gamma 90.000000
_cell_volume 3697.422006
_symmetry_space_group_name_H-M "P M M A"
_symmetry_group_IT_number 51
_symmetry_cell_setting 'orthorhombic'
loop_
_space_group_symop_operation_xyz
x,y,z
1/2-x,-y,z
1/2+x,-y,-z
-x,y,-z
-x,-y,-z
1/2+x,y,-z
1/2-x,y,z
x,-y,z
loop_
_atom_site_type_symbol
_atom_site_label
_atom_site_fract_x
_atom_site_fract_y
_atom_site_fract_z
Si Si1 0.938480 0.296874 0.954501
Si Si2 0.798348 0.292311 0.711866
Si Si3 0.390621 0.297172 0.544193
Si Si4 0.437473 0.204932 0.367196
Si Si5 0.028282 0.289670 0.868322
Si Si6 0.701398 0.289698 0.510717
Si Si7 0.613672 0.200068 0.799385
Si Si8 0.535511 0.708698 0.327934
O O1 0.945456 0.500000 0.962008
O O2 0.897479 0.270547 0.893543
O O3 0.980525 0.232340 0.900888
O O4 0.940155 0.233041 0.053214
O O5 0.750000 0.238266 0.739041
O O6 0.799951 0.500000 0.713426
O O7 0.804195 0.240086 0.611572
O O8 0.837141 0.224767 0.769712
O O9 0.386365 0.500000 0.562675
O O10 0.412789 0.279156 0.450093
O O11 0.341383 0.227324 0.539409
O O12 0.424535 0.225694 0.614127
O O13 0.416414 0.275077 0.277910
O O14 0.488725 0.241423 0.366770
O O15 0.430738 0.000000 0.369790
O O16 0.028502 0.500000 0.863559
O O17 0.037632 0.230076 0.771468
O O18 0.750000 0.235266 0.482813
O O19 0.701261 0.500000 0.508892
O O20 0.603281 0.000000 0.803953
O O21 0.536764 0.500000 0.328389
#
# Coordination Sequence:
#
# PCOD9400418 Si02
#       8
#     8   8   8   8   8   8   8   8
#     4   9  16  29  49  65  82 116 153 187 226 270
#     4   9  17  30  49  68  86 115 152 186 222 266
#     4  10  19  30  47  67  86 116 154 187 222 262
#     4  11  22  32  41  60  93 129 155 179 217 265
#     4   8  15  28  46  67  86 109 150 193 230 264
#     4   8  14  26  44  65  87 110 141 181 219 259
#     4  11  21  30  43  67  95 122 151 184 226 268
#     4  10  19  31  47  66  88 116 154 196 226 261
#
# _framework density 17.309356999999999
#
# number of rings (size 3 to 8) (size 9 to 14) (size 15 to 20)
#    0.000    2.500    2.500    2.625    0.000    3.250 
#    0.000    1.875    0.000    0.375    0.000    0.875 
#    0.000    5.000    0.000    0.000    0.000    0.125 
#
# Total GULP energy -356750.013296 kJ/mol
# GULP energy per Si atom -5574.218958 kJ/mol
# Density = 1.726996 g / cm^3
# Si number density = 17.309357 Si / 1000 Ang^3
#
#
#
# Elastic Constant Matrix: (Units=GPa)
#
#
# Indices 1 2 3 4 5 6 
#
# 1 125.8129 -7.9978 47.7788 0.0000 0.0000 0.0000
# 2 -7.9978 17.3255 -5.1077 0.0000 0.0000 0.0000
# 3 47.7788 -5.1077 66.6174 0.0000 0.0000 0.0000
# 4 0.0000 0.0000 0.0000 -8.1339 0.0000 0.0000
# 5 0.0000 0.0000 0.0000 0.0000 24.0291 0.0000
# 6 0.0000 0.0000 0.0000 0.0000 0.0000 -19.6647
#
#
#
# Elastic Compliance Matrix: (Units=1/GPa)
#
#
# Indices 1 2 3 4 5 6 
#
# 1 0.011058 0.002830 -0.007714 0.000000 0.000000 0.000000
# 2 0.002830 0.059778 0.002553 0.000000 0.000000 0.000000
# 3 -0.007714 0.002553 0.020739 0.000000 0.000000 0.000000
# 4 0.000000 0.000000 0.000000 -0.122942 0.000000 0.000000
# 5 0.000000 0.000000 0.000000 0.000000 0.041616 0.000000
# 6 0.000000 0.000000 0.000000 0.000000 0.000000 -0.050852
#
#
# Mechanical properties :
#
#
# Convention : Reuss Voigt Hill
#
# Bulk Modulus (GPa) = 11.50554 31.01139 21.25846
# Shear Modulus (GPa) = -717.10625 10.91825 -353.09400
#
# Velocity S-wave (km/s) = -20.37615 2.51424 -14.29801
# Velocity P-wave (km/s) = 23.38636 5.13648 16.13286
#
# Compressibility (1/GPa) = 0.08691463
#
# Stress axis : x y z
#
# Youngs Moduli (GPa) = 90.43588 16.72864 48.21792
#
# Poissons Ratio (x) = -0.04735 0.37193
# Poissons Ratio (y) = -0.25596 -0.12312
# Poissons Ratio (z) = 0.69759 -0.04271
#
# Static dielectric constant tensor:
#      x y z
#    x 1.594190 0.000000 0.000000 
#    y 0.000000 1.631580 0.000000 
#    z 0.000000 0.000000 1.595360 
# 
# From -- ./inp_files/26672.got.cif
#   From: 2010.05.17/outbox.cif.g08.bks.cpg/sg51_14_cif.got.tgz:26672.got - 2010.06.03 11:52:47.
