data_PCOD9400868
_publ_section_title
;
Structure prediction by ZEFSAII (Michael W. Deem and Ramdas Pophale) SiO2 
 PCOD9400868
Probable space group: P M M A
;
_chemical_formula_sum "Si O2"
_cell_formula_units_Z 64
_cell_length_a 29.850765
_cell_length_b 7.669063
_cell_length_c 12.698318
_cell_angle_alpha 90.000000
_cell_angle_beta 90.000000
_cell_angle_gamma 90.000000
_cell_volume 2906.992891
_symmetry_space_group_name_H-M "P M M A"
_symmetry_group_IT_number 51
_symmetry_cell_setting 'orthorhombic'
loop_
_space_group_symop_operation_xyz
x,y,z
1/2-x,-y,z
1/2+x,-y,-z
-x,y,-z
-x,-y,-z
1/2+x,y,-z
1/2-x,y,z
x,-y,z
loop_
_atom_site_type_symbol
_atom_site_label
_atom_site_fract_x
_atom_site_fract_y
_atom_site_fract_z
Si Si1 0.395751 0.297834 0.328155
Si Si2 0.423109 0.707735 0.551542
Si Si3 0.798457 0.792453 0.596010
Si Si4 0.672435 0.291115 0.365599
Si Si5 0.299000 0.204086 0.866359
Si Si6 0.104359 0.785595 0.922723
Si Si7 0.054784 0.199426 0.129207
Si Si8 0.967242 0.209858 0.245680
O O1 0.407940 0.500000 0.312862
O O2 0.421627 0.225922 0.431791
O O3 0.343100 0.286842 0.353975
O O4 0.409124 0.201131 0.222548
O O5 0.417909 0.500000 0.540963
O O6 0.377948 0.774123 0.609128
O O7 0.463236 0.739759 0.632114
O O8 0.750000 0.730480 0.635951
O O9 0.801063 0.754030 0.471427
O O10 0.801033 0.000000 0.611086
O O11 0.671573 0.500000 0.353438
O O12 0.692513 0.215684 0.259141
O O13 0.250000 0.280859 0.890656
O O14 0.297340 0.000000 0.894928
O O15 0.344412 0.277004 0.917913
O O16 0.076744 0.724452 0.024501
O O17 0.105549 0.000000 0.923905
O O18 0.076623 0.732837 0.819237
O O19 0.010269 0.277350 0.181969
O O20 0.042949 0.000000 0.100825
O O21 0.968794 0.000000 0.243991
#
# Coordination Sequence:
#
# PCOD9400868 Si02
#       8
#     8   8   8   8   8   8   8   8
#     4  10  22  39  56  78 112 151 185 222 275 332
#     4   9  19  34  52  77 110 144 175 216 272 330
#     4  10  20  34  55  82 109 141 184 230 273 320
#     4  10  19  31  49  77 114 150 178 213 267 327
#     4  10  19  31  51  79 108 141 181 222 269 325
#     4   9  18  35  56  79 110 143 179 230 282 326
#     4  10  21  37  57  80 106 142 190 236 279 332
#     4  10  19  33  58  85 106 138 182 230 284 333
#
# _framework density 22.015878000000001
#
# number of rings (size 3 to 8) (size 9 to 14) (size 15 to 20)
#    0.000    2.250    1.250    2.625    0.000    7.750 
#    0.000    4.375    0.000    3.750    0.000    0.000 
#    0.000    0.000    0.000    0.000    0.000    0.000 
#
# Total GULP energy -357295.586234 kJ/mol
# GULP energy per Si atom -5582.743535 kJ/mol
# Density = 2.196577 g / cm^3
# Si number density = 22.015878 Si / 1000 Ang^3
#
#
#
# Elastic Constant Matrix: (Units=GPa)
#
#
# Indices 1 2 3 4 5 6 
#
# 1 59.3329 -4.3939 -10.0448 0.0000 0.0000 0.0000
# 2 -4.3939 46.5664 -5.8268 0.0000 0.0000 0.0000
# 3 -10.0448 -5.8268 61.0780 0.0000 0.0000 0.0000
# 4 0.0000 0.0000 0.0000 28.2193 0.0000 0.0000
# 5 0.0000 0.0000 0.0000 0.0000 26.5830 0.0000
# 6 0.0000 0.0000 0.0000 0.0000 0.0000 15.9494
#
#
#
# Elastic Compliance Matrix: (Units=1/GPa)
#
#
# Indices 1 2 3 4 5 6 
#
# 1 0.017526 0.002039 0.003077 0.000000 0.000000 0.000000
# 2 0.002039 0.021971 0.002431 0.000000 0.000000 0.000000
# 3 0.003077 0.002431 0.017110 0.000000 0.000000 0.000000
# 4 0.000000 0.000000 0.000000 0.035437 0.000000 0.000000
# 5 0.000000 0.000000 0.000000 0.000000 0.037618 0.000000
# 6 0.000000 0.000000 0.000000 0.000000 0.000000 0.062698
#
#
# Mechanical properties :
#
#
# Convention : Reuss Voigt Hill
#
# Bulk Modulus (GPa) = 13.94674 14.04958 13.99816
# Shear Modulus (GPa) = 24.85490 26.63320 25.74405
#
# Velocity S-wave (km/s) = 3.36364 3.48189 3.42327
# Velocity P-wave (km/s) = 4.62969 4.74975 4.69010
#
# Compressibility (1/GPa) = 0.07170136
#
# Stress axis : x y z
#
# Youngs Moduli (GPa) = 57.05836 45.51391 58.44377
#
# Poissons Ratio (x) = -0.09279 -0.17982
# Poissons Ratio (y) = -0.11633 -0.14210
# Poissons Ratio (z) = -0.17556 -0.11066
#
# Static dielectric constant tensor:
#      x y z
#    x 1.850060 0.000000 0.000000 
#    y 0.000000 1.829190 0.000000 
#    z 0.000000 0.000000 1.771470 
# 
# From -- ./inp_files/19434.got.cif
#   From: 2010.05.17/outbox.cif.g08.bks.cpg/sg51_10_cif.got.tgz:19434.got - 2010.06.03 11:52:47.
