data_PCOD9400815
_publ_section_title
;
Structure prediction by ZEFSAII (Michael W. Deem and Ramdas Pophale) SiO2 
 PCOD9400815
Probable space group: P M M A
;
_chemical_formula_sum "Si O2"
_cell_formula_units_Z 64
_cell_length_a 8.760136
_cell_length_b 14.325521
_cell_length_c 29.594632
_cell_angle_alpha 90.000000
_cell_angle_beta 90.000000
_cell_angle_gamma 90.000000
_cell_volume 3713.934313
_symmetry_space_group_name_H-M "P M M A"
_symmetry_group_IT_number 51
_symmetry_cell_setting 'orthorhombic'
loop_
_space_group_symop_operation_xyz
x,y,z
1/2-x,-y,z
1/2+x,-y,-z
-x,y,-z
-x,-y,-z
1/2+x,y,-z
1/2-x,y,z
x,-y,z
loop_
_atom_site_type_symbol
_atom_site_label
_atom_site_fract_x
_atom_site_fract_y
_atom_site_fract_z
Si Si1 0.933401 0.891854 0.363267
Si Si2 0.933737 0.098316 0.050548
Si Si3 0.433814 0.205115 0.451581
Si Si4 0.935035 0.394614 0.594659
Si Si5 0.933214 0.284295 0.685059
Si Si6 0.432707 0.303704 0.949701
Si Si7 0.567781 0.610151 0.229782
Si Si8 0.921498 0.389113 0.864185
O O1 0.750000 0.884758 0.364836
O O2 0.001978 0.858979 0.411363
O O3 0.997391 0.816449 0.327554
O O4 0.973806 0.000000 0.354030
O O5 0.750000 0.098309 0.048118
O O6 0.977889 0.199696 0.067993
O O7 0.981522 0.000000 0.072765
O O8 0.000000 0.096776 0.000000
O O9 0.500000 0.178470 0.500000
O O10 0.250000 0.200478 0.451399
O O11 0.480979 0.312356 0.439684
O O12 0.750000 0.398274 0.593344
O O13 0.991979 0.500000 0.586655
O O14 0.977040 0.355111 0.644177
O O15 0.750000 0.277183 0.685159
O O16 0.992112 0.328055 0.731385
O O17 0.250000 0.310037 0.952849
O O18 0.496577 0.370397 0.911485
O O19 0.500000 0.317603 0.000000
O O20 0.750000 0.616728 0.232420
O O21 0.526423 0.500000 0.235937
O O22 0.512531 0.642412 0.180228
O O23 0.750000 0.349949 0.864780
O O24 0.911167 0.500000 0.859399
#
# Coordination Sequence:
#
# PCOD9400815 Si02
#       8
#     8   8   8   8   8   8   8   8
#     4  10  21  37  56  77 102 133 171 217 265 311
#     4   8  14  25  42  65  91 118 150 189 234 282
#     4  10  20  33  50  72 100 136 176 218 262 309
#     4   8  15  28  46  70 100 132 165 201 244 296
#     4  10  19  32  54  81 107 134 164 204 252 306
#     4  10  19  31  49  72  99 132 169 210 254 301
#     4  10  20  34  54  80 108 136 166 203 249 302
#     4  10  21  36  52  71  98 133 172 212 253 298
#
# _framework density 17.232399999999998
#
# number of rings (size 3 to 8) (size 9 to 14) (size 15 to 20)
#    0.000    2.500    0.000    3.375    0.000    4.250 
#    0.000    0.000    0.000    7.875    0.000    1.750 
#    0.000    0.000    0.000    0.000    0.000    0.000 
#
# Total GULP energy -356523.021465 kJ/mol
# GULP energy per Si atom -5570.672210 kJ/mol
# Density = 1.719318 g / cm^3
# Si number density = 17.232400 Si / 1000 Ang^3
#
#
#
# Elastic Constant Matrix: (Units=GPa)
#
#
# Indices 1 2 3 4 5 6 
#
# 1 64.4345 37.9379 40.7017 0.0000 0.0000 0.0000
# 2 37.9379 79.7562 34.7629 0.0000 0.0000 0.0000
# 3 40.7017 34.7629 100.9984 0.0000 0.0000 0.0000
# 4 0.0000 0.0000 0.0000 15.6869 0.0000 0.0000
# 5 0.0000 0.0000 0.0000 0.0000 25.8151 0.0000
# 6 0.0000 0.0000 0.0000 0.0000 0.0000 21.3732
#
#
#
# Elastic Compliance Matrix: (Units=1/GPa)
#
#
# Indices 1 2 3 4 5 6 
#
# 1 0.025262 -0.008917 -0.007111 0.000000 0.000000 0.000000
# 2 -0.008917 0.017899 -0.002567 0.000000 0.000000 0.000000
# 3 -0.007111 -0.002567 0.013651 0.000000 0.000000 0.000000
# 4 0.000000 0.000000 0.000000 0.063748 0.000000 0.000000
# 5 0.000000 0.000000 0.000000 0.000000 0.038737 0.000000
# 6 0.000000 0.000000 0.000000 0.000000 0.000000 0.046788
#
#
# Mechanical properties :
#
#
# Convention : Reuss Voigt Hill
#
# Bulk Modulus (GPa) = 50.96709 52.44378 51.70544
# Shear Modulus (GPa) = 20.01494 21.36080 20.68787
#
# Velocity S-wave (km/s) = 3.41173 3.52458 3.46861
# Velocity P-wave (km/s) = 6.72015 6.86023 6.79055
#
# Compressibility (1/GPa) = 0.01962050
#
# Stress axis : x y z
#
# Youngs Moduli (GPa) = 39.58572 55.87018 73.25735
#
# Poissons Ratio (x) = 0.49818 0.52095
# Poissons Ratio (y) = 0.35298 0.18806
# Poissons Ratio (z) = 0.28150 0.14343
#
# Static dielectric constant tensor:
#      x y z
#    x 1.563160 0.000000 0.000000 
#    y 0.000000 1.627600 0.000000 
#    z 0.000000 0.000000 1.544340 
# 
# From -- ./inp_files/34959.got.cif
#   From: 2010.05.17/outbox.cif.g08.bks.cpg/sg51_18_cif.got.tgz:34959.got - 2010.06.03 11:52:47.
