data_PCOD9400212
_publ_section_title
;
Structure prediction by ZEFSAII (Michael W. Deem and Ramdas Pophale) SiO2 
 PCOD9400212
Probable space group: P M M A
;
_chemical_formula_sum "Si O2"
_cell_formula_units_Z 64
_cell_length_a 8.511475
_cell_length_b 32.137169
_cell_length_c 14.850762
_cell_angle_alpha 90.000000
_cell_angle_beta 90.000000
_cell_angle_gamma 90.000000
_cell_volume 4062.198885
_symmetry_space_group_name_H-M "P M M A"
_symmetry_group_IT_number 51
_symmetry_cell_setting 'orthorhombic'
loop_
_space_group_symop_operation_xyz
x,y,z
1/2-x,-y,z
1/2+x,-y,-z
-x,y,-z
-x,-y,-z
1/2+x,y,-z
1/2-x,y,z
x,-y,z
loop_
_atom_site_type_symbol
_atom_site_label
_atom_site_fract_x
_atom_site_fract_y
_atom_site_fract_z
Si Si1 0.561653 0.954761 0.602767
Si Si2 0.560308 0.293681 0.601511
Si Si3 0.939966 0.547289 0.600242
Si Si4 0.560700 0.242927 0.903064
Si Si5 0.560605 0.339805 0.903319
Si Si6 0.559735 0.211303 0.711472
Si Si7 0.063486 0.132690 0.602427
Si Si8 0.941927 0.625456 0.714890
O O1 0.500000 0.955457 0.500000
O O2 0.750000 0.952135 0.601608
O O3 0.494200 0.911868 0.640615
O O4 0.517174 0.000000 0.642914
O O5 0.500000 0.292916 0.500000
O O6 0.750000 0.293912 0.600392
O O7 0.511115 0.252463 0.655840
O O8 0.509031 0.335321 0.653680
O O9 0.750000 0.547892 0.598490
O O10 0.990007 0.500000 0.622190
O O11 0.993913 0.582395 0.670011
O O12 0.000000 0.557150 0.500000
O O13 0.750000 0.242569 0.904652
O O14 0.511486 0.291386 0.891660
O O15 0.509357 0.217505 0.815151
O O16 0.500000 0.228335 0.000000
O O17 0.750000 0.340155 0.904478
O O18 0.506903 0.365993 0.817084
O O19 0.500000 0.354374 0.000000
O O20 0.750000 0.209735 0.709844
O O21 0.495223 0.170576 0.663106
O O22 0.250000 0.132508 0.597484
O O23 0.000000 0.137406 0.500000
O O24 0.750000 0.625361 0.715334
#
# Coordination Sequence:
#
# PCOD9400212 Si02
#       8
#     8   8   8   8   8   8   8   8
#     4   9  16  27  44  64  86 115 153 195 234 270
#     4  10  19  30  43  60  84 116 149 180 215 257
#     4   9  17  29  46  67  89 115 146 180 219 264
#     4   9  17  30  48  66  85 112 145 185 229 269
#     4   9  16  29  47  66  86 111 142 180 223 265
#     4  10  19  32  46  61  87 120 151 182 223 270
#     4  11  21  31  44  63  90 125 160 192 227 268
#     4   9  16  29  47  64  86 115 146 178 218 268
#
# _framework density 15.755013999999999
#
# number of rings (size 3 to 8) (size 9 to 14) (size 15 to 20)
#    0.000    2.500    1.250    3.000    0.000    2.750 
#    0.000    1.250    0.000    0.375    0.000    0.000 
#    0.000    0.500    0.000    1.625    0.000    2.250 
#
# Total GULP energy -356699.050307 kJ/mol
# GULP energy per Si atom -5573.422661 kJ/mol
# Density = 1.571915 g / cm^3
# Si number density = 15.755014 Si / 1000 Ang^3
#
#
#
# Elastic Constant Matrix: (Units=GPa)
#
#
# Indices 1 2 3 4 5 6 
#
# 1 22.5919 26.2675 24.1519 0.0000 0.0000 0.0000
# 2 26.2675 133.5065 84.6522 0.0000 0.0000 0.0000
# 3 24.1519 84.6522 135.1447 0.0000 0.0000 0.0000
# 4 0.0000 0.0000 0.0000 8.2635 0.0000 0.0000
# 5 0.0000 0.0000 0.0000 0.0000 23.2160 0.0000
# 6 0.0000 0.0000 0.0000 0.0000 0.0000 14.3258
#
#
#
# Elastic Compliance Matrix: (Units=1/GPa)
#
#
# Indices 1 2 3 4 5 6 
#
# 1 0.059759 -0.008271 -0.005499 0.000000 0.000000 0.000000
# 2 -0.008271 0.013570 -0.007022 0.000000 0.000000 0.000000
# 3 -0.005499 -0.007022 0.012781 0.000000 0.000000 0.000000
# 4 0.000000 0.000000 0.000000 0.121013 0.000000 0.000000
# 5 0.000000 0.000000 0.000000 0.000000 0.043074 0.000000
# 6 0.000000 0.000000 0.000000 0.000000 0.000000 0.069804
#
#
# Mechanical properties :
#
#
# Convention : Reuss Voigt Hill
#
# Bulk Modulus (GPa) = 22.45881 62.37627 42.41754
# Shear Modulus (GPa) = 13.28285 19.57251 16.42768
#
# Velocity S-wave (km/s) = 2.90675 3.52846 3.23258
# Velocity P-wave (km/s) = 5.05485 7.50182 6.39644
#
# Compressibility (1/GPa) = 0.04452595
#
# Stress axis : x y z
#
# Youngs Moduli (GPa) = 16.73398 73.69245 78.24405
#
# Poissons Ratio (x) = 0.60951 0.43025
# Poissons Ratio (y) = 0.13841 0.54942
# Poissons Ratio (z) = 0.09202 0.51746
#
# Static dielectric constant tensor:
#      x y z
#    x 1.538150 0.000000 0.000000 
#    y 0.000000 1.541320 0.000000 
#    z 0.000000 0.000000 1.517750 
# 
# From -- ./inp_files/22573.got.cif
#   From: 2010.05.17/outbox.cif.g08.bks.cpg/sg51_12_cif.got.tgz:22573.got - 2010.06.03 11:52:47.
