data_PCOD9400554
_publ_section_title
;
Structure prediction by ZEFSAII (Michael W. Deem and Ramdas Pophale) SiO2 
 PCOD9400554
Probable space group: P M M A
;
_chemical_formula_sum "Si O2"
_cell_formula_units_Z 64
_cell_length_a 27.131488
_cell_length_b 8.979915
_cell_length_c 17.527367
_cell_angle_alpha 90.000000
_cell_angle_beta 90.000000
_cell_angle_gamma 90.000000
_cell_volume 4270.340635
_symmetry_space_group_name_H-M "P M M A"
_symmetry_group_IT_number 51
_symmetry_cell_setting 'orthorhombic'
loop_
_space_group_symop_operation_xyz
x,y,z
1/2-x,-y,z
1/2+x,-y,-z
-x,y,-z
-x,-y,-z
1/2+x,y,-z
1/2-x,y,z
x,-y,z
loop_
_atom_site_type_symbol
_atom_site_label
_atom_site_fract_x
_atom_site_fract_y
_atom_site_fract_z
Si Si1 0.070051 0.823884 0.356620
Si Si2 0.375235 0.673152 0.224680
Si Si3 0.463495 0.320873 0.676680
Si Si4 0.438552 0.175881 0.833923
Si Si5 0.806280 0.681653 0.910004
Si Si6 0.559474 0.670876 0.489382
Si Si7 0.610167 0.678164 0.028509
Si Si8 0.534460 0.671031 0.895016
O O1 0.111660 0.767701 0.298565
O O2 0.080073 0.772055 0.443262
O O3 0.018506 0.746503 0.331331
O O4 0.063949 0.000000 0.352515
O O5 0.367140 0.500000 0.245667
O O6 0.330851 0.726697 0.170440
O O7 0.423099 0.676304 0.169311
O O8 0.438770 0.256705 0.752251
O O9 0.434283 0.283469 0.598621
O O10 0.434741 0.000000 0.824653
O O11 0.467957 0.500000 0.680681
O O12 0.398133 0.238617 0.892519
O O13 0.490978 0.220220 0.871915
O O14 0.750000 0.729882 0.918386
O O15 0.807475 0.500000 0.909525
O O16 0.842439 0.726598 0.978978
O O17 0.500000 0.671413 0.500000
O O18 0.575886 0.500000 0.499791
O O19 0.613235 0.500000 0.040453
O O20 0.562628 0.703520 0.973775
O O21 0.515495 0.500000 0.897611
#
# Coordination Sequence:
#
# PCOD9400554 Si02
#       8
#     8   8   8   8   8   8   8   8
#     4  11  19  26  40  63  89 115 146 183 215 253
#     4   9  16  27  45  65  87 117 147 181 221 262
#     4  10  19  31  44  57  80 117 155 186 218 256
#     4  12  22  28  39  61  88 117 148 186 221 253
#     4   8  15  30  52  73  87 106 145 190 225 259
#     4   8  16  29  43  57  77 112 151 182 213 251
#     4   9  18  31  46  63  83 113 146 179 221 267
#     4   9  17  29  43  57  80 117 152 178 212 259
#
# _framework density 14.987094000000001
#
# number of rings (size 3 to 8) (size 9 to 14) (size 15 to 20)
#    0.000    2.500    1.250    5.250    0.000    4.750 
#    0.000    1.875    0.000    1.500    0.000    0.000 
#    0.000    1.000    0.000   11.500    0.000    3.250 
#
# Total GULP energy -356747.905158 kJ/mol
# GULP energy per Si atom -5574.186018 kJ/mol
# Density = 1.495298 g / cm^3
# Si number density = 14.987094 Si / 1000 Ang^3
#
#
#
# Elastic Constant Matrix: (Units=GPa)
#
#
# Indices 1 2 3 4 5 6 
#
# 1 54.2871 22.1918 41.2049 0.0000 0.0000 0.0000
# 2 22.1918 64.8039 60.5584 0.0000 0.0000 0.0000
# 3 41.2049 60.5584 141.1529 0.0000 0.0000 0.0000
# 4 0.0000 0.0000 0.0000 3.0091 0.0000 0.0000
# 5 0.0000 0.0000 0.0000 0.0000 11.4706 0.0000
# 6 0.0000 0.0000 0.0000 0.0000 0.0000 -5.6077
#
#
#
# Elastic Compliance Matrix: (Units=1/GPa)
#
#
# Indices 1 2 3 4 5 6 
#
# 1 0.023961 -0.002786 -0.005799 0.000000 0.000000 0.000000
# 2 -0.002786 0.026082 -0.010377 0.000000 0.000000 0.000000
# 3 -0.005799 -0.010377 0.013229 0.000000 0.000000 0.000000
# 4 0.000000 0.000000 0.000000 0.332330 0.000000 0.000000
# 5 0.000000 0.000000 0.000000 0.000000 0.087179 0.000000
# 6 0.000000 0.000000 0.000000 0.000000 0.000000 -0.178326
#
#
# Mechanical properties :
#
#
# Convention : Reuss Voigt Hill
#
# Bulk Modulus (GPa) = 39.44988 56.46157 47.95572
# Shear Modulus (GPa) = 14.25193 10.86032 12.55613
#
# Velocity S-wave (km/s) = 3.08709 2.69484 2.89761
# Velocity P-wave (km/s) = 6.25192 6.88754 6.57741
#
# Compressibility (1/GPa) = 0.02534862
#
# Stress axis : x y z
#
# Youngs Moduli (GPa) = 41.73385 38.34064 75.58962
#
# Poissons Ratio (x) = 0.10681 0.43838
# Poissons Ratio (y) = 0.11627 0.78436
# Poissons Ratio (z) = 0.24204 0.39785
#
# Static dielectric constant tensor:
#      x y z
#    x 1.478920 0.000000 0.000000 
#    y 0.000000 1.496080 0.000000 
#    z 0.000000 0.000000 1.531020 
# 
# From -- ./inp_files/26715.got.cif
#   From: 2010.05.17/outbox.cif.g08.bks.cpg/sg51_14_cif.got.tgz:26715.got - 2010.06.03 11:52:47.
