data_PCOD9400477
_publ_section_title
;
Structure prediction by ZEFSAII (Michael W. Deem and Ramdas Pophale) SiO2 
 PCOD9400477
Probable space group: P M M A
;
_chemical_formula_sum "Si O2"
_cell_formula_units_Z 64
_cell_length_a 15.163486
_cell_length_b 7.520453
_cell_length_c 28.700301
_cell_angle_alpha 90.000000
_cell_angle_beta 90.000000
_cell_angle_gamma 90.000000
_cell_volume 3272.875669
_symmetry_space_group_name_H-M "P M M A"
_symmetry_group_IT_number 51
_symmetry_cell_setting 'orthorhombic'
loop_
_space_group_symop_operation_xyz
x,y,z
1/2-x,-y,z
1/2+x,-y,-z
-x,y,-z
-x,-y,-z
1/2+x,y,-z
1/2-x,y,z
x,-y,z
loop_
_atom_site_type_symbol
_atom_site_label
_atom_site_fract_x
_atom_site_fract_y
_atom_site_fract_z
Si Si1 0.030795 0.789376 0.566937
Si Si2 0.849231 0.713639 0.346737
Si Si3 0.846068 0.707185 0.878489
Si Si4 0.155567 0.713785 0.923026
Si Si5 0.352605 0.782802 0.479185
Si Si6 0.973787 0.718434 0.157182
Si Si7 0.090031 0.204691 0.020282
Si Si8 0.850093 0.716919 0.240601
O O1 0.075024 0.759974 0.616797
O O2 0.101428 0.724947 0.528000
O O3 0.929996 0.726421 0.557532
O O4 0.025903 0.000000 0.559328
O O5 0.750000 0.776483 0.360402
O O6 0.845154 0.500000 0.345395
O O7 0.867010 0.774082 0.293788
O O8 0.750000 0.789395 0.872507
O O9 0.840357 0.500000 0.865820
O O10 0.871945 0.712350 0.933135
O O11 0.926570 0.781866 0.848677
O O12 0.250000 0.758146 0.901382
O O13 0.149950 0.500000 0.926589
O O14 0.078300 0.774886 0.889324
O O15 0.151010 0.786197 0.975093
O O16 0.250000 0.723140 0.473870
O O17 0.348226 0.000000 0.478606
O O18 0.973348 0.500000 0.156935
O O19 0.920815 0.776379 0.202670
O O20 0.072301 0.000000 0.032477
O O21 0.000000 0.287280 0.000000
O O22 0.750000 0.769342 0.228215
O O23 0.851471 0.500000 0.240235
#
# Coordination Sequence:
#
# PCOD9400477 Si02
#       8
#     8   8   8   8   8   8   8   8
#     4   9  16  26  44  67  88 117 157 194 228 266
#     4   9  17  28  43  65  93 122 150 182 223 271
#     4  10  20  33  50  70  89 112 144 181 219 254
#     4  10  19  30  48  71  89 109 139 175 215 254
#     4   8  14  25  41  63  91 121 154 192 230 268
#     4   9  16  28  47  68  89 110 138 179 215 250
#     4  11  22  34  47  64  89 121 150 171 203 255
#     4   8  14  26  45  68  91 115 143 175 218 271
#
# _framework density 19.554666999999998
#
# number of rings (size 3 to 8) (size 9 to 14) (size 15 to 20)
#    0.000    2.750    1.250    3.000    0.000    4.750 
#    0.000    1.250    0.000    3.375    0.000    3.500 
#    0.000    0.000    0.000    0.000    0.000    0.000 
#
# Total GULP energy -356773.547517 kJ/mol
# GULP energy per Si atom -5574.586680 kJ/mol
# Density = 1.951016 g / cm^3
# Si number density = 19.554667 Si / 1000 Ang^3
#
#
#
# Elastic Constant Matrix: (Units=GPa)
#
#
# Indices 1 2 3 4 5 6 
#
# 1 206.6951 9.0985 91.2831 0.0000 0.0000 0.0000
# 2 9.0985 47.8179 -1.6910 0.0000 0.0000 0.0000
# 3 91.2831 -1.6910 113.0878 0.0000 0.0000 0.0000
# 4 0.0000 0.0000 0.0000 12.9021 0.0000 0.0000
# 5 0.0000 0.0000 0.0000 0.0000 32.8315 0.0000
# 6 0.0000 0.0000 0.0000 0.0000 0.0000 2.8651
#
#
#
# Elastic Compliance Matrix: (Units=1/GPa)
#
#
# Indices 1 2 3 4 5 6 
#
# 1 0.007650 -0.001675 -0.006200 0.000000 0.000000 0.000000
# 2 -0.001675 0.021290 0.001670 0.000000 0.000000 0.000000
# 3 -0.006200 0.001670 0.013872 0.000000 0.000000 0.000000
# 4 0.000000 0.000000 0.000000 0.077507 0.000000 0.000000
# 5 0.000000 0.000000 0.000000 0.000000 0.030459 0.000000
# 6 0.000000 0.000000 0.000000 0.000000 0.000000 0.349030
#
#
# Mechanical properties :
#
#
# Convention : Reuss Voigt Hill
#
# Bulk Modulus (GPa) = 32.89099 62.77577 47.83338
# Shear Modulus (GPa) = 9.57211 27.64709 18.60960
#
# Velocity S-wave (km/s) = 2.21488 3.76418 3.08826
# Velocity P-wave (km/s) = 4.83709 7.14594 6.10172
#
# Compressibility (1/GPa) = 0.03040346
#
# Stress axis : x y z
#
# Youngs Moduli (GPa) = 130.72166 46.96947 72.08689
#
# Poissons Ratio (x) = 0.07867 0.44693
# Poissons Ratio (y) = 0.21893 -0.12040
# Poissons Ratio (z) = 0.81046 -0.07845
#
# Static dielectric constant tensor:
#      x y z
#    x 1.748770 0.000000 0.000000 
#    y 0.000000 1.741360 0.000000 
#    z 0.000000 0.000000 1.660430 
# 
# From -- ./inp_files/37801.got.cif
#   From: 2010.05.17/outbox.cif.g08.bks.cpg/sg51_19_cif.got.tgz:37801.got - 2010.06.03 11:52:47.
