data_PCOD9400179
_publ_section_title
;
Structure prediction by ZEFSAII (Michael W. Deem and Ramdas Pophale) SiO2 
 PCOD9400179
Probable space group: P M M A
;
_chemical_formula_sum "Si O2"
_cell_formula_units_Z 40
_cell_length_a 7.367896
_cell_length_b 8.256662
_cell_length_c 29.340461
_cell_angle_alpha 90.000000
_cell_angle_beta 90.000000
_cell_angle_gamma 90.000000
_cell_volume 1784.904263
_symmetry_space_group_name_H-M "P M M A"
_symmetry_group_IT_number 51
_symmetry_cell_setting 'orthorhombic'
loop_
_space_group_symop_operation_xyz
x,y,z
1/2-x,-y,z
1/2+x,-y,-z
-x,y,-z
-x,-y,-z
1/2+x,y,-z
1/2-x,y,z
x,-y,z
loop_
_atom_site_type_symbol
_atom_site_label
_atom_site_fract_x
_atom_site_fract_y
_atom_site_fract_z
Si Si1 0.038387 0.825986 0.098475
Si Si2 0.971594 0.812431 0.390332
Si Si3 0.030632 0.320153 0.808065
Si Si4 0.530287 0.811878 0.287491
Si Si5 0.033602 0.500000 0.553674
Si Si6 0.966977 0.500000 0.946392
O O1 0.250000 0.830328 0.085577
O O2 0.959013 0.664826 0.075868
O O3 0.028305 0.802159 0.152926
O O4 0.958378 0.000000 0.085811
O O5 0.750000 0.815992 0.391211
O O6 0.028168 0.768192 0.338559
O O7 0.032923 0.667983 0.423471
O O8 0.027718 0.000000 0.400044
O O9 0.250000 0.316200 0.807206
O O10 0.971635 0.500000 0.821672
O O11 0.966960 0.283083 0.756888
O O12 0.750000 0.798593 0.288066
O O13 0.485106 0.000000 0.280771
O O14 0.250000 0.500000 0.561222
O O15 0.000000 0.500000 0.500000
O O16 0.750000 0.500000 0.938070
O O17 0.000000 0.500000 0.000000
#
# Coordination Sequence:
#
# PCOD9400179 Si02
#       6
#     8   8   8   8   4   4
#     4  10  21  38  58  78 105 143 178 207 248 303
#     4   8  15  28  46  69  96 126 160 198 243 294
#     4  10  19  29  48  80 112 139 169 207 251 295
#     4   8  14  25  42  68 101 131 161 201 244 285
#     4  10  20  32  49  70  92 120 159 204 249 298
#     4  10  22  40  59  80 106 132 169 218 261 306
#
# _framework density 22.410164999999999
#
# number of rings (size 3 to 8) (size 9 to 14) (size 15 to 20)
#    0.000    2.800    1.000    1.800    1.400    2.800 
#    0.000    0.000    0.000    1.200    0.000    2.800 
#    0.000    0.000    0.000    0.000    0.000    0.000 
#
# Total GULP energy -223258.499396 kJ/mol
# GULP energy per Si atom -5581.462485 kJ/mol
# Density = 2.235916 g / cm^3
# Si number density = 22.410165 Si / 1000 Ang^3
#
#
#
# Elastic Constant Matrix: (Units=GPa)
#
#
# Indices 1 2 3 4 5 6 
#
# 1 81.8856 10.9402 -8.2190 0.0000 0.0000 0.0000
# 2 10.9402 193.0282 98.3916 0.0000 0.0000 0.0000
# 3 -8.2190 98.3916 128.1962 0.0000 0.0000 0.0000
# 4 0.0000 0.0000 0.0000 -7.6307 0.0000 0.0000
# 5 0.0000 0.0000 0.0000 0.0000 10.6118 0.0000
# 6 0.0000 0.0000 0.0000 0.0000 0.0000 -7.2930
#
#
#
# Elastic Compliance Matrix: (Units=1/GPa)
#
#
# Indices 1 2 3 4 5 6 
#
# 1 0.012686 -0.001862 0.002242 0.000000 0.000000 0.000000
# 2 -0.001862 0.008783 -0.006860 0.000000 0.000000 0.000000
# 3 0.002242 -0.006860 0.013210 0.000000 0.000000 0.000000
# 4 0.000000 0.000000 0.000000 -0.131049 0.000000 0.000000
# 5 0.000000 0.000000 0.000000 0.000000 0.094235 0.000000
# 6 0.000000 0.000000 0.000000 0.000000 0.000000 -0.137117
#
#
# Mechanical properties :
#
#
# Convention : Reuss Voigt Hill
#
# Bulk Modulus (GPa) = 46.04308 67.25950 56.65129
# Shear Modulus (GPa) = -41.99816 19.27076 -11.36370
#
# Velocity S-wave (km/s) = -4.33375 2.93561 -2.25428
# Velocity P-wave (km/s) = 2.10988 6.44736 4.30795
#
# Compressibility (1/GPa) = 0.02171879
#
# Stress axis : x y z
#
# Youngs Moduli (GPa) = 78.82699 113.85526 75.70156
#
# Poissons Ratio (x) = 0.21200 -0.16976
# Poissons Ratio (y) = 0.14678 0.51935
# Poissons Ratio (z) = -0.17677 0.78110
#
# Static dielectric constant tensor:
#      x y z
#    x 1.888080 0.000000 0.000000 
#    y 0.000000 1.834180 0.000000 
#    z 0.000000 0.000000 1.779140 
# 
# From -- ./inp_files/36078.got.cif
#   From: 2010.05.17/outbox.cif.g08.bks.cpg/sg51_19_cif.got.tgz:36078.got - 2010.06.03 11:52:47.
