data_PCOD9400439
_publ_section_title
;
Structure prediction by ZEFSAII (Michael W. Deem and Ramdas Pophale) SiO2 
 PCOD9400439
Probable space group: P M M A
;
_chemical_formula_sum "Si O2"
_cell_formula_units_Z 64
_cell_length_a 28.457095
_cell_length_b 14.132516
_cell_length_c 10.511115
_cell_angle_alpha 90.000000
_cell_angle_beta 90.000000
_cell_angle_gamma 90.000000
_cell_volume 4227.258803
_symmetry_space_group_name_H-M "P M M A"
_symmetry_group_IT_number 51
_symmetry_cell_setting 'orthorhombic'
loop_
_space_group_symop_operation_xyz
x,y,z
1/2-x,-y,z
1/2+x,-y,-z
-x,y,-z
-x,-y,-z
1/2+x,y,-z
1/2-x,y,z
x,-y,z
loop_
_atom_site_type_symbol
_atom_site_label
_atom_site_fract_x
_atom_site_fract_y
_atom_site_fract_z
Si Si1 0.981111 0.115218 0.862880
Si Si2 0.306512 0.265824 0.105199
Si Si3 0.192880 0.609685 0.858846
Si Si4 0.693426 0.714969 0.398317
Si Si5 0.965569 0.114825 0.387901
Si Si6 0.693064 0.606649 0.650918
Si Si7 0.374084 0.112586 0.206597
Si Si8 0.362744 0.112135 0.510725
O O1 0.927240 0.141207 0.831422
O O2 0.015008 0.146968 0.748150
O O3 0.981872 0.000000 0.863350
O O4 0.000000 0.146984 0.000000
O O5 0.250000 0.248138 0.103220
O O6 0.319268 0.326823 0.980990
O O7 0.318028 0.329632 0.228128
O O8 0.336318 0.171006 0.125418
O O9 0.250000 0.605795 0.856259
O O10 0.176912 0.500000 0.865389
O O11 0.177599 0.663872 0.731006
O O12 0.750000 0.716177 0.396751
O O13 0.677379 0.653582 0.519647
O O14 0.675063 0.820260 0.423936
O O15 0.912581 0.137795 0.425517
O O16 0.000000 0.147761 0.500000
O O17 0.967974 0.000000 0.387153
O O18 0.750000 0.602783 0.645698
O O19 0.675612 0.500000 0.664979
O O20 0.366050 0.128031 0.358149
O O21 0.369580 0.000000 0.184824
O O22 0.354032 0.000000 0.529317
#
# Coordination Sequence:
#
# PCOD9400439 Si02
#       8
#     8   8   8   8   8   8   8   8
#     4   9  17  29  46  68  92 120 157 205 249 276
#     4  10  19  31  47  70  98 130 164 194 228 284
#     4   9  18  33  51  68  92 126 159 201 256 291
#     4  10  19  31  46  69  98 128 162 197 233 280
#     4   9  15  27  46  64  86 121 162 200 240 276
#     4   9  16  27  45  67  90 117 155 203 244 272
#     4  10  19  31  47  69 101 135 163 194 232 278
#     4  10  19  30  47  70  98 134 167 194 229 279
#
# _framework density 15.139835
#
# number of rings (size 3 to 8) (size 9 to 14) (size 15 to 20)
#    0.000    2.500    2.500    0.750    0.000    4.500 
#    0.000    3.125    0.000    2.250    0.000    0.000 
#    0.000   20.000    0.000    0.000    0.000    0.000 
#
# Total GULP energy -356373.112688 kJ/mol
# GULP energy per Si atom -5568.329886 kJ/mol
# Density = 1.510538 g / cm^3
# Si number density = 15.139835 Si / 1000 Ang^3
#
#
#
# Elastic Constant Matrix: (Units=GPa)
#
#
# Indices 1 2 3 4 5 6 
#
# 1 36.0742 31.0103 31.0514 0.0000 0.0000 0.0000
# 2 31.0103 73.1392 44.9807 0.0000 0.0000 0.0000
# 3 31.0514 44.9807 129.7917 0.0000 0.0000 0.0000
# 4 0.0000 0.0000 0.0000 19.1898 0.0000 0.0000
# 5 0.0000 0.0000 0.0000 0.0000 16.5995 0.0000
# 6 0.0000 0.0000 0.0000 0.0000 0.0000 -1.8554
#
#
#
# Elastic Compliance Matrix: (Units=1/GPa)
#
#
# Indices 1 2 3 4 5 6 
#
# 1 0.046467 -0.016349 -0.005451 0.000000 0.000000 0.000000
# 2 -0.016349 0.023128 -0.004104 0.000000 0.000000 0.000000
# 3 -0.005451 -0.004104 0.010431 0.000000 0.000000 0.000000
# 4 0.000000 0.000000 0.000000 0.052111 0.000000 0.000000
# 5 0.000000 0.000000 0.000000 0.000000 0.060243 0.000000
# 6 0.000000 0.000000 0.000000 0.000000 0.000000 -0.538953
#
#
# Mechanical properties :
#
#
# Convention : Reuss Voigt Hill
#
# Bulk Modulus (GPa) = 35.43813 50.34332 42.89073
# Shear Modulus (GPa) = -17.52180 15.58427 -0.96876
#
# Velocity S-wave (km/s) = -3.40565 3.21184 -0.80079
# Velocity P-wave (km/s) = 2.82727 6.86141 5.24749
#
# Compressibility (1/GPa) = 0.02821820
#
# Stress axis : x y z
#
# Youngs Moduli (GPa) = 21.52077 43.23675 95.86829
#
# Poissons Ratio (x) = 0.70689 0.52255
# Poissons Ratio (y) = 0.35185 0.39344
# Poissons Ratio (z) = 0.11730 0.17744
#
# Static dielectric constant tensor:
#      x y z
#    x 1.491890 0.000000 0.000000 
#    y 0.000000 1.495250 0.000000 
#    z 0.000000 0.000000 1.512740 
# 
# From -- ./inp_files/13266.got.cif
#   From: 2010.05.17/outbox.cif.g08.bks.cpg/sg51_7_cif.got.tgz:13266.got - 2010.06.03 11:52:47.
