data_PCOD9400733
_publ_section_title
;
Structure prediction by ZEFSAII (Michael W. Deem and Ramdas Pophale) SiO2 
 PCOD9400733
Probable space group: P M M A
;
_chemical_formula_sum "Si O2"
_cell_formula_units_Z 40
_cell_length_a 8.634670
_cell_length_b 19.215895
_cell_length_c 14.048922
_cell_angle_alpha 90.000000
_cell_angle_beta 90.000000
_cell_angle_gamma 90.000000
_cell_volume 2331.038050
_symmetry_space_group_name_H-M "P M M A"
_symmetry_group_IT_number 51
_symmetry_cell_setting 'orthorhombic'
loop_
_space_group_symop_operation_xyz
x,y,z
1/2-x,-y,z
1/2+x,-y,-z
-x,y,-z
-x,-y,-z
1/2+x,y,-z
1/2-x,y,z
x,-y,z
loop_
_atom_site_type_symbol
_atom_site_label
_atom_site_fract_x
_atom_site_fract_y
_atom_site_fract_z
Si Si1 0.434632 0.289385 0.288467
Si Si2 0.938058 0.077575 0.207125
Si Si3 0.935362 0.419586 0.394182
Si Si4 0.063789 0.783025 0.896172
Si Si5 0.935848 0.157156 0.396663
O O1 0.250000 0.286215 0.287628
O O2 0.491944 0.364374 0.322564
O O3 0.500728 0.267639 0.185751
O O4 0.499151 0.231496 0.362019
O O5 0.750000 0.076029 0.204173
O O6 0.986915 0.138925 0.135868
O O7 0.980324 0.102764 0.313555
O O8 0.995324 0.000000 0.186121
O O9 0.750000 0.412008 0.395330
O O10 0.972901 0.500000 0.370780
O O11 0.000000 0.405744 0.500000
O O12 0.250000 0.780791 0.895512
O O13 0.000000 0.766765 0.000000
O O14 0.750000 0.161057 0.399551
O O15 0.000000 0.139016 0.500000
#
# Coordination Sequence:
#
# PCOD9400733 Si02
#       5
#     8   8   8   8   8
#     4  11  21  34  53  75 102 134 171 212 252 297
#     4   8  16  31  49  70  98 131 166 207 254 303
#     4  10  20  34  53  79 111 143 173 205 244 292
#     4  10  20  35  55  77 101 129 166 210 257 307
#     4  10  19  31  48  70  99 134 172 211 252 301
#
# _framework density 17.159735999999999
#
# number of rings (size 3 to 8) (size 9 to 14) (size 15 to 20)
#    0.000    2.200    0.000    5.400    0.000    2.000 
#    0.000    0.000    0.000   21.000    0.000    0.000 
#    0.000    0.000    0.000    0.000    0.000    0.000 
#
# Total GULP energy -223262.559582 kJ/mol
# GULP energy per Si atom -5581.563990 kJ/mol
# Density = 1.712068 g / cm^3
# Si number density = 17.159736 Si / 1000 Ang^3
#
#
#
# Elastic Constant Matrix: (Units=GPa)
#
#
# Indices 1 2 3 4 5 6 
#
# 1 75.5336 38.0058 27.8063 0.0000 0.0000 0.0000
# 2 38.0058 110.7778 48.3433 0.0000 0.0000 0.0000
# 3 27.8063 48.3433 83.3867 0.0000 0.0000 0.0000
# 4 0.0000 0.0000 0.0000 6.6866 0.0000 0.0000
# 5 0.0000 0.0000 0.0000 0.0000 28.3465 0.0000
# 6 0.0000 0.0000 0.0000 0.0000 0.0000 16.5303
#
#
#
# Elastic Compliance Matrix: (Units=1/GPa)
#
#
# Indices 1 2 3 4 5 6 
#
# 1 0.016536 -0.004373 -0.002979 0.000000 0.000000 0.000000
# 2 -0.004373 0.013241 -0.006218 0.000000 0.000000 0.000000
# 3 -0.002979 -0.006218 0.016591 0.000000 0.000000 0.000000
# 4 0.000000 0.000000 0.000000 0.149553 0.000000 0.000000
# 5 0.000000 0.000000 0.000000 0.000000 0.035278 0.000000
# 6 0.000000 0.000000 0.000000 0.000000 0.000000 0.060495
#
#
# Mechanical properties :
#
#
# Convention : Reuss Voigt Hill
#
# Bulk Modulus (GPa) = 52.00915 55.33431 53.67173
# Shear Modulus (GPa) = 15.37311 20.68219 18.02765
#
# Velocity S-wave (km/s) = 2.99638 3.47547 3.24478
# Velocity P-wave (km/s) = 6.50735 6.95858 6.73675
#
# Compressibility (1/GPa) = 0.01922739
#
# Stress axis : x y z
#
# Youngs Moduli (GPa) = 60.47328 75.52250 60.27514
#
# Poissons Ratio (x) = 0.33029 0.17955
# Poissons Ratio (y) = 0.26447 0.37480
# Poissons Ratio (z) = 0.18014 0.46961
#
# Static dielectric constant tensor:
#      x y z
#    x 1.573450 0.000000 0.000000 
#    y 0.000000 1.582750 0.000000 
#    z 0.000000 0.000000 1.553840 
# 
# From -- ./inp_files/14002.got.cif
#   From: 2010.05.17/outbox.cif.g08.bks.cpg/sg51_8_cif.got.tgz:14002.got - 2010.06.03 11:52:47.
