data_PCOD9400732
_publ_section_title
;
Structure prediction by ZEFSAII (Michael W. Deem and Ramdas Pophale) SiO2 
 PCOD9400732
Probable space group: P M M A
;
_chemical_formula_sum "Si O2"
_cell_formula_units_Z 44
_cell_length_a 8.567613
_cell_length_b 29.812498
_cell_length_c 9.775463
_cell_angle_alpha 90.000000
_cell_angle_beta 90.000000
_cell_angle_gamma 90.000000
_cell_volume 2496.867777
_symmetry_space_group_name_H-M "P M M A"
_symmetry_group_IT_number 51
_symmetry_cell_setting 'orthorhombic'
loop_
_space_group_symop_operation_xyz
x,y,z
1/2-x,-y,z
1/2+x,-y,-z
-x,y,-z
-x,-y,-z
1/2+x,y,-z
1/2-x,y,z
x,-y,z
loop_
_atom_site_type_symbol
_atom_site_label
_atom_site_fract_x
_atom_site_fract_y
_atom_site_fract_z
Si Si1 0.438932 0.048304 0.843485
Si Si2 0.563397 0.680339 0.650950
Si Si3 0.064118 0.500000 0.846275
Si Si4 0.438474 0.855226 0.844171
Si Si5 0.437420 0.422788 0.347928
Si Si6 0.562700 0.757260 0.154619
O O1 0.250000 0.048275 0.846064
O O2 0.489120 0.096592 0.782413
O O3 0.489203 0.000000 0.782691
O O4 0.500000 0.048317 0.000000
O O5 0.500000 0.690455 0.500000
O O6 0.750000 0.682075 0.649494
O O7 0.517323 0.628838 0.683142
O O8 0.499664 0.716464 0.756493
O O9 0.250000 0.500000 0.849485
O O10 0.004630 0.543158 0.762495
O O11 0.000000 0.500000 0.000000
O O12 0.250000 0.855336 0.846597
O O13 0.486707 0.806555 0.787560
O O14 0.500000 0.855336 0.000000
O O15 0.500000 0.433558 0.500000
O O16 0.250000 0.425981 0.349454
O O17 0.750000 0.755796 0.151653
O O18 0.500000 0.753974 0.000000
#
# Coordination Sequence:
#
# PCOD9400732 Si02
#       6
#     8   8   4   8   8   8
#     4   8  12  18  29  46  71 105 145 187 230 278
#     4  10  21  37  57  79 103 132 168 209 251 296
#     4  12  25  40  59  84 114 144 174 210 249 290
#     4   8  14  23  35  54  81 115 153 192 236 286
#     4  10  21  39  61  83 107 137 172 208 248 296
#     4  10  19  31  48  70  99 133 168 206 249 299
#
# _framework density 17.62208
#
# number of rings (size 3 to 8) (size 9 to 14) (size 15 to 20)
#    0.000    2.545    0.000    2.727    0.000    3.636 
#    0.000    0.000    0.000    0.000    0.000    0.000 
#    0.000    0.727    0.000    1.273    0.000    9.091 
#
# Total GULP energy -245025.466550 kJ/mol
# GULP energy per Si atom -5568.760603 kJ/mol
# Density = 1.758197 g / cm^3
# Si number density = 17.622080 Si / 1000 Ang^3
#
#
#
# Elastic Constant Matrix: (Units=GPa)
#
#
# Indices 1 2 3 4 5 6 
#
# 1 43.8102 45.8119 27.3054 0.0000 0.0000 0.0000
# 2 45.8119 186.5556 95.5047 0.0000 0.0000 0.0000
# 3 27.3054 95.5047 70.8396 0.0000 0.0000 0.0000
# 4 0.0000 0.0000 0.0000 -25.6474 0.0000 0.0000
# 5 0.0000 0.0000 0.0000 0.0000 25.1550 0.0000
# 6 0.0000 0.0000 0.0000 0.0000 0.0000 32.5610
#
#
#
# Elastic Compliance Matrix: (Units=1/GPa)
#
#
# Indices 1 2 3 4 5 6 
#
# 1 0.031364 -0.004883 -0.005506 0.000000 0.000000 0.000000
# 2 -0.004883 0.018062 -0.022469 0.000000 0.000000 0.000000
# 3 -0.005506 -0.022469 0.046530 0.000000 0.000000 0.000000
# 4 0.000000 0.000000 0.000000 -0.038990 0.000000 0.000000
# 5 0.000000 0.000000 0.000000 0.000000 0.039754 0.000000
# 6 0.000000 0.000000 0.000000 0.000000 0.000000 0.030712
#
#
# Mechanical properties :
#
#
# Convention : Reuss Voigt Hill
#
# Bulk Modulus (GPa) = 33.06780 70.93883 52.00331
# Shear Modulus (GPa) = 24.60308 15.25260 19.92784
#
# Velocity S-wave (km/s) = 3.74056 2.94520 3.36645
# Velocity P-wave (km/s) = 6.12058 7.20476 6.68469
#
# Compressibility (1/GPa) = 0.03024090
#
# Stress axis : x y z
#
# Youngs Moduli (GPa) = 31.88404 55.36464 21.49130
#
# Poissons Ratio (x) = 0.27036 0.11832
# Poissons Ratio (y) = 0.15570 0.48288
# Poissons Ratio (z) = 0.17554 1.24397
#
# Static dielectric constant tensor:
#      x y z
#    x 1.602930 0.000000 0.000000 
#    y 0.000000 1.681830 0.000000 
#    z 0.000000 0.000000 1.548950 
# 
# From -- ./inp_files/5867.got.cif
#   From: 2010.05.17/outbox.cif.g08.bks.cpg/sg51_3_cif.got.tgz:5867.got - 2010.06.03 11:52:47.
