data_PCOD9400019
_publ_section_title
;
Structure prediction by ZEFSAII (Michael W. Deem and Ramdas Pophale) SiO2 
 PCOD9400019
Probable space group: P M M A
;
_chemical_formula_sum "Si O2"
_cell_formula_units_Z 56
_cell_length_a 27.747458
_cell_length_b 7.824711
_cell_length_c 14.955672
_cell_angle_alpha 90.000000
_cell_angle_beta 90.000000
_cell_angle_gamma 90.000000
_cell_volume 3247.113287
_symmetry_space_group_name_H-M "P M M A"
_symmetry_group_IT_number 51
_symmetry_cell_setting 'orthorhombic'
loop_
_space_group_symop_operation_xyz
x,y,z
1/2-x,-y,z
1/2+x,-y,-z
-x,y,-z
-x,-y,-z
1/2+x,y,-z
1/2-x,y,z
x,-y,z
loop_
_atom_site_type_symbol
_atom_site_label
_atom_site_fract_x
_atom_site_fract_y
_atom_site_fract_z
Si Si1 0.456710 0.199427 0.359638
Si Si2 0.871435 0.302448 0.767508
Si Si3 0.695204 0.290426 0.612873
Si Si4 0.566086 0.709478 0.923499
Si Si5 0.542349 0.294033 0.120620
Si Si6 0.063165 0.798451 0.683393
Si Si7 0.391271 0.699926 0.511492
O O1 0.418207 0.293938 0.297016
O O2 0.510292 0.269007 0.346032
O O3 0.435794 0.213360 0.459501
O O4 0.456521 0.000000 0.333471
O O5 0.858904 0.500000 0.784476
O O6 0.828664 0.229735 0.706378
O O7 0.890694 0.227564 0.860650
O O8 0.750000 0.233942 0.601289
O O9 0.695371 0.500000 0.614422
O O10 0.658289 0.238346 0.534201
O O11 0.566561 0.500000 0.921149
O O12 0.513845 0.761963 0.883952
O O13 0.566396 0.761268 0.027203
O O14 0.541852 0.500000 0.120722
O O15 0.567128 0.235326 0.211416
O O16 0.102845 0.724395 0.616763
O O17 0.063262 0.000000 0.668161
O O18 0.395143 0.500000 0.491124
#
# Coordination Sequence:
#
# PCOD9400019 Si02
#       7
#     8   8   8   8   8   8   8
#     4  10  19  29  40  59  89 119 144 178 217 249
#     4   9  15  26  46  66  86 115 148 176 210 261
#     4   8  15  28  46  69  90 105 131 177 226 266
#     4   8  14  25  42  64  85 112 150 186 212 242
#     4   9  16  27  43  60  85 118 153 186 209 243
#     4  11  21  30  40  60  90 120 148 183 218 251
#     4  10  20  31  46  63  81 113 149 178 214 264
#
# _framework density 17.246088
#
# number of rings (size 3 to 8) (size 9 to 14) (size 15 to 20)
#    0.000    2.714    1.429    3.429    0.000    3.429 
#    0.000    2.143    0.000   10.714    0.000    1.000 
#    0.000    5.714    0.000    0.000    0.000    0.000 
#
# Total GULP energy -312049.114797 kJ/mol
# GULP energy per Si atom -5572.305621 kJ/mol
# Density = 1.720683 g / cm^3
# Si number density = 17.246088 Si / 1000 Ang^3
#
#
#
# Elastic Constant Matrix: (Units=GPa)
#
#
# Indices 1 2 3 4 5 6 
#
# 1 83.3674 5.2315 57.0030 0.0000 0.0000 0.0000
# 2 5.2315 25.9113 -2.2220 0.0000 0.0000 0.0000
# 3 57.0030 -2.2220 132.5992 0.0000 0.0000 0.0000
# 4 0.0000 0.0000 0.0000 1.7719 0.0000 0.0000
# 5 0.0000 0.0000 0.0000 0.0000 15.9468 0.0000
# 6 0.0000 0.0000 0.0000 0.0000 0.0000 -42.3787
#
#
#
# Elastic Compliance Matrix: (Units=1/GPa)
#
#
# Indices 1 2 3 4 5 6 
#
# 1 0.017427 -0.004167 -0.007561 0.000000 0.000000 0.000000
# 2 -0.004167 0.039645 0.002456 0.000000 0.000000 0.000000
# 3 -0.007561 0.002456 0.010833 0.000000 0.000000 0.000000
# 4 0.000000 0.000000 0.000000 0.564364 0.000000 0.000000
# 5 0.000000 0.000000 0.000000 0.000000 0.062709 0.000000
# 6 0.000000 0.000000 0.000000 0.000000 0.000000 -0.023597
#
#
# Mechanical properties :
#
#
# Convention : Reuss Voigt Hill
#
# Bulk Modulus (GPa) = 20.25943 40.21142 30.23543
# Shear Modulus (GPa) = 7.07835 7.19235 7.13535
#
# Velocity S-wave (km/s) = 2.02811 2.04438 2.03626
# Velocity P-wave (km/s) = 4.15416 5.37955 4.80607
#
# Compressibility (1/GPa) = 0.04935974
#
# Stress axis : x y z
#
# Youngs Moduli (GPa) = 57.38313 25.22386 92.30856
#
# Poissons Ratio (x) = 0.10510 0.69798
# Poissons Ratio (y) = 0.23911 -0.22668
# Poissons Ratio (z) = 0.43390 -0.06194
#
# Static dielectric constant tensor:
#      x y z
#    x 1.569530 0.000000 0.000000 
#    y 0.000000 1.628160 0.000000 
#    z 0.000000 0.000000 1.625390 
# 
# From -- ./inp_files/26495.got.cif
#   From: 2010.05.17/outbox.cif.g08.bks.cpg/sg51_14_cif.got.tgz:26495.got - 2010.06.03 11:52:47.
