data_PCOD9400375
_publ_section_title
;
Structure prediction by ZEFSAII (Michael W. Deem and Ramdas Pophale) SiO2 
 PCOD9400375
Probable space group: P M M A
;
_chemical_formula_sum "Si O2"
_cell_formula_units_Z 48
_cell_length_a 9.268385
_cell_length_b 13.904589
_cell_length_c 24.442658
_cell_angle_alpha 90.000000
_cell_angle_beta 90.000000
_cell_angle_gamma 90.000000
_cell_volume 3150.000721
_symmetry_space_group_name_H-M "P M M A"
_symmetry_group_IT_number 51
_symmetry_cell_setting 'orthorhombic'
loop_
_space_group_symop_operation_xyz
x,y,z
1/2-x,-y,z
1/2+x,-y,-z
-x,y,-z
-x,-y,-z
1/2+x,y,-z
1/2-x,y,z
x,-y,z
loop_
_atom_site_type_symbol
_atom_site_label
_atom_site_fract_x
_atom_site_fract_y
_atom_site_fract_z
Si Si1 0.578545 0.798785 0.555514
Si Si2 0.916195 0.382880 0.945663
Si Si3 0.577169 0.609723 0.619711
Si Si4 0.923092 0.709071 0.279813
Si Si5 0.578292 0.613528 0.164420
Si Si6 0.922585 0.889061 0.671693
O O1 0.500000 0.825836 0.500000
O O2 0.750000 0.803377 0.547037
O O3 0.540442 0.689867 0.574385
O O4 0.543618 0.864050 0.608260
O O5 0.750000 0.352829 0.946985
O O6 0.919186 0.500000 0.946174
O O7 0.993609 0.353776 0.889480
O O8 0.000000 0.350693 0.000000
O O9 0.750000 0.617990 0.629546
O O10 0.545268 0.500000 0.604117
O O11 0.493523 0.639504 0.674643
O O12 0.750000 0.709806 0.285965
O O13 0.958195 0.671003 0.219313
O O14 0.990051 0.813459 0.292009
O O15 0.750000 0.622038 0.154592
O O16 0.547739 0.500000 0.173439
O O17 0.750000 0.872960 0.678283
O O18 0.954220 0.000000 0.683424
#
# Coordination Sequence:
#
# PCOD9400375 Si02
#       6
#     8   8   8   8   8   8
#     4   9  18  31  46  66  89 112 141 177 217 262
#     4   9  16  25  38  57  83 118 158 193 221 250
#     4   9  18  32  47  62  86 121 153 179 212 258
#     4  10  19  30  46  69  93 114 143 186 228 264
#     4   9  17  28  41  60  90 124 152 180 216 256
#     4   9  19  36  53  66  85 114 143 175 221 274
#
# _framework density 15.238091000000001
#
# number of rings (size 3 to 8) (size 9 to 14) (size 15 to 20)
#    0.000    2.833    0.000    2.500    0.000    8.000 
#    0.000    1.667    0.000    0.000    0.000    0.000 
#    0.000    0.667    0.000    2.167    0.000    3.167 
#
# Total GULP energy -267497.385028 kJ/mol
# GULP energy per Si atom -5572.862188 kJ/mol
# Density = 1.520341 g / cm^3
# Si number density = 15.238091 Si / 1000 Ang^3
#
#
#
# Elastic Constant Matrix: (Units=GPa)
#
#
# Indices 1 2 3 4 5 6 
#
# 1 44.2614 18.3203 50.9549 0.0000 0.0000 0.0000
# 2 18.3203 49.4999 15.6969 0.0000 0.0000 0.0000
# 3 50.9549 15.6969 106.4683 0.0000 0.0000 0.0000
# 4 0.0000 0.0000 0.0000 9.9315 0.0000 0.0000
# 5 0.0000 0.0000 0.0000 0.0000 31.2306 0.0000
# 6 0.0000 0.0000 0.0000 0.0000 0.0000 15.4466
#
#
#
# Elastic Compliance Matrix: (Units=1/GPa)
#
#
# Indices 1 2 3 4 5 6 
#
# 1 0.057474 -0.013164 -0.025566 0.000000 0.000000 0.000000
# 2 -0.013164 0.024208 0.002731 0.000000 0.000000 0.000000
# 3 -0.025566 0.002731 0.021225 0.000000 0.000000 0.000000
# 4 0.000000 0.000000 0.000000 0.100690 0.000000 0.000000
# 5 0.000000 0.000000 0.000000 0.000000 0.032020 0.000000
# 6 0.000000 0.000000 0.000000 0.000000 0.000000 0.064739
#
#
# Mechanical properties :
#
#
# Convention : Reuss Voigt Hill
#
# Bulk Modulus (GPa) = 32.35223 41.13042 36.74132
# Shear Modulus (GPa) = 13.06655 19.00558 16.03606
#
# Velocity S-wave (km/s) = 2.93147 3.53546 3.24754
# Velocity P-wave (km/s) = 5.72148 6.61184 6.18271
#
# Compressibility (1/GPa) = 0.03090977
#
# Stress axis : x y z
#
# Youngs Moduli (GPa) = 17.39927 41.30828 47.11366
#
# Poissons Ratio (x) = 0.54380 1.20449
# Poissons Ratio (y) = 0.22905 -0.12868
# Poissons Ratio (z) = 0.44482 -0.11283
#
# Static dielectric constant tensor:
#      x y z
#    x 1.508010 0.000000 0.000000 
#    y 0.000000 1.497560 0.000000 
#    z 0.000000 0.000000 1.486020 
# 
# From -- ./inp_files/34645.got.cif
#   From: 2010.05.17/outbox.cif.g08.bks.cpg/sg51_18_cif.got.tgz:34645.got - 2010.06.03 11:52:47.
