data_PCOD9400283
_publ_section_title
;
Structure prediction by ZEFSAII (Michael W. Deem and Ramdas Pophale) SiO2 
 PCOD9400283
Probable space group: P M M A
;
_chemical_formula_sum "Si O2"
_cell_formula_units_Z 48
_cell_length_a 8.354903
_cell_length_b 25.245711
_cell_length_c 14.001300
_cell_angle_alpha 90.000000
_cell_angle_beta 90.000000
_cell_angle_gamma 90.000000
_cell_volume 2953.230735
_symmetry_space_group_name_H-M "P M M A"
_symmetry_group_IT_number 51
_symmetry_cell_setting 'orthorhombic'
loop_
_space_group_symop_operation_xyz
x,y,z
1/2-x,-y,z
1/2+x,-y,-z
-x,y,-z
-x,-y,-z
1/2+x,y,-z
1/2-x,y,z
x,-y,z
loop_
_atom_site_type_symbol
_atom_site_label
_atom_site_fract_x
_atom_site_fract_y
_atom_site_fract_z
Si Si1 0.058286 0.219646 0.294805
Si Si2 0.443424 0.443047 0.389900
Si Si3 0.441192 0.114583 0.604829
Si Si4 0.558631 0.166177 0.104705
Si Si5 0.056183 0.672494 0.390425
Si Si6 0.945151 0.941098 0.201674
O O1 0.250000 0.219563 0.295791
O O2 0.000143 0.276849 0.330703
O O3 0.999982 0.173051 0.365247
O O4 0.000388 0.204058 0.189375
O O5 0.500000 0.443112 0.500000
O O6 0.250000 0.443152 0.388036
O O7 0.497554 0.500000 0.348081
O O8 0.496407 0.385516 0.352023
O O9 0.500000 0.099834 0.500000
O O10 0.250000 0.115215 0.604707
O O11 0.493209 0.075718 0.690739
O O12 0.750000 0.165950 0.106453
O O13 0.501921 0.106647 0.133071
O O14 0.500000 0.180764 0.000000
O O15 0.250000 0.673099 0.390572
O O16 0.000000 0.677589 0.500000
O O17 0.750000 0.941619 0.199784
O O18 0.001453 0.000000 0.177217
#
# Coordination Sequence:
#
# PCOD9400283 Si02
#       6
#     8   8   8   8   8   8
#     4  10  19  31  46  64  88 114 145 182 216 255
#     4   8  13  22  35  52  78 112 148 181 210 241
#     4  10  19  30  45  64  88 118 149 179 213 252
#     4  10  20  34  52  70  88 110 136 169 214 263
#     4   9  17  26  39  61  87 118 151 181 212 246
#     4   8  16  31  48  66  88 112 139 172 208 250
#
# _framework density 16.253387
#
# number of rings (size 3 to 8) (size 9 to 14) (size 15 to 20)
#    0.000    2.833    0.000    3.000    0.000    3.333 
#    0.000    0.000    0.000   17.000    0.000    0.000 
#    0.000    0.667    0.000    1.167    0.000    2.000 
#
# Total GULP energy -267321.492151 kJ/mol
# GULP energy per Si atom -5569.197753 kJ/mol
# Density = 1.621639 g / cm^3
# Si number density = 16.253387 Si / 1000 Ang^3
#
#
#
# Elastic Constant Matrix: (Units=GPa)
#
#
# Indices 1 2 3 4 5 6 
#
# 1 20.5745 5.9232 4.7493 0.0000 0.0000 0.0000
# 2 5.9232 123.7499 18.2699 0.0000 0.0000 0.0000
# 3 4.7493 18.2699 55.5514 0.0000 0.0000 0.0000
# 4 0.0000 0.0000 0.0000 12.2665 0.0000 0.0000
# 5 0.0000 0.0000 0.0000 0.0000 20.4845 0.0000
# 6 0.0000 0.0000 0.0000 0.0000 0.0000 5.6707
#
#
#
# Elastic Compliance Matrix: (Units=1/GPa)
#
#
# Indices 1 2 3 4 5 6 
#
# 1 0.049983 -0.001851 -0.003664 0.000000 0.000000 0.000000
# 2 -0.001851 0.008562 -0.002658 0.000000 0.000000 0.000000
# 3 -0.003664 -0.002658 0.019189 0.000000 0.000000 0.000000
# 4 0.000000 0.000000 0.000000 0.081523 0.000000 0.000000
# 5 0.000000 0.000000 0.000000 0.000000 0.048817 0.000000
# 6 0.000000 0.000000 0.000000 0.000000 0.000000 0.176345
#
#
# Mechanical properties :
#
#
# Convention : Reuss Voigt Hill
#
# Bulk Modulus (GPa) = 16.29021 28.64007 22.46514
# Shear Modulus (GPa) = 11.87006 19.07988 15.47497
#
# Velocity S-wave (km/s) = 2.70536 3.42994 3.08897
# Velocity P-wave (km/s) = 4.45006 5.77453 5.15501
#
# Compressibility (1/GPa) = 0.06138655
#
# Stress axis : x y z
#
# Youngs Moduli (GPa) = 20.00694 116.79812 52.11417
#
# Poissons Ratio (x) = 0.21624 0.19096
# Poissons Ratio (y) = 0.03704 0.13850
# Poissons Ratio (z) = 0.07331 0.31040
#
# Static dielectric constant tensor:
#      x y z
#    x 1.563110 0.000000 0.000000 
#    y 0.000000 1.597590 0.000000 
#    z 0.000000 0.000000 1.506030 
# 
# From -- ./inp_files/21981.got.cif
#   From: 2010.05.17/outbox.cif.g08.bks.cpg/sg51_11_cif.got.tgz:21981.got - 2010.06.03 11:52:47.
