data_PCOD9400883
_publ_section_title
;
Structure prediction by ZEFSAII (Michael W. Deem and Ramdas Pophale) SiO2 
 PCOD9400883
Probable space group: P M M A
;
_chemical_formula_sum "Si O2"
_cell_formula_units_Z 64
_cell_length_a 14.815132
_cell_length_b 8.974092
_cell_length_c 28.816083
_cell_angle_alpha 90.000000
_cell_angle_beta 90.000000
_cell_angle_gamma 90.000000
_cell_volume 3831.166170
_symmetry_space_group_name_H-M "P M M A"
_symmetry_group_IT_number 51
_symmetry_cell_setting 'orthorhombic'
loop_
_space_group_symop_operation_xyz
x,y,z
1/2-x,-y,z
1/2+x,-y,-z
-x,y,-z
-x,-y,-z
1/2+x,y,-z
1/2-x,y,z
x,-y,z
loop_
_atom_site_type_symbol
_atom_site_label
_atom_site_fract_x
_atom_site_fract_y
_atom_site_fract_z
Si Si1 0.455925 0.821033 0.389937
Si Si2 0.856277 0.322394 0.696282
Si Si3 0.142497 0.324677 0.029261
Si Si4 0.896764 0.331124 0.517925
Si Si5 0.144605 0.821139 0.204437
Si Si6 0.647176 0.820718 0.069965
Si Si7 0.535074 0.820415 0.886126
Si Si8 0.847124 0.178830 0.424297
O O1 0.415832 0.754811 0.343022
O O2 0.400275 0.756528 0.433766
O O3 0.561099 0.775822 0.398028
O O4 0.450829 0.000000 0.389878
O O5 0.750000 0.290318 0.687563
O O6 0.868511 0.500000 0.695140
O O7 0.877168 0.258971 0.747315
O O8 0.250000 0.306150 0.037083
O O9 0.122193 0.500000 0.027417
O O10 0.088840 0.248306 0.070744
O O11 0.122409 0.250725 0.979559
O O12 0.863789 0.500000 0.524298
O O13 0.849294 0.247036 0.475803
O O14 0.000000 0.338580 0.500000
O O15 0.250000 0.790088 0.192977
O O16 0.080836 0.773574 0.162075
O O17 0.136330 0.000000 0.210530
O O18 0.750000 0.775420 0.081672
O O19 0.570096 0.780952 0.106914
O O20 0.646513 0.000000 0.064736
O O21 0.542901 0.000000 0.888590
O O22 0.750000 0.219094 0.402531
O O23 0.851246 0.000000 0.428278
#
# Coordination Sequence:
#
# PCOD9400883 Si02
#       8
#     8   8   8   8   8   8   8   8
#     4  10  19  32  52  74  97 128 164 200 239 284
#     4  10  21  36  53  73  97 124 155 194 240 288
#     4  10  20  31  44  67  99 131 162 197 237 281
#     4   9  17  29  45  67  96 128 162 199 236 275
#     4   9  18  33  52  73  95 118 149 192 241 292
#     4   9  18  32  48  67  95 130 165 199 233 272
#     4  10  19  31  50  73  95 124 161 197 236 282
#     4   9  18  32  49  71 100 132 165 200 237 278
#
# _framework density 16.705096999999999
#
# number of rings (size 3 to 8) (size 9 to 14) (size 15 to 20)
#    0.000    2.500    0.000    2.250    0.000    7.250 
#    0.000    1.250    0.000    0.750    0.000    3.500 
#    0.000    0.000    0.000    0.000    0.000    0.000 
#
# Total GULP energy -356883.545422 kJ/mol
# GULP energy per Si atom -5576.305397 kJ/mol
# Density = 1.666708 g / cm^3
# Si number density = 16.705097 Si / 1000 Ang^3
#
#
#
# Elastic Constant Matrix: (Units=GPa)
#
#
# Indices 1 2 3 4 5 6 
#
# 1 99.7986 39.9557 87.3085 0.0000 0.0000 0.0000
# 2 39.9557 30.3842 44.1080 0.0000 0.0000 0.0000
# 3 87.3085 44.1080 131.1072 0.0000 0.0000 0.0000
# 4 0.0000 0.0000 0.0000 -11.1952 0.0000 0.0000
# 5 0.0000 0.0000 0.0000 0.0000 27.0315 0.0000
# 6 0.0000 0.0000 0.0000 0.0000 0.0000 14.0767
#
#
#
# Elastic Compliance Matrix: (Units=1/GPa)
#
#
# Indices 1 2 3 4 5 6 
#
# 1 0.029025 -0.019760 -0.012681 0.000000 0.000000 0.000000
# 2 -0.019760 0.077781 -0.013009 0.000000 0.000000 0.000000
# 3 -0.012681 -0.013009 0.020449 0.000000 0.000000 0.000000
# 4 0.000000 0.000000 0.000000 -0.089324 0.000000 0.000000
# 5 0.000000 0.000000 0.000000 0.000000 0.036994 0.000000
# 6 0.000000 0.000000 0.000000 0.000000 0.000000 0.071039
#
#
# Mechanical properties :
#
#
# Convention : Reuss Voigt Hill
#
# Bulk Modulus (GPa) = 27.50633 67.11495 47.31064
# Shear Modulus (GPa) = 20.08168 11.97713 16.02941
#
# Velocity S-wave (km/s) = 3.47093 2.68054 3.10102
# Velocity P-wave (km/s) = 5.70655 7.06003 6.41906
#
# Compressibility (1/GPa) = 0.03635527
#
# Stress axis : x y z
#
# Youngs Moduli (GPa) = 34.45254 12.85656 48.90276
#
# Poissons Ratio (x) = 0.25404 0.62015
# Poissons Ratio (y) = 0.68078 0.63618
# Poissons Ratio (z) = 0.43690 0.16725
#
# Static dielectric constant tensor:
#      x y z
#    x 1.604750 0.000000 0.000000 
#    y 0.000000 1.558000 0.000000 
#    z 0.000000 0.000000 1.519670 
# 
# From -- ./inp_files/35629.got.cif
#   From: 2010.05.17/outbox.cif.g08.bks.cpg/sg51_18_cif.got.tgz:35629.got - 2010.06.03 11:52:47.
