data_PCOD9400737
_publ_section_title
;
Structure prediction by ZEFSAII (Michael W. Deem and Ramdas Pophale) SiO2 
 PCOD9400737
Probable space group: P M M A
;
_chemical_formula_sum "Si O2"
_cell_formula_units_Z 64
_cell_length_a 8.592166
_cell_length_b 22.637962
_cell_length_c 16.844375
_cell_angle_alpha 90.000000
_cell_angle_beta 90.000000
_cell_angle_gamma 90.000000
_cell_volume 3276.384683
_symmetry_space_group_name_H-M "P M M A"
_symmetry_group_IT_number 51
_symmetry_cell_setting 'orthorhombic'
loop_
_space_group_symop_operation_xyz
x,y,z
1/2-x,-y,z
1/2+x,-y,-z
-x,y,-z
-x,-y,-z
1/2+x,y,-z
1/2-x,y,z
x,-y,z
loop_
_atom_site_type_symbol
_atom_site_label
_atom_site_fract_x
_atom_site_fract_y
_atom_site_fract_z
Si Si1 0.570866 0.094207 0.914130
Si Si2 0.438751 0.436591 0.754797
Si Si3 0.063438 0.067460 0.738927
Si Si4 0.431739 0.727907 0.385342
Si Si5 0.563300 0.142813 0.415258
Si Si6 0.567467 0.305776 0.222792
Si Si7 0.930323 0.236492 0.916634
Si Si8 0.065049 0.400000 0.580095
O O1 0.750000 0.075339 0.913430
O O2 0.496785 0.076534 0.829266
O O3 0.563675 0.165546 0.913781
O O4 0.500000 0.075152 0.000000
O O5 0.250000 0.438461 0.756737
O O6 0.495797 0.500000 0.785782
O O7 0.479923 0.373849 0.793564
O O8 0.486454 0.429397 0.662513
O O9 0.250000 0.074460 0.743035
O O10 0.008992 0.110022 0.666398
O O11 0.026905 0.000000 0.716093
O O12 0.250000 0.728706 0.405858
O O13 0.510282 0.788947 0.410429
O O14 0.460573 0.720550 0.291658
O O15 0.510488 0.668135 0.416854
O O16 0.500000 0.118889 0.500000
O O17 0.750000 0.139626 0.417028
O O18 0.750000 0.305476 0.247994
O O19 0.539838 0.264711 0.148718
O O20 0.750000 0.254126 0.906331
O O21 0.000000 0.255790 0.000000
O O22 0.250000 0.401993 0.578203
O O23 0.000000 0.427413 0.500000
#
# Coordination Sequence:
#
# PCOD9400737 Si02
#       8
#     8   8   8   8   8   8   8   8
#     4  10  21  37  60  89 118 149 181 219 269 326
#     4   8  16  31  49  69  95 131 174 215 256 306
#     4  10  23  42  61  82 111 148 188 229 272 321
#     4  11  21  34  53  77 106 137 174 218 267 323
#     4  11  23  39  59  82 110 144 185 233 283 332
#     4  10  19  32  53  79 107 139 174 215 266 318
#     4  10  20  34  54  82 114 142 172 210 258 315
#     4  10  19  31  48  71 100 132 167 210 262 315
#
# _framework density 19.533726000000001
#
# number of rings (size 3 to 8) (size 9 to 14) (size 15 to 20)
#    0.000    2.000    0.000    4.875    0.000    5.500 
#    0.000    0.000    0.000   13.500    0.000    0.000 
#    0.000    0.000    0.000    0.000    0.000    0.000 
#
# Total GULP energy -356928.685853 kJ/mol
# GULP energy per Si atom -5577.010716 kJ/mol
# Density = 1.948927 g / cm^3
# Si number density = 19.533726 Si / 1000 Ang^3
#
#
#
# Elastic Constant Matrix: (Units=GPa)
#
#
# Indices 1 2 3 4 5 6 
#
# 1 50.0718 20.4869 4.0653 0.0000 0.0000 0.0000
# 2 20.4869 69.7991 31.0179 0.0000 0.0000 0.0000
# 3 4.0653 31.0179 79.9222 0.0000 0.0000 0.0000
# 4 0.0000 0.0000 0.0000 -12.1162 0.0000 0.0000
# 5 0.0000 0.0000 0.0000 0.0000 32.9275 0.0000
# 6 0.0000 0.0000 0.0000 0.0000 0.0000 6.6378
#
#
#
# Elastic Compliance Matrix: (Units=1/GPa)
#
#
# Indices 1 2 3 4 5 6 
#
# 1 0.022897 -0.007496 0.001744 0.000000 0.000000 0.000000
# 2 -0.007496 0.019767 -0.007290 0.000000 0.000000 0.000000
# 3 0.001744 -0.007290 0.015253 0.000000 0.000000 0.000000
# 4 0.000000 0.000000 0.000000 -0.082534 0.000000 0.000000
# 5 0.000000 0.000000 0.000000 0.000000 0.030370 0.000000
# 6 0.000000 0.000000 0.000000 0.000000 0.000000 0.150653
#
#
# Mechanical properties :
#
#
# Convention : Reuss Voigt Hill
#
# Bulk Modulus (GPa) = 31.41382 34.54814 32.98098
# Shear Modulus (GPa) = 25.89356 15.10468 20.49912
#
# Velocity S-wave (km/s) = 3.64480 2.78377 3.24299
# Velocity P-wave (km/s) = 5.81632 5.29692 5.56268
#
# Compressibility (1/GPa) = 0.03183312
#
# Stress axis : x y z
#
# Youngs Moduli (GPa) = 43.67474 50.59052 65.56191
#
# Poissons Ratio (x) = 0.37921 -0.11437
# Poissons Ratio (y) = 0.32737 0.47796
# Poissons Ratio (z) = -0.07619 0.36881
#
# Static dielectric constant tensor:
#      x y z
#    x 1.679960 0.000000 0.000000 
#    y 0.000000 1.693440 0.000000 
#    z 0.000000 0.000000 1.783780 
# 
# From -- ./inp_files/22340.got.cif
#   From: 2010.05.17/outbox.cif.g08.bks.cpg/sg51_12_cif.got.tgz:22340.got - 2010.06.03 11:52:47.
