data_PCOD9400903
_publ_section_title
;
Structure prediction by ZEFSAII (Michael W. Deem and Ramdas Pophale) SiO2 
 PCOD9400903
Probable space group: P M M A
;
_chemical_formula_sum "Si O2"
_cell_formula_units_Z 64
_cell_length_a 14.830410
_cell_length_b 9.226642
_cell_length_c 27.960477
_cell_angle_alpha 90.000000
_cell_angle_beta 90.000000
_cell_angle_gamma 90.000000
_cell_volume 3825.968621
_symmetry_space_group_name_H-M "P M M A"
_symmetry_group_IT_number 51
_symmetry_cell_setting 'orthorhombic'
loop_
_space_group_symop_operation_xyz
x,y,z
1/2-x,-y,z
1/2+x,-y,-z
-x,y,-z
-x,-y,-z
1/2+x,y,-z
1/2-x,y,z
x,-y,z
loop_
_atom_site_type_symbol
_atom_site_label
_atom_site_fract_x
_atom_site_fract_y
_atom_site_fract_z
Si Si1 0.027415 0.172346 0.387068
Si Si2 0.956499 0.173514 0.888132
Si Si3 0.144732 0.672173 0.308143
Si Si4 0.643431 0.669194 0.534152
Si Si5 0.602725 0.335726 0.980865
Si Si6 0.355551 0.671642 0.195396
Si Si7 0.645564 0.327877 0.420753
Si Si8 0.652721 0.827279 0.074738
O O1 0.079232 0.237049 0.341442
O O2 0.083162 0.230147 0.432944
O O3 0.927367 0.237342 0.391948
O O4 0.025874 0.000000 0.385961
O O5 0.901481 0.247078 0.931699
O O6 0.918276 0.235660 0.838975
O O7 0.062207 0.212365 0.896476
O O8 0.948026 0.000000 0.890420
O O9 0.250000 0.705619 0.318457
O O10 0.132620 0.500000 0.317108
O O11 0.129274 0.697956 0.251767
O O12 0.750000 0.687497 0.544617
O O13 0.620608 0.500000 0.543465
O O14 0.630868 0.695833 0.477685
O O15 0.635432 0.500000 0.973717
O O16 0.500000 0.343514 0.000000
O O17 0.650832 0.252520 0.023806
O O18 0.250000 0.702878 0.185609
O O19 0.369707 0.500000 0.186716
O O20 0.750000 0.292106 0.410370
O O21 0.633349 0.500000 0.412440
O O22 0.750000 0.796413 0.098167
O O23 0.647031 0.000000 0.066366
#
# Coordination Sequence:
#
# PCOD9400903 Si02
#       8
#     8   8   8   8   8   8   8   8
#     4  12  23  31  47  77 108 135 162 199 252 305
#     4  10  19  31  50  74  99 129 163 198 242 297
#     4   9  19  37  58  76  96 126 164 204 246 295
#     4   9  18  33  52  73  99 134 175 212 243 284
#     4   9  17  29  45  66  93 125 162 203 241 276
#     4   9  19  36  56  76  97 123 158 202 249 291
#     4   9  19  36  55  72  94 132 179 216 243 281
#     4   9  18  32  48  68  98 134 168 200 235 279
#
# _framework density 16.727789999999999
#
# number of rings (size 3 to 8) (size 9 to 14) (size 15 to 20)
#    0.000    2.500    0.000    4.125    0.000    7.750 
#    0.000    2.500    0.000    0.750    0.000    3.500 
#    0.000    0.000    0.000    0.000    0.000    0.000 
#
# Total GULP energy -357030.224018 kJ/mol
# GULP energy per Si atom -5578.597250 kJ/mol
# Density = 1.668972 g / cm^3
# Si number density = 16.727790 Si / 1000 Ang^3
#
#
#
# Elastic Constant Matrix: (Units=GPa)
#
#
# Indices 1 2 3 4 5 6 
#
# 1 112.1359 73.0794 69.4347 0.0000 0.0000 0.0000
# 2 73.0794 82.1254 63.6098 0.0000 0.0000 0.0000
# 3 69.4347 63.6098 75.2208 0.0000 0.0000 0.0000
# 4 0.0000 0.0000 0.0000 -55.7660 0.0000 0.0000
# 5 0.0000 0.0000 0.0000 0.0000 25.6759 0.0000
# 6 0.0000 0.0000 0.0000 0.0000 0.0000 4.4548
#
#
#
# Elastic Compliance Matrix: (Units=1/GPa)
#
#
# Indices 1 2 3 4 5 6 
#
# 1 0.024533 -0.012436 -0.012130 0.000000 0.000000 0.000000
# 2 -0.012436 0.041597 -0.023697 0.000000 0.000000 0.000000
# 3 -0.012130 -0.023697 0.044530 0.000000 0.000000 0.000000
# 4 0.000000 0.000000 0.000000 -0.017932 0.000000 0.000000
# 5 0.000000 0.000000 0.000000 0.000000 0.038947 0.000000
# 6 0.000000 0.000000 0.000000 0.000000 0.000000 0.224477
#
#
# Mechanical properties :
#
#
# Convention : Reuss Voigt Hill
#
# Bulk Modulus (GPa) = 70.74563 75.74776 73.24670
# Shear Modulus (GPa) = 10.93168 -0.90317 5.01425
#
# Velocity S-wave (km/s) = 2.55915 -0.73559 1.73322
# Velocity P-wave (km/s) = 7.14957 6.68277 6.92011
#
# Compressibility (1/GPa) = 0.01413515
#
# Stress axis : x y z
#
# Youngs Moduli (GPa) = 40.76195 24.04047 22.45693
#
# Poissons Ratio (x) = 0.29896 0.27239
# Poissons Ratio (y) = 0.50690 0.53216
# Poissons Ratio (z) = 0.49442 0.56968
#
# Static dielectric constant tensor:
#      x y z
#    x 1.589520 0.000000 0.000000 
#    y 0.000000 1.553570 0.000000 
#    z 0.000000 0.000000 1.539170 
# 
# From -- ./inp_files/37829.got.cif
#   From: 2010.05.17/outbox.cif.g08.bks.cpg/sg51_19_cif.got.tgz:37829.got - 2010.06.03 11:52:47.
