data_PCOD9400408
_publ_section_title
;
Structure prediction by ZEFSAII (Michael W. Deem and Ramdas Pophale) SiO2 
 PCOD9400408
Probable space group: P M M A
;
_chemical_formula_sum "Si O2"
_cell_formula_units_Z 64
_cell_length_a 24.986735
_cell_length_b 7.483275
_cell_length_c 16.815351
_cell_angle_alpha 90.000000
_cell_angle_beta 90.000000
_cell_angle_gamma 90.000000
_cell_volume 3144.178207
_symmetry_space_group_name_H-M "P M M A"
_symmetry_group_IT_number 51
_symmetry_cell_setting 'orthorhombic'
loop_
_space_group_symop_operation_xyz
x,y,z
1/2-x,-y,z
1/2+x,-y,-z
-x,y,-z
-x,-y,-z
1/2+x,y,-z
1/2-x,y,z
x,-y,z
loop_
_atom_site_type_symbol
_atom_site_label
_atom_site_fract_x
_atom_site_fract_y
_atom_site_fract_z
Si Si1 0.188732 0.282090 0.735972
Si Si2 0.612535 0.708028 0.131425
Si Si3 0.414969 0.714755 0.203424
Si Si4 0.809726 0.213344 0.521990
Si Si5 0.059693 0.718961 0.025394
Si Si6 0.809174 0.715155 0.709155
Si Si7 0.529517 0.212053 0.269165
Si Si8 0.106531 0.202992 0.599358
O O1 0.250000 0.232357 0.728470
O O2 0.184575 0.500000 0.731607
O O3 0.162176 0.220153 0.818427
O O4 0.152809 0.203958 0.666213
O O5 0.624000 0.500000 0.117873
O O6 0.562057 0.717521 0.192262
O O7 0.597749 0.783431 0.045822
O O8 0.411236 0.500000 0.199002
O O9 0.425519 0.779764 0.113657
O O10 0.359893 0.782531 0.241470
O O11 0.467091 0.754480 0.256608
O O12 0.750000 0.281767 0.498263
O O13 0.815388 0.242503 0.615896
O O14 0.861308 0.286207 0.474719
O O15 0.808945 0.000000 0.507108
O O16 0.060382 0.500000 0.026081
O O17 0.000000 0.771387 0.000000
O O18 0.750000 0.779906 0.734010
O O19 0.808732 0.500000 0.716206
O O20 0.556500 0.282486 0.350992
O O21 0.538798 0.000000 0.269401
O O22 0.091195 0.000000 0.576751
#
# Coordination Sequence:
#
# PCOD9400408 Si02
#       8
#     8   8   8   8   8   8   8   8
#     4   9  17  27  41  65  96 127 157 191 233 279
#     4   9  16  29  46  64  92 127 159 192 231 276
#     4  10  19  33  52  71  94 126 159 191 235 288
#     4   9  17  31  52  73  92 120 160 199 234 277
#     4   9  15  26  48  72  90 117 161 197 225 273
#     4   9  19  35  53  73  96 121 154 198 241 279
#     4  10  19  30  46  71 100 125 154 194 236 278
#     4   9  18  31  47  69  96 126 160 195 232 278
#
# _framework density 20.355079
#
# number of rings (size 3 to 8) (size 9 to 14) (size 15 to 20)
#    0.000    2.750    1.250    0.750    0.000    2.250 
#    0.000    3.750    0.000    7.500    0.000    0.000 
#    0.000    4.000    0.000    0.000    0.000    0.000 
#
# Total GULP energy -356799.472214 kJ/mol
# GULP energy per Si atom -5574.991753 kJ/mol
# Density = 2.030875 g / cm^3
# Si number density = 20.355079 Si / 1000 Ang^3
#
#
#
# Elastic Constant Matrix: (Units=GPa)
#
#
# Indices 1 2 3 4 5 6 
#
# 1 114.7753 -6.3721 57.7283 0.0000 0.0000 0.0000
# 2 -6.3721 59.8129 -3.4736 0.0000 0.0000 0.0000
# 3 57.7283 -3.4736 89.0236 0.0000 0.0000 0.0000
# 4 0.0000 0.0000 0.0000 16.8520 0.0000 0.0000
# 5 0.0000 0.0000 0.0000 0.0000 27.1263 0.0000
# 6 0.0000 0.0000 0.0000 0.0000 0.0000 8.2154
#
#
#
# Elastic Compliance Matrix: (Units=1/GPa)
#
#
# Indices 1 2 3 4 5 6 
#
# 1 0.012978 0.000896 -0.008380 0.000000 0.000000 0.000000
# 2 0.000896 0.016819 0.000075 0.000000 0.000000 0.000000
# 3 -0.008380 0.000075 0.016670 0.000000 0.000000 0.000000
# 4 0.000000 0.000000 0.000000 0.059340 0.000000 0.000000
# 5 0.000000 0.000000 0.000000 0.000000 0.036865 0.000000
# 6 0.000000 0.000000 0.000000 0.000000 0.000000 0.121723
#
#
# Mechanical properties :
#
#
# Convention : Reuss Voigt Hill
#
# Bulk Modulus (GPa) = 31.59770 39.93079 35.76425
# Shear Modulus (GPa) = 17.25552 24.82066 21.03809
#
# Velocity S-wave (km/s) = 2.91473 3.49576 3.21838
# Velocity P-wave (km/s) = 5.18503 5.99612 5.60526
#
# Compressibility (1/GPa) = 0.03164787
#
# Stress axis : x y z
#
# Youngs Moduli (GPa) = 77.05628 59.45791 59.98684
#
# Poissons Ratio (x) = -0.05327 0.50272
# Poissons Ratio (y) = -0.06903 -0.00452
# Poissons Ratio (z) = 0.64577 -0.00448
#
# Static dielectric constant tensor:
#      x y z
#    x 1.725680 0.000000 0.000000 
#    y 0.000000 1.784560 0.000000 
#    z 0.000000 0.000000 1.722230 
# 
# From -- ./inp_files/30603.got.cif
#   From: 2010.05.17/outbox.cif.g08.bks.cpg/sg51_16_cif.got.tgz:30603.got - 2010.06.03 11:52:47.
