data_PCOD9400118
_publ_section_title
;
Structure prediction by ZEFSAII (Michael W. Deem and Ramdas Pophale) SiO2 
 PCOD9400118
Probable space group: P M M A
;
_chemical_formula_sum "Si O2"
_cell_formula_units_Z 64
_cell_length_a 9.045334
_cell_length_b 18.688407
_cell_length_c 23.356995
_cell_angle_alpha 90.000000
_cell_angle_beta 90.000000
_cell_angle_gamma 90.000000
_cell_volume 3948.333779
_symmetry_space_group_name_H-M "P M M A"
_symmetry_group_IT_number 51
_symmetry_cell_setting 'orthorhombic'
loop_
_space_group_symop_operation_xyz
x,y,z
1/2-x,-y,z
1/2+x,-y,-z
-x,y,-z
-x,-y,-z
1/2+x,y,-z
1/2-x,y,z
x,-y,z
loop_
_atom_site_type_symbol
_atom_site_label
_atom_site_fract_x
_atom_site_fract_y
_atom_site_fract_z
Si Si1 0.574218 0.918323 0.319615
Si Si2 0.084502 0.582183 0.767449
Si Si3 0.072236 0.582558 0.937312
Si Si4 0.076871 0.314818 0.154530
Si Si5 0.427524 0.119165 0.440228
Si Si6 0.423960 0.210945 0.760623
Si Si7 0.577882 0.712078 0.555854
Si Si8 0.415007 0.667196 0.662828
O O1 0.750000 0.904537 0.329124
O O2 0.493181 0.910726 0.380904
O O3 0.523846 0.861678 0.271078
O O4 0.556721 0.000000 0.299860
O O5 0.250000 0.609716 0.785569
O O6 0.078283 0.500000 0.781948
O O7 0.077281 0.595683 0.699987
O O8 0.955244 0.625694 0.796934
O O9 0.250000 0.588715 0.939800
O O10 0.039852 0.500000 0.916820
O O11 0.006079 0.646439 0.898476
O O12 0.000000 0.587777 0.000000
O O13 0.250000 0.305668 0.142892
O O14 0.008118 0.243275 0.184034
O O15 0.500000 0.092342 0.500000
O O16 0.250000 0.109210 0.442279
O O17 0.463328 0.204065 0.437487
O O18 0.250000 0.203175 0.774904
O O19 0.435026 0.270336 0.710110
O O20 0.500000 0.682349 0.500000
O O21 0.750000 0.709715 0.546755
O O22 0.530991 0.673228 0.613195
O O23 0.250000 0.676116 0.638462
#
# Coordination Sequence:
#
# PCOD9400118 Si02
#       8
#     8   8   8   8   8   8   8   8
#     4  10  20  34  52  71  93 123 158 199 248 300
#     4   9  18  32  48  67  92 123 156 190 234 284
#     4  10  20  34  52  75 107 145 180 211 244 283
#     4  11  21  31  48  73 101 133 170 207 239 273
#     4  10  20  32  47  66  90 120 154 192 237 292
#     4   9  18  33  50  68  93 124 159 197 241 289
#     4  10  19  29  44  64  84 108 141 183 228 278
#     4   9  16  28  47  66  85 112 143 184 233 280
#
# _framework density 16.20937
#
# number of rings (size 3 to 8) (size 9 to 14) (size 15 to 20)
#    0.000    2.250    1.250    3.375    0.000    6.500 
#    0.000    0.000    0.000    0.375    0.000    0.000 
#    0.000    0.500    0.000    1.375    0.000    2.000 
#
# Total GULP energy -356464.426555 kJ/mol
# GULP energy per Si atom -5569.756665 kJ/mol
# Density = 1.617248 g / cm^3
# Si number density = 16.209370 Si / 1000 Ang^3
#
#
#
# Elastic Constant Matrix: (Units=GPa)
#
#
# Indices 1 2 3 4 5 6 
#
# 1 42.3248 26.8677 35.7208 0.0000 0.0000 0.0000
# 2 26.8677 61.0622 44.3287 0.0000 0.0000 0.0000
# 3 35.7208 44.3287 82.2562 0.0000 0.0000 0.0000
# 4 0.0000 0.0000 0.0000 11.5359 0.0000 0.0000
# 5 0.0000 0.0000 0.0000 0.0000 28.5016 0.0000
# 6 0.0000 0.0000 0.0000 0.0000 0.0000 14.1298
#
#
#
# Elastic Compliance Matrix: (Units=1/GPa)
#
#
# Indices 1 2 3 4 5 6 
#
# 1 0.039601 -0.008115 -0.012824 0.000000 0.000000 0.000000
# 2 -0.008115 0.028564 -0.011869 0.000000 0.000000 0.000000
# 3 -0.012824 -0.011869 0.024123 0.000000 0.000000 0.000000
# 4 0.000000 0.000000 0.000000 0.086686 0.000000 0.000000
# 5 0.000000 0.000000 0.000000 0.000000 0.035086 0.000000
# 6 0.000000 0.000000 0.000000 0.000000 0.000000 0.070772
#
#
# Mechanical properties :
#
#
# Convention : Reuss Voigt Hill
#
# Bulk Modulus (GPa) = 37.49382 44.38638 40.94010
# Shear Modulus (GPa) = 13.91439 16.08186 14.99813
#
# Velocity S-wave (km/s) = 2.93305 3.15323 3.04513
# Velocity P-wave (km/s) = 5.88656 6.37964 6.13805
#
# Compressibility (1/GPa) = 0.02667106
#
# Stress axis : x y z
#
# Youngs Moduli (GPa) = 25.25161 35.00894 41.45460
#
# Poissons Ratio (x) = 0.28410 0.53162
# Poissons Ratio (y) = 0.20492 0.49204
# Poissons Ratio (z) = 0.32383 0.41554
#
# Static dielectric constant tensor:
#      x y z
#    x 1.558120 0.000000 0.000000 
#    y 0.000000 1.570300 0.000000 
#    z 0.000000 0.000000 1.553580 
# 
# From -- ./inp_files/32629.got.cif
#   From: 2010.05.17/outbox.cif.g08.bks.cpg/sg51_17_cif.got.tgz:32629.got - 2010.06.03 11:52:47.
