data_PCOD9400914
_publ_section_title
;
Structure prediction by ZEFSAII (Michael W. Deem and Ramdas Pophale) SiO2 
 PCOD9400914
Probable space group: P M M A
;
_chemical_formula_sum "Si O2"
_cell_formula_units_Z 56
_cell_length_a 8.895504
_cell_length_b 23.032107
_cell_length_c 15.295480
_cell_angle_alpha 90.000000
_cell_angle_beta 90.000000
_cell_angle_gamma 90.000000
_cell_volume 3133.771592
_symmetry_space_group_name_H-M "P M M A"
_symmetry_group_IT_number 51
_symmetry_cell_setting 'orthorhombic'
loop_
_space_group_symop_operation_xyz
x,y,z
1/2-x,-y,z
1/2+x,-y,-z
-x,y,-z
-x,-y,-z
1/2+x,y,-z
1/2-x,y,z
x,-y,z
loop_
_atom_site_type_symbol
_atom_site_label
_atom_site_fract_x
_atom_site_fract_y
_atom_site_fract_z
Si Si1 0.069866 0.396166 0.090628
Si Si2 0.068662 0.435537 0.280099
Si Si3 0.069401 0.739218 0.091640
Si Si4 0.568508 0.164603 0.769063
Si Si5 0.429663 0.340740 0.593901
Si Si6 0.430794 0.932724 0.092913
Si Si7 0.429739 0.205301 0.594041
O O1 0.250000 0.398712 0.082880
O O2 0.025934 0.429335 0.178288
O O3 0.026474 0.328245 0.103041
O O4 0.000000 0.417143 0.000000
O O5 0.250000 0.429652 0.285032
O O6 0.027894 0.500000 0.312084
O O7 0.994581 0.384371 0.334802
O O8 0.250000 0.742132 0.084962
O O9 0.024181 0.779403 0.172484
O O10 0.000000 0.759680 0.000000
O O11 0.750000 0.164990 0.759568
O O12 0.525144 0.109043 0.827594
O O13 0.494278 0.168744 0.674492
O O14 0.500000 0.355659 0.500000
O O15 0.250000 0.345134 0.590036
O O16 0.469160 0.273271 0.611577
O O17 0.250000 0.929671 0.085387
O O18 0.473348 0.000000 0.108020
O O19 0.500000 0.914385 0.000000
O O20 0.500000 0.189999 0.500000
O O21 0.250000 0.200670 0.589544
#
# Coordination Sequence:
#
# PCOD9400914 Si02
#       7
#     8   8   8   8   8   8   8
#     4   9  18  32  48  67  94 127 162 201 246 295
#     4  10  21  36  53  73  98 130 168 208 249 296
#     4   9  17  28  44  68  97 128 161 200 247 297
#     4  10  19  31  50  75 104 138 173 211 255 299
#     4  10  21  37  57  79 102 129 160 199 251 308
#     4   9  18  32  50  75 109 148 186 220 254 295
#     4  10  21  36  55  79 104 130 163 205 254 308
#
# _framework density 17.869841000000001
#
# number of rings (size 3 to 8) (size 9 to 14) (size 15 to 20)
#    0.000    2.429    0.000    2.143    0.000    5.429 
#    0.000    2.857    0.000    0.429    0.000    0.000 
#    0.000    0.000    0.000    0.000    0.000    0.000 
#
# Total GULP energy -312532.384893 kJ/mol
# GULP energy per Si atom -5580.935445 kJ/mol
# Density = 1.782917 g / cm^3
# Si number density = 17.869841 Si / 1000 Ang^3
#
#
#
# Elastic Constant Matrix: (Units=GPa)
#
#
# Indices 1 2 3 4 5 6 
#
# 1 19.7942 27.5289 40.1561 0.0000 0.0000 0.0000
# 2 27.5289 63.9395 63.7477 0.0000 0.0000 0.0000
# 3 40.1561 63.7477 149.0239 0.0000 0.0000 0.0000
# 4 0.0000 0.0000 0.0000 10.3737 0.0000 0.0000
# 5 0.0000 0.0000 0.0000 0.0000 36.4599 0.0000
# 6 0.0000 0.0000 0.0000 0.0000 0.0000 18.3716
#
#
#
# Elastic Compliance Matrix: (Units=1/GPa)
#
#
# Indices 1 2 3 4 5 6 
#
# 1 0.165242 -0.046645 -0.024573 0.000000 0.000000 0.000000
# 2 -0.046645 0.040437 -0.004729 0.000000 0.000000 0.000000
# 3 -0.024573 -0.004729 0.015355 0.000000 0.000000 0.000000
# 4 0.000000 0.000000 0.000000 0.096398 0.000000 0.000000
# 5 0.000000 0.000000 0.000000 0.000000 0.027427 0.000000
# 6 0.000000 0.000000 0.000000 0.000000 0.000000 0.054432
#
#
# Mechanical properties :
#
#
# Convention : Reuss Voigt Hill
#
# Bulk Modulus (GPa) = 14.46334 55.06923 34.76629
# Shear Modulus (GPa) = 8.70728 19.79602 14.25165
#
# Velocity S-wave (km/s) = 2.20979 3.33196 2.82711
# Velocity P-wave (km/s) = 3.82390 6.75917 5.49129
#
# Compressibility (1/GPa) = 0.06914032
#
# Stress axis : x y z
#
# Youngs Moduli (GPa) = 6.05172 24.72965 65.12722
#
# Poissons Ratio (x) = 1.15352 1.60036
# Poissons Ratio (y) = 0.28228 0.30797
# Poissons Ratio (z) = 0.14871 0.11694
#
# Static dielectric constant tensor:
#      x y z
#    x 1.597620 0.000000 0.000000 
#    y 0.000000 1.621360 0.000000 
#    z 0.000000 0.000000 1.588450 
# 
# From -- ./inp_files/21814.got.cif
#   From: 2010.05.17/outbox.cif.g08.bks.cpg/sg51_11_cif.got.tgz:21814.got - 2010.06.03 11:52:47.
