data_PCOD9400651
_publ_section_title
;
Structure prediction by ZEFSAII (Michael W. Deem and Ramdas Pophale) SiO2 
 PCOD9400651
Probable space group: P M M A
;
_chemical_formula_sum "Si O2"
_cell_formula_units_Z 64
_cell_length_a 9.205668
_cell_length_b 23.424716
_cell_length_c 17.795582
_cell_angle_alpha 90.000000
_cell_angle_beta 90.000000
_cell_angle_gamma 90.000000
_cell_volume 3837.442123
_symmetry_space_group_name_H-M "P M M A"
_symmetry_group_IT_number 51
_symmetry_cell_setting 'orthorhombic'
loop_
_space_group_symop_operation_xyz
x,y,z
1/2-x,-y,z
1/2+x,-y,-z
-x,y,-z
-x,-y,-z
1/2+x,y,-z
1/2-x,y,z
x,-y,z
loop_
_atom_site_type_symbol
_atom_site_label
_atom_site_fract_x
_atom_site_fract_y
_atom_site_fract_z
Si Si1 0.925312 0.066561 0.742214
Si Si2 0.922464 0.826852 0.209930
Si Si3 0.083178 0.742187 0.316986
Si Si4 0.084116 0.648690 0.182482
Si Si5 0.922623 0.265027 0.078872
Si Si6 0.923695 0.343787 0.420978
Si Si7 0.577365 0.433791 0.288277
Si Si8 0.914845 0.069322 0.572628
O O1 0.750000 0.073053 0.745142
O O2 0.973151 0.080291 0.656193
O O3 0.004964 0.111192 0.795405
O O4 0.957399 0.000000 0.757088
O O5 0.750000 0.830566 0.221849
O O6 0.947597 0.787267 0.136913
O O7 0.999783 0.794827 0.279564
O O8 0.250000 0.756008 0.336982
O O9 0.086976 0.694690 0.250694
O O10 0.995321 0.712540 0.384109
O O11 0.250000 0.638344 0.158959
O O12 0.991330 0.678896 0.117679
O O13 0.009527 0.593591 0.219064
O O14 0.750000 0.271745 0.069672
O O15 0.000000 0.254378 0.000000
O O16 0.750000 0.337342 0.428846
O O17 0.951286 0.395504 0.362251
O O18 0.000000 0.355373 0.500000
O O19 0.750000 0.428968 0.273363
O O20 0.541385 0.500000 0.300220
O O21 0.750000 0.090297 0.569328
O O22 0.000000 0.090665 0.500000
O O23 0.910364 0.000000 0.567755
#
# Coordination Sequence:
#
# PCOD9400651 Si02
#       8
#     8   8   8   8   8   8   8   8
#     4   9  18  32  49  70  98 133 170 205 244 294
#     4  10  20  33  51  76 102 126 157 200 245 292
#     4   9  17  31  50  69  91 123 162 203 249 298
#     4   9  17  30  50  75 100 127 161 201 244 290
#     4  10  20  34  54  80 106 129 156 195 243 295
#     4  10  19  31  47  68  97 132 171 216 262 303
#     4   9  18  32  49  70  99 137 177 213 250 294
#     4   8  14  25  41  61  85 114 150 191 231 269
#
# _framework density 16.677776000000001
#
# number of rings (size 3 to 8) (size 9 to 14) (size 15 to 20)
#    0.000    2.750    0.000    2.625    0.000    6.250 
#    0.000    1.875    0.000    2.250    0.000    0.000 
#    0.000    0.000    0.000    0.000    0.000    0.000 
#
# Total GULP energy -356643.034806 kJ/mol
# GULP energy per Si atom -5572.547419 kJ/mol
# Density = 1.663982 g / cm^3
# Si number density = 16.677776 Si / 1000 Ang^3
#
#
#
# Elastic Constant Matrix: (Units=GPa)
#
#
# Indices 1 2 3 4 5 6 
#
# 1 101.0964 62.0374 67.7016 0.0000 0.0000 0.0000
# 2 62.0374 93.1708 51.3977 0.0000 0.0000 0.0000
# 3 67.7016 51.3977 79.3372 0.0000 0.0000 0.0000
# 4 0.0000 0.0000 0.0000 13.5172 0.0000 0.0000
# 5 0.0000 0.0000 0.0000 0.0000 30.1282 0.0000
# 6 0.0000 0.0000 0.0000 0.0000 0.0000 24.0270
#
#
#
# Elastic Compliance Matrix: (Units=1/GPa)
#
#
# Indices 1 2 3 4 5 6 
#
# 1 0.026451 -0.008031 -0.017369 0.000000 0.000000 0.000000
# 2 -0.008031 0.019140 -0.005547 0.000000 0.000000 0.000000
# 3 -0.017369 -0.005547 0.031020 0.000000 0.000000 0.000000
# 4 0.000000 0.000000 0.000000 0.073980 0.000000 0.000000
# 5 0.000000 0.000000 0.000000 0.000000 0.033191 0.000000
# 6 0.000000 0.000000 0.000000 0.000000 0.000000 0.041620
#
#
# Mechanical properties :
#
#
# Convention : Reuss Voigt Hill
#
# Bulk Modulus (GPa) = 67.94615 70.65311 69.29963
# Shear Modulus (GPa) = 17.11142 19.69898 18.40520
#
# Velocity S-wave (km/s) = 3.20660 3.44052 3.32562
# Velocity P-wave (km/s) = 7.38503 7.63141 7.50923
#
# Compressibility (1/GPa) = 0.01471754
#
# Stress axis : x y z
#
# Youngs Moduli (GPa) = 37.80505 52.24641 32.23741
#
# Poissons Ratio (x) = 0.41958 0.55995
# Poissons Ratio (y) = 0.30360 0.17881
# Poissons Ratio (z) = 0.65665 0.28980
#
# Static dielectric constant tensor:
#      x y z
#    x 1.562440 0.000000 0.000000 
#    y 0.000000 1.562790 0.000000 
#    z 0.000000 0.000000 1.550360 
# 
# From -- ./inp_files/28568.got.cif
#   From: 2010.05.17/outbox.cif.g08.bks.cpg/sg51_15_cif.got.tgz:28568.got - 2010.06.03 11:52:47.
