data_PCOD9400736
_publ_section_title
;
Structure prediction by ZEFSAII (Michael W. Deem and Ramdas Pophale) SiO2 
 PCOD9400736
Probable space group: P M M A
;
_chemical_formula_sum "Si O2"
_cell_formula_units_Z 64
_cell_length_a 8.792227
_cell_length_b 22.832560
_cell_length_c 16.535825
_cell_angle_alpha 90.000000
_cell_angle_beta 90.000000
_cell_angle_gamma 90.000000
_cell_volume 3319.551168
_symmetry_space_group_name_H-M "P M M A"
_symmetry_group_IT_number 51
_symmetry_cell_setting 'orthorhombic'
loop_
_space_group_symop_operation_xyz
x,y,z
1/2-x,-y,z
1/2+x,-y,-z
-x,y,-z
-x,-y,-z
1/2+x,y,-z
1/2-x,y,z
x,-y,z
loop_
_atom_site_type_symbol
_atom_site_label
_atom_site_fract_x
_atom_site_fract_y
_atom_site_fract_z
Si Si1 0.932636 0.066606 0.769535
Si Si2 0.927946 0.690144 0.703132
Si Si3 0.431911 0.904012 0.413986
Si Si4 0.075123 0.406663 0.918207
Si Si5 0.925800 0.276250 0.134671
Si Si6 0.571488 0.775255 0.420061
Si Si7 0.069288 0.143964 0.913952
Si Si8 0.067087 0.436388 0.253204
O O1 0.750000 0.075518 0.770098
O O2 0.980323 0.071969 0.674529
O O3 0.004492 0.111177 0.834322
O O4 0.965486 0.000000 0.795436
O O5 0.750000 0.695712 0.681035
O O6 0.954943 0.711310 0.794493
O O7 0.978179 0.622270 0.699288
O O8 0.033414 0.731908 0.651415
O O9 0.500000 0.926661 0.500000
O O10 0.250000 0.910063 0.419418
O O11 0.482813 0.836290 0.409603
O O12 0.250000 0.424208 0.913690
O O13 0.069869 0.335428 0.917554
O O14 0.991681 0.428375 0.837952
O O15 0.000000 0.428176 0.000000
O O16 0.250000 0.272598 0.834195
O O17 0.959602 0.213869 0.094789
O O18 0.500000 0.747336 0.500000
O O19 0.750000 0.786916 0.428474
O O20 0.750000 0.135038 0.084010
O O21 0.000000 0.123996 0.000000
O O22 0.250000 0.435400 0.251449
O O23 0.016760 0.500000 0.284366
#
# Coordination Sequence:
#
# PCOD9400736 Si02
#       8
#     8   8   8   8   8   8   8   8
#     4  10  23  42  60  80 110 148 189 230 270 318
#     4  10  19  32  53  79 106 137 172 213 263 314
#     4  10  20  36  60  89 119 149 180 218 268 325
#     4  10  19  31  48  71 100 132 166 209 259 311
#     4   9  19  34  52  77 106 135 171 214 264 321
#     4  11  21  34  54  81 113 142 170 207 253 309
#     4  11  23  38  58  82 108 142 184 232 283 332
#     4   9  19  35  52  70  95 131 174 215 255 303
#
# _framework density 19.279714999999999
#
# number of rings (size 3 to 8) (size 9 to 14) (size 15 to 20)
#    0.000    2.000    0.000    4.500    0.000    6.250 
#    0.000    0.000    0.000    0.375    0.000    0.000 
#    0.000    0.000    0.000    0.000    0.000    0.000 
#
# Total GULP energy -356956.789467 kJ/mol
# GULP energy per Si atom -5577.449835 kJ/mol
# Density = 1.923583 g / cm^3
# Si number density = 19.279715 Si / 1000 Ang^3
#
#
#
# Elastic Constant Matrix: (Units=GPa)
#
#
# Indices 1 2 3 4 5 6 
#
# 1 31.1504 18.8909 23.1810 0.0000 0.0000 0.0000
# 2 18.8909 84.2420 29.8609 0.0000 0.0000 0.0000
# 3 23.1810 29.8609 68.6051 0.0000 0.0000 0.0000
# 4 0.0000 0.0000 0.0000 9.5082 0.0000 0.0000
# 5 0.0000 0.0000 0.0000 0.0000 33.5160 0.0000
# 6 0.0000 0.0000 0.0000 0.0000 0.0000 3.9385
#
#
#
# Elastic Compliance Matrix: (Units=1/GPa)
#
#
# Indices 1 2 3 4 5 6 
#
# 1 0.044983 -0.005557 -0.012781 0.000000 0.000000 0.000000
# 2 -0.005557 0.014723 -0.004530 0.000000 0.000000 0.000000
# 3 -0.012781 -0.004530 0.020867 0.000000 0.000000 0.000000
# 4 0.000000 0.000000 0.000000 0.105172 0.000000 0.000000
# 5 0.000000 0.000000 0.000000 0.000000 0.029837 0.000000
# 6 0.000000 0.000000 0.000000 0.000000 0.000000 0.253907
#
#
# Mechanical properties :
#
#
# Convention : Reuss Voigt Hill
#
# Bulk Modulus (GPa) = 28.70584 36.42924 32.56754
# Shear Modulus (GPa) = 9.49062 16.86351 13.17707
#
# Velocity S-wave (km/s) = 2.22110 2.96070 2.61716
# Velocity P-wave (km/s) = 4.63672 5.53388 5.10505
#
# Compressibility (1/GPa) = 0.03483611
#
# Stress axis : x y z
#
# Youngs Moduli (GPa) = 22.23054 67.92279 47.92361
#
# Poissons Ratio (x) = 0.37745 0.61249
# Poissons Ratio (y) = 0.12353 0.21712
# Poissons Ratio (z) = 0.28412 0.30772
#
# Static dielectric constant tensor:
#      x y z
#    x 1.711800 0.000000 0.000000 
#    y 0.000000 1.699070 0.000000 
#    z 0.000000 0.000000 1.700160 
# 
# From -- ./inp_files/22262.got.cif
#   From: 2010.05.17/outbox.cif.g08.bks.cpg/sg51_12_cif.got.tgz:22262.got - 2010.06.03 11:52:47.
