data_PCOD9400397
_publ_section_title
;
Structure prediction by ZEFSAII (Michael W. Deem and Ramdas Pophale) SiO2 
 PCOD9400397
Probable space group: P M M A
;
_chemical_formula_sum "Si O2"
_cell_formula_units_Z 56
_cell_length_a 8.660154
_cell_length_b 20.669674
_cell_length_c 15.795467
_cell_angle_alpha 90.000000
_cell_angle_beta 90.000000
_cell_angle_gamma 90.000000
_cell_volume 2827.429029
_symmetry_space_group_name_H-M "P M M A"
_symmetry_group_IT_number 51
_symmetry_cell_setting 'orthorhombic'
loop_
_space_group_symop_operation_xyz
x,y,z
1/2-x,-y,z
1/2+x,-y,-z
-x,y,-z
-x,-y,-z
1/2+x,y,-z
1/2-x,y,z
x,-y,z
loop_
_atom_site_type_symbol
_atom_site_label
_atom_site_fract_x
_atom_site_fract_y
_atom_site_fract_z
Si Si1 0.565072 0.205632 0.674694
Si Si2 0.933165 0.673153 0.410522
Si Si3 0.436505 0.245240 0.135437
Si Si4 0.065224 0.928492 0.728881
Si Si5 0.064407 0.896946 0.087633
Si Si6 0.936230 0.613155 0.912314
Si Si7 0.064061 0.572792 0.275455
O O1 0.750000 0.205216 0.668213
O O2 0.494493 0.254336 0.607097
O O3 0.522084 0.236608 0.766162
O O4 0.504817 0.132190 0.678407
O O5 0.750000 0.673575 0.413103
O O6 0.000000 0.650071 0.500000
O O7 0.990425 0.626391 0.335458
O O8 0.250000 0.247461 0.131991
O O9 0.484606 0.178767 0.091766
O O10 0.492972 0.312299 0.097214
O O11 0.250000 0.921682 0.731641
O O12 0.001135 0.925177 0.825108
O O13 0.026983 0.000000 0.694579
O O14 0.250000 0.901515 0.089194
O O15 0.000000 0.924394 0.000000
O O16 0.750000 0.612069 0.916698
O O17 0.980497 0.580719 0.823305
O O18 0.000000 0.585698 0.000000
O O19 0.250000 0.581252 0.278812
O O20 0.026089 0.500000 0.303421
#
# Coordination Sequence:
#
# PCOD9400397 Si02
#       7
#     8   8   8   8   8   8   8
#     4  10  19  37  63  89 120 155 197 248 300 359
#     4  12  25  42  68  99 128 159 198 248 307 372
#     4   8  15  29  50  75 106 146 191 245 303 355
#     4  10  21  36  54  80 115 156 201 247 300 365
#     4  10  19  30  46  70 103 147 198 256 313 367
#     4  10  19  33  53  81 118 160 207 254 304 356
#     4  10  22  42  65  88 123 169 210 255 311 366
#
# _framework density 19.805979000000001
#
# number of rings (size 3 to 8) (size 9 to 14) (size 15 to 20)
#    0.000    2.000    1.429    3.857    0.000    2.857 
#    0.000    0.714    0.000    0.429    0.000    0.000 
#    0.000    0.000    0.000    0.000    0.000    0.000 
#
# Total GULP energy -312648.891137 kJ/mol
# GULP energy per Si atom -5583.015913 kJ/mol
# Density = 1.976090 g / cm^3
# Si number density = 19.805979 Si / 1000 Ang^3
#
#
#
# Elastic Constant Matrix: (Units=GPa)
#
#
# Indices 1 2 3 4 5 6 
#
# 1 65.0223 46.1813 33.5855 0.0000 0.0000 0.0000
# 2 46.1813 119.0301 41.0605 0.0000 0.0000 0.0000
# 3 33.5855 41.0605 92.9307 0.0000 0.0000 0.0000
# 4 0.0000 0.0000 0.0000 -8.6863 0.0000 0.0000
# 5 0.0000 0.0000 0.0000 0.0000 28.0758 0.0000
# 6 0.0000 0.0000 0.0000 0.0000 0.0000 13.7848
#
#
#
# Elastic Compliance Matrix: (Units=1/GPa)
#
#
# Indices 1 2 3 4 5 6 
#
# 1 0.023176 -0.007200 -0.005195 0.000000 0.000000 0.000000
# 2 -0.007200 0.012149 -0.002766 0.000000 0.000000 0.000000
# 3 -0.005195 -0.002766 0.013860 0.000000 0.000000 0.000000
# 4 0.000000 0.000000 0.000000 -0.115124 0.000000 0.000000
# 5 0.000000 0.000000 0.000000 0.000000 0.035618 0.000000
# 6 0.000000 0.000000 0.000000 0.000000 0.000000 0.072544
#
#
# Mechanical properties :
#
#
# Convention : Reuss Voigt Hill
#
# Bulk Modulus (GPa) = 53.01030 57.62641 55.31835
# Shear Modulus (GPa) = 63.42619 17.04524 40.23571
#
# Velocity S-wave (km/s) = 5.66509 2.93680 4.51210
# Velocity P-wave (km/s) = 8.34350 6.37639 7.42537
#
# Compressibility (1/GPa) = 0.01886426
#
# Stress axis : x y z
#
# Youngs Moduli (GPa) = 43.14765 82.31316 72.14947
#
# Poissons Ratio (x) = 0.59265 0.37480
# Poissons Ratio (y) = 0.31066 0.19954
# Poissons Ratio (z) = 0.22414 0.22765
#
# Static dielectric constant tensor:
#      x y z
#    x 1.664160 0.000000 0.000000 
#    y 0.000000 1.727130 0.000000 
#    z 0.000000 0.000000 1.691640 
# 
# From -- ./inp_files/21794.got.cif
#   From: 2010.05.17/outbox.cif.g08.bks.cpg/sg51_11_cif.got.tgz:21794.got - 2010.06.03 11:52:47.
