data_PCOD9400338
_publ_section_title
;
Structure prediction by ZEFSAII (Michael W. Deem and Ramdas Pophale) SiO2 
 PCOD9400338
Probable space group: P M M A
;
_chemical_formula_sum "Si O2"
_cell_formula_units_Z 64
_cell_length_a 25.542181
_cell_length_b 9.409173
_cell_length_c 18.086995
_cell_angle_alpha 90.000000
_cell_angle_beta 90.000000
_cell_angle_gamma 90.000000
_cell_volume 4346.861975
_symmetry_space_group_name_H-M "P M M A"
_symmetry_group_IT_number 51
_symmetry_cell_setting 'orthorhombic'
loop_
_space_group_symop_operation_xyz
x,y,z
1/2-x,-y,z
1/2+x,-y,-z
-x,y,-z
-x,-y,-z
1/2+x,y,-z
1/2-x,y,z
x,-y,z
loop_
_atom_site_type_symbol
_atom_site_label
_atom_site_fract_x
_atom_site_fract_y
_atom_site_fract_z
Si Si1 0.187825 0.169793 0.813892
Si Si2 0.688971 0.669237 0.789430
Si Si3 0.313674 0.163212 0.358375
Si Si4 0.813622 0.163041 0.354314
Si Si5 0.607118 0.669266 0.084427
Si Si6 0.313891 0.336606 0.502967
Si Si7 0.502173 0.163196 0.089706
Si Si8 0.898470 0.668236 0.909374
O O1 0.250000 0.196644 0.821418
O O2 0.171745 0.204432 0.729194
O O3 0.154323 0.259538 0.871182
O O4 0.179866 0.000000 0.824071
O O5 0.750000 0.702752 0.805433
O O6 0.686209 0.500000 0.774230
O O7 0.672152 0.754968 0.716631
O O8 0.651240 0.700364 0.858110
O O9 0.250000 0.162446 0.360231
O O10 0.330926 0.246561 0.431709
O O11 0.331227 0.000000 0.358369
O O12 0.750000 0.162798 0.354937
O O13 0.831124 0.264179 0.420470
O O14 0.829993 0.000000 0.367845
O O15 0.604642 0.500000 0.096173
O O16 0.553278 0.745335 0.108951
O O17 0.612935 0.693998 0.996113
O O18 0.250000 0.335062 0.503063
O O19 0.330311 0.500000 0.497682
O O20 0.448721 0.239680 0.113526
O O21 0.505950 0.000000 0.115026
O O22 0.500000 0.161418 0.000000
O O23 0.910716 0.500000 0.902256
#
# Coordination Sequence:
#
# PCOD9400338 Si02
#       8
#     8   8   8   8   8   8   8   8
#     4   9  18  31  44  60  87 121 151 179 214 256
#     4   9  17  29  43  59  84 117 147 175 211 255
#     4   9  16  25  37  54  78 108 141 175 209 247
#     4   8  14  25  39  54  76 108 142 174 209 248
#     4  10  19  30  46  66  87 112 144 182 221 261
#     4   9  15  22  35  55  77 103 137 174 210 249
#     4   9  17  30  48  66  83 105 137 179 224 265
#     4   9  18  31  46  64  86 112 143 181 222 260
#
# _framework density 14.723266000000001
#
# number of rings (size 3 to 8) (size 9 to 14) (size 15 to 20)
#    0.000    3.000    0.000    2.250    0.000    6.750 
#    0.000    2.500    0.000    1.500    0.000    0.000 
#    0.000    1.000    0.000   10.500    0.000    7.500 
#
# Total GULP energy -356356.009621 kJ/mol
# GULP energy per Si atom -5568.062650 kJ/mol
# Density = 1.468975 g / cm^3
# Si number density = 14.723266 Si / 1000 Ang^3
#
#
#
# Elastic Constant Matrix: (Units=GPa)
#
#
# Indices 1 2 3 4 5 6 
#
# 1 59.3862 53.6652 49.6667 0.0000 0.0000 0.0000
# 2 53.6652 99.2014 74.8695 0.0000 0.0000 0.0000
# 3 49.6667 74.8695 94.3961 0.0000 0.0000 0.0000
# 4 0.0000 0.0000 0.0000 26.2010 0.0000 0.0000
# 5 0.0000 0.0000 0.0000 0.0000 -1.0256 0.0000
# 6 0.0000 0.0000 0.0000 0.0000 0.0000 20.1089
#
#
#
# Elastic Compliance Matrix: (Units=1/GPa)
#
#
# Indices 1 2 3 4 5 6 
#
# 1 0.035539 -0.012738 -0.008596 0.000000 0.000000 0.000000
# 2 -0.012738 0.029679 -0.016838 0.000000 0.000000 0.000000
# 3 -0.008596 -0.016838 0.028471 0.000000 0.000000 0.000000
# 4 0.000000 0.000000 0.000000 0.038167 0.000000 0.000000
# 5 0.000000 0.000000 0.000000 0.000000 -0.975013 0.000000
# 6 0.000000 0.000000 0.000000 0.000000 0.000000 0.049729
#
#
# Mechanical properties :
#
#
# Convention : Reuss Voigt Hill
#
# Bulk Modulus (GPa) = 57.64997 67.70959 62.67978
# Shear Modulus (GPa) = -7.02935 14.04234 3.50650
#
# Velocity S-wave (km/s) = -2.18739 3.09164 1.54492
# Velocity P-wave (km/s) = 5.73246 7.67022 6.77102
#
# Compressibility (1/GPa) = 0.01734606
#
# Stress axis : x y z
#
# Youngs Moduli (GPa) = 28.13825 33.69361 35.12367
#
# Poissons Ratio (x) = 0.42920 0.30191
# Poissons Ratio (y) = 0.35843 0.59140
# Poissons Ratio (z) = 0.24187 0.56732
#
# Static dielectric constant tensor:
#      x y z
#    x 1.459470 0.000000 0.000000 
#    y 0.000000 1.495060 0.000000 
#    z 0.000000 0.000000 1.480220 
# 
# From -- ./inp_files/30911.got.cif
#   From: 2010.05.17/outbox.cif.g08.bks.cpg/sg51_16_cif.got.tgz:30911.got - 2010.06.03 11:52:47.
