data_PCOD9400083
_publ_section_title
;
Structure prediction by ZEFSAII (Michael W. Deem and Ramdas Pophale) SiO2 
 PCOD9400083
Probable space group: P M M A
;
_chemical_formula_sum "Si O2"
_cell_formula_units_Z 64
_cell_length_a 30.975276
_cell_length_b 7.636077
_cell_length_c 15.409544
_cell_angle_alpha 90.000000
_cell_angle_beta 90.000000
_cell_angle_gamma 90.000000
_cell_volume 3644.813165
_symmetry_space_group_name_H-M "P M M A"
_symmetry_group_IT_number 51
_symmetry_cell_setting 'orthorhombic'
loop_
_space_group_symop_operation_xyz
x,y,z
1/2-x,-y,z
1/2+x,-y,-z
-x,y,-z
-x,-y,-z
1/2+x,y,-z
1/2-x,y,z
x,-y,z
loop_
_atom_site_type_symbol
_atom_site_label
_atom_site_fract_x
_atom_site_fract_y
_atom_site_fract_z
Si Si1 0.615718 0.290913 0.793364
Si Si2 0.702268 0.792059 0.505052
Si Si3 0.891968 0.788003 0.466388
Si Si4 0.054889 0.291889 0.359641
Si Si5 0.541364 0.205793 0.324421
Si Si6 0.528298 0.785550 0.130403
Si Si7 0.937533 0.790246 0.951680
Si Si8 0.797326 0.287836 0.708761
O O1 0.616387 0.500000 0.781213
O O2 0.579450 0.222174 0.726155
O O3 0.602479 0.256738 0.891756
O O4 0.662311 0.223381 0.764190
O O5 0.750000 0.720672 0.480701
O O6 0.657530 0.722670 0.465127
O O7 0.697687 0.766491 0.608634
O O8 0.703452 0.000000 0.487789
O O9 0.915521 0.744824 0.557053
O O10 0.922356 0.721108 0.388714
O O11 0.890419 0.000000 0.462177
O O12 0.050317 0.500000 0.351483
O O13 0.006430 0.220660 0.365203
O O14 0.539142 0.278768 0.226539
O O15 0.550967 0.000000 0.315572
O O16 0.480653 0.728723 0.099006
O O17 0.527716 0.000000 0.133493
O O18 0.559609 0.731129 0.051429
O O19 0.940310 0.000000 0.954316
O O20 0.750000 0.228608 0.738640
O O21 0.797545 0.500000 0.710155
#
# Coordination Sequence:
#
# PCOD9400083 Si02
#       8
#     8   8   8   8   8   8   8   8
#     4  10  19  29  42  65  91 114 142 176 215 258
#     4   9  17  29  44  63  86 109 139 182 222 253
#     4  10  20  31  45  64  85 116 152 179 213 259
#     4  11  21  31  42  62  92 122 149 179 213 252
#     4  10  19  32  47  62  85 118 153 186 213 253
#     4   8  15  28  45  64  83 106 146 184 210 245
#     4   9  16  28  47  65  81 110 145 178 214 253
#     4   9  17  30  46  62  84 115 147 177 212 258
#
# _framework density 17.559200000000001
#
# number of rings (size 3 to 8) (size 9 to 14) (size 15 to 20)
#    0.000    2.500    2.500    1.500    0.000    3.000 
#    0.000    1.875    0.000    0.000    0.000    0.875 
#    0.000    3.000    0.000    0.000    0.000    0.000 
#
# Total GULP energy -356788.686653 kJ/mol
# GULP energy per Si atom -5574.823229 kJ/mol
# Density = 1.751923 g / cm^3
# Si number density = 17.559200 Si / 1000 Ang^3
#
#
#
# Elastic Constant Matrix: (Units=GPa)
#
#
# Indices 1 2 3 4 5 6 
#
# 1 140.8688 -2.5142 53.5015 0.0000 0.0000 0.0000
# 2 -2.5142 29.0638 -1.8462 0.0000 0.0000 0.0000
# 3 53.5015 -1.8462 78.0371 0.0000 0.0000 0.0000
# 4 0.0000 0.0000 0.0000 20.4154 0.0000 0.0000
# 5 0.0000 0.0000 0.0000 0.0000 23.4026 0.0000
# 6 0.0000 0.0000 0.0000 0.0000 0.0000 -89.3183
#
#
#
# Elastic Compliance Matrix: (Units=1/GPa)
#
#
# Indices 1 2 3 4 5 6 
#
# 1 0.009603 0.000413 -0.006574 0.000000 0.000000 0.000000
# 2 0.000413 0.034477 0.000532 0.000000 0.000000 0.000000
# 3 -0.006574 0.000532 0.017334 0.000000 0.000000 0.000000
# 4 0.000000 0.000000 0.000000 0.048983 0.000000 0.000000
# 5 0.000000 0.000000 0.000000 0.000000 0.042730 0.000000
# 6 0.000000 0.000000 0.000000 0.000000 0.000000 -0.011196
#
#
# Mechanical properties :
#
#
# Convention : Reuss Voigt Hill
#
# Bulk Modulus (GPa) = 19.93743 38.47243 29.20493
# Shear Modulus (GPa) = 29.42798 4.15518 16.79158
#
# Velocity S-wave (km/s) = 4.09825 1.53997 3.09574
# Velocity P-wave (km/s) = 5.81148 5.01196 5.42646
#
# Compressibility (1/GPa) = 0.05015691
#
# Stress axis : x y z
#
# Youngs Moduli (GPa) = 104.13490 29.00511 57.68997
#
# Poissons Ratio (x) = -0.01198 0.37925
# Poissons Ratio (y) = -0.04302 -0.03072
# Poissons Ratio (z) = 0.68457 -0.01544
#
# Static dielectric constant tensor:
#      x y z
#    x 1.622990 0.000000 0.000000 
#    y 0.000000 1.652620 0.000000 
#    z 0.000000 0.000000 1.595360 
# 
# From -- ./inp_files/26668.got.cif
#   From: 2010.05.17/outbox.cif.g08.bks.cpg/sg51_14_cif.got.tgz:26668.got - 2010.06.03 11:52:47.
