data_PCOD9400311
_publ_section_title
;
Structure prediction by ZEFSAII (Michael W. Deem and Ramdas Pophale) SiO2 
 PCOD9400311
Probable space group: P M M A
;
_chemical_formula_sum "Si O2"
_cell_formula_units_Z 56
_cell_length_a 15.740654
_cell_length_b 18.226923
_cell_length_c 9.463211
_cell_angle_alpha 90.000000
_cell_angle_beta 90.000000
_cell_angle_gamma 90.000000
_cell_volume 2715.030140
_symmetry_space_group_name_H-M "P M M A"
_symmetry_group_IT_number 51
_symmetry_cell_setting 'orthorhombic'
loop_
_space_group_symop_operation_xyz
x,y,z
1/2-x,-y,z
1/2+x,-y,-z
-x,y,-z
-x,-y,-z
1/2+x,y,-z
1/2-x,y,z
x,-y,z
loop_
_atom_site_type_symbol
_atom_site_label
_atom_site_fract_x
_atom_site_fract_y
_atom_site_fract_z
Si Si1 0.013325 0.581346 0.667347
Si Si2 0.094058 0.418630 0.071423
Si Si3 0.405862 0.740960 0.057690
Si Si4 0.354283 0.082497 0.551035
Si Si5 0.155671 0.157375 0.822510
Si Si6 0.655699 0.307965 0.354565
Si Si7 0.851805 0.778664 0.634299
O O1 0.047620 0.500000 0.698181
O O2 0.082909 0.641107 0.705614
O O3 0.000000 0.585929 0.500000
O O4 0.929229 0.588162 0.761724
O O5 0.133012 0.500000 0.046283
O O6 0.136491 0.340093 0.033607
O O7 0.000000 0.421379 0.000000
O O8 0.399722 0.759927 0.222484
O O9 0.500000 0.730776 0.000000
O O10 0.374888 0.812030 0.971591
O O11 0.250000 0.086835 0.556423
O O12 0.386589 0.102584 0.709388
O O13 0.379613 0.145055 0.439349
O O14 0.377870 0.000000 0.511862
O O15 0.250000 0.127942 0.847137
O O16 0.158819 0.232532 0.731653
O O17 0.750000 0.341444 0.350203
O O18 0.636021 0.283394 0.514918
O O19 0.750000 0.782500 0.663146
#
# Coordination Sequence:
#
# PCOD9400311 Si02
#       7
#     8   8   8   8   8   8   8
#     4  10  19  30  45  66  92 123 162 206 245 283
#     4   9  18  31  46  65  91 126 168 209 243 276
#     4  11  20  31  50  74 100 133 170 206 244 293
#     4   8  15  32  58  81  98 124 165 204 240 293
#     4   9  18  32  51  75 100 124 156 203 250 287
#     4   9  17  30  47  68  94 124 158 199 251 303
#     4   9  18  32  51  74 100 128 160 204 251 294
#
# _framework density 20.625923
#
# number of rings (size 3 to 8) (size 9 to 14) (size 15 to 20)
#    0.000    2.714    0.000    4.714    0.000    0.286 
#    0.000    2.857    0.000    9.429    0.000    0.000 
#    0.000    0.000    0.000    0.000    0.000    0.000 
#
# Total GULP energy -311915.620770 kJ/mol
# GULP energy per Si atom -5569.921799 kJ/mol
# Density = 2.057898 g / cm^3
# Si number density = 20.625923 Si / 1000 Ang^3
#
#
#
# Elastic Constant Matrix: (Units=GPa)
#
#
# Indices 1 2 3 4 5 6 
#
# 1 17.5625 13.6889 1.1717 0.0000 0.0000 0.0000
# 2 13.6889 98.1070 -5.5586 0.0000 0.0000 0.0000
# 3 1.1717 -5.5586 74.9129 0.0000 0.0000 0.0000
# 4 0.0000 0.0000 0.0000 21.1139 0.0000 0.0000
# 5 0.0000 0.0000 0.0000 0.0000 21.9469 0.0000
# 6 0.0000 0.0000 0.0000 0.0000 0.0000 17.7749
#
#
#
# Elastic Compliance Matrix: (Units=1/GPa)
#
#
# Indices 1 2 3 4 5 6 
#
# 1 0.064096 -0.009038 -0.001673 0.000000 0.000000 0.000000
# 2 -0.009038 0.011510 0.000995 0.000000 0.000000 0.000000
# 3 -0.001673 0.000995 0.013449 0.000000 0.000000 0.000000
# 4 0.000000 0.000000 0.000000 0.047362 0.000000 0.000000
# 5 0.000000 0.000000 0.000000 0.000000 0.045565 0.000000
# 6 0.000000 0.000000 0.000000 0.000000 0.000000 0.056259
#
#
# Mechanical properties :
#
#
# Convention : Reuss Voigt Hill
#
# Bulk Modulus (GPa) = 14.36297 23.24294 18.80296
# Shear Modulus (GPa) = 17.80119 24.25250 21.02684
#
# Velocity S-wave (km/s) = 2.94096 3.43275 3.19633
# Velocity P-wave (km/s) = 4.30244 5.19663 4.77053
#
# Compressibility (1/GPa) = 0.06962346
#
# Stress axis : x y z
#
# Youngs Moduli (GPa) = 15.60166 86.87764 74.35574
#
# Poissons Ratio (x) = 0.78521 0.12441
# Poissons Ratio (y) = 0.14101 -0.07402
# Poissons Ratio (z) = 0.02610 -0.08648
#
# Static dielectric constant tensor:
#      x y z
#    x 1.763430 0.000000 0.000000 
#    y 0.000000 1.761110 0.000000 
#    z 0.000000 0.000000 1.804180 
# 
# From -- ./inp_files/11146.got.cif
#   From: 2010.05.17/outbox.cif.g08.bks.cpg/sg51_6_cif.got.tgz:11146.got - 2010.06.03 11:52:47.
