data_PCOD9400640
_publ_section_title
;
Structure prediction by ZEFSAII (Michael W. Deem and Ramdas Pophale) SiO2 
 PCOD9400640
Probable space group: P M M A
;
_chemical_formula_sum "Si O2"
_cell_formula_units_Z 44
_cell_length_a 8.414711
_cell_length_b 21.939897
_cell_length_c 14.685928
_cell_angle_alpha 90.000000
_cell_angle_beta 90.000000
_cell_angle_gamma 90.000000
_cell_volume 2711.285079
_symmetry_space_group_name_H-M "P M M A"
_symmetry_group_IT_number 51
_symmetry_cell_setting 'orthorhombic'
loop_
_space_group_symop_operation_xyz
x,y,z
1/2-x,-y,z
1/2+x,-y,-z
-x,y,-z
-x,-y,-z
1/2+x,y,-z
1/2-x,y,z
x,-y,z
loop_
_atom_site_type_symbol
_atom_site_label
_atom_site_fract_x
_atom_site_fract_y
_atom_site_fract_z
Si Si1 0.059858 0.814468 0.286122
Si Si2 0.941327 0.000000 0.896003
Si Si3 0.057960 0.434509 0.604577
Si Si4 0.059084 0.068146 0.604141
Si Si5 0.058013 0.866396 0.102952
Si Si6 0.440288 0.301316 0.603832
O O1 0.250000 0.813149 0.287335
O O2 0.005917 0.819862 0.180927
O O3 0.006518 0.875580 0.338488
O O4 0.997835 0.754814 0.336392
O O5 0.995621 0.933922 0.862332
O O6 0.750000 0.000000 0.891572
O O7 0.000000 0.000000 0.000000
O O8 0.250000 0.434617 0.605643
O O9 0.004831 0.500000 0.644985
O O10 0.005956 0.368194 0.640295
O O11 0.000000 0.434753 0.500000
O O12 0.250000 0.070422 0.605013
O O13 0.000000 0.074002 0.500000
O O14 0.008987 0.000000 0.636516
O O15 0.250000 0.866732 0.099488
O O16 0.000000 0.856373 0.000000
O O17 0.500000 0.294588 0.500000
O O18 0.250000 0.300711 0.601515
#
# Coordination Sequence:
#
# PCOD9400640 Si02
#       6
#     8   4   8   8   8   8
#     4  11  22  33  48  68  92 122 153 187 228 276
#     4   8  14  28  46  64  81 100 129 168 219 270
#     4   8  14  25  42  64  89 119 153 186 221 260
#     4  10  21  36  51  67  87 115 153 195 234 271
#     4   9  19  33  50  68  88 113 143 184 231 279
#     4  10  19  31  47  67  95 127 158 192 225 264
#
# _framework density 16.228466000000001
#
# number of rings (size 3 to 8) (size 9 to 14) (size 15 to 20)
#    0.000    2.545    0.000    2.182    1.273    3.273 
#    0.000    0.000    0.000    0.000    0.000    0.000 
#    0.000    0.727    0.000    1.636    0.000    2.909 
#
# Total GULP energy -245027.734902 kJ/mol
# GULP energy per Si atom -5568.812157 kJ/mol
# Density = 1.619153 g / cm^3
# Si number density = 16.228466 Si / 1000 Ang^3
#
#
#
# Elastic Constant Matrix: (Units=GPa)
#
#
# Indices 1 2 3 4 5 6 
#
# 1 26.8671 29.5617 14.2232 0.0000 0.0000 0.0000
# 2 29.5617 167.3767 74.4146 0.0000 0.0000 0.0000
# 3 14.2232 74.4146 74.9860 0.0000 0.0000 0.0000
# 4 0.0000 0.0000 0.0000 10.5115 0.0000 0.0000
# 5 0.0000 0.0000 0.0000 0.0000 16.1281 0.0000
# 6 0.0000 0.0000 0.0000 0.0000 0.0000 7.4157
#
#
#
# Elastic Compliance Matrix: (Units=1/GPa)
#
#
# Indices 1 2 3 4 5 6 
#
# 1 0.046257 -0.007640 -0.001193 0.000000 0.000000 0.000000
# 2 -0.007640 0.011954 -0.010413 0.000000 0.000000 0.000000
# 3 -0.001193 -0.010413 0.023896 0.000000 0.000000 0.000000
# 4 0.000000 0.000000 0.000000 0.095134 0.000000 0.000000
# 5 0.000000 0.000000 0.000000 0.000000 0.062004 0.000000
# 6 0.000000 0.000000 0.000000 0.000000 0.000000 0.134848
#
#
# Mechanical properties :
#
#
# Convention : Reuss Voigt Hill
#
# Bulk Modulus (GPa) = 22.92747 56.18099 39.55423
# Shear Modulus (GPa) = 11.70622 16.87974 14.29298
#
# Velocity S-wave (km/s) = 2.68869 3.22861 2.97094
# Velocity P-wave (km/s) = 4.87825 6.97083 6.01622
#
# Compressibility (1/GPa) = 0.04361580
#
# Stress axis : x y z
#
# Youngs Moduli (GPa) = 21.61813 83.65686 41.84783
#
# Poissons Ratio (x) = 0.63911 0.04991
# Poissons Ratio (y) = 0.16516 0.43578
# Poissons Ratio (z) = 0.02578 0.87115
#
# Static dielectric constant tensor:
#      x y z
#    x 1.555890 0.000000 0.000000 
#    y 0.000000 1.599070 0.000000 
#    z 0.000000 0.000000 1.515300 
# 
# From -- ./inp_files/21427.got.cif
#   From: 2010.05.17/outbox.cif.g08.bks.cpg/sg51_11_cif.got.tgz:21427.got - 2010.06.03 11:52:47.
