data_PCOD9400865
_publ_section_title
;
Structure prediction by ZEFSAII (Michael W. Deem and Ramdas Pophale) SiO2 
 PCOD9400865
Probable space group: P M M A
;
_chemical_formula_sum "Si O2"
_cell_formula_units_Z 64
_cell_length_a 28.780605
_cell_length_b 7.612645
_cell_length_c 12.576908
_cell_angle_alpha 90.000000
_cell_angle_beta 90.000000
_cell_angle_gamma 90.000000
_cell_volume 2755.556885
_symmetry_space_group_name_H-M "P M M A"
_symmetry_group_IT_number 51
_symmetry_cell_setting 'orthorhombic'
loop_
_space_group_symop_operation_xyz
x,y,z
1/2-x,-y,z
1/2+x,-y,-z
-x,y,-z
-x,-y,-z
1/2+x,y,-z
1/2-x,y,z
x,-y,z
loop_
_atom_site_type_symbol
_atom_site_label
_atom_site_fract_x
_atom_site_fract_y
_atom_site_fract_z
Si Si1 0.121577 0.284423 0.885698
Si Si2 0.298517 0.706996 0.735522
Si Si3 0.932692 0.790613 0.448218
Si Si4 0.529792 0.703031 0.218018
Si Si5 0.168777 0.796128 0.278900
Si Si6 0.061485 0.289165 0.313352
Si Si7 0.301710 0.296840 0.048826
Si Si8 0.827007 0.211991 0.492014
O O1 0.118038 0.500000 0.887791
O O2 0.154557 0.225574 0.788048
O O3 0.069428 0.221419 0.859708
O O4 0.152885 0.226603 0.986216
O O5 0.250000 0.781376 0.778665
O O6 0.298522 0.500000 0.757560
O O7 0.299171 0.732379 0.610138
O O8 0.950449 0.707100 0.339192
O O9 0.953891 0.753112 0.565042
O O10 0.879653 0.731460 0.467382
O O11 0.934482 0.000000 0.432443
O O12 0.523372 0.500000 0.186604
O O13 0.478155 0.778953 0.233022
O O14 0.112647 0.783883 0.289590
O O15 0.187200 0.707711 0.173416
O O16 0.187135 0.724406 0.391532
O O17 0.181867 0.000000 0.269993
O O18 0.064417 0.500000 0.305130
O O19 0.250000 0.219616 0.030641
O O20 0.298768 0.500000 0.014578
O O21 0.826905 0.000000 0.497326
#
# Coordination Sequence:
#
# PCOD9400865 Si02
#       8
#     8   8   8   8   8   8   8   8
#     4   9  18  35  57  82 113 144 181 231 282 330
#     4  10  19  31  52  80 108 140 177 221 276 335
#     4  10  19  31  49  76 113 154 191 226 271 329
#     4  10  19  32  53  81 112 151 191 229 278 334
#     4  10  22  40  59  80 111 148 188 234 288 338
#     4  10  20  33  53  82 113 147 192 235 277 333
#     4  10  21  39  64  88 108 139 187 237 283 334
#     4   9  19  34  50  73 106 144 179 216 268 328
#
# _framework density 23.225797
#
# number of rings (size 3 to 8) (size 9 to 14) (size 15 to 20)
#    0.000    2.250    1.250    2.625    0.000    7.500 
#    0.000    4.375    0.000    5.250    0.000    0.000 
#    0.000    0.000    0.000    0.000    0.000    0.000 
#
# Total GULP energy -357111.710035 kJ/mol
# GULP energy per Si atom -5579.870469 kJ/mol
# Density = 2.317293 g / cm^3
# Si number density = 23.225797 Si / 1000 Ang^3
#
#
#
# Elastic Constant Matrix: (Units=GPa)
#
#
# Indices 1 2 3 4 5 6 
#
# 1 42.5699 -7.7044 5.4191 0.0000 0.0000 0.0000
# 2 -7.7044 47.0873 -6.0392 0.0000 0.0000 0.0000
# 3 5.4191 -6.0392 102.8427 0.0000 0.0000 0.0000
# 4 0.0000 0.0000 0.0000 26.3550 0.0000 0.0000
# 5 0.0000 0.0000 0.0000 0.0000 29.5727 0.0000
# 6 0.0000 0.0000 0.0000 0.0000 0.0000 5.3530
#
#
#
# Elastic Compliance Matrix: (Units=1/GPa)
#
#
# Indices 1 2 3 4 5 6 
#
# 1 0.024321 0.003844 -0.001056 0.000000 0.000000 0.000000
# 2 0.003844 0.022006 0.001090 0.000000 0.000000 0.000000
# 3 -0.001056 0.001090 0.009843 0.000000 0.000000 0.000000
# 4 0.000000 0.000000 0.000000 0.037943 0.000000 0.000000
# 5 0.000000 0.000000 0.000000 0.000000 0.033815 0.000000
# 6 0.000000 0.000000 0.000000 0.000000 0.000000 0.186812
#
#
# Mechanical properties :
#
#
# Convention : Reuss Voigt Hill
#
# Bulk Modulus (GPa) = 15.64319 19.53899 17.59109
# Shear Modulus (GPa) = 15.23027 25.64443 20.43735
#
# Velocity S-wave (km/s) = 2.56354 3.32646 2.96960
# Velocity P-wave (km/s) = 3.93855 4.81504 4.39868
#
# Compressibility (1/GPa) = 0.06392558
#
# Stress axis : x y z
#
# Youngs Moduli (GPa) = 41.11698 45.44246 101.59284
#
# Poissons Ratio (x) = -0.17468 0.10726
# Poissons Ratio (y) = -0.15805 -0.11071
# Poissons Ratio (z) = 0.04341 -0.04952
#
# Static dielectric constant tensor:
#      x y z
#    x 1.928720 0.000000 0.000000 
#    y 0.000000 1.829100 0.000000 
#    z 0.000000 0.000000 1.864050 
# 
# From -- ./inp_files/19483.got.cif
#   From: 2010.05.17/outbox.cif.g08.bks.cpg/sg51_10_cif.got.tgz:19483.got - 2010.06.03 11:52:47.
