data_PCOD9400943
_publ_section_title
;
Structure prediction by ZEFSAII (Michael W. Deem and Ramdas Pophale) SiO2 
 PCOD9400943
Probable space group: P M M A
;
_chemical_formula_sum "Si O2"
_cell_formula_units_Z 40
_cell_length_a 17.819109
_cell_length_b 12.809769
_cell_length_c 9.613626
_cell_angle_alpha 90.000000
_cell_angle_beta 90.000000
_cell_angle_gamma 90.000000
_cell_volume 2194.393485
_symmetry_space_group_name_H-M "P M M A"
_symmetry_group_IT_number 51
_symmetry_cell_setting 'orthorhombic'
loop_
_space_group_symop_operation_xyz
x,y,z
1/2-x,-y,z
1/2+x,-y,-z
-x,y,-z
-x,-y,-z
1/2+x,y,-z
1/2-x,y,z
x,-y,z
loop_
_atom_site_type_symbol
_atom_site_label
_atom_site_fract_x
_atom_site_fract_y
_atom_site_fract_z
Si Si1 0.163722 0.384189 0.056679
Si Si2 0.510724 0.119465 0.165363
Si Si3 0.666942 0.219941 0.190576
Si Si4 0.390768 0.619632 0.601377
Si Si5 0.052693 0.322866 0.298428
O O1 0.250000 0.377049 0.108692
O O2 0.155125 0.500000 0.992703
O O3 0.103960 0.371400 0.178758
O O4 0.153953 0.293948 0.943586
O O5 0.598225 0.140362 0.198205
O O6 0.463966 0.203594 0.253756
O O7 0.489921 0.000000 0.194408
O O8 0.500000 0.138539 0.000000
O O9 0.750000 0.173299 0.181435
O O10 0.661860 0.299864 0.319156
O O11 0.364852 0.500000 0.598028
O O12 0.407580 0.660229 0.446203
O O13 0.470734 0.625397 0.682942
#
# Coordination Sequence:
#
# PCOD9400943 Si02
#       5
#     8   8   8   8   8
#     4  10  19  31  50  76 108 142 178 221 269 326
#     4  10  20  37  60  83 105 139 187 236 287 326
#     4  10  21  36  53  81 113 143 182 226 274 328
#     4  10  20  33  53  79 114 150 178 213 264 331
#     4  10  19  35  53  79 108 141 186 226 266 320
#
# _framework density 18.228272
#
# number of rings (size 3 to 8) (size 9 to 14) (size 15 to 20)
#    0.000    2.000    2.000    3.000    0.000    2.400 
#    0.000   11.000    0.000    0.600    0.000    0.000 
#    0.000    0.000    0.000    0.000    0.000    0.000 
#
# Total GULP energy -223173.698275 kJ/mol
# GULP energy per Si atom -5579.342457 kJ/mol
# Density = 1.818678 g / cm^3
# Si number density = 18.228272 Si / 1000 Ang^3
#
#
#
# Elastic Constant Matrix: (Units=GPa)
#
#
# Indices 1 2 3 4 5 6 
#
# 1 33.0053 -3.6081 2.8346 0.0000 0.0000 0.0000
# 2 -3.6081 83.6379 3.6263 0.0000 0.0000 0.0000
# 3 2.8346 3.6263 30.7673 0.0000 0.0000 0.0000
# 4 0.0000 0.0000 0.0000 21.8146 0.0000 0.0000
# 5 0.0000 0.0000 0.0000 0.0000 22.5266 0.0000
# 6 0.0000 0.0000 0.0000 0.0000 0.0000 38.9255
#
#
#
# Elastic Compliance Matrix: (Units=1/GPa)
#
#
# Indices 1 2 3 4 5 6 
#
# 1 0.030715 0.001455 -0.003001 0.000000 0.000000 0.000000
# 2 0.001455 0.012087 -0.001559 0.000000 0.000000 0.000000
# 3 -0.003001 -0.001559 0.032962 0.000000 0.000000 0.000000
# 4 0.000000 0.000000 0.000000 0.045841 0.000000 0.000000
# 5 0.000000 0.000000 0.000000 0.000000 0.044392 0.000000
# 6 0.000000 0.000000 0.000000 0.000000 0.000000 0.025690
#
#
# Mechanical properties :
#
#
# Convention : Reuss Voigt Hill
#
# Bulk Modulus (GPa) = 14.37722 17.01288 15.69505
# Shear Modulus (GPa) = 22.61614 26.29052 24.45333
#
# Velocity S-wave (km/s) = 3.52620 3.80187 3.66663
# Velocity P-wave (km/s) = 4.94806 5.35031 5.15311
#
# Compressibility (1/GPa) = 0.06955448
#
# Stress axis : x y z
#
# Youngs Moduli (GPa) = 32.55740 82.73588 30.33775
#
# Poissons Ratio (x) = -0.12039 0.09105
# Poissons Ratio (y) = -0.04738 0.04728
# Poissons Ratio (z) = 0.09771 0.12895
#
# Static dielectric constant tensor:
#      x y z
#    x 1.650650 0.000000 0.000000 
#    y 0.000000 1.606980 0.000000 
#    z 0.000000 0.000000 1.619720 
# 
# From -- ./inp_files/9265.got.cif
#   From: 2010.05.17/outbox.cif.g08.bks.cpg/sg51_5_cif.got.tgz:9265.got - 2010.06.03 11:52:47.
