data_PCOD9400104
_publ_section_title
;
Structure prediction by ZEFSAII (Michael W. Deem and Ramdas Pophale) SiO2 
 PCOD9400104
Probable space group: P M M A
;
_chemical_formula_sum "Si O2"
_cell_formula_units_Z 64
_cell_length_a 14.944598
_cell_length_b 12.974367
_cell_length_c 20.313489
_cell_angle_alpha 90.000000
_cell_angle_beta 90.000000
_cell_angle_gamma 90.000000
_cell_volume 3938.718465
_symmetry_space_group_name_H-M "P M M A"
_symmetry_group_IT_number 51
_symmetry_cell_setting 'orthorhombic'
loop_
_space_group_symop_operation_xyz
x,y,z
1/2-x,-y,z
1/2+x,-y,-z
-x,y,-z
-x,-y,-z
1/2+x,y,-z
1/2-x,y,z
x,-y,z
loop_
_atom_site_type_symbol
_atom_site_label
_atom_site_fract_x
_atom_site_fract_y
_atom_site_fract_z
Si Si1 0.852002 0.125281 0.091007
Si Si2 0.856708 0.384069 0.326712
Si Si3 0.142539 0.620784 0.384383
Si Si4 0.932540 0.883646 0.438050
Si Si5 0.491569 0.230421 0.311203
Si Si6 0.518764 0.875459 0.825361
Si Si7 0.646014 0.124897 0.943611
Si Si8 0.853061 0.671958 0.470124
O O1 0.750000 0.159255 0.101865
O O2 0.921253 0.155259 0.146984
O O3 0.851168 0.000000 0.089952
O O4 0.881835 0.157745 0.017354
O O5 0.750000 0.359847 0.324283
O O6 0.869037 0.500000 0.301464
O O7 0.886905 0.381168 0.403767
O O8 0.920455 0.299143 0.295214
O O9 0.250000 0.642294 0.381237
O O10 0.129763 0.500000 0.370159
O O11 0.086093 0.693963 0.336945
O O12 0.108311 0.643347 0.459060
O O13 0.862894 0.793662 0.456079
O O14 0.000000 0.884284 0.500000
O O15 0.981504 0.845864 0.371323
O O16 0.897444 0.000000 0.429856
O O17 0.463702 0.170552 0.245933
O O18 0.587258 0.840384 0.882276
O O19 0.522313 0.000000 0.821459
O O20 0.750000 0.152261 0.935409
O O21 0.640368 0.000000 0.943850
O O22 0.750000 0.640588 0.474721
#
# Coordination Sequence:
#
# PCOD9400104 Si02
#       8
#     8   8   8   8   8   8   8   8
#     4   8  14  26  45  68  92 121 157 191 223 261
#     4   9  18  32  50  70  90 111 143 195 254 302
#     4  10  20  34  51  69  88 110 145 199 256 300
#     4  10  19  32  46  61  89 127 164 197 225 258
#     4  11  21  32  46  68  93 128 160 192 231 280
#     4  10  19  29  43  65  98 133 162 187 218 261
#     4   8  14  26  45  67  91 122 158 191 223 261
#     4   9  17  31  50  71  87 106 147 200 247 290
#
# _framework density 16.248939
#
# number of rings (size 3 to 8) (size 9 to 14) (size 15 to 20)
#    0.000    2.625    1.250    2.250    0.000    4.250 
#    0.000    1.875    0.000    3.375    0.000    0.000 
#    0.000    8.000    0.000   22.000    0.000    1.000 
#
# Total GULP energy -356394.307448 kJ/mol
# GULP energy per Si atom -5568.661054 kJ/mol
# Density = 1.621196 g / cm^3
# Si number density = 16.248939 Si / 1000 Ang^3
#
#
#
# Elastic Constant Matrix: (Units=GPa)
#
#
# Indices 1 2 3 4 5 6 
#
# 1 32.9280 10.7107 18.8611 0.0000 0.0000 0.0000
# 2 10.7107 55.6918 13.5319 0.0000 0.0000 0.0000
# 3 18.8611 13.5319 80.1221 0.0000 0.0000 0.0000
# 4 0.0000 0.0000 0.0000 1.8887 0.0000 0.0000
# 5 0.0000 0.0000 0.0000 0.0000 11.1746 0.0000
# 6 0.0000 0.0000 0.0000 0.0000 0.0000 17.3242
#
#
#
# Elastic Compliance Matrix: (Units=1/GPa)
#
#
# Indices 1 2 3 4 5 6 
#
# 1 0.036459 -0.005137 -0.007715 0.000000 0.000000 0.000000
# 2 -0.005137 0.019448 -0.002075 0.000000 0.000000 0.000000
# 3 -0.007715 -0.002075 0.014648 0.000000 0.000000 0.000000
# 4 0.000000 0.000000 0.000000 0.529471 0.000000 0.000000
# 5 0.000000 0.000000 0.000000 0.000000 0.089489 0.000000
# 6 0.000000 0.000000 0.000000 0.000000 0.000000 0.057723
#
#
# Mechanical properties :
#
#
# Convention : Reuss Voigt Hill
#
# Bulk Modulus (GPa) = 24.57005 28.32770 26.44888
# Shear Modulus (GPa) = 6.32383 14.45338 10.38861
#
# Velocity S-wave (km/s) = 1.97492 2.98568 2.53126
# Velocity P-wave (km/s) = 4.51157 5.41822 4.98555
#
# Compressibility (1/GPa) = 0.04069996
#
# Stress axis : x y z
#
# Youngs Moduli (GPa) = 27.42771 51.41858 68.27056
#
# Poissons Ratio (x) = 0.26415 0.52671
# Poissons Ratio (y) = 0.14091 0.14168
# Poissons Ratio (z) = 0.21161 0.10671
#
# Static dielectric constant tensor:
#      x y z
#    x 1.574300 0.000000 0.000000 
#    y 0.000000 1.541760 0.000000 
#    z 0.000000 0.000000 1.542400 
# 
# From -- ./inp_files/29877.got.cif
#   From: 2010.05.17/outbox.cif.g08.bks.cpg/sg51_15_cif.got.tgz:29877.got - 2010.06.03 11:52:47.
