data_PCOD9400225
_publ_section_title
;
Structure prediction by ZEFSAII (Michael W. Deem and Ramdas Pophale) SiO2 
 PCOD9400225
Probable space group: P M M A
;
_chemical_formula_sum "Si O2"
_cell_formula_units_Z 64
_cell_length_a 7.624342
_cell_length_b 20.934713
_cell_length_c 20.674929
_cell_angle_alpha 90.000000
_cell_angle_beta 90.000000
_cell_angle_gamma 90.000000
_cell_volume 3299.995952
_symmetry_space_group_name_H-M "P M M A"
_symmetry_group_IT_number 51
_symmetry_cell_setting 'orthorhombic'
loop_
_space_group_symop_operation_xyz
x,y,z
1/2-x,-y,z
1/2+x,-y,-z
-x,y,-z
-x,-y,-z
1/2+x,y,-z
1/2-x,y,z
x,-y,z
loop_
_atom_site_type_symbol
_atom_site_label
_atom_site_fract_x
_atom_site_fract_y
_atom_site_fract_z
Si Si1 0.547607 0.931184 0.899409
Si Si2 0.536176 0.247774 0.209834
Si Si3 0.959757 0.205785 0.428597
Si Si4 0.035919 0.068641 0.612523
Si Si5 0.534877 0.316587 0.332811
Si Si6 0.049203 0.212561 0.928113
Si Si7 0.960705 0.427303 0.426855
Si Si8 0.961324 0.896768 0.243093
O O1 0.750000 0.929576 0.919695
O O2 0.467232 0.864583 0.922775
O O3 0.537828 0.927593 0.821406
O O4 0.470980 0.000000 0.919640
O O5 0.750000 0.250675 0.208270
O O6 0.478317 0.302770 0.259211
O O7 0.465443 0.243409 0.136367
O O8 0.495249 0.178425 0.240532
O O9 0.750000 0.202442 0.420553
O O10 0.028244 0.133526 0.420590
O O11 0.022451 0.255546 0.375236
O O12 0.000000 0.229762 0.500000
O O13 0.250000 0.068908 0.609784
O O14 0.987576 0.074508 0.688290
O O15 0.975557 0.000000 0.586715
O O16 0.750000 0.317677 0.333004
O O17 0.475455 0.379329 0.371333
O O18 0.250000 0.228837 0.922052
O O19 0.000000 0.232412 0.000000
O O20 0.750000 0.429570 0.421564
O O21 0.028015 0.500000 0.420760
O O22 0.000000 0.404706 0.500000
O O23 0.750000 0.902665 0.237638
#
# Coordination Sequence:
#
# PCOD9400225 Si02
#       8
#     8   8   8   8   8   8   8   8
#     4  10  20  31  43  62  88 114 141 176 222 275
#     4   8  14  26  46  68  84 106 142 180 217 261
#     4  10  19  30  44  60  81 110 144 183 225 267
#     4   9  16  26  42  60  76 100 139 184 226 273
#     4   9  15  27  47  67  89 116 150 188 218 255
#     4  10  20  33  50  67  87 113 143 179 223 273
#     4   9  17  28  44  68  98 131 160 187 221 259
#     4   9  15  27  46  64  79 100 139 184 227 272
#
# _framework density 19.393962999999999
#
# number of rings (size 3 to 8) (size 9 to 14) (size 15 to 20)
#    0.000    2.750    1.250    2.250    0.000    2.000 
#    0.000    0.625    0.000    4.500    0.000    0.000 
#    0.000    0.500    0.000    0.375    0.000    0.750 
#
# Total GULP energy -356906.964723 kJ/mol
# GULP energy per Si atom -5576.671324 kJ/mol
# Density = 1.934982 g / cm^3
# Si number density = 19.393963 Si / 1000 Ang^3
#
#
#
# Elastic Constant Matrix: (Units=GPa)
#
#
# Indices 1 2 3 4 5 6 
#
# 1 31.4143 5.6624 0.1529 0.0000 0.0000 0.0000
# 2 5.6624 88.3197 58.8234 0.0000 0.0000 0.0000
# 3 0.1529 58.8234 133.6621 0.0000 0.0000 0.0000
# 4 0.0000 0.0000 0.0000 13.1382 0.0000 0.0000
# 5 0.0000 0.0000 0.0000 0.0000 16.3194 0.0000
# 6 0.0000 0.0000 0.0000 0.0000 0.0000 0.8970
#
#
#
# Elastic Compliance Matrix: (Units=1/GPa)
#
#
# Indices 1 2 3 4 5 6 
#
# 1 0.032349 -0.002899 0.001239 0.000000 0.000000 0.000000
# 2 -0.002899 0.016277 -0.007160 0.000000 0.000000 0.000000
# 3 0.001239 -0.007160 0.010631 0.000000 0.000000 0.000000
# 4 0.000000 0.000000 0.000000 0.076114 0.000000 0.000000
# 5 0.000000 0.000000 0.000000 0.000000 0.061277 0.000000
# 6 0.000000 0.000000 0.000000 0.000000 0.000000 1.114801
#
#
# Mechanical properties :
#
#
# Convention : Reuss Voigt Hill
#
# Bulk Modulus (GPa) = 24.02869 42.51926 33.27398
# Shear Modulus (GPa) = 3.72311 18.65476 11.18893
#
# Velocity S-wave (km/s) = 1.38705 3.10479 2.40454
# Velocity P-wave (km/s) = 3.87064 5.90123 4.99031
#
# Compressibility (1/GPa) = 0.04161691
#
# Stress axis : x y z
#
# Youngs Moduli (GPa) = 30.91269 61.43560 94.06251
#
# Poissons Ratio (x) = 0.17811 -0.11653
# Poissons Ratio (y) = 0.08962 0.67350
# Poissons Ratio (z) = -0.03830 0.43989
#
# Static dielectric constant tensor:
#      x y z
#    x 1.720290 0.000000 0.000000 
#    y 0.000000 1.678670 0.000000 
#    z 0.000000 0.000000 1.723710 
# 
# From -- ./inp_files/32642.got.cif
#   From: 2010.05.17/outbox.cif.g08.bks.cpg/sg51_17_cif.got.tgz:32642.got - 2010.06.03 11:52:47.
