data_PCOD9400662
_publ_section_title
;
Structure prediction by ZEFSAII (Michael W. Deem and Ramdas Pophale) SiO2 
 PCOD9400662
Probable space group: P M M A
;
_chemical_formula_sum "Si O2"
_cell_formula_units_Z 64
_cell_length_a 8.943888
_cell_length_b 20.300046
_cell_length_c 18.311275
_cell_angle_alpha 90.000000
_cell_angle_beta 90.000000
_cell_angle_gamma 90.000000
_cell_volume 3324.619586
_symmetry_space_group_name_H-M "P M M A"
_symmetry_group_IT_number 51
_symmetry_cell_setting 'orthorhombic'
loop_
_space_group_symop_operation_xyz
x,y,z
1/2-x,-y,z
1/2+x,-y,-z
-x,y,-z
-x,-y,-z
1/2+x,y,-z
1/2-x,y,z
x,-y,z
loop_
_atom_site_type_symbol
_atom_site_label
_atom_site_fract_x
_atom_site_fract_y
_atom_site_fract_z
Si Si1 0.571835 0.602619 0.424190
Si Si2 0.570457 0.714963 0.780304
Si Si3 0.924485 0.110342 0.425329
Si Si4 0.083918 0.077693 0.275592
Si Si5 0.570963 0.206971 0.925470
Si Si6 0.422992 0.746084 0.631000
Si Si7 0.926876 0.077542 0.127942
Si Si8 0.569965 0.428467 0.729931
O O1 0.500000 0.579937 0.500000
O O2 0.750000 0.592370 0.425739
O O3 0.538720 0.680571 0.413507
O O4 0.501678 0.573295 0.350649
O O5 0.750000 0.715710 0.781160
O O6 0.520467 0.752004 0.853733
O O7 0.516708 0.749605 0.705567
O O8 0.521810 0.638117 0.771963
O O9 0.750000 0.091572 0.422118
O O10 0.935539 0.189436 0.417974
O O11 0.000000 0.087755 0.500000
O O12 0.013857 0.087120 0.354626
O O13 0.250000 0.108418 0.267894
O O14 0.970921 0.096221 0.211274
O O15 0.101460 0.000000 0.265909
O O16 0.750000 0.209034 0.929180
O O17 0.517794 0.131270 0.917275
O O18 0.500000 0.233710 0.000000
O O19 0.250000 0.739861 0.653819
O O20 0.750000 0.084862 0.116558
O O21 0.964548 0.000000 0.114767
O O22 0.750000 0.424755 0.722340
O O23 0.533464 0.500000 0.763641
#
# Coordination Sequence:
#
# PCOD9400662 Si02
#       8
#     8   8   8   8   8   8   8   8
#     4  10  19  31  47  70 103 139 175 216 263 314
#     4   9  19  35  56  81 106 136 175 218 263 313
#     4  11  22  34  49  70  97 130 172 222 275 325
#     4  10  21  37  55  74  98 131 172 216 262 314
#     4  11  23  38  58  85 116 147 178 214 259 312
#     4   9  19  33  50  73  99 131 170 213 262 315
#     4  10  21  38  60  85 113 145 180 217 258 309
#     4   9  18  34  55  77 102 136 179 224 269 317
#
# _framework density 19.250323000000002
#
# number of rings (size 3 to 8) (size 9 to 14) (size 15 to 20)
#    0.000    2.125    0.000    3.000    0.000    7.000 
#    0.000    0.000    0.000    0.375    0.000    0.000 
#    0.000    0.000    0.000    0.000    0.000    0.125 
#
# Total GULP energy -357161.436965 kJ/mol
# GULP energy per Si atom -5580.647453 kJ/mol
# Density = 1.920651 g / cm^3
# Si number density = 19.250323 Si / 1000 Ang^3
#
#
#
# Elastic Constant Matrix: (Units=GPa)
#
#
# Indices 1 2 3 4 5 6 
#
# 1 48.9327 24.2371 27.6495 0.0000 0.0000 0.0000
# 2 24.2371 68.7659 29.6852 0.0000 0.0000 0.0000
# 3 27.6495 29.6852 102.5361 0.0000 0.0000 0.0000
# 4 0.0000 0.0000 0.0000 -0.8327 0.0000 0.0000
# 5 0.0000 0.0000 0.0000 0.0000 30.1265 0.0000
# 6 0.0000 0.0000 0.0000 0.0000 0.0000 15.5506
#
#
#
# Elastic Compliance Matrix: (Units=1/GPa)
#
#
# Indices 1 2 3 4 5 6 
#
# 1 0.026956 -0.007272 -0.005164 0.000000 0.000000 0.000000
# 2 -0.007272 0.018581 -0.003418 0.000000 0.000000 0.000000
# 3 -0.005164 -0.003418 0.012135 0.000000 0.000000 0.000000
# 4 0.000000 0.000000 0.000000 -1.200891 0.000000 0.000000
# 5 0.000000 0.000000 0.000000 0.000000 0.033193 0.000000
# 6 0.000000 0.000000 0.000000 0.000000 0.000000 0.064306
#
#
# Mechanical properties :
#
#
# Convention : Reuss Voigt Hill
#
# Bulk Modulus (GPa) = 38.51523 42.59758 40.55641
# Shear Modulus (GPa) = -4.97335 18.21306 6.61985
#
# Velocity S-wave (km/s) = -1.60908 3.07924 1.85642
# Velocity P-wave (km/s) = 4.07417 5.90073 5.07038
#
# Compressibility (1/GPa) = 0.02596375
#
# Stress axis : x y z
#
# Youngs Moduli (GPa) = 37.09787 53.81908 82.40820
#
# Poissons Ratio (x) = 0.39136 0.42552
# Poissons Ratio (y) = 0.26977 0.28171
# Poissons Ratio (z) = 0.19156 0.18398
#
# Static dielectric constant tensor:
#      x y z
#    x 1.668160 0.000000 0.000000 
#    y 0.000000 1.741940 0.000000 
#    z 0.000000 0.000000 1.654380 
# 
# From -- ./inp_files/28427.got.cif
#   From: 2010.05.17/outbox.cif.g08.bks.cpg/sg51_15_cif.got.tgz:28427.got - 2010.06.03 11:52:47.
