data_PCOD9400039
_publ_section_title
;
Structure prediction by ZEFSAII (Michael W. Deem and Ramdas Pophale) SiO2 
 PCOD9400039
Probable space group: P M M A
;
_chemical_formula_sum "Si O2"
_cell_formula_units_Z 64
_cell_length_a 13.935666
_cell_length_b 19.009182
_cell_length_c 15.664856
_cell_angle_alpha 90.000000
_cell_angle_beta 90.000000
_cell_angle_gamma 90.000000
_cell_volume 4149.708254
_symmetry_space_group_name_H-M "P M M A"
_symmetry_group_IT_number 51
_symmetry_cell_setting 'orthorhombic'
loop_
_space_group_symop_operation_xyz
x,y,z
1/2-x,-y,z
1/2+x,-y,-z
-x,y,-z
-x,-y,-z
1/2+x,y,-z
1/2-x,y,z
x,-y,z
loop_
_atom_site_type_symbol
_atom_site_label
_atom_site_fract_x
_atom_site_fract_y
_atom_site_fract_z
Si Si1 0.502209 0.920984 0.896183
Si Si2 0.634562 0.579446 0.044776
Si Si3 0.135157 0.193803 0.863707
Si Si4 0.437780 0.584538 0.629403
Si Si5 0.144222 0.584673 0.443948
Si Si6 0.358726 0.648177 0.135576
Si Si7 0.442762 0.665069 0.795180
Si Si8 0.857850 0.195901 0.938661
O O1 0.407377 0.884968 0.856593
O O2 0.582467 0.861062 0.886303
O O3 0.519754 0.000000 0.864526
O O4 0.500000 0.926176 0.000000
O O5 0.750000 0.580716 0.048648
O O6 0.600906 0.500000 0.059322
O O7 0.598305 0.630023 0.118760
O O8 0.611777 0.604584 0.948962
O O9 0.250000 0.197913 0.853118
O O10 0.083674 0.252709 0.805859
O O11 0.109730 0.209504 0.963588
O O12 0.435401 0.500000 0.645752
O O13 0.547764 0.605861 0.605967
O O14 0.376368 0.598330 0.544085
O O15 0.402619 0.628027 0.710852
O O16 0.250000 0.611882 0.418657
O O17 0.146640 0.500000 0.435220
O O18 0.250000 0.627287 0.161205
O O19 0.444104 0.646126 0.202780
O O20 0.356491 0.729146 0.106009
O O21 0.750000 0.168144 0.947043
#
# Coordination Sequence:
#
# PCOD9400039 Si02
#       8
#     8   8   8   8   8   8   8   8
#     4   9  17  28  44  64  81 105 146 194 234 264
#     4  10  21  33  43  58  80 112 156 197 228 258
#     4  10  19  29  42  60  84 116 147 180 225 269
#     4   9  19  31  45  70  91 107 144 187 223 271
#     4   8  15  32  53  66  84 113 137 170 228 283
#     4  10  20  32  44  57  80 119 158 188 223 264
#     4  12  20  29  46  64  88 116 147 187 229 265
#     4   9  16  29  45  59  79 111 152 188 223 267
#
# _framework density 15.42277
#
# number of rings (size 3 to 8) (size 9 to 14) (size 15 to 20)
#    0.000    2.375    2.500    1.875    0.000    3.500 
#    0.000    3.750    0.000    0.000    0.000    0.000 
#    0.000    0.000    0.000    2.250    0.000    2.000 
#
# Total GULP energy -356311.823310 kJ/mol
# GULP energy per Si atom -5567.372239 kJ/mol
# Density = 1.538767 g / cm^3
# Si number density = 15.422770 Si / 1000 Ang^3
#
#
#
# Elastic Constant Matrix: (Units=GPa)
#
#
# Indices 1 2 3 4 5 6 
#
# 1 37.6442 2.6000 4.1279 0.0000 0.0000 0.0000
# 2 2.6000 65.4651 12.6022 0.0000 0.0000 0.0000
# 3 4.1279 12.6022 31.3292 0.0000 0.0000 0.0000
# 4 0.0000 0.0000 0.0000 8.2246 0.0000 0.0000
# 5 0.0000 0.0000 0.0000 0.0000 4.0955 0.0000
# 6 0.0000 0.0000 0.0000 0.0000 0.0000 14.4859
#
#
#
# Elastic Compliance Matrix: (Units=1/GPa)
#
#
# Indices 1 2 3 4 5 6 
#
# 1 0.026965 -0.000419 -0.003384 0.000000 0.000000 0.000000
# 2 -0.000419 0.016564 -0.006608 0.000000 0.000000 0.000000
# 3 -0.003384 -0.006608 0.035023 0.000000 0.000000 0.000000
# 4 0.000000 0.000000 0.000000 0.121587 0.000000 0.000000
# 5 0.000000 0.000000 0.000000 0.000000 0.244169 0.000000
# 6 0.000000 0.000000 0.000000 0.000000 0.000000 0.069033
#
#
# Mechanical properties :
#
#
# Convention : Reuss Voigt Hill
#
# Bulk Modulus (GPa) = 17.32228 19.23318 18.27773
# Shear Modulus (GPa) = 9.03498 13.03511 11.03504
#
# Velocity S-wave (km/s) = 2.42300 2.91036 2.67779
# Velocity P-wave (km/s) = 4.36851 4.87763 4.63008
#
# Compressibility (1/GPa) = 0.05772913
#
# Stress axis : x y z
#
# Youngs Moduli (GPa) = 37.08566 60.37213 28.55279
#
# Poissons Ratio (x) = 0.02532 0.09663
# Poissons Ratio (y) = 0.01556 0.18866
# Poissons Ratio (z) = 0.12550 0.39891
#
# Static dielectric constant tensor:
#      x y z
#    x 1.607230 0.000000 0.000000 
#    y 0.000000 1.503200 0.000000 
#    z 0.000000 0.000000 1.494300 
# 
# From -- ./inp_files/24441.got.cif
#   From: 2010.05.17/outbox.cif.g08.bks.cpg/sg51_13_cif.got.tgz:24441.got - 2010.06.03 11:52:47.
