data_PCOD9400366
_publ_section_title
;
Structure prediction by ZEFSAII (Michael W. Deem and Ramdas Pophale) SiO2 
 PCOD9400366
Probable space group: P M M A
;
_chemical_formula_sum "Si O2"
_cell_formula_units_Z 40
_cell_length_a 8.879542
_cell_length_b 19.284890
_cell_length_c 14.091566
_cell_angle_alpha 90.000000
_cell_angle_beta 90.000000
_cell_angle_gamma 90.000000
_cell_volume 2413.053723
_symmetry_space_group_name_H-M "P M M A"
_symmetry_group_IT_number 51
_symmetry_cell_setting 'orthorhombic'
loop_
_space_group_symop_operation_xyz
x,y,z
1/2-x,-y,z
1/2+x,-y,-z
-x,y,-z
-x,-y,-z
1/2+x,y,-z
1/2-x,y,z
x,-y,z
loop_
_atom_site_type_symbol
_atom_site_label
_atom_site_fract_x
_atom_site_fract_y
_atom_site_fract_z
Si Si1 0.569317 0.210693 0.722348
Si Si2 0.930210 0.713187 0.102824
Si Si3 0.431531 0.079047 0.396660
Si Si4 0.070530 0.348154 0.396660
Si Si5 0.068660 0.578048 0.780750
O O1 0.750000 0.210100 0.737211
O O2 0.489375 0.232321 0.819414
O O3 0.521672 0.137351 0.678347
O O4 0.536853 0.271649 0.646115
O O5 0.750000 0.715764 0.097732
O O6 0.975758 0.637377 0.144179
O O7 0.000000 0.724441 0.000000
O O8 0.500000 0.093914 0.500000
O O9 0.250000 0.082171 0.404110
O O10 0.473509 0.000000 0.370649
O O11 0.250000 0.355963 0.401628
O O12 0.000000 0.356426 0.500000
O O13 0.003026 0.401099 0.319795
O O14 0.250000 0.580894 0.771628
O O15 0.025607 0.500000 0.808328
#
# Coordination Sequence:
#
# PCOD9400366 Si02
#       5
#     8   8   8   8   8
#     4   9  18  32  49  70  97 127 160 197 234 275
#     4  10  20  34  53  74  94 119 153 194 240 286
#     4   9  17  29  47  73 104 135 163 192 229 273
#     4  10  19  30  46  68  94 126 161 195 232 275
#     4   9  19  35  51  68  92 121 154 192 234 282
#
# _framework density 16.576505000000001
#
# number of rings (size 3 to 8) (size 9 to 14) (size 15 to 20)
#    0.000    2.600    0.000    1.800    0.000    3.600 
#    0.000    0.000    0.000    0.600    0.000    0.000 
#    0.000    0.000    0.000    0.000    0.000    0.000 
#
# Total GULP energy -223096.091287 kJ/mol
# GULP energy per Si atom -5577.402282 kJ/mol
# Density = 1.653878 g / cm^3
# Si number density = 16.576505 Si / 1000 Ang^3
#
#
#
# Elastic Constant Matrix: (Units=GPa)
#
#
# Indices 1 2 3 4 5 6 
#
# 1 18.0053 31.4855 31.1079 0.0000 0.0000 0.0000
# 2 31.4855 124.9782 69.2414 0.0000 0.0000 0.0000
# 3 31.1079 69.2414 116.7310 0.0000 0.0000 0.0000
# 4 0.0000 0.0000 0.0000 11.6920 0.0000 0.0000
# 5 0.0000 0.0000 0.0000 0.0000 25.7993 0.0000
# 6 0.0000 0.0000 0.0000 0.0000 0.0000 19.6614
#
#
#
# Elastic Compliance Matrix: (Units=1/GPa)
#
#
# Indices 1 2 3 4 5 6 
#
# 1 0.130025 -0.020197 -0.022670 0.000000 0.000000 0.000000
# 2 -0.020197 0.015055 -0.003548 0.000000 0.000000 0.000000
# 3 -0.022670 -0.003548 0.016713 0.000000 0.000000 0.000000
# 4 0.000000 0.000000 0.000000 0.085528 0.000000 0.000000
# 5 0.000000 0.000000 0.000000 0.000000 0.038761 0.000000
# 6 0.000000 0.000000 0.000000 0.000000 0.000000 0.050861
#
#
# Mechanical properties :
#
#
# Convention : Reuss Voigt Hill
#
# Bulk Modulus (GPa) = 14.50064 58.15377 36.32721
# Shear Modulus (GPa) = 11.04335 19.95588 15.49961
#
# Velocity S-wave (km/s) = 2.58389 3.47344 3.06115
# Velocity P-wave (km/s) = 4.20342 7.15853 5.86998
#
# Compressibility (1/GPa) = 0.06896245
#
# Stress axis : x y z
#
# Youngs Moduli (GPa) = 7.69082 66.42202 59.83440
#
# Poissons Ratio (x) = 1.34152 1.35647
# Poissons Ratio (y) = 0.15533 0.21229
# Poissons Ratio (z) = 0.17435 0.23567
#
# Static dielectric constant tensor:
#      x y z
#    x 1.549140 0.000000 0.000000 
#    y 0.000000 1.571820 0.000000 
#    z 0.000000 0.000000 1.514730 
# 
# From -- ./inp_files/14009.got.cif
#   From: 2010.05.17/outbox.cif.g08.bks.cpg/sg51_8_cif.got.tgz:14009.got - 2010.06.03 11:52:47.
