data_PCOD9400274
_publ_section_title
;
Structure prediction by ZEFSAII (Michael W. Deem and Ramdas Pophale) SiO2 
 PCOD9400274
Probable space group: P M M A
;
_chemical_formula_sum "Si O2"
_cell_formula_units_Z 40
_cell_length_a 14.256060
_cell_length_b 23.092439
_cell_length_c 5.275791
_cell_angle_alpha 90.000000
_cell_angle_beta 90.000000
_cell_angle_gamma 90.000000
_cell_volume 1736.828361
_symmetry_space_group_name_H-M "P M M A"
_symmetry_group_IT_number 51
_symmetry_cell_setting 'orthorhombic'
loop_
_space_group_symop_operation_xyz
x,y,z
1/2-x,-y,z
1/2+x,-y,-z
-x,y,-z
-x,-y,-z
1/2+x,y,-z
1/2-x,y,z
x,-y,z
loop_
_atom_site_type_symbol
_atom_site_label
_atom_site_fract_x
_atom_site_fract_y
_atom_site_fract_z
Si Si1 0.935182 0.436162 0.750747
Si Si2 0.635223 0.933405 0.646785
Si Si3 0.393229 0.266998 0.954195
Si Si4 0.612708 0.318865 0.550225
Si Si5 0.363632 0.865122 0.852435
O O1 0.891013 0.500000 0.786429
O O2 0.871365 0.381232 0.680938
O O3 0.000000 0.439982 0.500000
O O4 0.000000 0.425471 0.000000
O O5 0.750000 0.934343 0.646058
O O6 0.605432 0.900207 0.393982
O O7 0.604313 0.000000 0.653115
O O8 0.606054 0.898119 0.894252
O O9 0.350707 0.306005 0.730810
O O10 0.393924 0.201366 0.858853
O O11 0.500000 0.286154 0.000000
O O12 0.354060 0.273255 0.238125
O O13 0.500000 0.313842 0.500000
O O14 0.250000 0.864371 0.851057
#
# Coordination Sequence:
#
# PCOD9400274 Si02
#       5
#     8   8   8   8   8
#     4   9  15  23  37  58  85 115 146 182 221 257
#     4   9  17  30  49  70  89 111 141 179 222 264
#     4  10  19  30  45  63  89 121 148 176 214 264
#     4   9  16  27  41  60  86 118 150 177 214 263
#     4  10  19  31  48  69  90 112 144 183 218 258
#
# _framework density 23.030484999999999
#
# number of rings (size 3 to 8) (size 9 to 14) (size 15 to 20)
#    0.000    2.600    0.000    4.800    0.000    2.400 
#    0.000    0.000    0.000    3.600    0.000    0.000 
#    0.000    4.800    0.000    0.000    0.000    2.000 
#
# Total GULP energy -223268.127139 kJ/mol
# GULP energy per Si atom -5581.703178 kJ/mol
# Density = 2.297807 g / cm^3
# Si number density = 23.030485 Si / 1000 Ang^3
#
#
#
# Elastic Constant Matrix: (Units=GPa)
#
#
# Indices 1 2 3 4 5 6 
#
# 1 70.7318 -13.3564 13.2094 0.0000 0.0000 0.0000
# 2 -13.3564 155.5849 76.7945 0.0000 0.0000 0.0000
# 3 13.2094 76.7945 214.9077 0.0000 0.0000 0.0000
# 4 0.0000 0.0000 0.0000 45.1633 0.0000 0.0000
# 5 0.0000 0.0000 0.0000 0.0000 -17.6285 0.0000
# 6 0.0000 0.0000 0.0000 0.0000 0.0000 96.5110
#
#
#
# Elastic Compliance Matrix: (Units=1/GPa)
#
#
# Indices 1 2 3 4 5 6 
#
# 1 0.014843 0.002094 -0.001661 0.000000 0.000000 0.000000
# 2 0.002094 0.008099 -0.003023 0.000000 0.000000 0.000000
# 3 -0.001661 -0.003023 0.005835 0.000000 0.000000 0.000000
# 4 0.000000 0.000000 0.000000 0.022142 0.000000 0.000000
# 5 0.000000 0.000000 0.000000 0.000000 -0.056726 0.000000
# 6 0.000000 0.000000 0.000000 0.000000 0.000000 0.010362
#
#
# Mechanical properties :
#
#
# Convention : Reuss Voigt Hill
#
# Bulk Modulus (GPa) = 42.37481 66.05772 54.21626
# Shear Modulus (GPa) = 284.08532 49.11427 166.59980
#
# Velocity S-wave (km/s) = 11.11844 4.62299 8.51445
# Velocity P-wave (km/s) = 13.53756 7.56578 10.96601
#
# Compressibility (1/GPa) = 0.02359893
#
# Stress axis : x y z
#
# Youngs Moduli (GPa) = 67.36987 123.47000 171.36793
#
# Poissons Ratio (x) = -0.25853 0.28457
# Poissons Ratio (y) = -0.14107 0.51802
# Poissons Ratio (z) = 0.11187 0.37323
#
# Static dielectric constant tensor:
#      x y z
#    x 2.058970 0.000000 0.000000 
#    y 0.000000 1.862220 0.000000 
#    z 0.000000 0.000000 1.850350 
# 
# From -- ./inp_files/2004.got.cif
#   From: 2010.05.17/outbox.cif.g08.bks.cpg/sg51_2_cif.got.tgz:2004.got - 2010.06.03 11:52:47.
