data_PCOD9400424
_publ_section_title
;
Structure prediction by ZEFSAII (Michael W. Deem and Ramdas Pophale) SiO2 
 PCOD9400424
Probable space group: P M M A
;
_chemical_formula_sum "Si O2"
_cell_formula_units_Z 64
_cell_length_a 9.031325
_cell_length_b 23.041145
_cell_length_c 18.818261
_cell_angle_alpha 90.000000
_cell_angle_beta 90.000000
_cell_angle_gamma 90.000000
_cell_volume 3915.930864
_symmetry_space_group_name_H-M "P M M A"
_symmetry_group_IT_number 51
_symmetry_cell_setting 'orthorhombic'
loop_
_space_group_symop_operation_xyz
x,y,z
1/2-x,-y,z
1/2+x,-y,-z
-x,y,-z
-x,-y,-z
1/2+x,y,-z
1/2-x,y,z
x,-y,z
loop_
_atom_site_type_symbol
_atom_site_label
_atom_site_fract_x
_atom_site_fract_y
_atom_site_fract_z
Si Si1 0.424589 0.672906 0.664743
Si Si2 0.419944 0.433288 0.283564
Si Si3 0.570459 0.751182 0.787618
Si Si4 0.582466 0.148092 0.687908
Si Si5 0.416414 0.754971 0.434005
Si Si6 0.577968 0.069583 0.424379
Si Si7 0.427988 0.307188 0.925050
Si Si8 0.926054 0.435099 0.130884
O O1 0.250000 0.680511 0.671158
O O2 0.474395 0.606954 0.670773
O O3 0.505037 0.706019 0.730032
O O4 0.487411 0.701649 0.593868
O O5 0.250000 0.412486 0.286246
O O6 0.423962 0.500000 0.306061
O O7 0.479731 0.431222 0.202898
O O8 0.750000 0.747740 0.788771
O O9 0.531052 0.816073 0.758024
O O10 0.500952 0.730643 0.861960
O O11 0.750000 0.126579 0.700493
O O12 0.589885 0.199278 0.629476
O O13 0.488746 0.100073 0.645882
O O14 0.500000 0.782141 0.500000
O O15 0.250000 0.737768 0.452141
O O16 0.500000 0.083755 0.500000
O O17 0.750000 0.085911 0.430667
O O18 0.565976 0.000000 0.416256
O O19 0.250000 0.299842 0.924856
O O20 0.458334 0.376310 0.912134
O O21 0.500000 0.290967 0.000000
O O22 0.750000 0.433119 0.147935
O O23 0.954298 0.500000 0.099302
#
# Coordination Sequence:
#
# PCOD9400424 Si02
#       8
#     8   8   8   8   8   8   8   8
#     4  11  20  31  49  70  92 121 153 191 240 291
#     4  10  19  30  47  69  90 115 149 191 238 287
#     4  10  20  35  52  71  96 124 163 209 248 293
#     4   9  19  33  51  73  98 132 168 207 248 282
#     4  10  20  33  48  70  97 124 158 199 241 287
#     4  10  20  32  48  73 107 146 182 213 244 283
#     4  11  22  34  50  71  97 132 165 202 252 304
#     4   9  18  32  48  67  92 122 158 198 240 295
#
# _framework density 16.343495999999998
#
# number of rings (size 3 to 8) (size 9 to 14) (size 15 to 20)
#    0.000    2.000    1.250    4.125    0.000    6.250 
#    0.000    0.000    0.000    0.375    0.000    0.000 
#    0.000    0.500    0.000    1.625    0.000    2.375 
#
# Total GULP energy -356671.361795 kJ/mol
# GULP energy per Si atom -5572.990028 kJ/mol
# Density = 1.630630 g / cm^3
# Si number density = 16.343496 Si / 1000 Ang^3
#
#
#
# Elastic Constant Matrix: (Units=GPa)
#
#
# Indices 1 2 3 4 5 6 
#
# 1 93.6959 42.3440 35.3134 0.0000 0.0000 0.0000
# 2 42.3440 58.0097 33.3808 0.0000 0.0000 0.0000
# 3 35.3134 33.3808 62.0978 0.0000 0.0000 0.0000
# 4 0.0000 0.0000 0.0000 24.1513 0.0000 0.0000
# 5 0.0000 0.0000 0.0000 0.0000 23.6410 0.0000
# 6 0.0000 0.0000 0.0000 0.0000 0.0000 19.2678
#
#
#
# Elastic Compliance Matrix: (Units=1/GPa)
#
#
# Indices 1 2 3 4 5 6 
#
# 1 0.016669 -0.009719 -0.004255 0.000000 0.000000 0.000000
# 2 -0.009719 0.030626 -0.010936 0.000000 0.000000 0.000000
# 3 -0.004255 -0.010936 0.024402 0.000000 0.000000 0.000000
# 4 0.000000 0.000000 0.000000 0.041406 0.000000 0.000000
# 5 0.000000 0.000000 0.000000 0.000000 0.042299 0.000000
# 6 0.000000 0.000000 0.000000 0.000000 0.000000 0.051900
#
#
# Mechanical properties :
#
#
# Convention : Reuss Voigt Hill
#
# Bulk Modulus (GPa) = 45.71001 48.43112 47.07057
# Shear Modulus (GPa) = 18.90983 20.26305 19.58644
#
# Velocity S-wave (km/s) = 3.40520 3.52493 3.46558
# Velocity P-wave (km/s) = 6.59466 6.80180 6.69903
#
# Compressibility (1/GPa) = 0.02187705
#
# Stress axis : x y z
#
# Youngs Moduli (GPa) = 59.99281 32.65218 40.98066
#
# Poissons Ratio (x) = 0.31735 0.17435
# Poissons Ratio (y) = 0.58307 0.44817
# Poissons Ratio (z) = 0.25524 0.35708
#
# Static dielectric constant tensor:
#      x y z
#    x 1.559640 0.000000 0.000000 
#    y 0.000000 1.573760 0.000000 
#    z 0.000000 0.000000 0.931330 
# 
# From -- ./inp_files/28452.got.cif
#   From: 2010.05.17/outbox.cif.g08.bks.cpg/sg51_15_cif.got.tgz:28452.got - 2010.06.03 11:52:47.
