data_PCOD9400349
_publ_section_title
;
Structure prediction by ZEFSAII (Michael W. Deem and Ramdas Pophale) SiO2 
 PCOD9400349
Probable space group: P M M A
;
_chemical_formula_sum "Si O2"
_cell_formula_units_Z 64
_cell_length_a 8.600102
_cell_length_b 14.513471
_cell_length_c 30.095690
_cell_angle_alpha 90.000000
_cell_angle_beta 90.000000
_cell_angle_gamma 90.000000
_cell_volume 3756.463700
_symmetry_space_group_name_H-M "P M M A"
_symmetry_group_IT_number 51
_symmetry_cell_setting 'orthorhombic'
loop_
_space_group_symop_operation_xyz
x,y,z
1/2-x,-y,z
1/2+x,-y,-z
-x,y,-z
-x,-y,-z
1/2+x,y,-z
1/2-x,y,z
x,-y,z
loop_
_atom_site_type_symbol
_atom_site_label
_atom_site_fract_x
_atom_site_fract_y
_atom_site_fract_z
Si Si1 0.436346 0.718706 0.047951
Si Si2 0.930669 0.109901 0.364089
Si Si3 0.939108 0.605113 0.864992
Si Si4 0.934773 0.209682 0.450142
Si Si5 0.938737 0.210803 0.817488
Si Si6 0.936836 0.893737 0.096679
Si Si7 0.063920 0.599312 0.449721
Si Si8 0.436782 0.106525 0.270339
O O1 0.250000 0.721554 0.047291
O O2 0.483967 0.647689 0.087031
O O3 0.498169 0.819908 0.061501
O O4 0.500000 0.691929 0.000000
O O5 0.750000 0.138544 0.361916
O O6 0.993944 0.142338 0.411670
O O7 0.012939 0.140879 0.318933
O O8 0.937380 0.000000 0.363665
O O9 0.750000 0.602235 0.864115
O O10 0.994157 0.500000 0.858377
O O11 0.986389 0.684348 0.829695
O O12 0.750000 0.201891 0.454280
O O13 0.000000 0.196854 0.500000
O O14 0.981430 0.310513 0.431985
O O15 0.750000 0.207956 0.819405
O O16 0.989820 0.171396 0.769947
O O17 0.002098 0.143926 0.856010
O O18 0.750000 0.890297 0.096083
O O19 0.985191 0.000000 0.089444
O O20 0.250000 0.611893 0.450945
O O21 0.030218 0.500000 0.428436
O O22 0.000000 0.594506 0.500000
O O23 0.250000 0.104034 0.269108
O O24 0.491706 0.000000 0.264239
#
# Coordination Sequence:
#
# PCOD9400349 Si02
#       8
#     8   8   8   8   8   8   8   8
#     4  10  20  33  49  68  93 126 162 201 240 279
#     4   9  19  34  48  65  92 125 160 194 229 273
#     4   8  15  29  49  72  96 123 156 192 232 277
#     4  10  19  30  46  67  91 122 158 196 237 279
#     4   9  17  30  50  74  98 123 151 189 234 279
#     4  10  20  32  47  69  96 125 157 193 234 282
#     4   9  16  26  42  64  88 113 143 182 226 270
#     4   9  17  29  47  71  95 120 153 191 232 278
#
# _framework density 17.037299999999998
#
# number of rings (size 3 to 8) (size 9 to 14) (size 15 to 20)
#    0.000    2.750    0.000    3.375    0.000    4.500 
#    0.000    1.250    0.000    9.750    0.000    1.750 
#    0.000    0.000    0.000    0.000    0.000    0.000 
#
# Total GULP energy -356331.808395 kJ/mol
# GULP energy per Si atom -5567.684506 kJ/mol
# Density = 1.699852 g / cm^3
# Si number density = 17.037300 Si / 1000 Ang^3
#
#
#
# Elastic Constant Matrix: (Units=GPa)
#
#
# Indices 1 2 3 4 5 6 
#
# 1 20.7250 17.4427 22.2116 0.0000 0.0000 0.0000
# 2 17.4427 93.4176 51.2295 0.0000 0.0000 0.0000
# 3 22.2116 51.2295 116.2411 0.0000 0.0000 0.0000
# 4 0.0000 0.0000 0.0000 17.2892 0.0000 0.0000
# 5 0.0000 0.0000 0.0000 0.0000 24.1262 0.0000
# 6 0.0000 0.0000 0.0000 0.0000 0.0000 15.6562
#
#
#
# Elastic Compliance Matrix: (Units=1/GPa)
#
#
# Indices 1 2 3 4 5 6 
#
# 1 0.063882 -0.006902 -0.009165 0.000000 0.000000 0.000000
# 2 -0.006902 0.014862 -0.005231 0.000000 0.000000 0.000000
# 3 -0.009165 -0.005231 0.012659 0.000000 0.000000 0.000000
# 4 0.000000 0.000000 0.000000 0.057840 0.000000 0.000000
# 5 0.000000 0.000000 0.000000 0.000000 0.041449 0.000000
# 6 0.000000 0.000000 0.000000 0.000000 0.000000 0.063873
#
#
# Mechanical properties :
#
#
# Convention : Reuss Voigt Hill
#
# Bulk Modulus (GPa) = 20.48859 45.79459 33.14159
# Shear Modulus (GPa) = 15.95254 20.71432 18.33343
#
# Velocity S-wave (km/s) = 3.06327 3.49065 3.28392
# Velocity P-wave (km/s) = 4.95614 6.57142 5.82009
#
# Compressibility (1/GPa) = 0.04880766
#
# Stress axis : x y z
#
# Youngs Moduli (GPa) = 15.65383 67.28547 78.99208
#
# Poissons Ratio (x) = 0.46440 0.72395
# Poissons Ratio (y) = 0.10804 0.41322
# Poissons Ratio (z) = 0.14347 0.35198
#
# Static dielectric constant tensor:
#      x y z
#    x 1.581050 0.000000 0.000000 
#    y 0.000000 1.609120 0.000000 
#    z 0.000000 0.000000 1.513630 
# 
# From -- ./inp_files/37635.got.cif
#   From: 2010.05.17/outbox.cif.g08.bks.cpg/sg51_19_cif.got.tgz:37635.got - 2010.06.03 11:52:47.
