data_PCOD9400391
_publ_section_title
;
Structure prediction by ZEFSAII (Michael W. Deem and Ramdas Pophale) SiO2 
 PCOD9400391
Probable space group: P M M A
;
_chemical_formula_sum "Si O2"
_cell_formula_units_Z 48
_cell_length_a 7.740287
_cell_length_b 17.474792
_cell_length_c 16.502760
_cell_angle_alpha 90.000000
_cell_angle_beta 90.000000
_cell_angle_gamma 90.000000
_cell_volume 2232.161756
_symmetry_space_group_name_H-M "P M M A"
_symmetry_group_IT_number 51
_symmetry_cell_setting 'orthorhombic'
loop_
_space_group_symop_operation_xyz
x,y,z
1/2-x,-y,z
1/2+x,-y,-z
-x,y,-z
-x,-y,-z
1/2+x,y,-z
1/2-x,y,z
x,-y,z
loop_
_atom_site_type_symbol
_atom_site_label
_atom_site_fract_x
_atom_site_fract_y
_atom_site_fract_z
Si Si1 0.542531 0.320833 0.089673
Si Si2 0.957299 0.000000 0.405947
Si Si3 0.047090 0.000000 0.094116
Si Si4 0.461533 0.411602 0.750092
Si Si5 0.042741 0.321272 0.589829
Si Si6 0.044514 0.165871 0.840463
Si Si7 0.461876 0.163123 0.657478
O O1 0.750000 0.320991 0.094038
O O2 0.481361 0.369021 0.167591
O O3 0.477309 0.233233 0.101589
O O4 0.500000 0.349696 0.000000
O O5 0.022894 0.079232 0.368379
O O6 0.000000 0.000000 0.500000
O O7 0.750000 0.000000 0.395004
O O8 0.983913 0.079045 0.132766
O O9 0.250000 0.000000 0.102846
O O10 0.000000 0.000000 0.000000
O O11 0.250000 0.409180 0.749950
O O12 0.513614 0.500000 0.750569
O O13 0.519169 0.369935 0.667268
O O14 0.250000 0.320190 0.595602
O O15 0.981267 0.233566 0.601687
O O16 0.000000 0.349987 0.500000
O O17 0.250000 0.176006 0.837230
O O18 0.981011 0.178496 0.749250
O O19 0.250000 0.161853 0.656137
#
# Coordination Sequence:
#
# PCOD9400391 Si02
#       7
#     8   4   4   8   8   8   8
#     4  10  20  35  58  85 111 144 187 231 278 334
#     4  10  19  30  46  70 100 134 175 221 265 313
#     4  12  25  38  52  78 112 146 185 229 277 329
#     4   9  18  35  58  82 111 148 188 228 274 338
#     4  10  19  34  56  82 111 146 188 230 274 329
#     4  10  19  36  59  79 104 143 190 233 274 325
#     4   9  17  32  54  76 101 140 186 223 266 328
#
# _framework density 21.503817999999999
#
# number of rings (size 3 to 8) (size 9 to 14) (size 15 to 20)
#    0.000    2.167    1.667    2.250    0.000    4.000 
#    0.000    3.333    0.000    1.000    0.000    0.000 
#    0.000    0.000    0.000    0.000    0.000    0.000 
#
# Total GULP energy -267999.180437 kJ/mol
# GULP energy per Si atom -5583.316259 kJ/mol
# Density = 2.145487 g / cm^3
# Si number density = 21.503818 Si / 1000 Ang^3
#
#
#
# Elastic Constant Matrix: (Units=GPa)
#
#
# Indices 1 2 3 4 5 6 
#
# 1 27.9629 7.8653 4.6981 0.0000 0.0000 0.0000
# 2 7.8653 148.2019 81.3822 0.0000 0.0000 0.0000
# 3 4.6981 81.3822 183.2525 0.0000 0.0000 0.0000
# 4 0.0000 0.0000 0.0000 16.1935 0.0000 0.0000
# 5 0.0000 0.0000 0.0000 0.0000 24.0547 0.0000
# 6 0.0000 0.0000 0.0000 0.0000 0.0000 -1.6681
#
#
#
# Elastic Compliance Matrix: (Units=1/GPa)
#
#
# Indices 1 2 3 4 5 6 
#
# 1 0.036305 -0.001872 -0.000099 0.000000 0.000000 0.000000
# 2 -0.001872 0.009020 -0.003958 0.000000 0.000000 0.000000
# 3 -0.000099 -0.003958 0.007217 0.000000 0.000000 0.000000
# 4 0.000000 0.000000 0.000000 0.061753 0.000000 0.000000
# 5 0.000000 0.000000 0.000000 0.000000 0.041572 0.000000
# 6 0.000000 0.000000 0.000000 0.000000 0.000000 -0.599486
#
#
# Mechanical properties :
#
#
# Convention : Reuss Voigt Hill
#
# Bulk Modulus (GPa) = 24.57997 60.81206 42.69601
# Shear Modulus (GPa) = -11.95605 25.41412 6.72904
#
# Velocity S-wave (km/s) = -2.36052 3.44152 1.77088
# Velocity P-wave (km/s) = 2.00648 6.64328 4.90709
#
# Compressibility (1/GPa) = 0.04068354
#
# Stress axis : x y z
#
# Youngs Moduli (GPa) = 27.54448 110.86063 138.55774
#
# Poissons Ratio (x) = 0.20756 0.01376
# Poissons Ratio (y) = 0.05157 0.54840
# Poissons Ratio (z) = 0.00274 0.43878
#
# Static dielectric constant tensor:
#      x y z
#    x 1.699450 0.000000 0.000000 
#    y 0.000000 1.723620 0.000000 
#    z 0.000000 0.000000 1.762110 
# 
# From -- ./inp_files/21134.got.cif
#   From: 2010.05.17/outbox.cif.g08.bks.cpg/sg51_11_cif.got.tgz:21134.got - 2010.06.03 11:52:47.
