data_PCOD9400459
_publ_section_title
;
Structure prediction by ZEFSAII (Michael W. Deem and Ramdas Pophale) SiO2 
 PCOD9400459
Probable space group: P M M A
;
_chemical_formula_sum "Si O2"
_cell_formula_units_Z 64
_cell_length_a 9.102333
_cell_length_b 20.671788
_cell_length_c 17.962624
_cell_angle_alpha 90.000000
_cell_angle_beta 90.000000
_cell_angle_gamma 90.000000
_cell_volume 3379.874241
_symmetry_space_group_name_H-M "P M M A"
_symmetry_group_IT_number 51
_symmetry_cell_setting 'orthorhombic'
loop_
_space_group_symop_operation_xyz
x,y,z
1/2-x,-y,z
1/2+x,-y,-z
-x,y,-z
-x,-y,-z
1/2+x,y,-z
1/2-x,y,z
x,-y,z
loop_
_atom_site_type_symbol
_atom_site_label
_atom_site_fract_x
_atom_site_fract_y
_atom_site_fract_z
Si Si1 0.583935 0.129844 0.427080
Si Si2 0.924799 0.296211 0.209509
Si Si3 0.915114 0.923925 0.711496
Si Si4 0.422825 0.400252 0.425244
Si Si5 0.427774 0.784119 0.076116
Si Si6 0.083381 0.724059 0.617856
Si Si7 0.573157 0.572109 0.744253
Si Si8 0.571511 0.927967 0.881509
O O1 0.500000 0.107198 0.500000
O O2 0.750000 0.107244 0.431037
O O3 0.511971 0.107096 0.351149
O O4 0.580697 0.207502 0.422108
O O5 0.750000 0.297227 0.194246
O O6 0.944670 0.268190 0.293506
O O7 0.008201 0.254002 0.147455
O O8 0.990245 0.368936 0.215924
O O9 0.750000 0.896045 0.709916
O O10 0.972881 0.919076 0.795347
O O11 0.905340 0.000000 0.695899
O O12 0.500000 0.424784 0.500000
O O13 0.250000 0.409531 0.433107
O O14 0.466874 0.325059 0.416062
O O15 0.466913 0.427107 0.343952
O O16 0.250000 0.779568 0.074960
O O17 0.470339 0.860557 0.080951
O O18 0.500000 0.758365 0.000000
O O19 0.250000 0.696548 0.610565
O O20 0.750000 0.582724 0.748244
O O21 0.541198 0.500000 0.773439
O O22 0.750000 0.930698 0.882889
O O23 0.520055 0.000000 0.906809
#
# Coordination Sequence:
#
# PCOD9400459 Si02
#       8
#     8   8   8   8   8   8   8   8
#     4  11  22  33  46  66  93 126 166 214 267 316
#     4  10  20  36  58  83 111 141 178 224 271 322
#     4   9  18  34  54  72  91 121 164 211 258 310
#     4  10  19  30  47  72 104 142 180 220 267 316
#     4  11  22  36  57  85 117 150 181 215 260 313
#     4   9  19  34  51  72  98 130 170 217 265 315
#     4   9  19  36  56  79 108 144 187 230 273 325
#     4   8  16  33  57  83 110 142 180 219 260 312
#
# _framework density 18.935614999999999
#
# number of rings (size 3 to 8) (size 9 to 14) (size 15 to 20)
#    0.000    2.375    0.000    3.375    0.000    4.250 
#    0.000    0.625    0.000    3.000    0.000    0.000 
#    0.000    0.000    0.000    0.000    0.000    0.000 
#
# Total GULP energy -356934.733753 kJ/mol
# GULP energy per Si atom -5577.105215 kJ/mol
# Density = 1.889252 g / cm^3
# Si number density = 18.935615 Si / 1000 Ang^3
#
#
#
# Elastic Constant Matrix: (Units=GPa)
#
#
# Indices 1 2 3 4 5 6 
#
# 1 65.6441 31.4843 42.0513 0.0000 0.0000 0.0000
# 2 31.4843 65.7662 47.8754 0.0000 0.0000 0.0000
# 3 42.0513 47.8754 79.5978 0.0000 0.0000 0.0000
# 4 0.0000 0.0000 0.0000 -6.2306 0.0000 0.0000
# 5 0.0000 0.0000 0.0000 0.0000 24.8637 0.0000
# 6 0.0000 0.0000 0.0000 0.0000 0.0000 17.2740
#
#
#
# Elastic Compliance Matrix: (Units=1/GPa)
#
#
# Indices 1 2 3 4 5 6 
#
# 1 0.023590 -0.003951 -0.010086 0.000000 0.000000 0.000000
# 2 -0.003951 0.027710 -0.014580 0.000000 0.000000 0.000000
# 3 -0.010086 -0.014580 0.026661 0.000000 0.000000 0.000000
# 4 0.000000 0.000000 0.000000 -0.160498 0.000000 0.000000
# 5 0.000000 0.000000 0.000000 0.000000 0.040219 0.000000
# 6 0.000000 0.000000 0.000000 0.000000 0.000000 0.057891
#
#
# Mechanical properties :
#
#
# Convention : Reuss Voigt Hill
#
# Bulk Modulus (GPa) = 48.24466 50.42559 49.33513
# Shear Modulus (GPa) = 62.72417 13.15454 37.93935
#
# Velocity S-wave (km/s) = 5.76167 2.63857 4.48101
# Velocity P-wave (km/s) = 8.35441 5.99755 7.27209
#
# Compressibility (1/GPa) = 0.02072768
#
# Stress axis : x y z
#
# Youngs Moduli (GPa) = 42.39145 36.08793 37.50838
#
# Poissons Ratio (x) = 0.14258 0.37831
# Poissons Ratio (y) = 0.16748 0.54685
# Poissons Ratio (z) = 0.42756 0.52614
#
# Static dielectric constant tensor:
#      x y z
#    x 1.499210 0.000000 0.000000 
#    y 0.000000 1.681510 0.000000 
#    z 0.000000 0.000000 1.655030 
# 
# From -- ./inp_files/28500.got.cif
#   From: 2010.05.17/outbox.cif.g08.bks.cpg/sg51_15_cif.got.tgz:28500.got - 2010.06.03 11:52:47.
