data_PCOD9400315
_publ_section_title
;
Structure prediction by ZEFSAII (Michael W. Deem and Ramdas Pophale) SiO2 
 PCOD9400315
Probable space group: P M M A
;
_chemical_formula_sum "Si O2"
_cell_formula_units_Z 64
_cell_length_a 8.647117
_cell_length_b 31.837876
_cell_length_c 14.637936
_cell_angle_alpha 90.000000
_cell_angle_beta 90.000000
_cell_angle_gamma 90.000000
_cell_volume 4029.909249
_symmetry_space_group_name_H-M "P M M A"
_symmetry_group_IT_number 51
_symmetry_cell_setting 'orthorhombic'
loop_
_space_group_symop_operation_xyz
x,y,z
1/2-x,-y,z
1/2+x,-y,-z
-x,y,-z
-x,-y,-z
1/2+x,y,-z
1/2-x,y,z
x,-y,z
loop_
_atom_site_type_symbol
_atom_site_label
_atom_site_fract_x
_atom_site_fract_y
_atom_site_fract_z
Si Si1 0.934748 0.157735 0.597736
Si Si2 0.064784 0.715165 0.217557
Si Si3 0.563542 0.454907 0.103286
Si Si4 0.565170 0.049104 0.899341
Si Si5 0.064274 0.201061 0.102430
Si Si6 0.936401 0.362414 0.103555
Si Si7 0.434628 0.252057 0.597695
Si Si8 0.934233 0.123224 0.218681
O O1 0.750000 0.159242 0.595550
O O2 0.000000 0.143397 0.500000
O O3 0.998148 0.205082 0.612090
O O4 0.993252 0.130150 0.681689
O O5 0.250000 0.713839 0.226106
O O6 0.024788 0.756526 0.157761
O O7 0.004385 0.674374 0.165104
O O8 0.989887 0.720583 0.316956
O O9 0.750000 0.454947 0.100242
O O10 0.514614 0.500000 0.145407
O O11 0.518348 0.409061 0.140242
O O12 0.500000 0.455166 0.000000
O O13 0.750000 0.054738 0.899519
O O14 0.489051 0.080090 0.827023
O O15 0.531216 0.000000 0.881290
O O16 0.500000 0.059155 0.000000
O O17 0.250000 0.197050 0.100318
O O18 0.994420 0.161279 0.155131
O O19 0.000000 0.203269 0.000000
O O20 0.750000 0.359476 0.100905
O O21 0.000000 0.358479 0.000000
O O22 0.500000 0.266803 0.500000
O O23 0.250000 0.249724 0.593864
O O24 0.750000 0.125052 0.224240
#
# Coordination Sequence:
#
# PCOD9400315 Si02
#       8
#     8   8   8   8   8   8   8   8
#     4  11  21  36  56  80 107 134 169 209 253 300
#     4  11  22  35  50  69  98 134 171 209 249 297
#     4   8  14  25  41  61  86 119 161 208 254 297
#     4  10  21  38  59  82 109 140 173 211 254 301
#     4  11  23  36  50  69  99 135 173 211 248 293
#     4  10  19  30  45  66  95 132 172 211 252 302
#     4  11  21  35  55  76 100 129 166 208 253 298
#     4  12  23  36  56  80 106 136 172 212 253 298
#
# _framework density 15.881251000000001
#
# number of rings (size 3 to 8) (size 9 to 14) (size 15 to 20)
#    0.000    1.500    1.250    6.375    0.000    3.750 
#    0.000    0.000    0.000    0.375    0.000    0.000 
#    0.000    0.500    0.000    1.375    0.000    2.250 
#
# Total GULP energy -357328.222758 kJ/mol
# GULP energy per Si atom -5583.253481 kJ/mol
# Density = 1.584510 g / cm^3
# Si number density = 15.881251 Si / 1000 Ang^3
#
#
#
# Elastic Constant Matrix: (Units=GPa)
#
#
# Indices 1 2 3 4 5 6 
#
# 1 100.3622 51.2173 54.2614 0.0000 0.0000 0.0000
# 2 51.2173 99.4527 69.5021 0.0000 0.0000 0.0000
# 3 54.2614 69.5021 126.9447 0.0000 0.0000 0.0000
# 4 0.0000 0.0000 0.0000 4.9557 0.0000 0.0000
# 5 0.0000 0.0000 0.0000 0.0000 27.7377 0.0000
# 6 0.0000 0.0000 0.0000 0.0000 0.0000 19.6320
#
#
#
# Elastic Compliance Matrix: (Units=1/GPa)
#
#
# Indices 1 2 3 4 5 6 
#
# 1 0.014361 -0.005031 -0.003384 0.000000 0.000000 0.000000
# 2 -0.005031 0.018049 -0.007731 0.000000 0.000000 0.000000
# 3 -0.003384 -0.007731 0.013557 0.000000 0.000000 0.000000
# 4 0.000000 0.000000 0.000000 0.201788 0.000000 0.000000
# 5 0.000000 0.000000 0.000000 0.000000 0.036052 0.000000
# 6 0.000000 0.000000 0.000000 0.000000 0.000000 0.050937
#
#
# Mechanical properties :
#
#
# Convention : Reuss Voigt Hill
#
# Bulk Modulus (GPa) = 73.13077 75.19125 74.16101
# Shear Modulus (GPa) = 13.45553 20.58367 17.01960
#
# Velocity S-wave (km/s) = 2.91393 3.60404 3.27720
# Velocity P-wave (km/s) = 7.58088 8.04783 7.81784
#
# Compressibility (1/GPa) = 0.01367413
#
# Stress axis : x y z
#
# Youngs Moduli (GPa) = 69.63378 55.40506 73.76331
#
# Poissons Ratio (x) = 0.27873 0.24962
# Poissons Ratio (y) = 0.35031 0.57029
# Poissons Ratio (z) = 0.23565 0.42836
#
# Static dielectric constant tensor:
#      x y z
#    x 1.529810 0.000000 0.000000 
#    y 0.000000 1.543270 0.000000 
#    z 0.000000 0.000000 1.571080 
# 
# From -- ./inp_files/22595.got.cif
#   From: 2010.05.17/outbox.cif.g08.bks.cpg/sg51_12_cif.got.tgz:22595.got - 2010.06.03 11:52:47.
