data_PCOD9400697
_publ_section_title
;
Structure prediction by ZEFSAII (Michael W. Deem and Ramdas Pophale) SiO2 
 PCOD9400697
Probable space group: P M M A
;
_chemical_formula_sum "Si O2"
_cell_formula_units_Z 56
_cell_length_a 9.319233
_cell_length_b 22.820534
_cell_length_c 15.862622
_cell_angle_alpha 90.000000
_cell_angle_beta 90.000000
_cell_angle_gamma 90.000000
_cell_volume 3373.501815
_symmetry_space_group_name_H-M "P M M A"
_symmetry_group_IT_number 51
_symmetry_cell_setting 'orthorhombic'
loop_
_space_group_symop_operation_xyz
x,y,z
1/2-x,-y,z
1/2+x,-y,-z
-x,y,-z
-x,-y,-z
1/2+x,y,-z
1/2-x,y,z
x,-y,z
loop_
_atom_site_type_symbol
_atom_site_label
_atom_site_fract_x
_atom_site_fract_y
_atom_site_fract_z
Si Si1 0.577456 0.807000 0.909966
Si Si2 0.584137 0.593471 0.751712
Si Si3 0.914494 0.733073 0.416783
Si Si4 0.583830 0.590132 0.415917
Si Si5 0.588452 0.569534 0.078915
Si Si6 0.921694 0.937183 0.909957
Si Si7 0.084493 0.734786 0.251059
O O1 0.750000 0.802565 0.922798
O O2 0.544173 0.872719 0.874877
O O3 0.534945 0.760842 0.838154
O O4 0.500000 0.799207 0.000000
O O5 0.750000 0.574135 0.752666
O O6 0.501140 0.572547 0.668246
O O7 0.499632 0.576048 0.835376
O O8 0.583618 0.664308 0.750902
O O9 0.750000 0.751703 0.420641
O O10 0.915937 0.661576 0.416380
O O11 0.000000 0.751574 0.500000
O O12 0.990059 0.752969 0.330874
O O13 0.500000 0.571418 0.500000
O O14 0.750000 0.571493 0.415373
O O15 0.750000 0.593981 0.085453
O O16 0.602418 0.500000 0.063787
O O17 0.500000 0.594985 0.000000
O O18 0.750000 0.937303 0.922326
O O19 0.958566 0.000000 0.867464
O O20 0.000000 0.937883 0.000000
O O21 0.250000 0.753488 0.263588
#
# Coordination Sequence:
#
# PCOD9400697 Si02
#       7
#     8   8   8   8   8   8   8
#     4   9  17  28  40  56  83 117 148 179 214 251
#     4  10  19  31  48  69  92 118 147 178 214 258
#     4   9  16  26  42  62  84 112 144 179 215 252
#     4   9  16  27  44  67  93 119 147 177 211 253
#     4  10  21  37  55  72  89 111 143 184 225 261
#     4   8  13  22  37  55  74 101 140 181 216 249
#     4   9  18  30  42  61  90 120 147 175 210 255
#
# _framework density 16.599962000000001
#
# number of rings (size 3 to 8) (size 9 to 14) (size 15 to 20)
#    0.000    2.857    0.000    1.714    0.000    6.000 
#    0.000    1.429    0.000    0.429    0.000    0.000 
#    0.000    0.571    0.000    1.000    0.000    1.714 
#
# Total GULP energy -311899.008711 kJ/mol
# GULP energy per Si atom -5569.625156 kJ/mol
# Density = 1.656218 g / cm^3
# Si number density = 16.599962 Si / 1000 Ang^3
#
#
#
# Elastic Constant Matrix: (Units=GPa)
#
#
# Indices 1 2 3 4 5 6 
#
# 1 126.9922 13.4729 83.4832 0.0000 0.0000 0.0000
# 2 13.4729 37.8327 20.0219 0.0000 0.0000 0.0000
# 3 83.4832 20.0219 140.3025 0.0000 0.0000 0.0000
# 4 0.0000 0.0000 0.0000 13.2897 0.0000 0.0000
# 5 0.0000 0.0000 0.0000 0.0000 29.2334 0.0000
# 6 0.0000 0.0000 0.0000 0.0000 0.0000 0.2647
#
#
#
# Elastic Compliance Matrix: (Units=1/GPa)
#
#
# Indices 1 2 3 4 5 6 
#
# 1 0.012945 -0.000577 -0.007620 0.000000 0.000000 0.000000
# 2 -0.000577 0.028617 -0.003740 0.000000 0.000000 0.000000
# 3 -0.007620 -0.003740 0.012196 0.000000 0.000000 0.000000
# 4 0.000000 0.000000 0.000000 0.075246 0.000000 0.000000
# 5 0.000000 0.000000 0.000000 0.000000 0.034207 0.000000
# 6 0.000000 0.000000 0.000000 0.000000 0.000000 3.778045
#
#
# Mechanical properties :
#
#
# Convention : Reuss Voigt Hill
#
# Bulk Modulus (GPa) = 33.46482 59.89816 46.68149
# Shear Modulus (GPa) = 1.25783 21.10084 11.17933
#
# Velocity S-wave (km/s) = 0.87142 3.56917 2.59792
# Velocity P-wave (km/s) = 4.60607 7.29019 6.09765
#
# Compressibility (1/GPa) = 0.02988212
#
# Stress axis : x y z
#
# Youngs Moduli (GPa) = 77.24820 34.94401 81.99723
#
# Poissons Ratio (x) = 0.02017 0.62485
# Poissons Ratio (y) = 0.04459 0.30670
# Poissons Ratio (z) = 0.58866 0.13070
#
# Static dielectric constant tensor:
#      x y z
#    x 1.568470 0.000000 0.000000 
#    y 0.000000 1.597660 0.000000 
#    z 0.000000 0.000000 1.534710 
# 
# From -- ./inp_files/21853.got.cif
#   From: 2010.05.17/outbox.cif.g08.bks.cpg/sg51_11_cif.got.tgz:21853.got - 2010.06.03 11:52:47.
