data_PCOD9400594
_publ_section_title
;
Structure prediction by ZEFSAII (Michael W. Deem and Ramdas Pophale) SiO2 
 PCOD9400594
Probable space group: P M M A
;
_chemical_formula_sum "Si O2"
_cell_formula_units_Z 64
_cell_length_a 8.580461
_cell_length_b 29.111117
_cell_length_c 15.255931
_cell_angle_alpha 90.000000
_cell_angle_beta 90.000000
_cell_angle_gamma 90.000000
_cell_volume 3810.730248
_symmetry_space_group_name_H-M "P M M A"
_symmetry_group_IT_number 51
_symmetry_cell_setting 'orthorhombic'
loop_
_space_group_symop_operation_xyz
x,y,z
1/2-x,-y,z
1/2+x,-y,-z
-x,y,-z
-x,-y,-z
1/2+x,y,-z
1/2-x,y,z
x,-y,z
loop_
_atom_site_type_symbol
_atom_site_label
_atom_site_fract_x
_atom_site_fract_y
_atom_site_fract_z
Si Si1 0.563443 0.626771 0.095433
Si Si2 0.061475 0.150410 0.599323
Si Si3 0.561781 0.049312 0.400419
Si Si4 0.063690 0.686187 0.406388
Si Si5 0.436264 0.550575 0.225607
Si Si6 0.935771 0.582716 0.406336
Si Si7 0.062505 0.267050 0.905145
Si Si8 0.060999 0.235789 0.718435
O O1 0.750000 0.625904 0.095096
O O2 0.502738 0.591809 0.167834
O O3 0.513155 0.679740 0.110482
O O4 0.500000 0.613252 0.000000
O O5 0.250000 0.151471 0.594983
O O6 0.013074 0.099556 0.633363
O O7 0.010966 0.190837 0.664347
O O8 0.000000 0.156793 0.500000
O O9 0.500000 0.048899 0.500000
O O10 0.750000 0.049274 0.401403
O O11 0.511676 0.000000 0.360298
O O12 0.250000 0.683176 0.409193
O O13 0.000000 0.703961 0.500000
O O14 0.993142 0.635405 0.395215
O O15 0.007121 0.720007 0.330847
O O16 0.250000 0.553938 0.226696
O O17 0.480305 0.500000 0.190737
O O18 0.498834 0.555412 0.324030
O O19 0.750000 0.581708 0.407295
O O20 0.000000 0.566431 0.500000
O O21 0.250000 0.266682 0.909349
O O22 0.014311 0.237757 0.820437
O O23 0.000000 0.252547 0.000000
O O24 0.250000 0.238411 0.714956
#
# Coordination Sequence:
#
# PCOD9400594 Si02
#       8
#     8   8   8   8   8   8   8   8
#     4  10  20  36  58  80 101 126 156 191 235 285
#     4   9  17  27  40  60  90 126 160 196 236 279
#     4   8  13  22  36  54  78 113 157 199 236 274
#     4  11  21  33  50  72  98 128 161 194 229 272
#     4  11  24  40  57  79 105 130 158 193 233 279
#     4  11  22  38  58  77  99 128 163 200 236 275
#     4   9  19  34  52  72  93 118 149 188 229 275
#     4  10  19  31  46  67  96 126 156 192 238 285
#
# _framework density 16.794682999999999
#
# number of rings (size 3 to 8) (size 9 to 14) (size 15 to 20)
#    0.000    2.125    0.000    4.875    0.000    5.000 
#    0.000    0.000    0.000    0.000    0.000    0.000 
#    0.000    0.500    0.000    0.375    0.000    1.000 
#
# Total GULP energy -357022.815484 kJ/mol
# GULP energy per Si atom -5578.481492 kJ/mol
# Density = 1.675646 g / cm^3
# Si number density = 16.794683 Si / 1000 Ang^3
#
#
#
# Elastic Constant Matrix: (Units=GPa)
#
#
# Indices 1 2 3 4 5 6 
#
# 1 28.4386 12.9208 12.8363 0.0000 0.0000 0.0000
# 2 12.9208 66.5015 49.8185 0.0000 0.0000 0.0000
# 3 12.8363 49.8185 99.5382 0.0000 0.0000 0.0000
# 4 0.0000 0.0000 0.0000 -0.4478 0.0000 0.0000
# 5 0.0000 0.0000 0.0000 0.0000 26.3494 0.0000
# 6 0.0000 0.0000 0.0000 0.0000 0.0000 17.3122
#
#
#
# Elastic Compliance Matrix: (Units=1/GPa)
#
#
# Indices 1 2 3 4 5 6 
#
# 1 0.038808 -0.006065 -0.001969 0.000000 0.000000 0.000000
# 2 -0.006065 0.025005 -0.011733 0.000000 0.000000 0.000000
# 3 -0.001969 -0.011733 0.016173 0.000000 0.000000 0.000000
# 4 0.000000 0.000000 0.000000 -2.233073 0.000000 0.000000
# 5 0.000000 0.000000 0.000000 0.000000 0.037952 0.000000
# 6 0.000000 0.000000 0.000000 0.000000 0.000000 0.057763
#
#
# Mechanical properties :
#
#
# Convention : Reuss Voigt Hill
#
# Bulk Modulus (GPa) = 24.72089 38.40329 31.56209
# Shear Modulus (GPa) = -2.49457 16.56960 7.03752
#
# Velocity S-wave (km/s) = -1.22006 3.14442 2.04925
# Velocity P-wave (km/s) = 3.57305 6.00826 4.94297
#
# Compressibility (1/GPa) = 0.04045162
#
# Stress axis : x y z
#
# Youngs Moduli (GPa) = 25.76802 39.99183 61.83311
#
# Poissons Ratio (x) = 0.24255 0.12175
# Poissons Ratio (y) = 0.15628 0.72548
# Poissons Ratio (z) = 0.05074 0.46922
#
# Static dielectric constant tensor:
#      x y z
#    x 1.564450 0.000000 0.000000 
#    y 0.000000 1.600820 0.000000 
#    z 0.000000 0.000000 1.553160 
# 
# From -- ./inp_files/22586.got.cif
#   From: 2010.05.17/outbox.cif.g08.bks.cpg/sg51_12_cif.got.tgz:22586.got - 2010.06.03 11:52:47.
