data_PCOD9400713
_publ_section_title
;
Structure prediction by ZEFSAII (Michael W. Deem and Ramdas Pophale) SiO2 
 PCOD9400713
Probable space group: P M M A
;
_chemical_formula_sum "Si O2"
_cell_formula_units_Z 44
_cell_length_a 8.834098
_cell_length_b 15.807270
_cell_length_c 17.849999
_cell_angle_alpha 90.000000
_cell_angle_beta 90.000000
_cell_angle_gamma 90.000000
_cell_volume 2492.626916
_symmetry_space_group_name_H-M "P M M A"
_symmetry_group_IT_number 51
_symmetry_cell_setting 'orthorhombic'
loop_
_space_group_symop_operation_xyz
x,y,z
1/2-x,-y,z
1/2+x,-y,-z
-x,y,-z
-x,-y,-z
1/2+x,y,-z
1/2-x,y,z
x,-y,z
loop_
_atom_site_type_symbol
_atom_site_label
_atom_site_fract_x
_atom_site_fract_y
_atom_site_fract_z
Si Si1 0.428041 0.351944 0.420498
Si Si2 0.570517 0.823896 0.653669
Si Si3 0.068877 0.000000 0.418806
Si Si4 0.929198 0.233201 0.193415
Si Si5 0.067630 0.405551 0.738084
Si Si6 0.568651 0.904371 0.916947
O O1 0.500000 0.376814 0.500000
O O2 0.250000 0.371259 0.421685
O O3 0.447384 0.250925 0.406827
O O4 0.500281 0.391144 0.345177
O O5 0.750000 0.824581 0.674614
O O6 0.525660 0.914540 0.622906
O O7 0.469959 0.803304 0.725134
O O8 0.000000 0.000000 0.500000
O O9 0.250000 0.000000 0.424379
O O10 0.750000 0.232052 0.179222
O O11 0.980335 0.331173 0.204638
O O12 0.008646 0.172051 0.133920
O O13 0.250000 0.399496 0.731444
O O14 0.027648 0.500000 0.763366
O O15 0.750000 0.900237 0.920576
O O16 0.528439 0.000000 0.888612
O O17 0.500000 0.897169 0.000000
#
# Coordination Sequence:
#
# PCOD9400713 Si02
#       6
#     8   8   4   8   8   8
#     4  10  19  31  48  69  96 130 171 221 273 322
#     4   9  19  33  47  67  96 133 174 214 259 312
#     4  10  20  32  46  64  91 128 171 216 260 304
#     4  10  20  34  55  81 107 136 172 214 258 307
#     4   9  19  36  55  75 101 135 175 218 266 317
#     4  10  21  37  58  84 115 147 175 207 248 298
#
# _framework density 17.652059000000001
#
# number of rings (size 3 to 8) (size 9 to 14) (size 15 to 20)
#    0.000    2.364    0.000    2.182    1.273    4.000 
#    0.000    0.000    0.000    0.545    0.000    0.000 
#    0.000    0.000    0.000    0.000    0.000    0.000 
#
# Total GULP energy -245335.547333 kJ/mol
# GULP energy per Si atom -5575.807894 kJ/mol
# Density = 1.761188 g / cm^3
# Si number density = 17.652059 Si / 1000 Ang^3
#
#
#
# Elastic Constant Matrix: (Units=GPa)
#
#
# Indices 1 2 3 4 5 6 
#
# 1 37.9303 41.4348 30.4700 0.0000 0.0000 0.0000
# 2 41.4348 157.1989 53.9923 0.0000 0.0000 0.0000
# 3 30.4700 53.9923 66.8706 0.0000 0.0000 0.0000
# 4 0.0000 0.0000 0.0000 13.1305 0.0000 0.0000
# 5 0.0000 0.0000 0.0000 0.0000 33.4377 0.0000
# 6 0.0000 0.0000 0.0000 0.0000 0.0000 16.4165
#
#
#
# Elastic Compliance Matrix: (Units=1/GPa)
#
#
# Indices 1 2 3 4 5 6 
#
# 1 0.046399 -0.006875 -0.015591 0.000000 0.000000 0.000000
# 2 -0.006875 0.009821 -0.004797 0.000000 0.000000 0.000000
# 3 -0.015591 -0.004797 0.025932 0.000000 0.000000 0.000000
# 4 0.000000 0.000000 0.000000 0.076158 0.000000 0.000000
# 5 0.000000 0.000000 0.000000 0.000000 0.029906 0.000000
# 6 0.000000 0.000000 0.000000 0.000000 0.000000 0.060914
#
#
# Mechanical properties :
#
#
# Convention : Reuss Voigt Hill
#
# Bulk Modulus (GPa) = 36.19846 57.08824 46.64335
# Shear Modulus (GPa) = 15.98132 21.67044 18.82588
#
# Velocity S-wave (km/s) = 3.01217 3.50758 3.26927
# Velocity P-wave (km/s) = 5.71391 6.98679 6.38216
#
# Compressibility (1/GPa) = 0.02762548
#
# Stress axis : x y z
#
# Youngs Moduli (GPa) = 21.55230 101.82146 38.56293
#
# Poissons Ratio (x) = 0.70002 0.60123
# Poissons Ratio (y) = 0.14817 0.18499
# Poissons Ratio (z) = 0.33602 0.48845
#
# Static dielectric constant tensor:
#      x y z
#    x 1.595890 0.000000 0.000000 
#    y 0.000000 1.651470 0.000000 
#    z 0.000000 0.000000 1.554820 
# 
# From -- ./inp_files/27373.got.cif
#   From: 2010.05.17/outbox.cif.g08.bks.cpg/sg51_14_cif.got.tgz:27373.got - 2010.06.03 11:52:47.
