data_PCOD9400920
_publ_section_title
;
Structure prediction by ZEFSAII (Michael W. Deem and Ramdas Pophale) SiO2 
 PCOD9400920
Probable space group: P M M A
;
_chemical_formula_sum "Si O2"
_cell_formula_units_Z 64
_cell_length_a 14.797948
_cell_length_b 38.176951
_cell_length_c 5.316470
_cell_angle_alpha 90.000000
_cell_angle_beta 90.000000
_cell_angle_gamma 90.000000
_cell_volume 3003.489410
_symmetry_space_group_name_H-M "P M M A"
_symmetry_group_IT_number 51
_symmetry_cell_setting 'orthorhombic'
loop_
_space_group_symop_operation_xyz
x,y,z
1/2-x,-y,z
1/2+x,-y,-z
-x,y,-z
-x,-y,-z
1/2+x,y,-z
1/2-x,y,z
x,-y,z
loop_
_atom_site_type_symbol
_atom_site_label
_atom_site_fract_x
_atom_site_fract_y
_atom_site_fract_z
Si Si1 0.857933 0.806501 0.853826
Si Si2 0.438811 0.267756 0.248903
Si Si3 0.859248 0.155490 0.357888
Si Si4 0.938819 0.655318 0.749299
Si Si5 0.609850 0.960042 0.971536
Si Si6 0.606911 0.924916 0.469477
Si Si7 0.642360 0.420144 0.746535
Si Si8 0.639141 0.459607 0.246587
O O1 0.750000 0.810880 0.861065
O O2 0.877965 0.766014 0.798415
O O3 0.894174 0.827849 0.615993
O O4 0.892922 0.822906 0.115272
O O5 0.500000 0.263343 0.500000
O O6 0.393108 0.306192 0.264031
O O7 0.500000 0.269223 0.000000
O O8 0.750000 0.158610 0.357393
O O9 0.880316 0.114520 0.372434
O O10 0.878395 0.620900 0.752963
O O11 0.000000 0.653217 0.500000
O O12 0.000000 0.654245 0.000000
O O13 0.641749 0.934419 0.747858
O O14 0.632240 0.000000 0.906472
O O15 0.500000 0.957967 0.000000
O O16 0.643498 0.949307 0.247033
O O17 0.500000 0.931009 0.500000
O O18 0.750000 0.424552 0.745800
O O19 0.608773 0.438574 0.492725
O O20 0.608717 0.439777 0.995520
O O21 0.750000 0.459686 0.246307
O O22 0.610348 0.500000 0.251449
#
# Coordination Sequence:
#
# PCOD9400920 Si02
#       8
#     8   8   8   8   8   8   8   8
#     4  10  21  37  56  78 105 139 175 211 257 311
#     4  10  21  37  57  81 106 137 175 214 260 310
#     4  10  21  36  53  75 106 140 169 205 259 312
#     4  10  21  37  55  76 108 143 170 207 266 320
#     4   9  17  30  49  73 100 129 165 212 259 298
#     4  10  19  31  50  75  99 129 171 211 250 300
#     4  10  19  32  54  80 102 134 181 221 256 307
#     4   9  17  30  50  77 106 134 171 222 269 305
#
# _framework density 21.308547999999998
#
# number of rings (size 3 to 8) (size 9 to 14) (size 15 to 20)
#    0.000    2.250    0.000    3.000    0.000    5.000 
#    0.000    0.000    0.000   18.750    0.000    0.000 
#    0.000    0.000    0.000    0.000    0.000    0.000 
#
# Total GULP energy -357362.917949 kJ/mol
# GULP energy per Si atom -5583.795593 kJ/mol
# Density = 2.126005 g / cm^3
# Si number density = 21.308548 Si / 1000 Ang^3
#
#
#
# Elastic Constant Matrix: (Units=GPa)
#
#
# Indices 1 2 3 4 5 6 
#
# 1 38.9409 -1.4380 17.9418 0.0000 0.0000 0.0000
# 2 -1.4380 135.9846 67.5267 0.0000 0.0000 0.0000
# 3 17.9418 67.5267 195.6801 0.0000 0.0000 0.0000
# 4 0.0000 0.0000 0.0000 42.3116 0.0000 0.0000
# 5 0.0000 0.0000 0.0000 0.0000 -6.6793 0.0000
# 6 0.0000 0.0000 0.0000 0.0000 0.0000 -2.7039
#
#
#
# Elastic Compliance Matrix: (Units=1/GPa)
#
#
# Indices 1 2 3 4 5 6 
#
# 1 0.027189 0.001841 -0.003128 0.000000 0.000000 0.000000
# 2 0.001841 0.008999 -0.003274 0.000000 0.000000 0.000000
# 3 -0.003128 -0.003274 0.006527 0.000000 0.000000 0.000000
# 4 0.000000 0.000000 0.000000 0.023634 0.000000 0.000000
# 5 0.000000 0.000000 0.000000 0.000000 -0.149716 0.000000
# 6 0.000000 0.000000 0.000000 0.000000 0.000000 -0.369841
#
#
# Mechanical properties :
#
#
# Convention : Reuss Voigt Hill
#
# Bulk Modulus (GPa) = 29.76868 59.85182 44.81025
# Shear Modulus (GPa) = -11.55036 25.69069 7.07017
#
# Velocity S-wave (km/s) = -2.33073 3.47602 1.82351
# Velocity P-wave (km/s) = 2.59953 6.65277 5.05059
#
# Compressibility (1/GPa) = 0.03359235
#
# Stress axis : x y z
#
# Youngs Moduli (GPa) = 36.77924 111.12121 153.20679
#
# Poissons Ratio (x) = -0.20457 0.47927
# Poissons Ratio (y) = -0.06771 0.50164
# Poissons Ratio (z) = 0.11505 0.36384
#
# Static dielectric constant tensor:
#      x y z
#    x 1.744240 0.000000 0.000000 
#    y 0.000000 1.761040 0.000000 
#    z 0.000000 0.000000 1.737620 
# 
# From -- ./inp_files/2113.got.cif
#   From: 2010.05.17/outbox.cif.g08.bks.cpg/sg51_2_cif.got.tgz:2113.got - 2010.06.03 11:52:47.
