data_PCOD9400374
_publ_section_title
;
Structure prediction by ZEFSAII (Michael W. Deem and Ramdas Pophale) SiO2 
 PCOD9400374
Probable space group: P M M A
;
_chemical_formula_sum "Si O2"
_cell_formula_units_Z 56
_cell_length_a 9.305870
_cell_length_b 14.010887
_cell_length_c 29.842295
_cell_angle_alpha 90.000000
_cell_angle_beta 90.000000
_cell_angle_gamma 90.000000
_cell_volume 3890.942661
_symmetry_space_group_name_H-M "P M M A"
_symmetry_group_IT_number 51
_symmetry_cell_setting 'orthorhombic'
loop_
_space_group_symop_operation_xyz
x,y,z
1/2-x,-y,z
1/2+x,-y,-z
-x,y,-z
-x,-y,-z
1/2+x,y,-z
1/2-x,y,z
x,-y,z
loop_
_atom_site_type_symbol
_atom_site_label
_atom_site_fract_x
_atom_site_fract_y
_atom_site_fract_z
Si Si1 0.920286 0.708170 0.725179
Si Si2 0.915764 0.616134 0.456239
Si Si3 0.422607 0.214271 0.862146
Si Si4 0.921850 0.111550 0.045759
Si Si5 0.921467 0.610899 0.820189
Si Si6 0.076398 0.611911 0.643275
Si Si7 0.078847 0.110146 0.218360
O O1 0.750000 0.701502 0.715952
O O2 0.950651 0.642328 0.768783
O O3 0.953605 0.815436 0.741859
O O4 0.008010 0.673008 0.682679
O O5 0.750000 0.645088 0.459902
O O6 0.918709 0.500000 0.456326
O O7 0.970624 0.643259 0.406778
O O8 0.000000 0.649452 0.500000
O O9 0.250000 0.216423 0.857997
O O10 0.460269 0.174653 0.911234
O O11 0.490426 0.317269 0.851429
O O12 0.489922 0.144233 0.824756
O O13 0.750000 0.117123 0.039593
O O14 0.957808 0.000000 0.054680
O O15 0.000000 0.140231 0.000000
O O16 0.750000 0.624512 0.827182
O O17 0.955905 0.500000 0.826784
O O18 0.250000 0.617148 0.644321
O O19 0.037577 0.500000 0.649287
O O20 0.250000 0.120790 0.208727
O O21 0.050510 0.000000 0.229042
#
# Coordination Sequence:
#
# PCOD9400374 Si02
#       7
#     8   8   8   8   8   8   8
#     4   9  17  28  42  61  82 106 140 176 206 240
#     4   8  14  24  36  51  73 102 136 170 202 239
#     4  10  19  30  46  69  93 113 138 175 214 252
#     4   9  18  31  46  66  91 115 138 168 208 253
#     4   9  18  32  47  63  86 116 149 181 209 243
#     4   9  17  27  38  55  82 113 140 168 205 247
#     4   9  18  32  47  62  84 115 146 174 207 250
#
# _framework density 14.392398999999999
#
# number of rings (size 3 to 8) (size 9 to 14) (size 15 to 20)
#    0.000    3.000    0.000    3.000    0.000    6.000 
#    0.000    2.857    0.000    0.429    0.000    0.000 
#    0.000    0.571    0.000    1.286    0.000    2.000 
#
# Total GULP energy -311877.793676 kJ/mol
# GULP energy per Si atom -5569.246316 kJ/mol
# Density = 1.435964 g / cm^3
# Si number density = 14.392399 Si / 1000 Ang^3
#
#
#
# Elastic Constant Matrix: (Units=GPa)
#
#
# Indices 1 2 3 4 5 6 
#
# 1 37.1146 39.3899 59.3539 0.0000 0.0000 0.0000
# 2 39.3899 96.2421 68.4916 0.0000 0.0000 0.0000
# 3 59.3539 68.4916 143.1967 0.0000 0.0000 0.0000
# 4 0.0000 0.0000 0.0000 18.4210 0.0000 0.0000
# 5 0.0000 0.0000 0.0000 0.0000 29.8168 0.0000
# 6 0.0000 0.0000 0.0000 0.0000 0.0000 19.5292
#
#
#
# Elastic Compliance Matrix: (Units=1/GPa)
#
#
# Indices 1 2 3 4 5 6 
#
# 1 0.094281 -0.016338 -0.031264 0.000000 0.000000 0.000000
# 2 -0.016338 0.018584 -0.002117 0.000000 0.000000 0.000000
# 3 -0.031264 -0.002117 0.020955 0.000000 0.000000 0.000000
# 4 0.000000 0.000000 0.000000 0.054286 0.000000 0.000000
# 5 0.000000 0.000000 0.000000 0.000000 0.033538 0.000000
# 6 0.000000 0.000000 0.000000 0.000000 0.000000 0.051205
#
#
# Mechanical properties :
#
#
# Convention : Reuss Voigt Hill
#
# Bulk Modulus (GPa) = 29.08524 67.89157 48.48841
# Shear Modulus (GPa) = 13.02941 20.84126 16.93534
#
# Velocity S-wave (km/s) = 3.01208 3.80949 3.43401
# Velocity P-wave (km/s) = 5.68766 8.16234 7.03467
#
# Compressibility (1/GPa) = 0.03438170
#
# Stress axis : x y z
#
# Youngs Moduli (GPa) = 10.60657 53.81105 47.72202
#
# Poissons Ratio (x) = 0.87915 1.49200
# Poissons Ratio (y) = 0.17329 0.10101
# Poissons Ratio (z) = 0.33161 0.11390
#
# Static dielectric constant tensor:
#      x y z
#    x 1.479550 0.000000 0.000000 
#    y 0.000000 1.466310 0.000000 
#    z 0.000000 0.000000 1.463530 
# 
# From -- ./inp_files/37501.got.cif
#   From: 2010.05.17/outbox.cif.g08.bks.cpg/sg51_19_cif.got.tgz:37501.got - 2010.06.03 11:52:47.
