data_PCOD9400377
_publ_section_title
;
Structure prediction by ZEFSAII (Michael W. Deem and Ramdas Pophale) SiO2 
 PCOD9400377
Probable space group: P M M A
;
_chemical_formula_sum "Si O2"
_cell_formula_units_Z 48
_cell_length_a 14.759984
_cell_length_b 8.948547
_cell_length_c 18.479812
_cell_angle_alpha 90.000000
_cell_angle_beta 90.000000
_cell_angle_gamma 90.000000
_cell_volume 2440.821156
_symmetry_space_group_name_H-M "P M M A"
_symmetry_group_IT_number 51
_symmetry_cell_setting 'orthorhombic'
loop_
_space_group_symop_operation_xyz
x,y,z
1/2-x,-y,z
1/2+x,-y,-z
-x,y,-z
-x,-y,-z
1/2+x,y,-z
1/2-x,y,z
x,-y,z
loop_
_atom_site_type_symbol
_atom_site_label
_atom_site_fract_x
_atom_site_fract_y
_atom_site_fract_z
Si Si1 0.103242 0.669061 0.470459
Si Si2 0.348474 0.681035 0.626680
Si Si3 0.393828 0.829419 0.021486
Si Si4 0.349267 0.321984 0.876099
Si Si5 0.038387 0.821883 0.331067
Si Si6 0.538032 0.180216 0.829414
O O1 0.133378 0.500000 0.455190
O O2 0.153029 0.726641 0.541826
O O3 0.000000 0.662645 0.500000
O O4 0.099011 0.760660 0.396756
O O5 0.250000 0.717095 0.659041
O O6 0.359381 0.500000 0.628432
O O7 0.437033 0.754570 0.660703
O O8 0.397146 0.773588 0.104113
O O9 0.358661 0.000000 0.017648
O O10 0.500000 0.836651 0.000000
O O11 0.351146 0.726232 0.960478
O O12 0.250000 0.277600 0.846685
O O13 0.358048 0.500000 0.869253
O O14 0.437202 0.245975 0.840861
O O15 0.071460 0.781461 0.250688
O O16 0.032718 0.000000 0.336755
O O17 0.530739 0.000000 0.835042
#
# Coordination Sequence:
#
# PCOD9400377 Si02
#       6
#     8   8   8   8   8   8
#     4   8  15  29  47  65  86 117 155 186 217 264
#     4   9  18  32  48  66  91 122 153 185 221 265
#     4   8  15  30  49  65  84 116 155 186 215 260
#     4  10  20  31  45  69  96 118 145 184 226 265
#     4  10  19  30  46  69  95 119 146 186 228 263
#     4   9  19  33  47  66  92 121 152 183 219 267
#
# _framework density 19.665512
#
# number of rings (size 3 to 8) (size 9 to 14) (size 15 to 20)
#    0.000    3.000    0.000    3.000    0.000    9.667 
#    0.000    3.333    0.000    1.000    0.000    4.667 
#    0.000    0.000    0.000    0.000    0.000    0.000 
#
# Total GULP energy -267395.533630 kJ/mol
# GULP energy per Si atom -5570.740284 kJ/mol
# Density = 1.962075 g / cm^3
# Si number density = 19.665512 Si / 1000 Ang^3
#
#
#
# Elastic Constant Matrix: (Units=GPa)
#
#
# Indices 1 2 3 4 5 6 
#
# 1 24.1322 -6.8090 -16.0287 0.0000 0.0000 0.0000
# 2 -6.8090 18.3988 16.9357 0.0000 0.0000 0.0000
# 3 -16.0287 16.9357 115.2900 0.0000 0.0000 0.0000
# 4 0.0000 0.0000 0.0000 -16.2074 0.0000 0.0000
# 5 0.0000 0.0000 0.0000 0.0000 6.4785 0.0000
# 6 0.0000 0.0000 0.0000 0.0000 0.0000 7.5281
#
#
#
# Elastic Compliance Matrix: (Units=1/GPa)
#
#
# Indices 1 2 3 4 5 6 
#
# 1 0.048410 0.013553 0.004740 0.000000 0.000000 0.000000
# 2 0.013553 0.066644 -0.007906 0.000000 0.000000 0.000000
# 3 0.004740 -0.007906 0.010494 0.000000 0.000000 0.000000
# 4 0.000000 0.000000 0.000000 -0.061700 0.000000 0.000000
# 5 0.000000 0.000000 0.000000 0.000000 0.154356 0.000000
# 6 0.000000 0.000000 0.000000 0.000000 0.000000 0.132835
#
#
# Mechanical properties :
#
#
# Convention : Reuss Voigt Hill
#
# Bulk Modulus (GPa) = 6.83421 16.22411 11.52916
# Shear Modulus (GPa) = 13.19125 10.47472 11.83298
#
# Velocity S-wave (km/s) = 2.59275 2.31041 2.45564
# Velocity P-wave (km/s) = 3.52788 3.92241 3.73036
#
# Compressibility (1/GPa) = 0.14632261
#
# Stress axis : x y z
#
# Youngs Moduli (GPa) = 20.65669 15.00510 95.29241
#
# Poissons Ratio (x) = -0.20336 -0.45165
# Poissons Ratio (y) = -0.27996 0.75334
# Poissons Ratio (z) = -0.09790 0.11862
#
# Static dielectric constant tensor:
#      x y z
#    x 1.721990 0.000000 0.000000 
#    y 0.000000 1.661070 0.000000 
#    z 0.000000 0.000000 1.746050 
# 
# From -- ./inp_files/30054.got.cif
#   From: 2010.05.17/outbox.cif.g08.bks.cpg/sg51_16_cif.got.tgz:30054.got - 2010.06.03 11:52:47.
