data_PCOD9400572
_publ_section_title
;
Structure prediction by ZEFSAII (Michael W. Deem and Ramdas Pophale) SiO2 
 PCOD9400572
Probable space group: P M M A
;
_chemical_formula_sum "Si O2"
_cell_formula_units_Z 48
_cell_length_a 21.908790
_cell_length_b 7.408956
_cell_length_c 15.110691
_cell_angle_alpha 90.000000
_cell_angle_beta 90.000000
_cell_angle_gamma 90.000000
_cell_volume 2452.786420
_symmetry_space_group_name_H-M "P M M A"
_symmetry_group_IT_number 51
_symmetry_cell_setting 'orthorhombic'
loop_
_space_group_symop_operation_xyz
x,y,z
1/2-x,-y,z
1/2+x,-y,-z
-x,y,-z
-x,-y,-z
1/2+x,y,-z
1/2-x,y,z
x,-y,z
loop_
_atom_site_type_symbol
_atom_site_label
_atom_site_fract_x
_atom_site_fract_y
_atom_site_fract_z
Si Si1 0.814671 0.208310 0.489550
Si Si2 0.055177 0.790261 0.558768
Si Si3 0.847167 0.717821 0.684337
Si Si4 0.453503 0.720376 0.076432
Si Si5 0.317126 0.280230 0.116087
Si Si6 0.983202 0.717234 0.725826
O O1 0.750000 0.290327 0.461548
O O2 0.878411 0.291413 0.458129
O O3 0.817089 0.210705 0.596137
O O4 0.814221 0.000000 0.459584
O O5 0.000000 0.710409 0.500000
O O6 0.035699 0.781859 0.660873
O O7 0.059782 0.000000 0.531352
O O8 0.842926 0.500000 0.681304
O O9 0.821766 0.772024 0.780122
O O10 0.918278 0.770522 0.683743
O O11 0.452476 0.500000 0.075195
O O12 0.381810 0.776903 0.072320
O O13 0.479937 0.775635 0.172271
O O14 0.500000 0.779094 0.000000
O O15 0.250000 0.222688 0.082062
O O16 0.317678 0.500000 0.113516
O O17 0.985299 0.500000 0.726457
#
# Coordination Sequence:
#
# PCOD9400572 Si02
#       6
#     8   8   8   8   8   8
#     4  10  20  31  42  59  85 115 147 181 215 253
#     4  10  19  31  46  63  85 116 150 179 211 252
#     4   9  16  26  41  62  87 112 139 173 215 261
#     4   8  14  25  41  61  85 111 139 174 217 259
#     4   8  13  21  35  57  83 108 135 168 208 258
#     4   9  17  28  45  68  88 112 146 181 217 257
#
# _framework density 19.569579999999998
#
# number of rings (size 3 to 8) (size 9 to 14) (size 15 to 20)
#    0.000    3.000    1.667    2.500    0.000    2.000 
#    0.000    0.000    0.000    1.500    0.000    2.333 
#    0.000    0.000    0.000    0.000    0.000    0.000 
#
# Total GULP energy -267526.996050 kJ/mol
# GULP energy per Si atom -5573.479084 kJ/mol
# Density = 1.952504 g / cm^3
# Si number density = 19.569580 Si / 1000 Ang^3
#
#
#
# Elastic Constant Matrix: (Units=GPa)
#
#
# Indices 1 2 3 4 5 6 
#
# 1 216.7959 9.0512 76.8711 0.0000 0.0000 0.0000
# 2 9.0512 63.5878 -2.5458 0.0000 0.0000 0.0000
# 3 76.8711 -2.5458 74.0835 0.0000 0.0000 0.0000
# 4 0.0000 0.0000 0.0000 17.9526 0.0000 0.0000
# 5 0.0000 0.0000 0.0000 0.0000 19.3452 0.0000
# 6 0.0000 0.0000 0.0000 0.0000 0.0000 5.6120
#
#
#
# Elastic Compliance Matrix: (Units=1/GPa)
#
#
# Indices 1 2 3 4 5 6 
#
# 1 0.007414 -0.001365 -0.007740 0.000000 0.000000 0.000000
# 2 -0.001365 0.015999 0.001966 0.000000 0.000000 0.000000
# 3 -0.007740 0.001966 0.021597 0.000000 0.000000 0.000000
# 4 0.000000 0.000000 0.000000 0.055702 0.000000 0.000000
# 5 0.000000 0.000000 0.000000 0.000000 0.051692 0.000000
# 6 0.000000 0.000000 0.000000 0.000000 0.000000 0.178188
#
#
# Mechanical properties :
#
#
# Convention : Reuss Voigt Hill
#
# Bulk Modulus (GPa) = 32.53842 57.91336 45.22589
# Shear Modulus (GPa) = 14.07995 26.65468 20.36732
#
# Velocity S-wave (km/s) = 2.68522 3.69460 3.22959
# Velocity P-wave (km/s) = 5.12611 6.91794 6.08830
#
# Compressibility (1/GPa) = 0.03073290
#
# Stress axis : x y z
#
# Youngs Moduli (GPa) = 134.87911 62.50262 46.30264
#
# Poissons Ratio (x) = 0.08533 0.35838
# Poissons Ratio (y) = 0.18414 -0.09105
# Poissons Ratio (z) = 1.04396 -0.12290
#
# Static dielectric constant tensor:
#      x y z
#    x 1.747330 0.000000 0.000000 
#    y 0.000000 1.729830 0.000000 
#    z 0.000000 0.000000 1.648180 
# 
# From -- ./inp_files/18136.got.cif
#   From: 2010.05.17/outbox.cif.g08.bks.cpg/sg51_10_cif.got.tgz:18136.got - 2010.06.03 11:52:47.
