data_PCOD9400774
_publ_section_title
;
Structure prediction by ZEFSAII (Michael W. Deem and Ramdas Pophale) SiO2 
 PCOD9400774
Probable space group: P M M A
;
_chemical_formula_sum "Si O2"
_cell_formula_units_Z 64
_cell_length_a 17.554097
_cell_length_b 9.477548
_cell_length_c 21.896767
_cell_angle_alpha 90.000000
_cell_angle_beta 90.000000
_cell_angle_gamma 90.000000
_cell_volume 3642.960679
_symmetry_space_group_name_H-M "P M M A"
_symmetry_group_IT_number 51
_symmetry_cell_setting 'orthorhombic'
loop_
_space_group_symop_operation_xyz
x,y,z
1/2-x,-y,z
1/2+x,-y,-z
-x,y,-z
-x,-y,-z
1/2+x,y,-z
1/2-x,y,z
x,-y,z
loop_
_atom_site_type_symbol
_atom_site_label
_atom_site_fract_x
_atom_site_fract_y
_atom_site_fract_z
Si Si1 0.164147 0.162739 0.151550
Si Si2 0.433428 0.670290 0.911720
Si Si3 0.394961 0.330513 0.046720
Si Si4 0.665454 0.163638 0.635368
Si Si5 0.493378 0.167673 0.430113
Si Si6 0.161509 0.327680 0.793599
Si Si7 0.899507 0.338160 0.743015
Si Si8 0.935697 0.336256 0.320712
O O1 0.250000 0.169046 0.176969
O O2 0.162039 0.242724 0.087519
O O3 0.109541 0.245661 0.197104
O O4 0.142503 0.000000 0.145123
O O5 0.433684 0.500000 0.907487
O O6 0.521193 0.707527 0.926015
O O7 0.391693 0.721416 0.850298
O O8 0.391017 0.705434 0.975118
O O9 0.385709 0.500000 0.052841
O O10 0.750000 0.181693 0.608697
O O11 0.594368 0.187569 0.590760
O O12 0.653112 0.268534 0.691452
O O13 0.659544 0.000000 0.656710
O O14 0.500000 0.215670 0.500000
O O15 0.547189 0.247409 0.381624
O O16 0.509754 0.000000 0.427580
O O17 0.250000 0.287313 0.801310
O O18 0.158473 0.500000 0.793718
O O19 0.127398 0.284273 0.727724
O O20 0.879067 0.500000 0.755570
O O21 0.985086 0.333996 0.717216
O O22 0.919815 0.500000 0.336564
#
# Coordination Sequence:
#
# PCOD9400774 Si02
#       8
#     8   8   8   8   8   8   8   8
#     4  11  23  34  43  62  96 131 159 192 237 287
#     4   8  15  29  49  73  97 120 154 204 252 289
#     4   9  17  31  51  71  92 121 160 205 248 291
#     4   9  17  30  48  70  97 126 156 194 239 282
#     4   9  18  33  52  73  98 130 165 194 225 276
#     4   9  16  27  46  72 100 128 159 197 243 294
#     4  10  19  31  49  70  92 121 158 199 240 285
#     4   9  18  32  51  75  99 123 155 196 238 278
#
# _framework density 17.568128999999999
#
# number of rings (size 3 to 8) (size 9 to 14) (size 15 to 20)
#    0.000    2.750    0.000    2.625    0.000    6.000 
#    0.000    3.125    0.000    1.875    0.000    0.000 
#    0.000    0.000    0.000    0.000    0.000    0.000 
#
# Total GULP energy -356513.899811 kJ/mol
# GULP energy per Si atom -5570.529685 kJ/mol
# Density = 1.752814 g / cm^3
# Si number density = 17.568129 Si / 1000 Ang^3
#
#
#
# Elastic Constant Matrix: (Units=GPa)
#
#
# Indices 1 2 3 4 5 6 
#
# 1 52.2158 17.3538 37.5152 0.0000 0.0000 0.0000
# 2 17.3538 52.1907 42.8243 0.0000 0.0000 0.0000
# 3 37.5152 42.8243 124.2193 0.0000 0.0000 0.0000
# 4 0.0000 0.0000 0.0000 2.0793 0.0000 0.0000
# 5 0.0000 0.0000 0.0000 0.0000 13.0145 0.0000
# 6 0.0000 0.0000 0.0000 0.0000 0.0000 -13.7497
#
#
#
# Elastic Compliance Matrix: (Units=1/GPa)
#
#
# Indices 1 2 3 4 5 6 
#
# 1 0.024775 -0.002926 -0.006473 0.000000 0.000000 0.000000
# 2 -0.002926 0.027064 -0.008447 0.000000 0.000000 0.000000
# 3 -0.006473 -0.008447 0.012917 0.000000 0.000000 0.000000
# 4 0.000000 0.000000 0.000000 0.480928 0.000000 0.000000
# 5 0.000000 0.000000 0.000000 0.000000 0.076837 0.000000
# 6 0.000000 0.000000 0.000000 0.000000 0.000000 -0.072729
#
#
# Mechanical properties :
#
#
# Convention : Reuss Voigt Hill
#
# Bulk Modulus (GPa) = 34.40695 47.11249 40.75972
# Shear Modulus (GPa) = 8.40093 8.99766 8.69929
#
# Velocity S-wave (km/s) = 2.18913 2.26555 2.22767
# Velocity P-wave (km/s) = 5.10070 5.80679 5.46516
#
# Compressibility (1/GPa) = 0.02906390
#
# Stress axis : x y z
#
# Youngs Moduli (GPa) = 40.36377 36.94911 77.41589
#
# Poissons Ratio (x) = 0.10812 0.50114
# Poissons Ratio (y) = 0.11811 0.65390
# Poissons Ratio (z) = 0.26129 0.31210
#
# Static dielectric constant tensor:
#      x y z
#    x 1.628620 0.000000 0.000000 
#    y 0.000000 1.584750 0.000000 
#    z 0.000000 0.000000 1.608730 
# 
# From -- ./inp_files/33793.got.cif
#   From: 2010.05.17/outbox.cif.g08.bks.cpg/sg51_17_cif.got.tgz:33793.got - 2010.06.03 11:52:47.
