data_PCOD9400835
_publ_section_title
;
Structure prediction by ZEFSAII (Michael W. Deem and Ramdas Pophale) SiO2 
 PCOD9400835
Probable space group: P M M A
;
_chemical_formula_sum "Si O2"
_cell_formula_units_Z 32
_cell_length_a 8.582829
_cell_length_b 21.564364
_cell_length_c 9.530639
_cell_angle_alpha 90.000000
_cell_angle_beta 90.000000
_cell_angle_gamma 90.000000
_cell_volume 1763.961628
_symmetry_space_group_name_H-M "P M M A"
_symmetry_group_IT_number 51
_symmetry_cell_setting 'orthorhombic'
loop_
_space_group_symop_operation_xyz
x,y,z
1/2-x,-y,z
1/2+x,-y,-z
-x,y,-z
-x,-y,-z
1/2+x,y,-z
1/2-x,y,z
x,-y,z
loop_
_atom_site_type_symbol
_atom_site_label
_atom_site_fract_x
_atom_site_fract_y
_atom_site_fract_z
Si Si1 0.436644 0.803342 0.341262
Si Si2 0.438169 0.570322 0.344160
Si Si3 0.561698 0.685411 0.843016
Si Si4 0.436802 0.932528 0.659795
O O1 0.500000 0.796820 0.500000
O O2 0.250000 0.804603 0.348415
O O3 0.487310 0.745245 0.247523
O O4 0.494979 0.869072 0.279580
O O5 0.500000 0.583885 0.500000
O O6 0.250000 0.571457 0.348662
O O7 0.486988 0.500000 0.306839
O O8 0.490685 0.622790 0.235988
O O9 0.750000 0.685139 0.845981
O O10 0.500000 0.688292 0.000000
O O11 0.500000 0.933518 0.500000
O O12 0.250000 0.928277 0.656393
O O13 0.479594 0.000000 0.722601
#
# Coordination Sequence:
#
# PCOD9400835 Si02
#       4
#     8   8   8   8
#     4  10  19  31  49  73  99 128 164 204 246 293
#     4   9  18  34  55  78 103 130 163 203 245 291
#     4  10  22  36  50  72 101 133 168 205 245 290
#     4   9  16  26  43  69  98 126 158 198 244 292
#
# _framework density 18.140985000000001
#
# number of rings (size 3 to 8) (size 9 to 14) (size 15 to 20)
#    0.000    2.500    0.000    3.750    0.000    5.000 
#    0.000    0.000    0.000    0.750    0.000    0.000 
#    0.000    0.000    0.000    0.000    0.000    0.000 
#
# Total GULP energy -178402.102611 kJ/mol
# GULP energy per Si atom -5575.065707 kJ/mol
# Density = 1.809970 g / cm^3
# Si number density = 18.140985 Si / 1000 Ang^3
#
#
#
# Elastic Constant Matrix: (Units=GPa)
#
#
# Indices 1 2 3 4 5 6 
#
# 1 28.3309 37.3636 19.9031 0.0000 0.0000 0.0000
# 2 37.3636 196.9533 100.3209 0.0000 0.0000 0.0000
# 3 19.9031 100.3209 88.3198 0.0000 0.0000 0.0000
# 4 0.0000 0.0000 0.0000 -1.4843 0.0000 0.0000
# 5 0.0000 0.0000 0.0000 0.0000 25.7254 0.0000
# 6 0.0000 0.0000 0.0000 0.0000 0.0000 22.5303
#
#
#
# Elastic Compliance Matrix: (Units=1/GPa)
#
#
# Indices 1 2 3 4 5 6 
#
# 1 0.047120 -0.008377 -0.001103 0.000000 0.000000 0.000000
# 2 -0.008377 0.013537 -0.013489 0.000000 0.000000 0.000000
# 3 -0.001103 -0.013489 0.026893 0.000000 0.000000 0.000000
# 4 0.000000 0.000000 0.000000 -0.673720 0.000000 0.000000
# 5 0.000000 0.000000 0.000000 0.000000 0.038872 0.000000
# 6 0.000000 0.000000 0.000000 0.000000 0.000000 0.044385
#
#
# Mechanical properties :
#
#
# Convention : Reuss Voigt Hill
#
# Bulk Modulus (GPa) = 24.03163 69.86438 46.94801
# Shear Modulus (GPa) = -11.28406 19.75537 4.23566
#
# Velocity S-wave (km/s) = -2.49674 3.30357 1.52968
# Velocity P-wave (km/s) = 2.22807 7.29019 5.39033
#
# Compressibility (1/GPa) = 0.04161182
#
# Stress axis : x y z
#
# Youngs Moduli (GPa) = 21.22230 73.86934 37.18419
#
# Poissons Ratio (x) = 0.61881 0.04102
# Poissons Ratio (y) = 0.17778 0.50158
# Poissons Ratio (z) = 0.02341 0.99643
#
# Static dielectric constant tensor:
#      x y z
#    x 1.617780 0.000000 0.000000 
#    y 0.000000 1.679940 0.000000 
#    z 0.000000 0.000000 1.570590 
# 
# From -- ./inp_files/4856.got.cif
#   From: 2010.05.17/outbox.cif.g08.bks.cpg/sg51_3_cif.got.tgz:4856.got - 2010.06.03 11:52:47.
