data_PCOD9400913
_publ_section_title
;
Structure prediction by ZEFSAII (Michael W. Deem and Ramdas Pophale) SiO2 
 PCOD9400913
Probable space group: P M M A
;
_chemical_formula_sum "Si O2"
_cell_formula_units_Z 64
_cell_length_a 14.928701
_cell_length_b 9.298517
_cell_length_c 23.258071
_cell_angle_alpha 90.000000
_cell_angle_beta 90.000000
_cell_angle_gamma 90.000000
_cell_volume 3228.564010
_symmetry_space_group_name_H-M "P M M A"
_symmetry_group_IT_number 51
_symmetry_cell_setting 'orthorhombic'
loop_
_space_group_symop_operation_xyz
x,y,z
1/2-x,-y,z
1/2+x,-y,-z
-x,y,-z
-x,-y,-z
1/2+x,y,-z
1/2-x,y,z
x,-y,z
loop_
_atom_site_type_symbol
_atom_site_label
_atom_site_fract_x
_atom_site_fract_y
_atom_site_fract_z
Si Si1 0.642117 0.835687 0.768209
Si Si2 0.104385 0.336752 0.115272
Si Si3 0.988377 0.172360 0.566852
Si Si4 0.646140 0.171135 0.347020
Si Si5 0.609707 0.165276 0.996951
Si Si6 0.390793 0.336178 0.891572
Si Si7 0.643158 0.662146 0.234807
Si Si8 0.142370 0.330085 0.348117
O O1 0.750000 0.842545 0.766544
O O2 0.618318 0.749970 0.825958
O O3 0.614580 0.750512 0.710819
O O4 0.607541 0.000000 0.768889
O O5 0.139099 0.500000 0.119564
O O6 0.139255 0.251499 0.059680
O O7 0.997959 0.345840 0.104983
O O8 0.080268 0.204851 0.600794
O O9 0.000000 0.208485 0.500000
O O10 0.910063 0.257492 0.599286
O O11 0.971708 0.000000 0.571240
O O12 0.750000 0.212250 0.358192
O O13 0.612134 0.247503 0.289126
O O14 0.644647 0.000000 0.337928
O O15 0.637648 0.000000 0.993946
O O16 0.500000 0.165902 0.000000
O O17 0.641128 0.242956 0.054998
O O18 0.355287 0.500000 0.893802
O O19 0.372146 0.274361 0.828352
O O20 0.750000 0.651677 0.241122
O O21 0.604587 0.500000 0.235272
O O22 0.250000 0.313433 0.354586
O O23 0.123004 0.500000 0.344118
#
# Coordination Sequence:
#
# PCOD9400913 Si02
#       8
#     8   8   8   8   8   8   8   8
#     4  10  21  37  56  79 108 141 180 228 281 337
#     4  10  19  31  50  75 103 137 177 225 279 333
#     4  10  22  39  61  91 122 155 196 238 283 339
#     4   9  19  36  56  81 115 152 189 233 284 337
#     4   9  17  30  47  69  98 134 178 225 274 328
#     4   9  18  31  48  72 100 133 175 224 276 329
#     4   9  18  33  52  75 104 138 176 220 272 330
#     4  10  22  40  61  86 119 157 196 241 292 344
#
# _framework density 19.823053000000002
#
# number of rings (size 3 to 8) (size 9 to 14) (size 15 to 20)
#    0.000    2.500    0.000    1.500    1.750    5.250 
#    0.000    1.875    0.000    3.750    0.000    0.000 
#    0.000    0.000    0.000    0.000    0.000    0.000 
#
# Total GULP energy -357278.194652 kJ/mol
# GULP energy per Si atom -5582.471791 kJ/mol
# Density = 1.977794 g / cm^3
# Si number density = 19.823053 Si / 1000 Ang^3
#
#
#
# Elastic Constant Matrix: (Units=GPa)
#
#
# Indices 1 2 3 4 5 6 
#
# 1 57.9815 37.4100 41.4909 0.0000 0.0000 0.0000
# 2 37.4100 128.5755 112.0037 0.0000 0.0000 0.0000
# 3 41.4909 112.0037 225.5977 0.0000 0.0000 0.0000
# 4 0.0000 0.0000 0.0000 43.2162 0.0000 0.0000
# 5 0.0000 0.0000 0.0000 0.0000 54.0730 0.0000
# 6 0.0000 0.0000 0.0000 0.0000 0.0000 12.3847
#
#
#
# Elastic Compliance Matrix: (Units=1/GPa)
#
#
# Indices 1 2 3 4 5 6 
#
# 1 0.021516 -0.004957 -0.001496 0.000000 0.000000 0.000000
# 2 -0.004957 0.014847 -0.006459 0.000000 0.000000 0.000000
# 3 -0.001496 -0.006459 0.007915 0.000000 0.000000 0.000000
# 4 0.000000 0.000000 0.000000 0.023139 0.000000 0.000000
# 5 0.000000 0.000000 0.000000 0.000000 0.018494 0.000000
# 6 0.000000 0.000000 0.000000 0.000000 0.000000 0.080745
#
#
# Mechanical properties :
#
#
# Convention : Reuss Voigt Hill
#
# Bulk Modulus (GPa) = 54.19355 88.21820 71.20588
# Shear Modulus (GPa) = 25.17240 36.68478 30.92859
#
# Velocity S-wave (km/s) = 3.56737 4.30654 3.95426
# Velocity P-wave (km/s) = 6.66079 8.32633 7.53969
#
# Compressibility (1/GPa) = 0.01845238
#
# Stress axis : x y z
#
# Youngs Moduli (GPa) = 46.47776 67.35574 126.34710
#
# Poissons Ratio (x) = 0.33387 0.18903
# Poissons Ratio (y) = 0.23038 0.81611
# Poissons Ratio (z) = 0.06953 0.43507
#
# Static dielectric constant tensor:
#      x y z
#    x 1.738700 0.000000 0.000000 
#    y 0.000000 1.692840 0.000000 
#    z 0.000000 0.000000 1.661360 
# 
# From -- ./inp_files/35784.got.cif
#   From: 2010.05.17/outbox.cif.g08.bks.cpg/sg51_18_cif.got.tgz:35784.got - 2010.06.03 11:52:47.
