data_PCOD9400658
_publ_section_title
;
Structure prediction by ZEFSAII (Michael W. Deem and Ramdas Pophale) SiO2 
 PCOD9400658
Probable space group: P M M A
;
_chemical_formula_sum "Si O2"
_cell_formula_units_Z 48
_cell_length_a 19.883490
_cell_length_b 10.325031
_cell_length_c 14.929035
_cell_angle_alpha 90.000000
_cell_angle_beta 90.000000
_cell_angle_gamma 90.000000
_cell_volume 3064.895812
_symmetry_space_group_name_H-M "P M M A"
_symmetry_group_IT_number 51
_symmetry_cell_setting 'orthorhombic'
loop_
_space_group_symop_operation_xyz
x,y,z
1/2-x,-y,z
1/2+x,-y,-z
-x,y,-z
-x,-y,-z
1/2+x,y,-z
1/2-x,y,z
x,-y,z
loop_
_atom_site_type_symbol
_atom_site_label
_atom_site_fract_x
_atom_site_fract_y
_atom_site_fract_z
Si Si1 0.969917 0.641953 0.779034
Si Si2 0.556656 0.348581 0.573569
Si Si3 0.675973 0.155607 0.009013
Si Si4 0.672100 0.149380 0.616004
Si Si5 0.960747 0.848633 0.094520
Si Si6 0.325472 0.265725 0.190383
O O1 0.996946 0.500000 0.803415
O O2 0.975546 0.661900 0.672652
O O3 0.889923 0.644193 0.798786
O O4 0.003964 0.756281 0.834386
O O5 0.500000 0.319149 0.500000
O O6 0.577515 0.500000 0.562667
O O7 0.619871 0.250973 0.573568
O O8 0.750000 0.199366 0.038915
O O9 0.614610 0.197444 0.071150
O O10 0.674302 0.000000 0.009505
O O11 0.667680 0.198104 0.905938
O O12 0.750000 0.173711 0.589859
O O13 0.669595 0.170252 0.724070
O O14 0.655470 0.000000 0.595612
O O15 0.960757 0.000000 0.122707
O O16 0.000000 0.842737 0.000000
O O17 0.250000 0.323822 0.194430
#
# Coordination Sequence:
#
# PCOD9400658 Si02
#       6
#     8   8   8   8   8   8
#     4  10  20  32  48  70  95 125 157 197 243 281
#     4   9  19  35  52  70  94 126 165 202 240 291
#     4   9  16  27  44  64  89 124 162 194 223 264
#     4   9  17  28  46  74 103 126 151 190 241 293
#     4  10  19  31  47  69  95 125 162 194 224 276
#     4   9  16  27  43  66  97 129 156 184 225 282
#
# _framework density 15.661217000000001
#
# number of rings (size 3 to 8) (size 9 to 14) (size 15 to 20)
#    0.000    2.667    1.667    0.500    0.000    6.000 
#    0.000    3.333    0.000    1.500    0.000    4.667 
#    0.000    0.000    0.000    0.000    0.000    0.000 
#
# Total GULP energy -267202.813078 kJ/mol
# GULP energy per Si atom -5566.725272 kJ/mol
# Density = 1.562557 g / cm^3
# Si number density = 15.661217 Si / 1000 Ang^3
#
#
#
# Elastic Constant Matrix: (Units=GPa)
#
#
# Indices 1 2 3 4 5 6 
#
# 1 114.5363 66.9817 56.4332 0.0000 0.0000 0.0000
# 2 66.9817 96.3507 46.2874 0.0000 0.0000 0.0000
# 3 56.4332 46.2874 58.3903 0.0000 0.0000 0.0000
# 4 0.0000 0.0000 0.0000 10.0222 0.0000 0.0000
# 5 0.0000 0.0000 0.0000 0.0000 26.3895 0.0000
# 6 0.0000 0.0000 0.0000 0.0000 0.0000 15.6248
#
#
#
# Elastic Compliance Matrix: (Units=1/GPa)
#
#
# Indices 1 2 3 4 5 6 
#
# 1 0.019343 -0.007213 -0.012977 0.000000 0.000000 0.000000
# 2 -0.007213 0.019452 -0.008449 0.000000 0.000000 0.000000
# 3 -0.012977 -0.008449 0.036366 0.000000 0.000000 0.000000
# 4 0.000000 0.000000 0.000000 0.099779 0.000000 0.000000
# 5 0.000000 0.000000 0.000000 0.000000 0.037894 0.000000
# 6 0.000000 0.000000 0.000000 0.000000 0.000000 0.064001
#
#
# Mechanical properties :
#
#
# Convention : Reuss Voigt Hill
#
# Bulk Modulus (GPa) = 55.91788 67.63131 61.77460
# Shear Modulus (GPa) = 14.70280 17.04562 15.87421
#
# Velocity S-wave (km/s) = 3.06731 3.30266 3.18716
# Velocity P-wave (km/s) = 6.95174 7.60402 7.28519
#
# Compressibility (1/GPa) = 0.01788337
#
# Stress axis : x y z
#
# Youngs Moduli (GPa) = 51.69944 51.40889 27.49851
#
# Poissons Ratio (x) = 0.37079 0.35684
# Poissons Ratio (y) = 0.37289 0.23234
# Poissons Ratio (z) = 0.67088 0.43436
#
# Static dielectric constant tensor:
#      x y z
#    x 1.552390 0.000000 0.000000 
#    y 0.000000 1.521030 0.000000 
#    z 0.000000 0.000000 1.492520 
# 
# From -- ./inp_files/25447.got.cif
#   From: 2010.05.17/outbox.cif.g08.bks.cpg/sg51_13_cif.got.tgz:25447.got - 2010.06.03 11:52:47.
