data_PCOD9400921
_publ_section_title
;
Structure prediction by ZEFSAII (Michael W. Deem and Ramdas Pophale) SiO2 
 PCOD9400921
Probable space group: P M M A
;
_chemical_formula_sum "Si O2"
_cell_formula_units_Z 40
_cell_length_a 21.519523
_cell_length_b 7.851153
_cell_length_c 12.317071
_cell_angle_alpha 90.000000
_cell_angle_beta 90.000000
_cell_angle_gamma 90.000000
_cell_volume 2081.006929
_symmetry_space_group_name_H-M "P M M A"
_symmetry_group_IT_number 51
_symmetry_cell_setting 'orthorhombic'
loop_
_space_group_symop_operation_xyz
x,y,z
1/2-x,-y,z
1/2+x,-y,-z
-x,y,-z
-x,-y,-z
1/2+x,y,-z
1/2-x,y,z
x,-y,z
loop_
_atom_site_type_symbol
_atom_site_label
_atom_site_fract_x
_atom_site_fract_y
_atom_site_fract_z
Si Si1 0.034307 0.208476 0.326813
Si Si2 0.678427 0.705973 0.041533
Si Si3 0.445710 0.205196 0.081899
Si Si4 0.587148 0.200010 0.455878
Si Si5 0.824034 0.304311 0.279748
O O1 0.044478 0.270027 0.204767
O O2 0.082982 0.264206 0.420598
O O3 0.968813 0.264918 0.379275
O O4 0.034626 0.000000 0.319355
O O5 0.750000 0.762041 0.017607
O O6 0.681074 0.500000 0.048269
O O7 0.658967 0.771116 0.161989
O O8 0.623434 0.753155 0.960345
O O9 0.450809 0.000000 0.083794
O O10 0.500000 0.267938 0.000000
O O11 0.648608 0.222801 0.386935
O O12 0.575029 0.000000 0.465703
O O13 0.750000 0.301328 0.281797
O O14 0.845206 0.500000 0.281381
#
# Coordination Sequence:
#
# PCOD9400921 Si02
#       5
#     8   8   8   8   8
#     4   8  16  30  47  70  98 122 146 187 239 276
#     4   9  19  35  51  68  95 130 163 196 238 285
#     4  10  19  31  50  76 101 124 157 200 240 281
#     4   9  16  30  51  69  90 122 155 186 225 278
#     4   9  18  32  48  67  93 121 150 192 239 272
#
# _framework density 19.221464999999998
#
# number of rings (size 3 to 8) (size 9 to 14) (size 15 to 20)
#    0.000    3.000    0.000    3.600    0.000    3.600 
#    0.000    7.000    0.000    6.000    0.000    0.000 
#    0.000    0.000    0.000    0.000    0.000    0.000 
#
# Total GULP energy -222705.496714 kJ/mol
# GULP energy per Si atom -5567.637418 kJ/mol
# Density = 1.917772 g / cm^3
# Si number density = 19.221465 Si / 1000 Ang^3
#
#
#
# Elastic Constant Matrix: (Units=GPa)
#
#
# Indices 1 2 3 4 5 6 
#
# 1 54.0256 5.7542 66.4396 0.0000 0.0000 0.0000
# 2 5.7542 15.1346 15.9248 0.0000 0.0000 0.0000
# 3 66.4396 15.9248 194.4544 0.0000 0.0000 0.0000
# 4 0.0000 0.0000 0.0000 -12.4763 0.0000 0.0000
# 5 0.0000 0.0000 0.0000 0.0000 32.7522 0.0000
# 6 0.0000 0.0000 0.0000 0.0000 0.0000 29.0997
#
#
#
# Elastic Compliance Matrix: (Units=1/GPa)
#
#
# Indices 1 2 3 4 5 6 
#
# 1 0.031931 -0.000723 -0.010851 0.000000 0.000000 0.000000
# 2 -0.000723 0.072321 -0.005676 0.000000 0.000000 0.000000
# 3 -0.010851 -0.005676 0.009315 0.000000 0.000000 0.000000
# 4 0.000000 0.000000 0.000000 -0.080152 0.000000 0.000000
# 5 0.000000 0.000000 0.000000 0.000000 0.030532 0.000000
# 6 0.000000 0.000000 0.000000 0.000000 0.000000 0.034365
#
#
# Mechanical properties :
#
#
# Convention : Reuss Voigt Hill
#
# Bulk Modulus (GPa) = 12.64740 48.87242 30.75991
# Shear Modulus (GPa) = 31.41389 21.57484 26.49436
#
# Velocity S-wave (km/s) = 4.04705 3.35391 3.71667
# Velocity P-wave (km/s) = 5.33219 6.36235 5.86991
#
# Compressibility (1/GPa) = 0.07906764
#
# Stress axis : x y z
#
# Youngs Moduli (GPa) = 31.31798 13.82731 107.35673
#
# Poissons Ratio (x) = 0.01000 1.16488
# Poissons Ratio (y) = 0.02264 0.60933
# Poissons Ratio (z) = 0.33982 0.07848
#
# Static dielectric constant tensor:
#      x y z
#    x 1.661900 0.000000 0.000000 
#    y 0.000000 1.719630 0.000000 
#    z 0.000000 0.000000 1.705460 
# 
# From -- ./inp_files/16201.got.cif
#   From: 2010.05.17/outbox.cif.g08.bks.cpg/sg51_9_cif.got.tgz:16201.got - 2010.06.03 11:52:47.
