data_PCOD9400995
_publ_section_title
;
Structure prediction by ZEFSAII (Michael W. Deem and Ramdas Pophale) SiO2 
 PCOD9400995
Probable space group: P M M A
;
_chemical_formula_sum "Si O2"
_cell_formula_units_Z 64
_cell_length_a 32.360209
_cell_length_b 7.869172
_cell_length_c 12.616187
_cell_angle_alpha 90.000000
_cell_angle_beta 90.000000
_cell_angle_gamma 90.000000
_cell_volume 3212.687425
_symmetry_space_group_name_H-M "P M M A"
_symmetry_group_IT_number 51
_symmetry_cell_setting 'orthorhombic'
loop_
_space_group_symop_operation_xyz
x,y,z
1/2-x,-y,z
1/2+x,-y,-z
-x,y,-z
-x,-y,-z
1/2+x,y,-z
1/2-x,y,z
x,-y,z
loop_
_atom_site_type_symbol
_atom_site_label
_atom_site_fract_x
_atom_site_fract_y
_atom_site_fract_z
Si Si1 0.547186 0.704551 0.019937
Si Si2 0.203126 0.295363 0.983936
Si Si3 0.124484 0.202379 0.124898
Si Si4 0.390183 0.795791 0.357668
Si Si5 0.483945 0.794235 0.384449
Si Si6 0.631421 0.704950 0.409793
Si Si7 0.796636 0.707404 0.257093
Si Si8 0.560665 0.700771 0.253406
O O1 0.544294 0.500000 0.027497
O O2 0.563432 0.770271 0.134240
O O3 0.500000 0.766602 0.000000
O O4 0.581853 0.741780 0.931925
O O5 0.250000 0.236484 0.012114
O O6 0.204772 0.500000 0.981654
O O7 0.193893 0.238174 0.863290
O O8 0.165456 0.248210 0.059489
O O9 0.127105 0.268460 0.245775
O O10 0.122467 0.000000 0.128965
O O11 0.437402 0.735021 0.368293
O O12 0.368188 0.752795 0.467560
O O13 0.391329 0.000000 0.352278
O O14 0.500000 0.740313 0.500000
O O15 0.514531 0.726577 0.295365
O O16 0.484948 0.000000 0.380896
O O17 0.630572 0.500000 0.407205
O O18 0.670626 0.765867 0.342969
O O19 0.591380 0.769762 0.344099
O O20 0.750000 0.759213 0.282086
O O21 0.797713 0.500000 0.256625
O O22 0.569712 0.500000 0.246045
#
# Coordination Sequence:
#
# PCOD9400995 Si02
#       8
#     8   8   8   8   8   8   8   8
#     4  10  21  37  56  79 110 146 183 227 276 327
#     4   9  18  36  63  88 110 140 178 223 275 331
#     4  11  23  37  55  79 111 150 185 227 277 328
#     4  10  22  38  51  70 104 143 181 217 261 313
#     4  10  19  33  52  71  97 139 183 220 257 308
#     4  10  19  31  51  78 103 130 168 212 256 305
#     4   8  15  31  56  83 108 132 161 207 265 315
#     4  10  20  32  50  78 106 131 168 221 272 312
#
# _framework density 19.921016000000002
#
# number of rings (size 3 to 8) (size 9 to 14) (size 15 to 20)
#    0.000    2.250    1.250    2.625    0.000    4.750 
#    0.000    2.500    0.000    3.375    0.000    0.000 
#    0.000    0.000    0.000    0.000    0.000    0.000 
#
# Total GULP energy -357152.840536 kJ/mol
# GULP energy per Si atom -5580.513133 kJ/mol
# Density = 1.987567 g / cm^3
# Si number density = 19.921016 Si / 1000 Ang^3
#
#
#
# Elastic Constant Matrix: (Units=GPa)
#
#
# Indices 1 2 3 4 5 6 
#
# 1 139.0137 4.6485 102.8941 0.0000 0.0000 0.0000
# 2 4.6485 16.7834 12.1690 0.0000 0.0000 0.0000
# 3 102.8941 12.1690 178.2140 0.0000 0.0000 0.0000
# 4 0.0000 0.0000 0.0000 21.8627 0.0000 0.0000
# 5 0.0000 0.0000 0.0000 0.0000 36.8109 0.0000
# 6 0.0000 0.0000 0.0000 0.0000 0.0000 30.0966
#
#
#
# Elastic Compliance Matrix: (Units=1/GPa)
#
#
# Indices 1 2 3 4 5 6 
#
# 1 0.012618 0.001880 -0.007414 0.000000 0.000000 0.000000
# 2 0.001880 0.062967 -0.005385 0.000000 0.000000 0.000000
# 3 -0.007414 -0.005385 0.010259 0.000000 0.000000 0.000000
# 4 0.000000 0.000000 0.000000 0.045740 0.000000 0.000000
# 5 0.000000 0.000000 0.000000 0.000000 0.027166 0.000000
# 6 0.000000 0.000000 0.000000 0.000000 0.000000 0.033226
#
#
# Mechanical properties :
#
#
# Convention : Reuss Voigt Hill
#
# Bulk Modulus (GPa) = 15.62327 63.71492 39.66910
# Shear Modulus (GPa) = 21.26316 32.04064 26.65190
#
# Velocity S-wave (km/s) = 3.27061 4.01482 3.66167
# Velocity P-wave (km/s) = 4.70342 7.31744 6.15090
#
# Compressibility (1/GPa) = 0.06400707
#
# Stress axis : x y z
#
# Youngs Moduli (GPa) = 79.25215 15.88145 97.47296
#
# Poissons Ratio (x) = -0.02986 0.72262
# Poissons Ratio (y) = -0.14903 0.52492
# Poissons Ratio (z) = 0.58754 0.08553
#
# Static dielectric constant tensor:
#      x y z
#    x 1.703860 0.000000 0.000000 
#    y 0.000000 1.731990 0.000000 
#    z 0.000000 0.000000 1.715470 
# 
# From -- ./inp_files/19552.got.cif
#   From: 2010.05.17/outbox.cif.g08.bks.cpg/sg51_10_cif.got.tgz:19552.got - 2010.06.03 11:52:47.
