data_PCOD9400956
_publ_section_title
;
Structure prediction by ZEFSAII (Michael W. Deem and Ramdas Pophale) SiO2 
 PCOD9400956
Probable space group: P M M A
;
_chemical_formula_sum "Si O2"
_cell_formula_units_Z 48
_cell_length_a 9.654534
_cell_length_b 30.310311
_cell_length_c 9.200707
_cell_angle_alpha 90.000000
_cell_angle_beta 90.000000
_cell_angle_gamma 90.000000
_cell_volume 2692.420629
_symmetry_space_group_name_H-M "P M M A"
_symmetry_group_IT_number 51
_symmetry_cell_setting 'orthorhombic'
loop_
_space_group_symop_operation_xyz
x,y,z
1/2-x,-y,z
1/2+x,-y,-z
-x,y,-z
-x,-y,-z
1/2+x,y,-z
1/2-x,y,z
x,-y,z
loop_
_atom_site_type_symbol
_atom_site_label
_atom_site_fract_x
_atom_site_fract_y
_atom_site_fract_z
Si Si1 0.750000 0.053427 0.326364
Si Si2 0.582683 0.450858 0.154695
Si Si3 0.996638 0.898942 0.826377
Si Si4 0.917458 0.368984 0.848002
Si Si5 0.250000 0.947639 0.330407
Si Si6 0.088576 0.714180 0.357042
Si Si7 0.916530 0.184832 0.650643
O O1 0.624951 0.076876 0.246078
O O2 0.750000 0.063952 0.498558
O O3 0.750000 0.000000 0.311701
O O4 0.750000 0.442774 0.138631
O O5 0.568988 0.500000 0.220808
O O6 0.498848 0.410329 0.226416
O O7 0.500000 0.453503 0.000000
O O8 0.875655 0.927275 0.755906
O O9 0.974304 0.849425 0.767762
O O10 0.000000 0.900092 0.000000
O O11 0.750000 0.376970 0.864390
O O12 0.935135 0.324126 0.758742
O O13 0.000000 0.363384 0.000000
O O14 0.250000 0.000000 0.323192
O O15 0.250000 0.713072 0.397495
O O16 0.060142 0.764173 0.304904
O O17 0.000000 0.706150 0.500000
O O18 0.750000 0.178146 0.631571
O O19 0.000000 0.177704 0.500000
#
# Coordination Sequence:
#
# PCOD9400956 Si02
#       7
#     4   8   8   8   4   8   8
#     4  11  25  43  65  89 117 157 201 233 274 343
#     4   9  16  26  43  69 102 140 183 230 279 334
#     4  12  25  39  61  91 123 152 185 240 296 336
#     4  10  19  31  50  77 109 144 181 228 281 333
#     4  11  23  43  65  87 115 157 201 235 276 337
#     4   9  20  37  57  81 108 142 184 227 273 328
#     4  10  21  40  63  85 111 147 189 231 277 342
#
# _framework density 17.827824
#
# number of rings (size 3 to 8) (size 9 to 14) (size 15 to 20)
#    0.000    1.833    0.833    4.500    1.167    6.333 
#    0.000    0.000    0.000    0.500    0.000    0.000 
#    0.000    0.000    0.000    0.000    0.000    0.000 
#
# Total GULP energy -267370.537988 kJ/mol
# GULP energy per Si atom -5570.219541 kJ/mol
# Density = 1.778725 g / cm^3
# Si number density = 17.827824 Si / 1000 Ang^3
#
#
#
# Elastic Constant Matrix: (Units=GPa)
#
#
# Indices 1 2 3 4 5 6 
#
# 1 156.1656 82.3932 66.9894 0.0000 0.0000 0.0000
# 2 82.3932 154.1122 95.2423 0.0000 0.0000 0.0000
# 3 66.9894 95.2423 116.5525 0.0000 0.0000 0.0000
# 4 0.0000 0.0000 0.0000 27.4630 0.0000 0.0000
# 5 0.0000 0.0000 0.0000 0.0000 23.5130 0.0000
# 6 0.0000 0.0000 0.0000 0.0000 0.0000 26.4370
#
#
#
# Elastic Compliance Matrix: (Units=1/GPa)
#
#
# Indices 1 2 3 4 5 6 
#
# 1 0.009290 -0.003368 -0.002588 0.000000 0.000000 0.000000
# 2 -0.003368 0.014330 -0.009774 0.000000 0.000000 0.000000
# 3 -0.002588 -0.009774 0.018054 0.000000 0.000000 0.000000
# 4 0.000000 0.000000 0.000000 0.036413 0.000000 0.000000
# 5 0.000000 0.000000 0.000000 0.000000 0.042530 0.000000
# 6 0.000000 0.000000 0.000000 0.000000 0.000000 0.037826
#
#
# Mechanical properties :
#
#
# Convention : Reuss Voigt Hill
#
# Bulk Modulus (GPa) = 97.89365 101.78666 99.84016
# Shear Modulus (GPa) = 25.86570 27.62963 26.74767
#
# Velocity S-wave (km/s) = 3.81315 3.94103 3.87762
# Velocity P-wave (km/s) = 8.62651 8.82763 8.72765
#
# Compressibility (1/GPa) = 0.01021517
#
# Stress axis : x y z
#
# Youngs Moduli (GPa) = 107.63948 69.78535 55.38887
#
# Poissons Ratio (x) = 0.23501 0.14333
# Poissons Ratio (y) = 0.36249 0.54138
# Poissons Ratio (z) = 0.27855 0.68209
#
# Static dielectric constant tensor:
#      x y z
#    x 1.581410 0.000000 0.000000 
#    y 0.000000 1.664630 0.000000 
#    z 0.000000 0.000000 1.572790 
# 
# From -- ./inp_files/6229.got.cif
#   From: 2010.05.17/outbox.cif.g08.bks.cpg/sg51_4_cif.got.tgz:6229.got - 2010.06.03 11:52:47.
