data_PCOD9400224
_publ_section_title
;
Structure prediction by ZEFSAII (Michael W. Deem and Ramdas Pophale) SiO2 
 PCOD9400224
Probable space group: P M M A
;
_chemical_formula_sum "Si O2"
_cell_formula_units_Z 56
_cell_length_a 9.768984
_cell_length_b 15.437918
_cell_length_c 20.719457
_cell_angle_alpha 90.000000
_cell_angle_beta 90.000000
_cell_angle_gamma 90.000000
_cell_volume 3124.758785
_symmetry_space_group_name_H-M "P M M A"
_symmetry_group_IT_number 51
_symmetry_cell_setting 'orthorhombic'
loop_
_space_group_symop_operation_xyz
x,y,z
1/2-x,-y,z
1/2+x,-y,-z
-x,y,-z
-x,-y,-z
1/2+x,y,-z
1/2-x,y,z
x,-y,z
loop_
_atom_site_type_symbol
_atom_site_label
_atom_site_fract_x
_atom_site_fract_y
_atom_site_fract_z
Si Si1 0.414254 0.899537 0.207666
Si Si2 0.094898 0.873832 0.058345
Si Si3 0.097175 0.666424 0.056696
Si Si4 0.910969 0.898213 0.439165
Si Si5 0.898232 0.599418 0.155239
Si Si6 0.415499 0.211213 0.689882
Si Si7 0.091261 0.594883 0.689864
O O1 0.250000 0.881312 0.212459
O O2 0.451496 0.893081 0.131558
O O3 0.502380 0.833739 0.251367
O O4 0.436225 0.000000 0.227957
O O5 0.250000 0.905961 0.051865
O O6 0.101925 0.769887 0.051641
O O7 0.000000 0.904613 0.000000
O O8 0.250000 0.631273 0.052440
O O9 0.024549 0.646478 0.123811
O O10 0.000000 0.632199 0.000000
O O11 0.750000 0.890061 0.454501
O O12 0.937012 0.846219 0.373760
O O13 0.000000 0.868503 0.500000
O O14 0.940720 0.000000 0.428298
O O15 0.750000 0.638356 0.136757
O O16 0.900310 0.500000 0.132949
O O17 0.906474 0.597151 0.232186
O O18 0.250000 0.213871 0.703856
O O19 0.463635 0.309589 0.673880
O O20 0.250000 0.593834 0.667940
O O21 0.031337 0.500000 0.670997
#
# Coordination Sequence:
#
# PCOD9400224 Si02
#       7
#     8   8   8   8   8   8   8
#     4  10  21  35  50  72 104 137 167 205 258 315
#     4   9  19  34  49  66  89 121 163 206 247 295
#     4  10  19  30  44  60  80 108 145 191 240 291
#     4   9  18  32  50  75 107 140 174 210 247 292
#     4   9  17  29  44  62  85 112 144 185 234 291
#     4  10  19  32  54  81 106 133 170 216 255 293
#     4   8  15  29  50  75 100 127 160 199 247 299
#
# _framework density 17.921382999999999
#
# number of rings (size 3 to 8) (size 9 to 14) (size 15 to 20)
#    0.000    2.714    0.000    2.571    0.000    3.429 
#    0.000    1.429    0.000    1.714    0.000    0.000 
#    0.000    0.000    0.000    0.000    0.000    0.000 
#
# Total GULP energy -311890.041124 kJ/mol
# GULP energy per Si atom -5569.465020 kJ/mol
# Density = 1.788059 g / cm^3
# Si number density = 17.921383 Si / 1000 Ang^3
#
#
#
# Elastic Constant Matrix: (Units=GPa)
#
#
# Indices 1 2 3 4 5 6 
#
# 1 66.7415 36.0082 40.6653 0.0000 0.0000 0.0000
# 2 36.0082 84.8663 42.0660 0.0000 0.0000 0.0000
# 3 40.6653 42.0660 79.8682 0.0000 0.0000 0.0000
# 4 0.0000 0.0000 0.0000 11.9097 0.0000 0.0000
# 5 0.0000 0.0000 0.0000 0.0000 26.6119 0.0000
# 6 0.0000 0.0000 0.0000 0.0000 0.0000 -22.4534
#
#
#
# Elastic Compliance Matrix: (Units=1/GPa)
#
#
# Indices 1 2 3 4 5 6 
#
# 1 0.023451 -0.005456 -0.009067 0.000000 0.000000 0.000000
# 2 -0.005456 0.017216 -0.006289 0.000000 0.000000 0.000000
# 3 -0.009067 -0.006289 0.020449 0.000000 0.000000 0.000000
# 4 0.000000 0.000000 0.000000 0.083965 0.000000 0.000000
# 5 0.000000 0.000000 0.000000 0.000000 0.037577 0.000000
# 6 0.000000 0.000000 0.000000 0.000000 0.000000 -0.044537
#
#
# Mechanical properties :
#
#
# Convention : Reuss Voigt Hill
#
# Bulk Modulus (GPa) = 51.30255 52.10608 51.70431
# Shear Modulus (GPa) = 26.84662 10.72941 18.78801
#
# Velocity S-wave (km/s) = 3.87463 2.44947 3.24135
# Velocity P-wave (km/s) = 6.97894 6.09408 6.55147
#
# Compressibility (1/GPa) = 0.01949221
#
# Stress axis : x y z
#
# Youngs Moduli (GPa) = 42.64202 58.08645 48.90100
#
# Poissons Ratio (x) = 0.31693 0.44336
# Poissons Ratio (y) = 0.23266 0.30756
# Poissons Ratio (z) = 0.38662 0.36533
#
# Static dielectric constant tensor:
#      x y z
#    x 1.621570 0.000000 0.000000 
#    y 0.000000 1.678140 0.000000 
#    z 0.000000 0.000000 1.589750 
# 
# From -- ./inp_files/32043.got.cif
#   From: 2010.05.17/outbox.cif.g08.bks.cpg/sg51_17_cif.got.tgz:32043.got - 2010.06.03 11:52:47.
