data_PCOD9400484
_publ_section_title
;
Structure prediction by ZEFSAII (Michael W. Deem and Ramdas Pophale) SiO2 
 PCOD9400484
Probable space group: P M M A
;
_chemical_formula_sum "Si O2"
_cell_formula_units_Z 64
_cell_length_a 8.794992
_cell_length_b 20.643130
_cell_length_c 20.318596
_cell_angle_alpha 90.000000
_cell_angle_beta 90.000000
_cell_angle_gamma 90.000000
_cell_volume 3688.966331
_symmetry_space_group_name_H-M "P M M A"
_symmetry_group_IT_number 51
_symmetry_cell_setting 'orthorhombic'
loop_
_space_group_symop_operation_xyz
x,y,z
1/2-x,-y,z
1/2+x,-y,-z
-x,y,-z
-x,-y,-z
1/2+x,y,-z
1/2-x,y,z
x,-y,z
loop_
_atom_site_type_symbol
_atom_site_label
_atom_site_fract_x
_atom_site_fract_y
_atom_site_fract_z
Si Si1 0.568251 0.192443 0.927544
Si Si2 0.568342 0.894155 0.567056
Si Si3 0.568656 0.928013 0.150601
Si Si4 0.569030 0.744066 0.289404
Si Si5 0.568608 0.576279 0.071042
Si Si6 0.067261 0.111063 0.287307
Si Si7 0.569388 0.250725 0.435554
Si Si8 0.432031 0.683692 0.162711
O O1 0.750000 0.189156 0.931594
O O2 0.506641 0.128339 0.891969
O O3 0.527579 0.254566 0.883130
O O4 0.500000 0.198773 0.000000
O O5 0.500000 0.923394 0.500000
O O6 0.750000 0.896576 0.562112
O O7 0.525621 0.917470 0.640552
O O8 0.510962 0.819637 0.567754
O O9 0.750000 0.919258 0.150670
O O10 0.508096 0.922873 0.225159
O O11 0.533402 0.000000 0.124901
O O12 0.750000 0.753786 0.280853
O O13 0.487649 0.814077 0.284101
O O14 0.543469 0.718988 0.363862
O O15 0.504385 0.697748 0.233525
O O16 0.750000 0.585092 0.069487
O O17 0.536095 0.500000 0.081084
O O18 0.495992 0.620406 0.127095
O O19 0.500000 0.594904 0.000000
O O20 0.250000 0.109014 0.281586
O O21 0.500000 0.284194 0.500000
O O22 0.750000 0.241422 0.444144
O O23 0.250000 0.680625 0.167842
#
# Coordination Sequence:
#
# PCOD9400484 Si02
#       8
#     8   8   8   8   8   8   8   8
#     4  11  24  40  59  82 106 134 169 211 262 315
#     4   9  16  25  41  66  95 126 162 203 249 303
#     4  11  24  40  58  78  99 129 170 216 267 321
#     4  10  19  30  48  73 104 139 175 217 262 309
#     4  10  21  37  57  81 111 148 186 222 262 308
#     4  10  19  32  50  73 100 131 168 211 260 314
#     4   9  16  25  39  63  95 134 172 209 256 304
#     4  11  22  35  55  83 112 143 180 219 262 310
#
# _framework density 17.349032999999999
#
# number of rings (size 3 to 8) (size 9 to 14) (size 15 to 20)
#    0.000    1.875    1.250    4.125    0.000    7.500 
#    0.000    0.000    0.000    0.375    0.000    0.000 
#    0.000    0.500    0.000    1.625    0.000    2.250 
#
# Total GULP energy -357226.556581 kJ/mol
# GULP energy per Si atom -5581.664947 kJ/mol
# Density = 1.730955 g / cm^3
# Si number density = 17.349033 Si / 1000 Ang^3
#
#
#
# Elastic Constant Matrix: (Units=GPa)
#
#
# Indices 1 2 3 4 5 6 
#
# 1 51.4804 25.8227 43.0626 0.0000 0.0000 0.0000
# 2 25.8227 50.8648 40.0492 0.0000 0.0000 0.0000
# 3 43.0626 40.0492 135.3600 0.0000 0.0000 0.0000
# 4 0.0000 0.0000 0.0000 24.9449 0.0000 0.0000
# 5 0.0000 0.0000 0.0000 0.0000 35.0610 0.0000
# 6 0.0000 0.0000 0.0000 0.0000 0.0000 12.8584
#
#
#
# Elastic Compliance Matrix: (Units=1/GPa)
#
#
# Indices 1 2 3 4 5 6 
#
# 1 0.029945 -0.010040 -0.006556 0.000000 0.000000 0.000000
# 2 -0.010040 0.028997 -0.005385 0.000000 0.000000 0.000000
# 3 -0.006556 -0.005385 0.011067 0.000000 0.000000 0.000000
# 4 0.000000 0.000000 0.000000 0.040088 0.000000 0.000000
# 5 0.000000 0.000000 0.000000 0.000000 0.028522 0.000000
# 6 0.000000 0.000000 0.000000 0.000000 0.000000 0.077770
#
#
# Mechanical properties :
#
#
# Convention : Reuss Voigt Hill
#
# Bulk Modulus (GPa) = 38.39363 50.61933 44.50648
# Shear Modulus (GPa) = 18.58498 23.15758 20.87128
#
# Velocity S-wave (km/s) = 3.27653 3.65746 3.47222
# Velocity P-wave (km/s) = 6.04089 6.86123 6.46408
#
# Compressibility (1/GPa) = 0.02604599
#
# Stress axis : x y z
#
# Youngs Moduli (GPa) = 33.39447 34.48577 90.36119
#
# Poissons Ratio (x) = 0.34625 0.59239
# Poissons Ratio (y) = 0.33530 0.48662
# Poissons Ratio (z) = 0.21893 0.18572
#
# Static dielectric constant tensor:
#      x y z
#    x 1.577270 0.000000 0.000000 
#    y 0.000000 1.576120 0.000000 
#    z 0.000000 0.000000 1.624880 
# 
# From -- ./inp_files/32437.got.cif
#   From: 2010.05.17/outbox.cif.g08.bks.cpg/sg51_17_cif.got.tgz:32437.got - 2010.06.03 11:52:47.
