data_PCOD9400517
_publ_section_title
;
Structure prediction by ZEFSAII (Michael W. Deem and Ramdas Pophale) SiO2 
 PCOD9400517
Probable space group: P M M A
;
_chemical_formula_sum "Si O2"
_cell_formula_units_Z 56
_cell_length_a 19.509099
_cell_length_b 7.320658
_cell_length_c 16.775948
_cell_angle_alpha 90.000000
_cell_angle_beta 90.000000
_cell_angle_gamma 90.000000
_cell_volume 2395.931527
_symmetry_space_group_name_H-M "P M M A"
_symmetry_group_IT_number 51
_symmetry_cell_setting 'orthorhombic'
loop_
_space_group_symop_operation_xyz
x,y,z
1/2-x,-y,z
1/2+x,-y,-z
-x,y,-z
-x,-y,-z
1/2+x,y,-z
1/2-x,y,z
x,-y,z
loop_
_atom_site_type_symbol
_atom_site_label
_atom_site_fract_x
_atom_site_fract_y
_atom_site_fract_z
Si Si1 0.451975 0.220569 0.830510
Si Si2 0.919744 0.208550 0.922357
Si Si3 0.889446 0.277208 0.602304
Si Si4 0.328125 0.278948 0.228622
Si Si5 0.963194 0.288365 0.353299
Si Si6 0.328287 0.777151 0.931740
Si Si7 0.826699 0.277172 0.434081
O O1 0.506862 0.287090 0.896347
O O2 0.471137 0.280407 0.741912
O O3 0.375674 0.273972 0.856795
O O4 0.455696 0.000000 0.830445
O O5 0.876734 0.209420 0.840820
O O6 0.932884 0.000000 0.947681
O O7 0.870850 0.286444 0.990702
O O8 0.890515 0.500000 0.602575
O O9 0.853270 0.221157 0.684220
O O10 0.848404 0.224061 0.523722
O O11 0.968296 0.212768 0.605732
O O12 0.250000 0.223235 0.214725
O O13 0.331104 0.500000 0.226321
O O14 0.961599 0.500000 0.378017
O O15 0.889340 0.213273 0.378566
O O16 0.250000 0.713867 0.930091
O O17 0.325642 0.000000 0.934345
O O18 0.750000 0.214672 0.414089
O O19 0.824586 0.500000 0.431237
#
# Coordination Sequence:
#
# PCOD9400517 Si02
#       7
#     8   8   8   8   8   8   8
#     4  10  20  34  53  76 101 132 169 206 249 301
#     4  10  19  33  53  75 100 129 166 208 250 295
#     4   9  16  29  48  71 101 132 164 201 244 293
#     4  10  19  30  48  75 105 134 162 198 248 303
#     4  10  19  32  52  76 101 131 168 207 249 297
#     4   9  18  33  53  75  98 129 171 213 248 290
#     4   9  17  29  48  75 102 129 167 213 251 286
#
# _framework density 23.372952999999999
#
# number of rings (size 3 to 8) (size 9 to 14) (size 15 to 20)
#    0.000    2.429    1.429    1.714    0.000    6.571 
#    0.000    0.714    0.000    5.143    0.000    0.000 
#    0.000    0.000    0.000    0.000    0.000    0.000 
#
# Total GULP energy -312983.261954 kJ/mol
# GULP energy per Si atom -5588.986821 kJ/mol
# Density = 2.331976 g / cm^3
# Si number density = 23.372953 Si / 1000 Ang^3
#
#
#
# Elastic Constant Matrix: (Units=GPa)
#
#
# Indices 1 2 3 4 5 6 
#
# 1 170.2350 4.3408 2.0912 0.0000 0.0000 0.0000
# 2 4.3408 92.9589 -11.2771 0.0000 0.0000 0.0000
# 3 2.0912 -11.2771 12.5522 0.0000 0.0000 0.0000
# 4 0.0000 0.0000 0.0000 10.8816 0.0000 0.0000
# 5 0.0000 0.0000 0.0000 0.0000 29.2849 0.0000
# 6 0.0000 0.0000 0.0000 0.0000 0.0000 -3.6325
#
#
#
# Elastic Compliance Matrix: (Units=1/GPa)
#
#
# Indices 1 2 3 4 5 6 
#
# 1 0.005903 -0.000443 -0.001382 0.000000 0.000000 0.000000
# 2 -0.000443 0.012107 0.010951 0.000000 0.000000 0.000000
# 3 -0.001382 0.010951 0.089736 0.000000 0.000000 0.000000
# 4 0.000000 0.000000 0.000000 0.091898 0.000000 0.000000
# 5 0.000000 0.000000 0.000000 0.000000 0.034147 0.000000
# 6 0.000000 0.000000 0.000000 0.000000 0.000000 -0.275291
#
#
# Mechanical properties :
#
#
# Convention : Reuss Voigt Hill
#
# Bulk Modulus (GPa) = 7.93673 29.56175 18.74924
# Shear Modulus (GPa) = -281.63238 26.01287 -127.80976
#
# Velocity S-wave (km/s) = -10.98893 3.33971 -7.40280
# Velocity P-wave (km/s) = 12.55411 5.24851 8.06408
#
# Compressibility (1/GPa) = 0.12599653
#
# Stress axis : x y z
#
# Youngs Moduli (GPa) = 169.41957 82.59964 11.14383
#
# Poissons Ratio (x) = 0.03661 0.01540
# Poissons Ratio (y) = 0.07509 -0.12203
# Poissons Ratio (z) = 0.23406 -0.90452
#
# Static dielectric constant tensor:
#      x y z
#    x 1.863500 0.000000 0.000000 
#    y 0.000000 1.989790 0.000000 
#    z 0.000000 0.000000 1.810220 
# 
# From -- ./inp_files/25631.got.cif
#   From: 2010.05.17/outbox.cif.g08.bks.cpg/sg51_13_cif.got.tgz:25631.got - 2010.06.03 11:52:47.
