data_PCOD9400999
_publ_section_title
;
Structure prediction by ZEFSAII (Michael W. Deem and Ramdas Pophale) SiO2 
 PCOD9400999
Probable space group: P M M A
;
_chemical_formula_sum "Si O2"
_cell_formula_units_Z 64
_cell_length_a 9.427342
_cell_length_b 19.499775
_cell_length_c 18.583831
_cell_angle_alpha 90.000000
_cell_angle_beta 90.000000
_cell_angle_gamma 90.000000
_cell_volume 3416.285126
_symmetry_space_group_name_H-M "P M M A"
_symmetry_group_IT_number 51
_symmetry_cell_setting 'orthorhombic'
loop_
_space_group_symop_operation_xyz
x,y,z
1/2-x,-y,z
1/2+x,-y,-z
-x,y,-z
-x,-y,-z
1/2+x,y,-z
1/2-x,y,z
x,-y,z
loop_
_atom_site_type_symbol
_atom_site_label
_atom_site_fract_x
_atom_site_fract_y
_atom_site_fract_z
Si Si1 0.913630 0.079463 0.278380
Si Si2 0.907618 0.579721 0.806488
Si Si3 0.409901 0.219710 0.933487
Si Si4 0.079328 0.575260 0.363560
Si Si5 0.418416 0.796082 0.214003
Si Si6 0.905923 0.381260 0.064153
Si Si7 0.921049 0.272819 0.634120
Si Si8 0.084580 0.144232 0.568162
O O1 0.750000 0.096586 0.257494
O O2 0.922847 0.093983 0.363643
O O3 0.023915 0.130936 0.242269
O O4 0.939339 0.000000 0.262477
O O5 0.750000 0.610838 0.814858
O O6 0.899775 0.500000 0.827549
O O7 0.944224 0.579459 0.722454
O O8 0.018535 0.612615 0.859411
O O9 0.250000 0.190830 0.927093
O O10 0.496130 0.216833 0.859064
O O11 0.392987 0.300350 0.950066
O O12 0.500000 0.189338 0.000000
O O13 0.250000 0.573631 0.373536
O O14 0.024698 0.500000 0.388772
O O15 0.032460 0.650464 0.389497
O O16 0.250000 0.796445 0.201271
O O17 0.445980 0.742882 0.280353
O O18 0.750000 0.412156 0.065585
O O19 0.000000 0.411311 0.000000
O O20 0.750000 0.266325 0.623637
O O21 0.006863 0.214672 0.592013
O O22 0.250000 0.156669 0.551668
O O23 0.000000 0.116574 0.500000
#
# Coordination Sequence:
#
# PCOD9400999 Si02
#       8
#     8   8   8   8   8   8   8   8
#     4   9  19  36  56  79 109 143 174 204 242 289
#     4   9  17  29  44  61  83 113 149 191 242 301
#     4  10  20  33  49  70  96 127 165 211 261 309
#     4   8  14  26  46  70  93 120 157 201 249 299
#     4  10  19  31  51  78 105 135 171 211 254 302
#     4  10  20  31  43  59  81 112 151 196 246 299
#     4   9  17  30  50  75 102 133 169 209 253 302
#     4  10  20  34  53  78 108 140 173 207 244 289
#
# _framework density 18.733799999999999
#
# number of rings (size 3 to 8) (size 9 to 14) (size 15 to 20)
#    0.000    2.625    0.000    3.000    0.000    4.500 
#    0.000    0.625    0.000    1.875    0.000    0.000 
#    0.000    0.000    0.000    0.000    0.000    0.000 
#
# Total GULP energy -356583.389349 kJ/mol
# GULP energy per Si atom -5571.615459 kJ/mol
# Density = 1.869116 g / cm^3
# Si number density = 18.733800 Si / 1000 Ang^3
#
#
#
# Elastic Constant Matrix: (Units=GPa)
#
#
# Indices 1 2 3 4 5 6 
#
# 1 79.6960 8.5823 22.7585 0.0000 0.0000 0.0000
# 2 8.5823 64.7847 -12.0021 0.0000 0.0000 0.0000
# 3 22.7585 -12.0021 30.9427 0.0000 0.0000 0.0000
# 4 0.0000 0.0000 0.0000 6.3724 0.0000 0.0000
# 5 0.0000 0.0000 0.0000 0.0000 21.6290 0.0000
# 6 0.0000 0.0000 0.0000 0.0000 0.0000 16.2700
#
#
#
# Elastic Compliance Matrix: (Units=1/GPa)
#
#
# Indices 1 2 3 4 5 6 
#
# 1 0.017266 -0.004999 -0.014639 0.000000 0.000000 0.000000
# 2 -0.004999 0.018078 0.010689 0.000000 0.000000 0.000000
# 3 -0.014639 0.010689 0.047231 0.000000 0.000000 0.000000
# 4 0.000000 0.000000 0.000000 0.156926 0.000000 0.000000
# 5 0.000000 0.000000 0.000000 0.000000 0.046234 0.000000
# 6 0.000000 0.000000 0.000000 0.000000 0.000000 0.061463
#
#
# Mechanical properties :
#
#
# Convention : Reuss Voigt Hill
#
# Bulk Modulus (GPa) = 15.46119 23.78898 19.62508
# Shear Modulus (GPa) = 12.93142 19.25992 16.09567
#
# Velocity S-wave (km/s) = 2.63015 3.20985 2.93435
# Velocity P-wave (km/s) = 4.18266 5.14427 4.68819
#
# Compressibility (1/GPa) = 0.06467806
#
# Stress axis : x y z
#
# Youngs Moduli (GPa) = 57.91605 55.31485 21.17263
#
# Poissons Ratio (x) = 0.27654 0.30994
# Poissons Ratio (y) = 0.28954 -0.22632
# Poissons Ratio (z) = 0.84781 -0.59127
#
# Static dielectric constant tensor:
#      x y z
#    x 1.658400 0.000000 0.000000 
#    y 0.000000 1.671380 0.000000 
#    z 0.000000 0.000000 1.641770 
# 
# From -- ./inp_files/28349.got.cif
#   From: 2010.05.17/outbox.cif.g08.bks.cpg/sg51_15_cif.got.tgz:28349.got - 2010.06.03 11:52:47.
