data_PCOD9400092
_publ_section_title
;
Structure prediction by ZEFSAII (Michael W. Deem and Ramdas Pophale) SiO2 
 PCOD9400092
Probable space group: P M M A
;
_chemical_formula_sum "Si O2"
_cell_formula_units_Z 36
_cell_length_a 8.726309
_cell_length_b 18.878697
_cell_length_c 14.606656
_cell_angle_alpha 90.000000
_cell_angle_beta 90.000000
_cell_angle_gamma 90.000000
_cell_volume 2406.320134
_symmetry_space_group_name_H-M "P M M A"
_symmetry_group_IT_number 51
_symmetry_cell_setting 'orthorhombic'
loop_
_space_group_symop_operation_xyz
x,y,z
1/2-x,-y,z
1/2+x,-y,-z
-x,y,-z
-x,-y,-z
1/2+x,y,-z
1/2-x,y,z
x,-y,z
loop_
_atom_site_type_symbol
_atom_site_label
_atom_site_fract_x
_atom_site_fract_y
_atom_site_fract_z
Si Si1 0.434869 0.862008 0.217400
Si Si2 0.933262 0.917399 0.401543
Si Si3 0.565144 0.000000 0.898256
Si Si4 0.433725 0.577390 0.896768
Si Si5 0.933895 0.723565 0.897144
O O1 0.250000 0.863455 0.224237
O O2 0.504129 0.871704 0.317727
O O3 0.478783 0.790148 0.165248
O O4 0.483075 0.929794 0.156690
O O5 0.750000 0.914610 0.404300
O O6 0.000000 0.896209 0.500000
O O7 0.979763 0.000000 0.386008
O O8 0.750000 0.000000 0.902946
O O9 0.500000 0.000000 0.000000
O O10 0.250000 0.583703 0.900668
O O11 0.471286 0.500000 0.855198
O O12 0.504471 0.649163 0.857148
O O13 0.500000 0.575636 0.000000
O O14 0.750000 0.720696 0.903616
O O15 0.000000 0.732316 0.000000
#
# Coordination Sequence:
#
# PCOD9400092 Si02
#       5
#     8   8   4   8   8
#     4  10  20  33  47  64  89 120 152 188 227 266
#     4  10  20  33  51  71  88 111 144 186 233 277
#     4  10  20  32  45  60  85 120 155 190 220 254
#     4   9  16  26  41  60  83 114 150 186 224 265
#     4  10  19  29  43  64  90 122 155 188 226 264
#
# _framework density 14.960603000000001
#
# number of rings (size 3 to 8) (size 9 to 14) (size 15 to 20)
#    0.000    2.222    1.111    4.000    0.000    4.889 
#    0.000    0.000    0.000    0.000    0.000    0.000 
#    0.000    0.889    0.000    2.889    0.000    4.667 
#
# Total GULP energy -200695.157765 kJ/mol
# GULP energy per Si atom -5574.865493 kJ/mol
# Density = 1.492655 g / cm^3
# Si number density = 14.960603 Si / 1000 Ang^3
#
#
#
# Elastic Constant Matrix: (Units=GPa)
#
#
# Indices 1 2 3 4 5 6 
#
# 1 36.6133 41.9418 28.6259 0.0000 0.0000 0.0000
# 2 41.9418 152.6305 64.2177 0.0000 0.0000 0.0000
# 3 28.6259 64.2177 96.1897 0.0000 0.0000 0.0000
# 4 0.0000 0.0000 0.0000 5.0247 0.0000 0.0000
# 5 0.0000 0.0000 0.0000 0.0000 24.5028 0.0000
# 6 0.0000 0.0000 0.0000 0.0000 0.0000 22.5860
#
#
#
# Elastic Compliance Matrix: (Units=1/GPa)
#
#
# Indices 1 2 3 4 5 6 
#
# 1 0.042835 -0.008910 -0.006799 0.000000 0.000000 0.000000
# 2 -0.008910 0.010964 -0.004668 0.000000 0.000000 0.000000
# 3 -0.006799 -0.004668 0.015536 0.000000 0.000000 0.000000
# 4 0.000000 0.000000 0.000000 0.199017 0.000000 0.000000
# 5 0.000000 0.000000 0.000000 0.000000 0.040812 0.000000
# 6 0.000000 0.000000 0.000000 0.000000 0.000000 0.044275
#
#
# Mechanical properties :
#
#
# Convention : Reuss Voigt Hill
#
# Bulk Modulus (GPa) = 34.98886 61.66715 48.32800
# Shear Modulus (GPa) = 12.38476 20.46591 16.42534
#
# Velocity S-wave (km/s) = 2.88032 3.70264 3.31706
# Velocity P-wave (km/s) = 5.87365 7.71937 6.85888
#
# Compressibility (1/GPa) = 0.02858053
#
# Stress axis : x y z
#
# Youngs Moduli (GPa) = 23.34524 91.20452 64.36585
#
# Poissons Ratio (x) = 0.81265 0.43763
# Poissons Ratio (y) = 0.20801 0.30048
# Poissons Ratio (z) = 0.15873 0.42577
#
# Static dielectric constant tensor:
#      x y z
#    x 1.502620 0.000000 0.000000 
#    y 0.000000 1.532480 0.000000 
#    z 0.000000 0.000000 1.457290 
# 
# From -- ./inp_files/14172.got.cif
#   From: 2010.05.17/outbox.cif.g08.bks.cpg/sg51_8_cif.got.tgz:14172.got - 2010.06.03 11:52:47.
