data_PCOD9400368
_publ_section_title
;
Structure prediction by ZEFSAII (Michael W. Deem and Ramdas Pophale) SiO2 
 PCOD9400368
Probable space group: P M M A
;
_chemical_formula_sum "Si O2"
_cell_formula_units_Z 48
_cell_length_a 31.441783
_cell_length_b 7.973271
_cell_length_c 10.617500
_cell_angle_alpha 90.000000
_cell_angle_beta 90.000000
_cell_angle_gamma 90.000000
_cell_volume 2661.742022
_symmetry_space_group_name_H-M "P M M A"
_symmetry_group_IT_number 51
_symmetry_cell_setting 'orthorhombic'
loop_
_space_group_symop_operation_xyz
x,y,z
1/2-x,-y,z
1/2+x,-y,-z
-x,y,-z
-x,-y,-z
1/2+x,y,-z
1/2-x,y,z
x,-y,z
loop_
_atom_site_type_symbol
_atom_site_label
_atom_site_fract_x
_atom_site_fract_y
_atom_site_fract_z
Si Si1 0.112810 0.702989 0.017716
Si Si2 0.111832 0.699900 0.726236
Si Si3 0.203771 0.800156 0.740041
Si Si4 0.795477 0.697054 0.970653
Si Si5 0.522141 0.201781 0.372972
Si Si6 0.975384 0.798380 0.876974
O O1 0.114367 0.500000 0.013524
O O2 0.158575 0.766148 0.067522
O O3 0.073700 0.756145 0.103041
O O4 0.106645 0.762113 0.872093
O O5 0.111063 0.500000 0.730688
O O6 0.158718 0.753170 0.679126
O O7 0.071829 0.758680 0.645051
O O8 0.250000 0.757109 0.680779
O O9 0.203373 0.000000 0.759960
O O10 0.203401 0.713176 0.877220
O O11 0.750000 0.771699 0.929395
O O12 0.794795 0.500000 0.938401
O O13 0.500000 0.265704 0.500000
O O14 0.497094 0.266372 0.249908
O O15 0.518303 0.000000 0.373773
O O16 0.979645 0.000000 0.876220
O O17 0.000000 0.732596 0.000000
#
# Coordination Sequence:
#
# PCOD9400368 Si02
#       6
#     8   8   8   8   8   8
#     4   9  17  27  43  68  93 122 155 191 233 274
#     4  10  19  30  46  68  95 126 158 194 237 280
#     4   9  16  25  40  64  93 124 157 192 232 279
#     4   8  14  25  39  59  91 125 154 186 230 280
#     4  10  21  36  51  68  93 125 159 198 244 287
#     4  10  19  31  48  69  91 120 156 193 233 278
#
# _framework density 18.033301999999999
#
# number of rings (size 3 to 8) (size 9 to 14) (size 15 to 20)
#    0.000    2.667    1.667    2.000    0.000    5.000 
#    0.000    0.000    0.000    0.000    0.000    1.167 
#    0.000    6.667    0.000    0.000    0.000    0.000 
#
# Total GULP energy -267238.790109 kJ/mol
# GULP energy per Si atom -5567.474794 kJ/mol
# Density = 1.799226 g / cm^3
# Si number density = 18.033302 Si / 1000 Ang^3
#
#
#
# Elastic Constant Matrix: (Units=GPa)
#
#
# Indices 1 2 3 4 5 6 
#
# 1 205.7167 -0.3592 63.5606 0.0000 0.0000 0.0000
# 2 -0.3592 16.2548 12.7458 0.0000 0.0000 0.0000
# 3 63.5606 12.7458 66.5632 0.0000 0.0000 0.0000
# 4 0.0000 0.0000 0.0000 11.0671 0.0000 0.0000
# 5 0.0000 0.0000 0.0000 0.0000 15.1535 0.0000
# 6 0.0000 0.0000 0.0000 0.0000 0.0000 27.9752
#
#
#
# Elastic Compliance Matrix: (Units=1/GPa)
#
#
# Indices 1 2 3 4 5 6 
#
# 1 0.007482 0.006786 -0.008444 0.000000 0.000000 0.000000
# 2 0.006786 0.078545 -0.021520 0.000000 0.000000 0.000000
# 3 -0.008444 -0.021520 0.027207 0.000000 0.000000 0.000000
# 4 0.000000 0.000000 0.000000 0.090358 0.000000 0.000000
# 5 0.000000 0.000000 0.000000 0.000000 0.065991 0.000000
# 6 0.000000 0.000000 0.000000 0.000000 0.000000 0.035746
#
#
# Mechanical properties :
#
#
# Convention : Reuss Voigt Hill
#
# Bulk Modulus (GPa) = 14.95255 48.93656 31.94455
# Shear Modulus (GPa) = 13.36979 25.01166 19.19072
#
# Velocity S-wave (km/s) = 2.72581 3.72825 3.26572
# Velocity P-wave (km/s) = 4.26806 6.76230 5.65443
#
# Compressibility (1/GPa) = 0.06687824
#
# Stress axis : x y z
#
# Youngs Moduli (GPa) = 133.65791 12.73155 36.75526
#
# Poissons Ratio (x) = -0.08640 0.31035
# Poissons Ratio (y) = -0.90705 0.79099
# Poissons Ratio (z) = 1.12858 0.27399
#
# Static dielectric constant tensor:
#      x y z
#    x 1.688550 0.000000 0.000000 
#    y 0.000000 1.649050 0.000000 
#    z 0.000000 0.000000 1.587800 
# 
# From -- ./inp_files/12835.got.cif
#   From: 2010.05.17/outbox.cif.g08.bks.cpg/sg51_7_cif.got.tgz:12835.got - 2010.06.03 11:52:47.
