data_PCOD9400346
_publ_section_title
;
Structure prediction by ZEFSAII (Michael W. Deem and Ramdas Pophale) SiO2 
 PCOD9400346
Probable space group: P M M A
;
_chemical_formula_sum "Si O2"
_cell_formula_units_Z 64
_cell_length_a 24.126360
_cell_length_b 8.056187
_cell_length_c 19.850978
_cell_angle_alpha 90.000000
_cell_angle_beta 90.000000
_cell_angle_gamma 90.000000
_cell_volume 3858.364476
_symmetry_space_group_name_H-M "P M M A"
_symmetry_group_IT_number 51
_symmetry_cell_setting 'orthorhombic'
loop_
_space_group_symop_operation_xyz
x,y,z
1/2-x,-y,z
1/2+x,-y,-z
-x,y,-z
-x,-y,-z
1/2+x,y,-z
1/2-x,y,z
x,-y,z
loop_
_atom_site_type_symbol
_atom_site_label
_atom_site_fract_x
_atom_site_fract_y
_atom_site_fract_z
Si Si1 0.501010 0.803110 0.250661
Si Si2 0.087305 0.299684 0.976403
Si Si3 0.187186 0.199478 0.888938
Si Si4 0.523780 0.300577 0.603811
Si Si5 0.127879 0.798994 0.752040
Si Si6 0.187227 0.700425 0.614019
Si Si7 0.586756 0.297204 0.474598
Si Si8 0.979017 0.699556 0.895709
O O1 0.471108 0.750979 0.319224
O O2 0.564466 0.736167 0.251032
O O3 0.472655 0.750938 0.181118
O O4 0.504971 0.000000 0.250765
O O5 0.087007 0.500000 0.975878
O O6 0.146361 0.242165 0.949989
O O7 0.038797 0.242674 0.924729
O O8 0.067142 0.244295 0.050413
O O9 0.250000 0.262238 0.895769
O O10 0.158434 0.260312 0.819821
O O11 0.189741 0.000000 0.884187
O O12 0.523494 0.500000 0.601605
O O13 0.569703 0.243514 0.549772
O O14 0.463960 0.245450 0.574310
O O15 0.161301 0.746655 0.685999
O O16 0.126557 0.000000 0.753846
O O17 0.250000 0.762787 0.607499
O O18 0.188770 0.500000 0.610280
O O19 0.144535 0.760121 0.556637
O O20 0.587257 0.500000 0.474454
O O21 0.979817 0.500000 0.898251
#
# Coordination Sequence:
#
# PCOD9400346 Si02
#       8
#     8   8   8   8   8   8   8   8
#     4  11  20  29  45  71  95 120 153 189 227 268
#     4   9  18  32  49  69  91 117 154 196 233 270
#     4  10  20  33  47  64  92 130 164 189 220 267
#     4   9  16  29  48  63  85 120 151 183 225 276
#     4  10  20  32  43  61  94 131 159 183 217 264
#     4  10  19  30  46  67  89 116 155 196 224 256
#     4   8  15  28  45  65  86 115 152 185 226 271
#     4   9  18  32  49  68  92 121 150 187 237 283
#
# _framework density 16.587340000000001
#
# number of rings (size 3 to 8) (size 9 to 14) (size 15 to 20)
#    0.000    2.500    2.500    2.250    0.000    2.500 
#    0.000    3.125    0.000    0.000    0.000    0.875 
#    0.000    5.000    0.000    0.000    0.000    0.000 
#
# Total GULP energy -356827.144787 kJ/mol
# GULP energy per Si atom -5575.424137 kJ/mol
# Density = 1.654959 g / cm^3
# Si number density = 16.587340 Si / 1000 Ang^3
#
#
#
# Elastic Constant Matrix: (Units=GPa)
#
#
# Indices 1 2 3 4 5 6 
#
# 1 95.5350 5.6328 71.1802 0.0000 0.0000 0.0000
# 2 5.6328 7.9721 6.9277 0.0000 0.0000 0.0000
# 3 71.1802 6.9277 157.7423 0.0000 0.0000 0.0000
# 4 0.0000 0.0000 0.0000 49.7249 0.0000 0.0000
# 5 0.0000 0.0000 0.0000 0.0000 19.8320 0.0000
# 6 0.0000 0.0000 0.0000 0.0000 0.0000 14.8691
#
#
#
# Elastic Compliance Matrix: (Units=1/GPa)
#
#
# Indices 1 2 3 4 5 6 
#
# 1 0.015975 -0.005223 -0.006979 0.000000 0.000000 0.000000
# 2 -0.005223 0.132122 -0.003446 0.000000 0.000000 0.000000
# 3 -0.006979 -0.003446 0.009640 0.000000 0.000000 0.000000
# 4 0.000000 0.000000 0.000000 0.020111 0.000000 0.000000
# 5 0.000000 0.000000 0.000000 0.000000 0.050423 0.000000
# 6 0.000000 0.000000 0.000000 0.000000 0.000000 0.067253
#
#
# Mechanical properties :
#
#
# Convention : Reuss Voigt Hill
#
# Bulk Modulus (GPa) = 7.90877 47.63676 27.77277
# Shear Modulus (GPa) = 13.55130 28.71913 21.13521
#
# Velocity S-wave (km/s) = 2.86136 4.16551 3.57343
# Velocity P-wave (km/s) = 3.96167 7.20530 5.81426
#
# Compressibility (1/GPa) = 0.12644193
#
# Stress axis : x y z
#
# Youngs Moduli (GPa) = 62.59595 7.56876 103.73198
#
# Poissons Ratio (x) = 0.03953 0.72399
# Poissons Ratio (y) = 0.32691 0.35745
# Poissons Ratio (z) = 0.43689 0.02608
#
# Static dielectric constant tensor:
#      x y z
#    x 1.556860 0.000000 0.000000 
#    y 0.000000 1.589830 0.000000 
#    z 0.000000 0.000000 1.564870 
# 
# From -- ./inp_files/30925.got.cif
#   From: 2010.05.17/outbox.cif.g08.bks.cpg/sg51_16_cif.got.tgz:30925.got - 2010.06.03 11:52:47.
