data_PCOD9400492
_publ_section_title
;
Structure prediction by ZEFSAII (Michael W. Deem and Ramdas Pophale) SiO2 
 PCOD9400492
Probable space group: P M M A
;
_chemical_formula_sum "Si O2"
_cell_formula_units_Z 64
_cell_length_a 8.708016
_cell_length_b 22.979310
_cell_length_c 16.527086
_cell_angle_alpha 90.000000
_cell_angle_beta 90.000000
_cell_angle_gamma 90.000000
_cell_volume 3307.139308
_symmetry_space_group_name_H-M "P M M A"
_symmetry_group_IT_number 51
_symmetry_cell_setting 'orthorhombic'
loop_
_space_group_symop_operation_xyz
x,y,z
1/2-x,-y,z
1/2+x,-y,-z
-x,y,-z
-x,-y,-z
1/2+x,y,-z
1/2-x,y,z
x,-y,z
loop_
_atom_site_type_symbol
_atom_site_label
_atom_site_fract_x
_atom_site_fract_y
_atom_site_fract_z
Si Si1 0.572395 0.354298 0.912733
Si Si2 0.072512 0.271231 0.803564
Si Si3 0.432441 0.183186 0.416040
Si Si4 0.430209 0.310544 0.621781
Si Si5 0.922805 0.565634 0.218615
Si Si6 0.935436 0.851232 0.761409
Si Si7 0.934707 0.932478 0.913597
Si Si8 0.070537 0.434334 0.388283
O O1 0.750000 0.370309 0.913111
O O2 0.544161 0.292115 0.871741
O O3 0.474368 0.394755 0.853898
O O4 0.500000 0.355983 0.000000
O O5 0.250000 0.278158 0.828460
O O6 0.050546 0.307094 0.719749
O O7 0.031703 0.205426 0.784696
O O8 0.500000 0.160033 0.500000
O O9 0.250000 0.186247 0.422388
O O10 0.491781 0.250178 0.406128
O O11 0.468924 0.145032 0.335479
O O12 0.250000 0.307053 0.603210
O O13 0.493496 0.372367 0.588995
O O14 0.750000 0.579626 0.249413
O O15 0.917980 0.500000 0.188051
O O16 0.042042 0.566647 0.291965
O O17 0.750000 0.841455 0.766658
O O18 0.974229 0.899184 0.829795
O O19 0.750000 0.930776 0.919876
O O20 0.984051 0.000000 0.906919
O O21 0.000000 0.909609 0.000000
O O22 0.250000 0.432217 0.408930
O O23 0.011282 0.500000 0.412341
#
# Coordination Sequence:
#
# PCOD9400492 Si02
#       8
#     8   8   8   8   8   8   8   8
#     4  12  24  36  50  65  90 125 165 214 271 332
#     4  10  20  34  51  73 100 130 170 217 267 325
#     4  10  20  35  56  82 113 147 189 236 286 342
#     4  10  19  32  53  76 102 134 171 217 271 331
#     4  10  20  34  50  67  89 119 160 211 266 327
#     4   9  19  35  56  82 114 154 193 232 280 334
#     4   9  18  34  57  86 120 158 200 242 283 328
#     4  10  19  30  48  74 100 129 168 215 270 332
#
# _framework density 19.352072
#
# number of rings (size 3 to 8) (size 9 to 14) (size 15 to 20)
#    0.000    2.000    1.250    3.000    0.000    4.250 
#    0.000    1.250    0.000    0.750    0.000    0.000 
#    0.000    0.000    0.000    0.000    0.000    0.375 
#
# Total GULP energy -356704.337949 kJ/mol
# GULP energy per Si atom -5573.505280 kJ/mol
# Density = 1.930803 g / cm^3
# Si number density = 19.352072 Si / 1000 Ang^3
#
#
#
# Elastic Constant Matrix: (Units=GPa)
#
#
# Indices 1 2 3 4 5 6 
#
# 1 44.3647 20.1938 23.9384 0.0000 0.0000 0.0000
# 2 20.1938 69.8806 45.3065 0.0000 0.0000 0.0000
# 3 23.9384 45.3065 135.6728 0.0000 0.0000 0.0000
# 4 0.0000 0.0000 0.0000 -39.9813 0.0000 0.0000
# 5 0.0000 0.0000 0.0000 0.0000 24.3454 0.0000
# 6 0.0000 0.0000 0.0000 0.0000 0.0000 20.9386
#
#
#
# Elastic Compliance Matrix: (Units=1/GPa)
#
#
# Indices 1 2 3 4 5 6 
#
# 1 0.026722 -0.005954 -0.002726 0.000000 0.000000 0.000000
# 2 -0.005954 0.019591 -0.005492 0.000000 0.000000 0.000000
# 3 -0.002726 -0.005492 0.009686 0.000000 0.000000 0.000000
# 4 0.000000 0.000000 0.000000 -0.025012 0.000000 0.000000
# 5 0.000000 0.000000 0.000000 0.000000 0.041076 0.000000
# 6 0.000000 0.000000 0.000000 0.000000 0.000000 0.047759
#
#
# Mechanical properties :
#
#
# Convention : Reuss Voigt Hill
#
# Bulk Modulus (GPa) = 36.16140 47.64396 41.90268
# Shear Modulus (GPa) = 31.76939 11.75916 21.76428
#
# Velocity S-wave (km/s) = 4.05613 2.46772 3.35722
# Velocity P-wave (km/s) = 6.37674 5.72647 6.06034
#
# Compressibility (1/GPa) = 0.02765380
#
# Stress axis : x y z
#
# Youngs Moduli (GPa) = 37.42253 51.04315 103.24565
#
# Poissons Ratio (x) = 0.30393 0.28150
# Poissons Ratio (y) = 0.22282 0.56700
# Poissons Ratio (z) = 0.10203 0.28031
#
# Static dielectric constant tensor:
#      x y z
#    x 1.651100 0.000000 0.000000 
#    y 0.000000 1.704150 0.000000 
#    z 0.000000 0.000000 1.693600 
# 
# From -- ./inp_files/22223.got.cif
#   From: 2010.05.17/outbox.cif.g08.bks.cpg/sg51_12_cif.got.tgz:22223.got - 2010.06.03 11:52:47.
