data_PCOD9400292
_publ_section_title
;
Structure prediction by ZEFSAII (Michael W. Deem and Ramdas Pophale) SiO2 
 PCOD9400292
Probable space group: P M M A
;
_chemical_formula_sum "Si O2"
_cell_formula_units_Z 64
_cell_length_a 19.953907
_cell_length_b 9.107679
_cell_length_c 19.791336
_cell_angle_alpha 90.000000
_cell_angle_beta 90.000000
_cell_angle_gamma 90.000000
_cell_volume 3596.754298
_symmetry_space_group_name_H-M "P M M A"
_symmetry_group_IT_number 51
_symmetry_cell_setting 'orthorhombic'
loop_
_space_group_symop_operation_xyz
x,y,z
1/2-x,-y,z
1/2+x,-y,-z
-x,y,-z
-x,-y,-z
1/2+x,y,-z
1/2-x,y,z
x,-y,z
loop_
_atom_site_type_symbol
_atom_site_label
_atom_site_fract_x
_atom_site_fract_y
_atom_site_fract_z
Si Si1 0.463563 0.676108 0.652316
Si Si2 0.422578 0.828557 0.525931
Si Si3 0.327852 0.161164 0.119020
Si Si4 0.357837 0.667145 0.251035
Si Si5 0.393156 0.176294 0.379656
Si Si6 0.170519 0.673582 0.986642
Si Si7 0.043708 0.175322 0.934037
Si Si8 0.012252 0.333928 0.797633
O O1 0.474810 0.500000 0.647556
O O2 0.415050 0.729886 0.592357
O O3 0.532007 0.764704 0.636687
O O4 0.445425 0.708565 0.730504
O O5 0.500000 0.815586 0.500000
O O6 0.380492 0.790662 0.458654
O O7 0.412079 0.000000 0.542538
O O8 0.250000 0.142704 0.103101
O O9 0.330332 0.228903 0.192869
O O10 0.361011 0.000000 0.114454
O O11 0.350812 0.274367 0.062083
O O12 0.332790 0.500000 0.248535
O O13 0.349085 0.739926 0.324257
O O14 0.436721 0.661745 0.231452
O O15 0.390887 0.000000 0.370887
O O16 0.250000 0.704324 0.975345
O O17 0.161486 0.500000 0.980282
O O18 0.118671 0.759890 0.940054
O O19 0.014907 0.232374 0.862936
O O20 0.045960 0.000000 0.934736
O O21 0.000000 0.222393 0.000000
O O22 0.030811 0.500000 0.817969
#
# Coordination Sequence:
#
# PCOD9400292 Si02
#       8
#     8   8   8   8   8   8   8   8
#     4   9  16  25  38  57  82 113 149 187 225 267
#     4   8  14  23  35  53  78 111 148 182 220 266
#     4  10  20  33  49  68  90 117 150 189 231 275
#     4  10  19  30  45  65  90 121 156 192 231 274
#     4   9  16  25  37  55  82 115 149 184 222 267
#     4  10  21  37  56  75  96 126 162 200 244 290
#     4  11  23  35  50  74 100 128 163 201 244 293
#     4   9  19  32  44  63  91 122 154 189 233 281
#
# _framework density 17.793821999999999
#
# number of rings (size 3 to 8) (size 9 to 14) (size 15 to 20)
#    0.000    2.500    0.000    4.500    0.000   10.250 
#    0.000    0.000    0.000    0.000    0.000    0.000 
#    0.000    1.000    0.000    3.250    0.000    5.375 
#
# Total GULP energy -356300.200112 kJ/mol
# GULP energy per Si atom -5567.190627 kJ/mol
# Density = 1.775332 g / cm^3
# Si number density = 17.793822 Si / 1000 Ang^3
#
#
#
# Elastic Constant Matrix: (Units=GPa)
#
#
# Indices 1 2 3 4 5 6 
#
# 1 27.8833 18.7918 17.1689 0.0000 0.0000 0.0000
# 2 18.7918 81.4866 48.5956 0.0000 0.0000 0.0000
# 3 17.1689 48.5956 106.5965 0.0000 0.0000 0.0000
# 4 0.0000 0.0000 0.0000 36.7960 0.0000 0.0000
# 5 0.0000 0.0000 0.0000 0.0000 13.8595 0.0000
# 6 0.0000 0.0000 0.0000 0.0000 0.0000 -15.7451
#
#
#
# Elastic Compliance Matrix: (Units=1/GPa)
#
#
# Indices 1 2 3 4 5 6 
#
# 1 0.043306 -0.008003 -0.003327 0.000000 0.000000 0.000000
# 2 -0.008003 0.018333 -0.007069 0.000000 0.000000 0.000000
# 3 -0.003327 -0.007069 0.013140 0.000000 0.000000 0.000000
# 4 0.000000 0.000000 0.000000 0.027177 0.000000 0.000000
# 5 0.000000 0.000000 0.000000 0.000000 0.072153 0.000000
# 6 0.000000 0.000000 0.000000 0.000000 0.000000 -0.063512
#
#
# Mechanical properties :
#
#
# Convention : Reuss Voigt Hill
#
# Bulk Modulus (GPa) = 26.32857 42.78658 34.55757
# Shear Modulus (GPa) = 31.23961 15.74274 23.49118
#
# Velocity S-wave (km/s) = 4.19459 2.97767 3.63738
# Velocity P-wave (km/s) = 6.18773 5.99333 6.09130
#
# Compressibility (1/GPa) = 0.03798156
#
# Stress axis : x y z
#
# Youngs Moduli (GPa) = 23.09174 54.54620 76.10630
#
# Poissons Ratio (x) = 0.43653 0.25317
# Poissons Ratio (y) = 0.18480 0.53798
# Poissons Ratio (z) = 0.07682 0.38557
#
# Static dielectric constant tensor:
#      x y z
#    x 1.678870 0.000000 0.000000 
#    y 0.000000 1.612890 0.000000 
#    z 0.000000 0.000000 1.657060 
# 
# From -- ./inp_files/34186.got.cif
#   From: 2010.05.17/outbox.cif.g08.bks.cpg/sg51_18_cif.got.tgz:34186.got - 2010.06.03 11:52:47.
