data_PCOD9400103
_publ_section_title
;
Structure prediction by ZEFSAII (Michael W. Deem and Ramdas Pophale) SiO2 
 PCOD9400103
Probable space group: P M M A
;
_chemical_formula_sum "Si O2"
_cell_formula_units_Z 56
_cell_length_a 18.850127
_cell_length_b 13.155785
_cell_length_c 14.537646
_cell_angle_alpha 90.000000
_cell_angle_beta 90.000000
_cell_angle_gamma 90.000000
_cell_volume 3605.164926
_symmetry_space_group_name_H-M "P M M A"
_symmetry_group_IT_number 51
_symmetry_cell_setting 'orthorhombic'
loop_
_space_group_symop_operation_xyz
x,y,z
1/2-x,-y,z
1/2+x,-y,-z
-x,y,-z
-x,-y,-z
1/2+x,y,-z
1/2-x,y,z
x,-y,z
loop_
_atom_site_type_symbol
_atom_site_label
_atom_site_fract_x
_atom_site_fract_y
_atom_site_fract_z
Si Si1 0.957781 0.383961 0.205896
Si Si2 0.601272 0.622437 0.704846
Si Si3 0.833559 0.700809 0.315948
Si Si4 0.073356 0.240388 0.962096
Si Si5 0.834046 0.882570 0.180141
Si Si6 0.333850 0.379205 0.098624
Si Si7 0.334809 0.380679 0.486619
O O1 0.973872 0.500000 0.183909
O O2 0.883687 0.373665 0.258502
O O3 0.952760 0.321542 0.113237
O O4 0.021719 0.344614 0.269805
O O5 0.601578 0.500000 0.695961
O O6 0.649222 0.644204 0.794260
O O7 0.628973 0.658740 0.606494
O O8 0.750000 0.677179 0.304866
O O9 0.846646 0.810515 0.269031
O O10 0.850980 0.685025 0.422935
O O11 0.121991 0.162137 0.905404
O O12 0.119429 0.303799 0.036187
O O13 0.000000 0.194017 0.000000
O O14 0.750000 0.875198 0.159805
O O15 0.851494 0.000000 0.197457
O O16 0.250000 0.366783 0.080207
O O17 0.351085 0.500000 0.083249
O O18 0.250000 0.379338 0.472412
O O19 0.354391 0.500000 0.503645
#
# Coordination Sequence:
#
# PCOD9400103 Si02
#       7
#     8   8   8   8   8   8   8
#     4  10  19  29  43  65  97 132 160 191 226 266
#     4   9  17  28  42  63  94 133 166 189 218 256
#     4   9  18  31  47  68  91 118 151 191 241 287
#     4  11  20  31  48  70  96 123 158 195 238 280
#     4   9  19  36  54  71  91 114 148 197 246 292
#     4  10  19  30  45  67  98 136 170 194 220 264
#     4   9  16  27  44  67  96 126 157 192 224 264
#
# _framework density 15.533269000000001
#
# number of rings (size 3 to 8) (size 9 to 14) (size 15 to 20)
#    0.000    2.429    1.429    1.714    0.000    4.571 
#    0.000    2.143    0.000    0.000    0.000    9.000 
#    0.000    4.571    0.000    0.000    0.000    0.000 
#
# Total GULP energy -311872.733907 kJ/mol
# GULP energy per Si atom -5569.155963 kJ/mol
# Density = 1.549791 g / cm^3
# Si number density = 15.533269 Si / 1000 Ang^3
#
#
#
# Elastic Constant Matrix: (Units=GPa)
#
#
# Indices 1 2 3 4 5 6 
#
# 1 59.3051 28.7602 41.1093 0.0000 0.0000 0.0000
# 2 28.7602 54.9816 30.9353 0.0000 0.0000 0.0000
# 3 41.1093 30.9353 105.2208 0.0000 0.0000 0.0000
# 4 0.0000 0.0000 0.0000 7.9594 0.0000 0.0000
# 5 0.0000 0.0000 0.0000 0.0000 31.2012 0.0000
# 6 0.0000 0.0000 0.0000 0.0000 0.0000 11.0327
#
#
#
# Elastic Compliance Matrix: (Units=1/GPa)
#
#
# Indices 1 2 3 4 5 6 
#
# 1 0.026893 -0.009772 -0.007634 0.000000 0.000000 0.000000
# 2 -0.009772 0.025344 -0.003633 0.000000 0.000000 0.000000
# 3 -0.007634 -0.003633 0.013554 0.000000 0.000000 0.000000
# 4 0.000000 0.000000 0.000000 0.125638 0.000000 0.000000
# 5 0.000000 0.000000 0.000000 0.000000 0.032050 0.000000
# 6 0.000000 0.000000 0.000000 0.000000 0.000000 0.090639
#
#
# Mechanical properties :
#
#
# Convention : Reuss Voigt Hill
#
# Bulk Modulus (GPa) = 42.17159 46.79080 44.48119
# Shear Modulus (GPa) = 13.73248 17.95219 15.84233
#
# Velocity S-wave (km/s) = 2.97656 3.40328 3.19705
# Velocity P-wave (km/s) = 6.24670 6.75511 6.50587
#
# Compressibility (1/GPa) = 0.02371265
#
# Stress axis : x y z
#
# Youngs Moduli (GPa) = 37.18503 39.45738 73.77625
#
# Poissons Ratio (x) = 0.38558 0.56319
# Poissons Ratio (y) = 0.36337 0.26805
# Poissons Ratio (z) = 0.28386 0.14336
#
# Static dielectric constant tensor:
#      x y z
#    x 1.546520 0.000000 0.000000 
#    y 0.000000 1.491910 0.000000 
#    z 0.000000 0.000000 1.521450 
# 
# From -- ./inp_files/18221.got.cif
#   From: 2010.05.17/outbox.cif.g08.bks.cpg/sg51_10_cif.got.tgz:18221.got - 2010.06.03 11:52:47.
