data_PCOD9400525
_publ_section_title
;
Structure prediction by ZEFSAII (Michael W. Deem and Ramdas Pophale) SiO2 
 PCOD9400525
Probable space group: P M M A
;
_chemical_formula_sum "Si O2"
_cell_formula_units_Z 52
_cell_length_a 7.859365
_cell_length_b 14.112623
_cell_length_c 21.216552
_cell_angle_alpha 90.000000
_cell_angle_beta 90.000000
_cell_angle_gamma 90.000000
_cell_volume 2353.260497
_symmetry_space_group_name_H-M "P M M A"
_symmetry_group_IT_number 51
_symmetry_cell_setting 'orthorhombic'
loop_
_space_group_symop_operation_xyz
x,y,z
1/2-x,-y,z
1/2+x,-y,-z
-x,y,-z
-x,-y,-z
1/2+x,y,-z
1/2-x,y,z
x,-y,z
loop_
_atom_site_type_symbol
_atom_site_label
_atom_site_fract_x
_atom_site_fract_y
_atom_site_fract_z
Si Si1 0.544262 0.500000 0.073160
Si Si2 0.446421 0.888744 0.304533
Si Si3 0.050329 0.306026 0.864069
Si Si4 0.548788 0.894810 0.160678
Si Si5 0.448454 0.605771 0.592642
Si Si6 0.048356 0.608488 0.263346
Si Si7 0.057945 0.808443 0.432132
O O1 0.750000 0.500000 0.082542
O O2 0.478032 0.599507 0.102565
O O3 0.500000 0.500000 0.000000
O O4 0.250000 0.855893 0.295654
O O5 0.530623 0.880522 0.236195
O O6 0.526753 0.838303 0.365797
O O7 0.444727 0.000000 0.319809
O O8 0.250000 0.302177 0.880595
O O9 0.977648 0.199848 0.873030
O O10 0.031220 0.326841 0.789778
O O11 0.750000 0.897924 0.146875
O O12 0.476517 0.000000 0.146351
O O13 0.250000 0.612748 0.575468
O O14 0.511617 0.500000 0.576216
O O15 0.466461 0.615242 0.668156
O O16 0.547630 0.694627 0.565517
O O17 0.250000 0.626411 0.269492
O O18 0.025093 0.500000 0.242043
O O19 0.250000 0.841321 0.425106
O O20 0.000000 0.845152 0.500000
#
# Coordination Sequence:
#
# PCOD9400525 Si02
#       7
#     4   8   8   8   8   8   8
#     4  10  22  38  56  80 112 152 193 228 267 308
#     4   9  19  36  55  76 104 135 167 209 263 318
#     4  10  19  33  54  78 109 146 183 223 264 314
#     4   9  18  32  53  82 110 137 172 216 268 322
#     4  10  21  36  53  72  98 133 170 213 265 320
#     4  10  19  30  48  77 108 135 168 213 267 322
#     4  11  23  37  53  72  96 129 172 219 267 322
#
# _framework density 22.097003000000001
#
# number of rings (size 3 to 8) (size 9 to 14) (size 15 to 20)
#    0.000    2.154    0.769    2.308    0.000    7.077 
#    0.000    0.000    0.000    0.462    0.000    0.000 
#    0.000    0.000    0.000    0.000    0.000    0.000 
#
# Total GULP energy -290080.490010 kJ/mol
# GULP energy per Si atom -5578.470962 kJ/mol
# Density = 2.204671 g / cm^3
# Si number density = 22.097003 Si / 1000 Ang^3
#
#
#
# Elastic Constant Matrix: (Units=GPa)
#
#
# Indices 1 2 3 4 5 6 
#
# 1 25.5407 0.7517 -9.6709 0.0000 0.0000 0.0000
# 2 0.7517 178.1023 46.2730 0.0000 0.0000 0.0000
# 3 -9.6709 46.2730 44.7395 0.0000 0.0000 0.0000
# 4 0.0000 0.0000 0.0000 8.6713 0.0000 0.0000
# 5 0.0000 0.0000 0.0000 0.0000 18.1660 0.0000
# 6 0.0000 0.0000 0.0000 0.0000 0.0000 8.5346
#
#
#
# Elastic Compliance Matrix: (Units=1/GPa)
#
#
# Indices 1 2 3 4 5 6 
#
# 1 0.044322 -0.003660 0.013366 0.000000 0.000000 0.000000
# 2 -0.003660 0.007980 -0.009045 0.000000 0.000000 0.000000
# 3 0.013366 -0.009045 0.034596 0.000000 0.000000 0.000000
# 4 0.000000 0.000000 0.000000 0.115323 0.000000 0.000000
# 5 0.000000 0.000000 0.000000 0.000000 0.055048 0.000000
# 6 0.000000 0.000000 0.000000 0.000000 0.000000 0.117171
#
#
# Mechanical properties :
#
#
# Convention : Reuss Voigt Hill
#
# Bulk Modulus (GPa) = 11.33528 35.89890 23.61709
# Shear Modulus (GPa) = 12.42165 21.14295 16.78230
#
# Velocity S-wave (km/s) = 2.37353 3.09661 2.75886
# Velocity P-wave (km/s) = 3.55702 5.39135 4.56723
#
# Compressibility (1/GPa) = 0.08822011
#
# Stress axis : x y z
#
# Youngs Moduli (GPa) = 22.56229 125.31143 28.90546
#
# Poissons Ratio (x) = 0.45859 -0.38634
# Poissons Ratio (y) = 0.08257 0.26144
# Poissons Ratio (z) = -0.30156 1.13341
#
# Static dielectric constant tensor:
#      x y z
#    x 1.800280 0.000000 0.000000 
#    y 0.000000 1.911340 0.000000 
#    z 0.000000 0.000000 1.811660 
# 
# From -- ./inp_files/31737.got.cif
#   From: 2010.05.17/outbox.cif.g08.bks.cpg/sg51_16_cif.got.tgz:31737.got - 2010.06.03 11:52:47.
