data_PCOD9400496
_publ_section_title
;
Structure prediction by ZEFSAII (Michael W. Deem and Ramdas Pophale) SiO2 
 PCOD9400496
Probable space group: P M M A
;
_chemical_formula_sum "Si O2"
_cell_formula_units_Z 56
_cell_length_a 17.770556
_cell_length_b 14.095232
_cell_length_c 14.228267
_cell_angle_alpha 90.000000
_cell_angle_beta 90.000000
_cell_angle_gamma 90.000000
_cell_volume 3563.897877
_symmetry_space_group_name_H-M "P M M A"
_symmetry_group_IT_number 51
_symmetry_cell_setting 'orthorhombic'
loop_
_space_group_symop_operation_xyz
x,y,z
1/2-x,-y,z
1/2+x,-y,-z
-x,y,-z
-x,-y,-z
1/2+x,y,-z
1/2-x,y,z
x,-y,z
loop_
_atom_site_type_symbol
_atom_site_label
_atom_site_fract_x
_atom_site_fract_y
_atom_site_fract_z
Si Si1 0.609432 0.892467 0.145164
Si Si2 0.835636 0.109798 0.351910
Si Si3 0.163713 0.111071 0.064067
Si Si4 0.469156 0.386501 0.276600
Si Si5 0.664280 0.386552 0.580110
Si Si6 0.931560 0.280402 0.428196
Si Si7 0.474299 0.752735 0.106387
O O1 0.657611 0.882083 0.239018
O O2 0.655875 0.881058 0.049205
O O3 0.540844 0.819812 0.144688
O O4 0.578684 0.000000 0.143578
O O5 0.750000 0.131070 0.380744
O O6 0.893841 0.183382 0.395006
O O7 0.852044 0.000000 0.376012
O O8 0.250000 0.131295 0.091638
O O9 0.147220 0.000000 0.087496
O O10 0.101609 0.183720 0.103148
O O11 0.478614 0.500000 0.270338
O O12 0.391732 0.366100 0.333298
O O13 0.534546 0.340181 0.341236
O O14 0.466863 0.335808 0.175888
O O15 0.750000 0.355854 0.596780
O O16 0.663398 0.500000 0.567746
O O17 0.629412 0.339611 0.487387
O O18 0.000000 0.262569 0.500000
O O19 0.500000 0.727516 0.000000
#
# Coordination Sequence:
#
# PCOD9400496 Si02
#       7
#     8   8   8   8   8   8   8
#     4   9  16  29  48  71  97 126 162 202 242 288
#     4  10  19  30  48  74 101 129 160 194 239 298
#     4   9  17  29  47  72 100 127 160 206 250 285
#     4  10  20  34  51  73 100 130 167 211 253 292
#     4   9  18  33  54  77  96 120 161 210 256 297
#     4  10  19  33  52  73  98 129 162 203 251 296
#     4  10  19  31  49  73  98 134 171 199 239 295
#
# _framework density 15.713132
#
# number of rings (size 3 to 8) (size 9 to 14) (size 15 to 20)
#    0.000    2.429    1.429    1.714    0.000    6.286 
#    0.000    0.000    0.000    0.000    0.000    8.000 
#    0.000    0.000    0.000    0.000    0.000    0.000 
#
# Total GULP energy -312028.130664 kJ/mol
# GULP energy per Si atom -5571.930905 kJ/mol
# Density = 1.567737 g / cm^3
# Si number density = 15.713132 Si / 1000 Ang^3
#
#
#
# Elastic Constant Matrix: (Units=GPa)
#
#
# Indices 1 2 3 4 5 6 
#
# 1 101.6447 60.3724 36.1241 0.0000 0.0000 0.0000
# 2 60.3724 88.0628 52.4709 0.0000 0.0000 0.0000
# 3 36.1241 52.4709 70.1082 0.0000 0.0000 0.0000
# 4 0.0000 0.0000 0.0000 28.4797 0.0000 0.0000
# 5 0.0000 0.0000 0.0000 0.0000 9.5928 0.0000
# 6 0.0000 0.0000 0.0000 0.0000 0.0000 23.9388
#
#
#
# Elastic Compliance Matrix: (Units=1/GPa)
#
#
# Indices 1 2 3 4 5 6 
#
# 1 0.016596 -0.011339 -0.000065 0.000000 0.000000 0.000000
# 2 -0.011339 0.028242 -0.015295 0.000000 0.000000 0.000000
# 3 -0.000065 -0.015295 0.025744 0.000000 0.000000 0.000000
# 4 0.000000 0.000000 0.000000 0.035113 0.000000 0.000000
# 5 0.000000 0.000000 0.000000 0.000000 0.104244 0.000000
# 6 0.000000 0.000000 0.000000 0.000000 0.000000 0.041773
#
#
# Mechanical properties :
#
#
# Convention : Reuss Voigt Hill
#
# Bulk Modulus (GPa) = 58.18962 61.97226 60.08094
# Shear Modulus (GPa) = 16.08553 19.79216 17.93885
#
# Velocity S-wave (km/s) = 3.20300 3.55293 3.38249
# Velocity P-wave (km/s) = 7.12684 7.50709 7.31944
#
# Compressibility (1/GPa) = 0.01718520
#
# Stress axis : x y z
#
# Youngs Moduli (GPa) = 60.25517 35.40804 38.84378
#
# Poissons Ratio (x) = 0.40149 0.00252
# Poissons Ratio (y) = 0.68323 0.59410
# Poissons Ratio (z) = 0.00392 0.54156
#
# Static dielectric constant tensor:
#      x y z
#    x 1.523630 0.000000 0.000000 
#    y 0.000000 1.502110 0.000000 
#    z 0.000000 0.000000 1.516410 
# 
# From -- ./inp_files/24325.got.cif
#   From: 2010.05.17/outbox.cif.g08.bks.cpg/sg51_13_cif.got.tgz:24325.got - 2010.06.03 11:52:47.
