data_PCOD9400731
_publ_section_title
;
Structure prediction by ZEFSAII (Michael W. Deem and Ramdas Pophale) SiO2 
 PCOD9400731
Probable space group: P M M A
;
_chemical_formula_sum "Si O2"
_cell_formula_units_Z 64
_cell_length_a 32.077516
_cell_length_b 7.577520
_cell_length_c 12.774023
_cell_angle_alpha 90.000000
_cell_angle_beta 90.000000
_cell_angle_gamma 90.000000
_cell_volume 3104.956466
_symmetry_space_group_name_H-M "P M M A"
_symmetry_group_IT_number 51
_symmetry_cell_setting 'orthorhombic'
loop_
_space_group_symop_operation_xyz
x,y,z
1/2-x,-y,z
1/2+x,-y,-z
-x,y,-z
-x,-y,-z
1/2+x,y,-z
1/2-x,y,z
x,-y,z
loop_
_atom_site_type_symbol
_atom_site_label
_atom_site_fract_x
_atom_site_fract_y
_atom_site_fract_z
Si Si1 0.632100 0.292767 0.975145
Si Si2 0.062469 0.788054 0.865101
Si Si3 0.297588 0.715592 0.631091
Si Si4 0.388318 0.293825 0.250109
Si Si5 0.562493 0.788065 0.364394
Si Si6 0.797592 0.284412 0.130987
Si Si7 0.484136 0.212610 0.249681
Si Si8 0.132018 0.707238 0.475502
O O1 0.641264 0.500000 0.963159
O O2 0.588894 0.280590 0.039138
O O3 0.668419 0.218301 0.048838
O O4 0.627548 0.215227 0.859248
O O5 0.081237 0.736417 0.750361
O O6 0.013896 0.737654 0.848843
O O7 0.063638 0.000000 0.871257
O O8 0.250000 0.765713 0.605672
O O9 0.298871 0.500000 0.631656
O O10 0.306764 0.772355 0.750052
O O11 0.331590 0.781700 0.548977
O O12 0.376558 0.500000 0.250154
O O13 0.438458 0.287025 0.249821
O O14 0.372612 0.215253 0.359617
O O15 0.513916 0.737720 0.348181
O O16 0.588884 0.719425 0.460213
O O17 0.563680 0.000000 0.370516
O O18 0.750000 0.234313 0.105574
O O19 0.798879 0.500000 0.131560
O O20 0.480458 0.000000 0.249639
O O21 0.141164 0.500000 0.463478
#
# Coordination Sequence:
#
# PCOD9400731 Si02
#       8
#     8   8   8   8   8   8   8   8
#     4  10  19  31  48  70  99 132 162 195 237 284
#     4   8  17  33  51  72  93 117 155 205 249 287
#     4   8  14  26  47  74  97 118 152 197 241 286
#     4  10  22  34  43  66 102 133 165 202 234 273
#     4   8  17  33  51  72  93 117 155 205 249 287
#     4   8  14  26  47  74  97 118 152 197 241 286
#     4   8  18  36  52  69  92 124 164 203 246 288
#     4  10  19  31  48  70  99 132 162 195 237 284
#
# _framework density 20.612204999999999
#
# number of rings (size 3 to 8) (size 9 to 14) (size 15 to 20)
#    0.750    2.500    0.000    1.500    0.000    4.500 
#    0.000    5.625    0.000    4.500    0.000    3.500 
#    0.000    3.000    0.000    0.000    0.000    0.000 
#
# Total GULP energy -356444.530505 kJ/mol
# GULP energy per Si atom -5569.445789 kJ/mol
# Density = 2.056529 g / cm^3
# Si number density = 20.612205 Si / 1000 Ang^3
#
#
#
# Elastic Constant Matrix: (Units=GPa)
#
#
# Indices 1 2 3 4 5 6 
#
# 1 105.1907 2.1072 83.7468 0.0000 0.0000 0.0000
# 2 2.1072 43.5204 9.7929 0.0000 0.0000 0.0000
# 3 83.7468 9.7929 167.6516 0.0000 0.0000 0.0000
# 4 0.0000 0.0000 0.0000 -25.3760 0.0000 0.0000
# 5 0.0000 0.0000 0.0000 0.0000 -22.4155 0.0000
# 6 0.0000 0.0000 0.0000 0.0000 0.0000 63.7445
#
#
#
# Elastic Compliance Matrix: (Units=1/GPa)
#
#
# Indices 1 2 3 4 5 6 
#
# 1 0.015829 0.001026 -0.007967 0.000000 0.000000 0.000000
# 2 0.001026 0.023350 -0.001877 0.000000 0.000000 0.000000
# 3 -0.007967 -0.001877 0.010054 0.000000 0.000000 0.000000
# 4 0.000000 0.000000 0.000000 -0.039407 0.000000 0.000000
# 5 0.000000 0.000000 0.000000 0.000000 -0.044612 0.000000
# 6 0.000000 0.000000 0.000000 0.000000 0.000000 0.015688
#
#
# Mechanical properties :
#
#
# Convention : Reuss Voigt Hill
#
# Bulk Modulus (GPa) = 31.64682 56.40627 44.02654
# Shear Modulus (GPa) = 551.34619 17.90499 284.62559
#
# Velocity S-wave (km/s) = 16.37272 2.95050 11.76375
# Velocity P-wave (km/s) = 19.30824 6.24757 14.34992
#
# Compressibility (1/GPa) = 0.03159876
#
# Stress axis : x y z
#
# Youngs Moduli (GPa) = 63.17615 42.82599 99.46239
#
# Poissons Ratio (x) = -0.04395 0.79240
# Poissons Ratio (y) = -0.06484 0.18665
# Poissons Ratio (z) = 0.50332 0.08037
#
# Static dielectric constant tensor:
#      x y z
#    x 1.725230 0.000000 0.000000 
#    y 0.000000 1.779240 0.000000 
#    z 0.000000 0.000000 1.768660 
# 
# From -- ./inp_files/13187.got.cif
#   From: 2010.05.17/outbox.cif.g08.bks.cpg/sg51_7_cif.got.tgz:13187.got - 2010.06.03 11:52:47.
