data_PCOD9400540
_publ_section_title
;
Structure prediction by ZEFSAII (Michael W. Deem and Ramdas Pophale) SiO2 
 PCOD9400540
Probable space group: P M M A
;
_chemical_formula_sum "Si O2"
_cell_formula_units_Z 48
_cell_length_a 20.777723
_cell_length_b 20.191516
_cell_length_c 6.360431
_cell_angle_alpha 90.000000
_cell_angle_beta 90.000000
_cell_angle_gamma 90.000000
_cell_volume 2668.415319
_symmetry_space_group_name_H-M "P M M A"
_symmetry_group_IT_number 51
_symmetry_cell_setting 'orthorhombic'
loop_
_space_group_symop_operation_xyz
x,y,z
1/2-x,-y,z
1/2+x,-y,-z
-x,y,-z
-x,-y,-z
1/2+x,y,-z
1/2-x,y,z
x,-y,z
loop_
_atom_site_type_symbol
_atom_site_label
_atom_site_fract_x
_atom_site_fract_y
_atom_site_fract_z
Si Si1 0.437517 0.575693 0.852599
Si Si2 0.065638 0.141848 0.868381
Si Si3 0.323350 0.192892 0.148302
Si Si4 0.970301 0.000000 0.254308
Si Si5 0.500000 0.334297 0.500000
Si Si6 0.823549 0.671019 0.109545
Si Si7 0.388914 0.753322 0.534900
O O1 0.420662 0.500000 0.798044
O O2 0.462826 0.619031 0.659670
O O3 0.375813 0.614765 0.942349
O O4 0.500000 0.574037 0.000000
O O5 0.073928 0.200755 0.701514
O O6 0.064294 0.070756 0.756418
O O7 0.126226 0.148181 0.023626
O O8 0.000000 0.150751 0.000000
O O9 0.250000 0.170149 0.129543
O O10 0.346344 0.201432 0.385824
O O11 0.327005 0.266979 0.049491
O O12 0.000000 0.000000 0.500000
O O13 0.000000 0.000000 0.000000
O O14 0.556297 0.287213 0.590552
O O15 0.750000 0.646953 0.114606
O O16 0.843988 0.703352 0.333187
#
# Coordination Sequence:
#
# PCOD9400540 Si02
#       7
#     8   8   8   4   4   8   8
#     4  10  20  33  49  71 101 138 180 226 282 345
#     4  10  22  37  59  86 117 151 198 245 295 352
#     4  10  20  35  56  83 115 148 186 241 300 359
#     4  10  24  40  63  90 127 162 205 254 305 352
#     4  10  19  30  50  77 104 136 178 234 286 345
#     4   9  19  34  50  75 105 139 183 232 286 347
#     4  10  19  31  56  81 112 143 189 232 299 349
#
# _framework density 17.988205000000001
#
# number of rings (size 3 to 8) (size 9 to 14) (size 15 to 20)
#    0.000    2.167    0.000    2.750    5.833    5.667 
#    0.000    0.417    0.000    0.000    0.000    4.667 
#    0.000    0.000    0.000    0.000    0.000    0.000 
#
# Total GULP energy -267203.567137 kJ/mol
# GULP energy per Si atom -5566.740982 kJ/mol
# Density = 1.794726 g / cm^3
# Si number density = 17.988205 Si / 1000 Ang^3
#
#
#
# Elastic Constant Matrix: (Units=GPa)
#
#
# Indices 1 2 3 4 5 6 
#
# 1 147.8228 53.4764 37.5542 0.0000 0.0000 0.0000
# 2 53.4764 64.8967 13.9326 0.0000 0.0000 0.0000
# 3 37.5542 13.9326 56.9977 0.0000 0.0000 0.0000
# 4 0.0000 0.0000 0.0000 20.3952 0.0000 0.0000
# 5 0.0000 0.0000 0.0000 0.0000 20.4791 0.0000
# 6 0.0000 0.0000 0.0000 0.0000 0.0000 32.5685
#
#
#
# Elastic Compliance Matrix: (Units=1/GPa)
#
#
# Indices 1 2 3 4 5 6 
#
# 1 0.010969 -0.007902 -0.005295 0.000000 0.000000 0.000000
# 2 -0.007902 0.021955 -0.000161 0.000000 0.000000 0.000000
# 3 -0.005295 -0.000161 0.021073 0.000000 0.000000 0.000000
# 4 0.000000 0.000000 0.000000 0.049031 0.000000 0.000000
# 5 0.000000 0.000000 0.000000 0.000000 0.048830 0.000000
# 6 0.000000 0.000000 0.000000 0.000000 0.000000 0.030705
#
#
# Mechanical properties :
#
#
# Convention : Reuss Voigt Hill
#
# Bulk Modulus (GPa) = 36.65548 53.29375 44.97462
# Shear Modulus (GPa) = 22.89685 25.67216 24.28450
#
# Velocity S-wave (km/s) = 3.57162 3.78188 3.67825
# Velocity P-wave (km/s) = 6.11803 6.98295 6.56475
#
# Compressibility (1/GPa) = 0.02728105
#
# Stress axis : x y z
#
# Youngs Moduli (GPa) = 91.16911 45.54851 47.45443
#
# Poissons Ratio (x) = 0.35990 0.25129
# Poissons Ratio (y) = 0.72038 0.00762
# Poissons Ratio (z) = 0.48278 0.00731
#
# Static dielectric constant tensor:
#      x y z
#    x 1.610880 0.000000 0.000000 
#    y 0.000000 1.602140 0.000000 
#    z 0.000000 0.000000 1.646000 
# 
# From -- ./inp_files/2546.got.cif
#   From: 2010.05.17/outbox.cif.g08.bks.cpg/sg51_2_cif.got.tgz:2546.got - 2010.06.03 11:52:47.
