data_PCOD9400191
_publ_section_title
;
Structure prediction by ZEFSAII (Michael W. Deem and Ramdas Pophale) SiO2 
 PCOD9400191
Probable space group: P M M A
;
_chemical_formula_sum "Si O2"
_cell_formula_units_Z 52
_cell_length_a 8.970744
_cell_length_b 18.877635
_cell_length_c 25.380542
_cell_angle_alpha 90.000000
_cell_angle_beta 90.000000
_cell_angle_gamma 90.000000
_cell_volume 4298.104202
_symmetry_space_group_name_H-M "P M M A"
_symmetry_group_IT_number 51
_symmetry_cell_setting 'orthorhombic'
loop_
_space_group_symop_operation_xyz
x,y,z
1/2-x,-y,z
1/2+x,-y,-z
-x,y,-z
-x,-y,-z
1/2+x,y,-z
1/2-x,y,z
x,-y,z
loop_
_atom_site_type_symbol
_atom_site_label
_atom_site_fract_x
_atom_site_fract_y
_atom_site_fract_z
Si Si1 0.927562 0.415632 0.771491
Si Si2 0.421397 0.586113 0.661945
Si Si3 0.429839 0.232739 0.058697
Si Si4 0.071389 0.500000 0.942680
Si Si5 0.929109 0.923976 0.941895
Si Si6 0.922234 0.586334 0.554161
Si Si7 0.929200 0.639900 0.123763
O O1 0.750000 0.406675 0.774704
O O2 0.960231 0.500000 0.777949
O O3 0.986922 0.393959 0.713939
O O4 0.009091 0.373781 0.817867
O O5 0.250000 0.608788 0.666025
O O6 0.422444 0.500000 0.660542
O O7 0.494219 0.609991 0.607090
O O8 0.250000 0.239523 0.055138
O O9 0.467922 0.153534 0.080118
O O10 0.497639 0.292717 0.095777
O O11 0.500000 0.239467 0.000000
O O12 0.250000 0.500000 0.948088
O O13 0.029542 0.570182 0.910323
O O14 0.000000 0.500000 0.000000
O O15 0.750000 0.924075 0.946762
O O16 0.972158 0.000000 0.916509
O O17 0.000000 0.924503 0.000000
O O18 0.750000 0.607546 0.555224
O O19 0.925988 0.500000 0.554225
O O20 0.000000 0.609349 0.500000
O O21 0.750000 0.645984 0.124305
#
# Coordination Sequence:
#
# PCOD9400191 Si02
#       7
#     8   8   8   4   8   8   8
#     4  10  19  30  43  56  68  86 114 149 184 218
#     4   9  16  25  37  51  67  87 110 139 174 213
#     4  10  19  30  43  60  78  95 116 141 174 214
#     4  10  22  34  44  54  66  86 113 144 179 220
#     4   8  14  25  41  59  78  97 114 133 160 200
#     4   9  15  22  32  47  67  88 110 136 169 211
#     4  11  21  33  44  55  71  93 119 148 183 219
#
# _framework density 12.098357
#
# number of rings (size 3 to 8) (size 9 to 14) (size 15 to 20)
#    0.000    2.462    0.769    2.769    0.000    7.385 
#    0.000    0.000    0.000    0.000    0.000    0.000 
#    0.000    0.000    0.000    0.000    0.000    0.000 
#
# Total GULP energy -289585.114512 kJ/mol
# GULP energy per Si atom -5568.944510 kJ/mol
# Density = 1.207082 g / cm^3
# Si number density = 12.098357 Si / 1000 Ang^3
#
#
#
# Elastic Constant Matrix: (Units=GPa)
#
#
# Indices 1 2 3 4 5 6 
#
# 1 55.1637 31.0305 37.6695 0.0000 0.0000 0.0000
# 2 31.0305 78.3404 37.2148 0.0000 0.0000 0.0000
# 3 37.6695 37.2148 92.7750 0.0000 0.0000 0.0000
# 4 0.0000 0.0000 0.0000 0.9922 0.0000 0.0000
# 5 0.0000 0.0000 0.0000 0.0000 23.5805 0.0000
# 6 0.0000 0.0000 0.0000 0.0000 0.0000 9.7328
#
#
#
# Elastic Compliance Matrix: (Units=1/GPa)
#
#
# Indices 1 2 3 4 5 6 
#
# 1 0.027877 -0.006999 -0.008512 0.000000 0.000000 0.000000
# 2 -0.006999 0.017527 -0.004189 0.000000 0.000000 0.000000
# 3 -0.008512 -0.004189 0.015915 0.000000 0.000000 0.000000
# 4 0.000000 0.000000 0.000000 1.007835 0.000000 0.000000
# 5 0.000000 0.000000 0.000000 0.000000 0.042408 0.000000
# 6 0.000000 0.000000 0.000000 0.000000 0.000000 0.102745
#
#
# Mechanical properties :
#
#
# Convention : Reuss Voigt Hill
#
# Bulk Modulus (GPa) = 45.61908 48.67874 47.14891
# Shear Modulus (GPa) = 3.96507 14.88540 9.42523
#
# Velocity S-wave (km/s) = 1.81231 3.51146 2.79418
# Velocity P-wave (km/s) = 6.49369 7.53417 7.03320
#
# Compressibility (1/GPa) = 0.02192065
#
# Stress axis : x y z
#
# Youngs Moduli (GPa) = 35.87189 57.05530 62.83391
#
# Poissons Ratio (x) = 0.39931 0.53481
# Poissons Ratio (y) = 0.25106 0.26320
# Poissons Ratio (z) = 0.30532 0.23900
#
# Static dielectric constant tensor:
#      x y z
#    x 1.402790 0.000000 0.000000 
#    y 0.000000 1.395050 0.000000 
#    z 0.000000 0.000000 1.375410 
# 
# From -- ./inp_files/35056.got.cif
#   From: 2010.05.17/outbox.cif.g08.bks.cpg/sg51_18_cif.got.tgz:35056.got - 2010.06.03 11:52:47.
