data_PCOD9400912
_publ_section_title
;
Structure prediction by ZEFSAII (Michael W. Deem and Ramdas Pophale) SiO2 
 PCOD9400912
Probable space group: P M M A
;
_chemical_formula_sum "Si O2"
_cell_formula_units_Z 48
_cell_length_a 31.687707
_cell_length_b 7.448422
_cell_length_c 9.462144
_cell_angle_alpha 90.000000
_cell_angle_beta 90.000000
_cell_angle_gamma 90.000000
_cell_volume 2233.287530
_symmetry_space_group_name_H-M "P M M A"
_symmetry_group_IT_number 51
_symmetry_cell_setting 'orthorhombic'
loop_
_space_group_symop_operation_xyz
x,y,z
1/2-x,-y,z
1/2+x,-y,-z
-x,y,-z
-x,-y,-z
1/2+x,y,-z
1/2-x,y,z
x,-y,z
loop_
_atom_site_type_symbol
_atom_site_label
_atom_site_fract_x
_atom_site_fract_y
_atom_site_fract_z
Si Si1 0.459180 0.219115 0.588363
Si Si2 0.875868 0.779767 0.581546
Si Si3 0.297539 0.712395 0.929984
Si Si4 0.958379 0.780505 0.086679
Si Si5 0.702734 0.784418 0.398943
Si Si6 0.380565 0.791663 0.099253
O O1 0.500000 0.276920 0.500000
O O2 0.416592 0.273491 0.508725
O O3 0.459897 0.278740 0.750840
O O4 0.459640 0.000000 0.589710
O O5 0.833393 0.718672 0.503404
O O6 0.879098 0.716090 0.742791
O O7 0.874829 0.000000 0.582420
O O8 0.250000 0.783399 0.957129
O O9 0.296448 0.500000 0.952700
O O10 0.307212 0.745233 0.764831
O O11 0.334923 0.784612 0.026375
O O12 0.957712 0.000000 0.090974
O O13 0.916490 0.717365 0.004668
O O14 0.000000 0.728280 0.000000
O O15 0.750000 0.715908 0.428169
O O16 0.703956 0.000000 0.411909
O O17 0.392297 0.000000 0.117854
#
# Coordination Sequence:
#
# PCOD9400912 Si02
#       6
#     8   8   8   8   8   8
#     4   9  15  23  37  60  95 133 162 193 236 283
#     4   9  17  28  44  70 100 127 159 199 242 287
#     4  10  21  36  52  71  97 129 165 205 249 297
#     4   9  16  26  43  70 102 132 163 200 242 287
#     4   9  17  31  51  72  94 122 157 198 244 293
#     4  10  19  31  50  75 102 132 166 204 245 291
#
# _framework density 21.492978000000001
#
# number of rings (size 3 to 8) (size 9 to 14) (size 15 to 20)
#    0.000    2.667    0.000    2.500    0.000    8.333 
#    0.000    2.500    0.000    2.500    0.000    0.000 
#    0.000    6.000    0.000    0.000    0.000    0.000 
#
# Total GULP energy -268125.531596 kJ/mol
# GULP energy per Si atom -5585.948575 kJ/mol
# Density = 2.144406 g / cm^3
# Si number density = 21.492978 Si / 1000 Ang^3
#
#
#
# Elastic Constant Matrix: (Units=GPa)
#
#
# Indices 1 2 3 4 5 6 
#
# 1 170.8277 -2.7900 145.0504 0.0000 0.0000 0.0000
# 2 -2.7900 62.7189 -2.0583 0.0000 0.0000 0.0000
# 3 145.0504 -2.0583 223.2232 0.0000 0.0000 0.0000
# 4 0.0000 0.0000 0.0000 -40.6144 0.0000 0.0000
# 5 0.0000 0.0000 0.0000 0.0000 41.6398 0.0000
# 6 0.0000 0.0000 0.0000 0.0000 0.0000 10.6642
#
#
#
# Elastic Compliance Matrix: (Units=1/GPa)
#
#
# Indices 1 2 3 4 5 6 
#
# 1 0.013065 0.000303 -0.008487 0.000000 0.000000 0.000000
# 2 0.000303 0.015956 -0.000050 0.000000 0.000000 0.000000
# 3 -0.008487 -0.000050 0.009994 0.000000 0.000000 0.000000
# 4 0.000000 0.000000 0.000000 -0.024622 0.000000 0.000000
# 5 0.000000 0.000000 0.000000 0.000000 0.024015 0.000000
# 6 0.000000 0.000000 0.000000 0.000000 0.000000 0.093772
#
#
# Mechanical properties :
#
#
# Convention : Reuss Voigt Hill
#
# Bulk Modulus (GPa) = 44.35049 81.90822 63.12936
# Shear Modulus (GPa) = 32.01769 23.44244 27.73006
#
# Velocity S-wave (km/s) = 3.86383 3.30616 3.59582
# Velocity P-wave (km/s) = 6.37065 7.26404 6.83197
#
# Compressibility (1/GPa) = 0.02254766
#
# Stress axis : x y z
#
# Youngs Moduli (GPa) = 76.54036 62.67235 100.05889
#
# Poissons Ratio (x) = -0.01897 0.84918
# Poissons Ratio (y) = -0.02317 0.00496
# Poissons Ratio (z) = 0.64959 0.00310
#
# Static dielectric constant tensor:
#      x y z
#    x 1.731340 0.000000 0.000000 
#    y 0.000000 1.806190 0.000000 
#    z 0.000000 0.000000 1.725020 
# 
# From -- ./inp_files/12814.got.cif
#   From: 2010.05.17/outbox.cif.g08.bks.cpg/sg51_7_cif.got.tgz:12814.got - 2010.06.03 11:52:47.
