data_PCOD9400904
_publ_section_title
;
Structure prediction by ZEFSAII (Michael W. Deem and Ramdas Pophale) SiO2 
 PCOD9400904
Probable space group: P M M A
;
_chemical_formula_sum "Si O2"
_cell_formula_units_Z 40
_cell_length_a 8.905849
_cell_length_b 14.007192
_cell_length_c 19.124460
_cell_angle_alpha 90.000000
_cell_angle_beta 90.000000
_cell_angle_gamma 90.000000
_cell_volume 2385.698680
_symmetry_space_group_name_H-M "P M M A"
_symmetry_group_IT_number 51
_symmetry_cell_setting 'orthorhombic'
loop_
_space_group_symop_operation_xyz
x,y,z
1/2-x,-y,z
1/2+x,-y,-z
-x,y,-z
-x,-y,-z
1/2+x,y,-z
1/2-x,y,z
x,-y,z
loop_
_atom_site_type_symbol
_atom_site_label
_atom_site_fract_x
_atom_site_fract_y
_atom_site_fract_z
Si Si1 0.069637 0.892316 0.845815
Si Si2 0.429177 0.887382 0.574648
Si Si3 0.429723 0.797451 0.289137
Si Si4 0.570666 0.701686 0.074661
Si Si5 0.430244 0.607591 0.209199
O O1 0.250000 0.888008 0.835408
O O2 0.030341 0.810026 0.901352
O O3 0.990978 0.864667 0.773093
O O4 0.030059 0.000000 0.867107
O O5 0.500000 0.860911 0.500000
O O6 0.250000 0.876586 0.572254
O O7 0.497514 0.828015 0.638226
O O8 0.462902 0.000000 0.586488
O O9 0.250000 0.805309 0.293278
O O10 0.469889 0.689870 0.264772
O O11 0.750000 0.694151 0.071302
O O12 0.507857 0.635105 0.136261
O O13 0.500000 0.679577 0.000000
O O14 0.250000 0.612418 0.199361
O O15 0.469778 0.500000 0.230399
#
# Coordination Sequence:
#
# PCOD9400904 Si02
#       5
#     8   8   8   8   8
#     4   9  18  32  48  67  94 129 165 198 235 283
#     4  10  20  33  50  74 105 138 167 195 230 274
#     4  10  19  31  50  75 100 126 159 200 242 285
#     4  10  20  33  49  70  96 125 159 200 245 292
#     4   9  19  36  55  73  94 123 160 201 245 291
#
# _framework density 16.766577000000002
#
# number of rings (size 3 to 8) (size 9 to 14) (size 15 to 20)
#    0.000    2.400    0.000    2.400    0.000    6.800 
#    0.000    0.000    0.000    0.600    0.000    0.000 
#    0.000    0.000    0.000    0.000    0.000    0.000 
#
# Total GULP energy -223183.677883 kJ/mol
# GULP energy per Si atom -5579.591947 kJ/mol
# Density = 1.672842 g / cm^3
# Si number density = 16.766577 Si / 1000 Ang^3
#
#
#
# Elastic Constant Matrix: (Units=GPa)
#
#
# Indices 1 2 3 4 5 6 
#
# 1 27.4207 21.2668 35.9301 0.0000 0.0000 0.0000
# 2 21.2668 69.7704 25.9294 0.0000 0.0000 0.0000
# 3 35.9301 25.9294 112.3448 0.0000 0.0000 0.0000
# 4 0.0000 0.0000 0.0000 8.3877 0.0000 0.0000
# 5 0.0000 0.0000 0.0000 0.0000 30.0259 0.0000
# 6 0.0000 0.0000 0.0000 0.0000 0.0000 21.0649
#
#
#
# Elastic Compliance Matrix: (Units=1/GPa)
#
#
# Indices 1 2 3 4 5 6 
#
# 1 0.075241 -0.015304 -0.020532 0.000000 0.000000 0.000000
# 2 -0.015304 0.018790 0.000558 0.000000 0.000000 0.000000
# 3 -0.020532 0.000558 0.015339 0.000000 0.000000 0.000000
# 4 0.000000 0.000000 0.000000 0.119223 0.000000 0.000000
# 5 0.000000 0.000000 0.000000 0.000000 0.033305 0.000000
# 6 0.000000 0.000000 0.000000 0.000000 0.000000 0.047472
#
#
# Mechanical properties :
#
#
# Convention : Reuss Voigt Hill
#
# Bulk Modulus (GPa) = 25.76340 41.75427 33.75884
# Shear Modulus (GPa) = 12.72704 20.32299 16.52501
#
# Velocity S-wave (km/s) = 2.75812 3.48532 3.14282
# Velocity P-wave (km/s) = 5.05393 6.41513 5.77478
#
# Compressibility (1/GPa) = 0.03881475
#
# Stress axis : x y z
#
# Youngs Moduli (GPa) = 13.29055 53.21892 65.19397
#
# Poissons Ratio (x) = 0.81447 1.33853
# Poissons Ratio (y) = 0.20340 -0.03636
# Poissons Ratio (z) = 0.27288 -0.02968
#
# Static dielectric constant tensor:
#      x y z
#    x 1.557750 0.000000 0.000000 
#    y 0.000000 1.577880 0.000000 
#    z 0.000000 0.000000 1.524280 
# 
# From -- ./inp_files/20496.got.cif
#   From: 2010.05.17/outbox.cif.g08.bks.cpg/sg51_11_cif.got.tgz:20496.got - 2010.06.03 11:52:47.
