data_PCOD9400263
_publ_section_title
;
Structure prediction by ZEFSAII (Michael W. Deem and Ramdas Pophale) SiO2 
 PCOD9400263
Probable space group: P M M A
;
_chemical_formula_sum "Si O2"
_cell_formula_units_Z 48
_cell_length_a 9.341141
_cell_length_b 17.183893
_cell_length_c 15.504653
_cell_angle_alpha 90.000000
_cell_angle_beta 90.000000
_cell_angle_gamma 90.000000
_cell_volume 2488.762982
_symmetry_space_group_name_H-M "P M M A"
_symmetry_group_IT_number 51
_symmetry_cell_setting 'orthorhombic'
loop_
_space_group_symop_operation_xyz
x,y,z
1/2-x,-y,z
1/2+x,-y,-z
-x,y,-z
-x,-y,-z
1/2+x,y,-z
1/2-x,y,z
x,-y,z
loop_
_atom_site_type_symbol
_atom_site_label
_atom_site_fract_x
_atom_site_fract_y
_atom_site_fract_z
Si Si1 0.086020 0.383616 0.918390
Si Si2 0.086574 0.319669 0.416973
Si Si3 0.918587 0.197458 0.088595
Si Si4 0.576611 0.800835 0.727655
Si Si5 0.417836 0.907069 0.589801
Si Si6 0.594227 0.500000 0.620926
Si Si7 0.919346 0.500000 0.217889
O O1 0.250000 0.406783 0.929001
O O2 0.082083 0.291227 0.915519
O O3 0.028092 0.424357 0.833110
O O4 0.000000 0.411128 0.000000
O O5 0.250000 0.294803 0.428460
O O6 0.042416 0.280644 0.325000
O O7 0.085563 0.414336 0.420847
O O8 0.000000 0.291317 0.500000
O O9 0.750000 0.172191 0.091134
O O10 0.003903 0.184923 0.178564
O O11 0.000000 0.170645 0.000000
O O12 0.750000 0.805871 0.735838
O O13 0.507031 0.864074 0.663901
O O14 0.500000 0.892934 0.500000
O O15 0.250000 0.882361 0.587178
O O16 0.419043 0.000000 0.604483
O O17 0.750000 0.500000 0.665573
O O18 0.466993 0.500000 0.686210
O O19 0.750000 0.500000 0.217940
#
# Coordination Sequence:
#
# PCOD9400263 Si02
#       7
#     8   8   8   8   8   4   4
#     4   9  18  30  45  66  93 126 168 220 277 333
#     4  10  22  37  54  77 106 142 186 234 281 331
#     4  10  20  35  54  77 107 144 185 230 279 330
#     4  11  22  36  57  86 116 148 189 233 279 334
#     4  10  21  38  61  90 123 156 188 225 274 332
#     4  10  21  36  50  68  98 138 182 227 275 323
#     4  10  19  30  44  66  92 122 167 219 273 333
#
# _framework density 19.286691000000001
#
# number of rings (size 3 to 8) (size 9 to 14) (size 15 to 20)
#    0.000    2.000    0.000    3.500    0.000    5.667 
#    0.000    0.000    0.000    0.500    0.000    0.000 
#    0.000    0.000    0.000    0.000    0.000    0.000 
#
# Total GULP energy -267251.566520 kJ/mol
# GULP energy per Si atom -5567.740969 kJ/mol
# Density = 1.924279 g / cm^3
# Si number density = 19.286691 Si / 1000 Ang^3
#
#
#
# Elastic Constant Matrix: (Units=GPa)
#
#
# Indices 1 2 3 4 5 6 
#
# 1 106.1362 30.2959 84.4130 0.0000 0.0000 0.0000
# 2 30.2959 50.9433 26.0311 0.0000 0.0000 0.0000
# 3 84.4130 26.0311 146.0038 0.0000 0.0000 0.0000
# 4 0.0000 0.0000 0.0000 23.9931 0.0000 0.0000
# 5 0.0000 0.0000 0.0000 0.0000 40.0306 0.0000
# 6 0.0000 0.0000 0.0000 0.0000 0.0000 20.0499
#
#
#
# Elastic Compliance Matrix: (Units=1/GPa)
#
#
# Indices 1 2 3 4 5 6 
#
# 1 0.019116 -0.006294 -0.009930 0.000000 0.000000 0.000000
# 2 -0.006294 0.023670 -0.000581 0.000000 0.000000 0.000000
# 3 -0.009930 -0.000581 0.012694 0.000000 0.000000 0.000000
# 4 0.000000 0.000000 0.000000 0.041679 0.000000 0.000000
# 5 0.000000 0.000000 0.000000 0.000000 0.024981 0.000000
# 6 0.000000 0.000000 0.000000 0.000000 0.000000 0.049876
#
#
# Mechanical properties :
#
#
# Convention : Reuss Voigt Hill
#
# Bulk Modulus (GPa) = 45.72635 64.95148 55.33891
# Shear Modulus (GPa) = 23.48360 27.63760 25.56060
#
# Velocity S-wave (km/s) = 3.49321 3.78959 3.64441
# Velocity P-wave (km/s) = 6.32694 7.27310 6.81646
#
# Compressibility (1/GPa) = 0.02186923
#
# Stress axis : x y z
#
# Youngs Moduli (GPa) = 52.31231 42.24795 78.77920
#
# Poissons Ratio (x) = 0.26592 0.78226
# Poissons Ratio (y) = 0.32927 0.04577
# Poissons Ratio (z) = 0.51945 0.02455
#
# Static dielectric constant tensor:
#      x y z
#    x 1.667460 0.000000 0.000000 
#    y 0.000000 1.691890 0.000000 
#    z 0.000000 0.000000 1.676330 
# 
# From -- ./inp_files/21221.got.cif
#   From: 2010.05.17/outbox.cif.g08.bks.cpg/sg51_11_cif.got.tgz:21221.got - 2010.06.03 11:52:47.
