data_PCOD9400831
_publ_section_title
;
Structure prediction by ZEFSAII (Michael W. Deem and Ramdas Pophale) SiO2 
 PCOD9400831
Probable space group: P M M A
;
_chemical_formula_sum "Si O2"
_cell_formula_units_Z 44
_cell_length_a 8.473896
_cell_length_b 29.442618
_cell_length_c 9.632954
_cell_angle_alpha 90.000000
_cell_angle_beta 90.000000
_cell_angle_gamma 90.000000
_cell_volume 2403.361171
_symmetry_space_group_name_H-M "P M M A"
_symmetry_group_IT_number 51
_symmetry_cell_setting 'orthorhombic'
loop_
_space_group_symop_operation_xyz
x,y,z
1/2-x,-y,z
1/2+x,-y,-z
-x,y,-z
-x,-y,-z
1/2+x,y,-z
1/2-x,y,z
x,-y,z
loop_
_atom_site_type_symbol
_atom_site_label
_atom_site_fract_x
_atom_site_fract_y
_atom_site_fract_z
Si Si1 0.440874 0.500000 0.843981
Si Si2 0.559119 0.230209 0.156674
Si Si3 0.561227 0.144904 0.341910
Si Si4 0.939159 0.950718 0.658986
Si Si5 0.059431 0.416731 0.654565
Si Si6 0.059364 0.313641 0.654860
O O1 0.250000 0.500000 0.843901
O O2 0.494477 0.544949 0.761510
O O3 0.500000 0.500000 0.000000
O O4 0.750000 0.230175 0.155463
O O5 0.507260 0.186613 0.246632
O O6 0.505878 0.275898 0.235874
O O7 0.500000 0.228351 0.000000
O O8 0.500000 0.149833 0.500000
O O9 0.750000 0.144951 0.348043
O O10 0.505921 0.096196 0.282450
O O11 0.750000 0.948216 0.657786
O O12 0.000000 0.951270 0.500000
O O13 0.985543 0.000000 0.720549
O O14 0.250000 0.417105 0.652641
O O15 0.008042 0.365198 0.689046
O O16 0.000000 0.427280 0.500000
O O17 0.250000 0.313115 0.652205
O O18 0.000000 0.302834 0.500000
#
# Coordination Sequence:
#
# PCOD9400831 Si02
#       6
#     4   8   8   8   8   8
#     4  10  21  34  48  72 104 136 169 206 246 290
#     4  10  22  36  50  71  99 130 164 201 243 291
#     4  10  19  31  49  73  98 126 161 200 241 287
#     4   9  16  26  43  69  98 126 157 195 239 285
#     4   9  18  33  53  75 100 129 164 206 248 292
#     4   9  18  34  54  76 100 127 162 204 248 294
#
# _framework density 18.307693
#
# number of rings (size 3 to 8) (size 9 to 14) (size 15 to 20)
#    0.000    2.545    0.000    3.000    0.000    4.727 
#    0.000    0.000    0.000    0.545    0.000    0.000 
#    0.000    0.000    0.000    0.000    0.000    0.000 
#
# Total GULP energy -245345.568730 kJ/mol
# GULP energy per Si atom -5576.035653 kJ/mol
# Density = 1.826602 g / cm^3
# Si number density = 18.307693 Si / 1000 Ang^3
#
#
#
# Elastic Constant Matrix: (Units=GPa)
#
#
# Indices 1 2 3 4 5 6 
#
# 1 17.0966 28.7139 17.1026 0.0000 0.0000 0.0000
# 2 28.7139 187.0930 117.4015 0.0000 0.0000 0.0000
# 3 17.1026 117.4015 113.4917 0.0000 0.0000 0.0000
# 4 0.0000 0.0000 0.0000 -0.8461 0.0000 0.0000
# 5 0.0000 0.0000 0.0000 0.0000 28.0478 0.0000
# 6 0.0000 0.0000 0.0000 0.0000 0.0000 15.5165
#
#
#
# Elastic Compliance Matrix: (Units=1/GPa)
#
#
# Indices 1 2 3 4 5 6 
#
# 1 0.078934 -0.013253 0.001815 0.000000 0.000000 0.000000
# 2 -0.013253 0.017458 -0.016062 0.000000 0.000000 0.000000
# 3 0.001815 -0.016062 0.025154 0.000000 0.000000 0.000000
# 4 0.000000 0.000000 0.000000 -1.181941 0.000000 0.000000
# 5 0.000000 0.000000 0.000000 0.000000 0.035653 0.000000
# 6 0.000000 0.000000 0.000000 0.000000 0.000000 0.064448
#
#
# Mechanical properties :
#
#
# Convention : Reuss Voigt Hill
#
# Bulk Modulus (GPa) = 15.02759 71.56859 43.29809
# Shear Modulus (GPa) = -5.66180 18.84118 6.58969
#
# Velocity S-wave (km/s) = -1.76048 3.21150 1.89927
# Velocity P-wave (km/s) = 2.02331 7.27521 5.33959
#
# Compressibility (1/GPa) = 0.06654426
#
# Stress axis : x y z
#
# Youngs Moduli (GPa) = 12.66876 57.27984 39.75585
#
# Poissons Ratio (x) = 0.75913 -0.07214
# Poissons Ratio (y) = 0.16790 0.63857
# Poissons Ratio (z) = -0.02299 0.92005
#
# Static dielectric constant tensor:
#      x y z
#    x 1.630850 0.000000 0.000000 
#    y 0.000000 1.679730 0.000000 
#    z 0.000000 0.000000 1.581190 
# 
# From -- ./inp_files/5786.got.cif
#   From: 2010.05.17/outbox.cif.g08.bks.cpg/sg51_3_cif.got.tgz:5786.got - 2010.06.03 11:52:47.
