data_PCOD9400682
_publ_section_title
;
Structure prediction by ZEFSAII (Michael W. Deem and Ramdas Pophale) SiO2 
 PCOD9400682
Probable space group: P M M A
;
_chemical_formula_sum "Si O2"
_cell_formula_units_Z 52
_cell_length_a 9.114122
_cell_length_b 15.675823
_cell_length_c 23.561852
_cell_angle_alpha 90.000000
_cell_angle_beta 90.000000
_cell_angle_gamma 90.000000
_cell_volume 3366.313916
_symmetry_space_group_name_H-M "P M M A"
_symmetry_group_IT_number 51
_symmetry_cell_setting 'orthorhombic'
loop_
_space_group_symop_operation_xyz
x,y,z
1/2-x,-y,z
1/2+x,-y,-z
-x,y,-z
-x,-y,-z
1/2+x,y,-z
1/2-x,y,z
x,-y,z
loop_
_atom_site_type_symbol
_atom_site_label
_atom_site_fract_x
_atom_site_fract_y
_atom_site_fract_z
Si Si1 0.582832 0.603442 0.055887
Si Si2 0.577914 0.322246 0.384057
Si Si3 0.925425 0.904131 0.677199
Si Si4 0.075771 0.269653 0.270455
Si Si5 0.923908 0.500000 0.440368
Si Si6 0.422213 0.145607 0.558980
Si Si7 0.428143 0.400107 0.816553
O O1 0.750000 0.633619 0.053572
O O2 0.585428 0.500000 0.053143
O O3 0.523397 0.621440 0.118863
O O4 0.500000 0.634442 0.000000
O O5 0.750000 0.321534 0.365403
O O6 0.471715 0.302748 0.332257
O O7 0.539570 0.414271 0.407443
O O8 0.564834 0.247841 0.430811
O O9 0.750000 0.895110 0.667336
O O10 0.966790 0.830608 0.722493
O O11 0.005238 0.891403 0.616458
O O12 0.954897 0.000000 0.697428
O O13 0.250000 0.275238 0.261319
O O14 0.994359 0.330346 0.225702
O O15 0.750000 0.500000 0.448741
O O16 0.000000 0.500000 0.500000
O O17 0.500000 0.121295 0.500000
O O18 0.250000 0.123534 0.556824
O O19 0.250000 0.397258 0.814976
O O20 0.468239 0.500000 0.804085
#
# Coordination Sequence:
#
# PCOD9400682 Si02
#       7
#     8   8   8   8   4   8   8
#     4   8  14  25  41  62  89 124 162 193 221 252
#     4   9  19  33  46  61  84 116 147 177 221 273
#     4   9  19  36  53  67  87 115 144 180 231 283
#     4  10  20  32  48  70  91 113 149 193 228 261
#     4  10  20  32  46  62  80 108 145 180 217 262
#     4  10  19  31  48  68  89 111 139 177 222 274
#     4   9  18  31  46  65  95 134 164 185 218 266
#
# _framework density 15.447163
#
# number of rings (size 3 to 8) (size 9 to 14) (size 15 to 20)
#    0.000    2.769    0.000    2.308    1.077    3.385 
#    0.000    1.538    0.000    0.000    0.000    0.000 
#    0.000    0.615    0.000    1.385    0.000    2.154 
#
# Total GULP energy -289534.955013 kJ/mol
# GULP energy per Si atom -5567.979904 kJ/mol
# Density = 1.541200 g / cm^3
# Si number density = 15.447163 Si / 1000 Ang^3
#
#
#
# Elastic Constant Matrix: (Units=GPa)
#
#
# Indices 1 2 3 4 5 6 
#
# 1 30.2288 30.1466 34.7918 0.0000 0.0000 0.0000
# 2 30.1466 102.7401 41.5446 0.0000 0.0000 0.0000
# 3 34.7918 41.5446 84.2438 0.0000 0.0000 0.0000
# 4 0.0000 0.0000 0.0000 10.6918 0.0000 0.0000
# 5 0.0000 0.0000 0.0000 0.0000 27.3876 0.0000
# 6 0.0000 0.0000 0.0000 0.0000 0.0000 14.1764
#
#
#
# Elastic Compliance Matrix: (Units=1/GPa)
#
#
# Indices 1 2 3 4 5 6 
#
# 1 0.072417 -0.011436 -0.024268 0.000000 0.000000 0.000000
# 2 -0.011436 0.013964 -0.002163 0.000000 0.000000 0.000000
# 3 -0.024268 -0.002163 0.022959 0.000000 0.000000 0.000000
# 4 0.000000 0.000000 0.000000 0.093530 0.000000 0.000000
# 5 0.000000 0.000000 0.000000 0.000000 0.036513 0.000000
# 6 0.000000 0.000000 0.000000 0.000000 0.000000 0.070540
#
#
# Mechanical properties :
#
#
# Convention : Reuss Voigt Hill
#
# Bulk Modulus (GPa) = 29.75650 47.79762 38.77706
# Shear Modulus (GPa) = 12.59893 17.83313 15.21603
#
# Velocity S-wave (km/s) = 2.85900 3.40142 3.14194
# Velocity P-wave (km/s) = 5.49579 6.81440 6.19030
#
# Compressibility (1/GPa) = 0.03360611
#
# Stress axis : x y z
#
# Youngs Moduli (GPa) = 13.80891 71.61479 43.55500
#
# Poissons Ratio (x) = 0.81898 1.05699
# Poissons Ratio (y) = 0.15792 0.09422
# Poissons Ratio (z) = 0.33511 0.15492
#
# Static dielectric constant tensor:
#      x y z
#    x 1.526980 0.000000 0.000000 
#    y 0.000000 1.553020 0.000000 
#    z 0.000000 0.000000 1.497810 
# 
# From -- ./inp_files/34729.got.cif
#   From: 2010.05.17/outbox.cif.g08.bks.cpg/sg51_18_cif.got.tgz:34729.got - 2010.06.03 11:52:47.
