data_PCOD9400281
_publ_section_title
;
Structure prediction by ZEFSAII (Michael W. Deem and Ramdas Pophale) SiO2 
 PCOD9400281
Probable space group: P M M A
;
_chemical_formula_sum "Si O2"
_cell_formula_units_Z 56
_cell_length_a 8.985497
_cell_length_b 21.742693
_cell_length_c 18.977507
_cell_angle_alpha 90.000000
_cell_angle_beta 90.000000
_cell_angle_gamma 90.000000
_cell_volume 3707.614719
_symmetry_space_group_name_H-M "P M M A"
_symmetry_group_IT_number 51
_symmetry_cell_setting 'orthorhombic'
loop_
_space_group_symop_operation_xyz
x,y,z
1/2-x,-y,z
1/2+x,-y,-z
-x,y,-z
-x,-y,-z
1/2+x,y,-z
1/2-x,y,z
x,-y,z
loop_
_atom_site_type_symbol
_atom_site_label
_atom_site_fract_x
_atom_site_fract_y
_atom_site_fract_z
Si Si1 0.426701 0.857438 0.213535
Si Si2 0.427970 0.324326 0.167486
Si Si3 0.926839 0.202821 0.924213
Si Si4 0.926319 0.742620 0.289434
Si Si5 0.571511 0.814481 0.423983
Si Si6 0.927646 0.069088 0.653841
Si Si7 0.927016 0.427610 0.075521
O O1 0.250000 0.840563 0.220216
O O2 0.460730 0.852636 0.130727
O O3 0.525894 0.805190 0.249721
O O4 0.448588 0.916626 0.262597
O O5 0.250000 0.328874 0.168220
O O6 0.468416 0.266051 0.116812
O O7 0.488031 0.309191 0.245511
O O8 0.501133 0.384317 0.134024
O O9 0.750000 0.204672 0.934221
O O10 0.000000 0.197988 0.000000
O O11 0.750000 0.732774 0.284203
O O12 0.965509 0.758639 0.370137
O O13 0.500000 0.805648 0.500000
O O14 0.750000 0.818713 0.428387
O O15 0.508600 0.877666 0.389982
O O16 0.750000 0.073618 0.640425
O O17 0.976904 0.000000 0.636727
O O18 0.750000 0.417759 0.071724
O O19 0.954253 0.500000 0.088983
O O20 0.000000 0.412468 0.000000
#
# Coordination Sequence:
#
# PCOD9400281 Si02
#       7
#     8   8   8   8   8   8   8
#     4   8  15  28  42  58  81 106 136 175 218 263
#     4  10  19  30  45  64  87 117 151 186 223 263
#     4   9  17  26  38  58  81 105 135 174 218 260
#     4   9  17  29  45  65  86 110 142 178 217 259
#     4  10  20  32  47  67  92 119 142 171 213 260
#     4   9  17  30  48  65  81 108 145 180 214 256
#     4  10  20  32  45  63  91 127 163 197 230 262
#
# _framework density 15.104051
#
# number of rings (size 3 to 8) (size 9 to 14) (size 15 to 20)
#    0.000    2.714    0.000    3.000    0.000    7.143 
#    0.000    0.000    0.000    0.429    0.000    0.000 
#    0.000    0.571    0.000    1.857    0.000    3.143 
#
# Total GULP energy -311773.008466 kJ/mol
# GULP energy per Si atom -5567.375151 kJ/mol
# Density = 1.506967 g / cm^3
# Si number density = 15.104051 Si / 1000 Ang^3
#
#
#
# Elastic Constant Matrix: (Units=GPa)
#
#
# Indices 1 2 3 4 5 6 
#
# 1 44.4527 35.0016 51.0144 0.0000 0.0000 0.0000
# 2 35.0016 58.2733 48.5264 0.0000 0.0000 0.0000
# 3 51.0144 48.5264 134.5980 0.0000 0.0000 0.0000
# 4 0.0000 0.0000 0.0000 18.7419 0.0000 0.0000
# 5 0.0000 0.0000 0.0000 0.0000 25.2736 0.0000
# 6 0.0000 0.0000 0.0000 0.0000 0.0000 18.8435
#
#
#
# Elastic Compliance Matrix: (Units=1/GPa)
#
#
# Indices 1 2 3 4 5 6 
#
# 1 0.054489 -0.022194 -0.012650 0.000000 0.000000 0.000000
# 2 -0.022194 0.033563 -0.003689 0.000000 0.000000 0.000000
# 3 -0.012650 -0.003689 0.013554 0.000000 0.000000 0.000000
# 4 0.000000 0.000000 0.000000 0.053356 0.000000 0.000000
# 5 0.000000 0.000000 0.000000 0.000000 0.039567 0.000000
# 6 0.000000 0.000000 0.000000 0.000000 0.000000 0.053069
#
#
# Mechanical properties :
#
#
# Convention : Reuss Voigt Hill
#
# Bulk Modulus (GPa) = 40.75010 56.26765 48.50887
# Shear Modulus (GPa) = 15.02205 19.42391 17.22298
#
# Velocity S-wave (km/s) = 3.15710 3.58998 3.38048
# Velocity P-wave (km/s) = 6.35042 7.38364 6.88644
#
# Compressibility (1/GPa) = 0.02453982
#
# Stress axis : x y z
#
# Youngs Moduli (GPa) = 18.35231 29.79480 73.77876
#
# Poissons Ratio (x) = 0.66127 0.93334
# Poissons Ratio (y) = 0.40731 0.27213
# Poissons Ratio (z) = 0.23217 0.10990
#
# Static dielectric constant tensor:
#      x y z
#    x 1.502580 0.000000 0.000000 
#    y 0.000000 1.496150 0.000000 
#    z 0.000000 0.000000 1.519780 
# 
# From -- ./inp_files/28177.got.cif
#   From: 2010.05.17/outbox.cif.g08.bks.cpg/sg51_15_cif.got.tgz:28177.got - 2010.06.03 11:52:47.
