data_PCOD9400017
_publ_section_title
;
Structure prediction by ZEFSAII (Michael W. Deem and Ramdas Pophale) SiO2 
 PCOD9400017
Probable space group: P M M A
;
_chemical_formula_sum "Si O2"
_cell_formula_units_Z 64
_cell_length_a 16.923054
_cell_length_b 14.163997
_cell_length_c 15.867843
_cell_angle_alpha 90.000000
_cell_angle_beta 90.000000
_cell_angle_gamma 90.000000
_cell_volume 3803.491597
_symmetry_space_group_name_H-M "P M M A"
_symmetry_group_IT_number 51
_symmetry_cell_setting 'orthorhombic'
loop_
_space_group_symop_operation_xyz
x,y,z
1/2-x,-y,z
1/2+x,-y,-z
-x,y,-z
-x,-y,-z
1/2+x,y,-z
1/2-x,y,z
x,-y,z
loop_
_atom_site_type_symbol
_atom_site_label
_atom_site_fract_x
_atom_site_fract_y
_atom_site_fract_z
Si Si1 0.074938 0.108770 0.171177
Si Si2 0.155944 0.701722 0.784350
Si Si3 0.156979 0.111220 0.348907
Si Si4 0.838235 0.891859 0.997525
Si Si5 0.542308 0.252328 0.082066
Si Si6 0.846677 0.205143 0.478967
Si Si7 0.154402 0.605043 0.606470
Si Si8 0.845565 0.104580 0.308283
O O1 0.107121 0.126235 0.264510
O O2 0.017789 0.191827 0.139670
O O3 0.042836 0.000000 0.166692
O O4 0.145556 0.109859 0.102440
O O5 0.250000 0.695178 0.803177
O O6 0.097634 0.681629 0.861239
O O7 0.139574 0.637962 0.702422
O O8 0.137744 0.809966 0.755311
O O9 0.250000 0.132861 0.333474
O O10 0.128336 0.169509 0.429761
O O11 0.152902 0.000000 0.370150
O O12 0.750000 0.860793 0.017549
O O13 0.900752 0.826382 0.041827
O O14 0.847895 0.000000 0.025498
O O15 0.500000 0.296718 0.000000
O O16 0.750000 0.203347 0.478767
O O17 0.872701 0.310649 0.454419
O O18 0.871446 0.137199 0.401722
O O19 0.250000 0.602747 0.598824
O O20 0.124081 0.500000 0.589592
O O21 0.750000 0.100093 0.310654
O O22 0.875469 0.000000 0.286752
#
# Coordination Sequence:
#
# PCOD9400017 Si02
#       8
#     8   8   8   8   8   8   8   8
#     4   9  17  27  37  53  80 115 151 180 208 243
#     4   9  17  28  43  64  85 107 139 172 204 249
#     4   9  15  23  38  59  84 115 148 178 204 236
#     4   9  16  26  40  56  76 106 146 187 218 245
#     4  10  19  29  40  55  79 110 140 175 217 254
#     4   8  13  21  36  61  87 108 134 166 201 243
#     4   8  14  26  45  68  91 109 128 167 218 255
#     4   8  13  21  34  54  80 106 132 166 203 234
#
# _framework density 16.826644000000002
#
# number of rings (size 3 to 8) (size 9 to 14) (size 15 to 20)
#    0.000    3.250    0.000    3.000    0.000    5.500 
#    0.000    1.250    0.000    3.375    0.000    9.625 
#    0.000    1.000    0.000   29.000    0.000    0.000 
#
# Total GULP energy -356358.197472 kJ/mol
# GULP energy per Si atom -5568.096836 kJ/mol
# Density = 1.678835 g / cm^3
# Si number density = 16.826644 Si / 1000 Ang^3
#
#
#
# Elastic Constant Matrix: (Units=GPa)
#
#
# Indices 1 2 3 4 5 6 
#
# 1 24.1980 5.7563 21.0737 0.0000 0.0000 0.0000
# 2 5.7563 42.1472 16.0561 0.0000 0.0000 0.0000
# 3 21.0737 16.0561 86.0552 0.0000 0.0000 0.0000
# 4 0.0000 0.0000 0.0000 9.1627 0.0000 0.0000
# 5 0.0000 0.0000 0.0000 0.0000 16.2495 0.0000
# 6 0.0000 0.0000 0.0000 0.0000 0.0000 3.3210
#
#
#
# Elastic Compliance Matrix: (Units=1/GPa)
#
#
# Indices 1 2 3 4 5 6 
#
# 1 0.052764 -0.002459 -0.012462 0.000000 0.000000 0.000000
# 2 -0.002459 0.025656 -0.004185 0.000000 0.000000 0.000000
# 3 -0.012462 -0.004185 0.015453 0.000000 0.000000 0.000000
# 4 0.000000 0.000000 0.000000 0.109138 0.000000 0.000000
# 5 0.000000 0.000000 0.000000 0.000000 0.061540 0.000000
# 6 0.000000 0.000000 0.000000 0.000000 0.000000 0.301112
#
#
# Mechanical properties :
#
#
# Convention : Reuss Voigt Hill
#
# Bulk Modulus (GPa) = 17.96575 26.46364 22.21469
# Shear Modulus (GPa) = 8.03304 13.04759 10.54032
#
# Velocity S-wave (km/s) = 2.18732 2.78764 2.50553
# Velocity P-wave (km/s) = 4.13271 5.11103 4.64768
#
# Compressibility (1/GPa) = 0.05566148
#
# Stress axis : x y z
#
# Youngs Moduli (GPa) = 18.95234 38.97664 64.71185
#
# Poissons Ratio (x) = 0.09583 0.80647
# Poissons Ratio (y) = 0.04660 0.27081
# Poissons Ratio (z) = 0.23619 0.16311
#
# Static dielectric constant tensor:
#      x y z
#    x 1.587630 0.000000 0.000000 
#    y 0.000000 1.555530 0.000000 
#    z 0.000000 0.000000 1.591040 
# 
# From -- ./inp_files/25339.got.cif
#   From: 2010.05.17/outbox.cif.g08.bks.cpg/sg51_13_cif.got.tgz:25339.got - 2010.06.03 11:52:47.
