data_PCOD9400302
_publ_section_title
;
Structure prediction by ZEFSAII (Michael W. Deem and Ramdas Pophale) SiO2 
 PCOD9400302
Probable space group: P M M A
;
_chemical_formula_sum "Si O2"
_cell_formula_units_Z 64
_cell_length_a 8.545191
_cell_length_b 32.200714
_cell_length_c 14.770904
_cell_angle_alpha 90.000000
_cell_angle_beta 90.000000
_cell_angle_gamma 90.000000
_cell_volume 4064.380430
_symmetry_space_group_name_H-M "P M M A"
_symmetry_group_IT_number 51
_symmetry_cell_setting 'orthorhombic'
loop_
_space_group_symop_operation_xyz
x,y,z
1/2-x,-y,z
1/2+x,-y,-z
-x,y,-z
-x,-y,-z
1/2+x,y,-z
1/2-x,y,z
x,-y,z
loop_
_atom_site_type_symbol
_atom_site_label
_atom_site_fract_x
_atom_site_fract_y
_atom_site_fract_z
Si Si1 0.061641 0.160351 0.596974
Si Si2 0.062630 0.713329 0.215279
Si Si3 0.561107 0.455409 0.103065
Si Si4 0.439095 0.047091 0.899305
Si Si5 0.062043 0.205226 0.102013
Si Si6 0.938143 0.364138 0.102975
Si Si7 0.437373 0.256994 0.597608
Si Si8 0.939616 0.126299 0.212467
O O1 0.250000 0.159885 0.594518
O O2 0.011918 0.208587 0.608862
O O3 0.008940 0.134652 0.684458
O O4 0.000000 0.145702 0.500000
O O5 0.250000 0.712850 0.216165
O O6 0.011293 0.754253 0.159002
O O7 0.001471 0.672652 0.164672
O O8 0.000785 0.717852 0.317130
O O9 0.750000 0.455440 0.101963
O O10 0.510371 0.500000 0.144230
O O11 0.512896 0.410103 0.138860
O O12 0.500000 0.455688 0.000000
O O13 0.250000 0.047525 0.901622
O O14 0.491215 0.082578 0.829938
O O15 0.489290 0.000000 0.876360
O O16 0.500000 0.056654 0.000000
O O17 0.250000 0.204055 0.100583
O O18 0.999206 0.164068 0.150887
O O19 0.000000 0.207762 0.000000
O O20 0.750000 0.362310 0.100369
O O21 0.000000 0.359637 0.000000
O O22 0.500000 0.271057 0.500000
O O23 0.250000 0.258053 0.597402
O O24 0.750000 0.127246 0.211335
#
# Coordination Sequence:
#
# PCOD9400302 Si02
#       8
#     8   8   8   8   8   8   8   8
#     4   9  18  31  49  71  93 119 149 188 230 274
#     4  11  22  34  47  66  93 127 162 195 233 280
#     4   8  14  25  41  61  85 115 154 198 240 280
#     4   9  18  32  50  71  95 122 152 187 228 275
#     4  11  23  34  46  65  92 125 159 192 228 269
#     4  10  19  30  45  65  92 128 165 200 239 283
#     4  10  19  33  52  71  93 120 154 196 237 280
#     4  10  19  33  51  71  94 120 154 191 231 274
#
# _framework density 15.746558
#
# number of rings (size 3 to 8) (size 9 to 14) (size 15 to 20)
#    0.000    2.250    1.250    2.250    0.000    5.500 
#    0.000    0.000    0.000    0.375    0.000    0.000 
#    0.000    0.500    0.000    1.375    0.000    2.250 
#
# Total GULP energy -356813.143607 kJ/mol
# GULP energy per Si atom -5575.205369 kJ/mol
# Density = 1.571072 g / cm^3
# Si number density = 15.746558 Si / 1000 Ang^3
#
#
#
# Elastic Constant Matrix: (Units=GPa)
#
#
# Indices 1 2 3 4 5 6 
#
# 1 20.5355 24.8076 24.6537 0.0000 0.0000 0.0000
# 2 24.8076 132.4789 81.1617 0.0000 0.0000 0.0000
# 3 24.6537 81.1617 130.6923 0.0000 0.0000 0.0000
# 4 0.0000 0.0000 0.0000 6.8224 0.0000 0.0000
# 5 0.0000 0.0000 0.0000 0.0000 25.0166 0.0000
# 6 0.0000 0.0000 0.0000 0.0000 0.0000 11.0738
#
#
#
# Elastic Compliance Matrix: (Units=1/GPa)
#
#
# Indices 1 2 3 4 5 6 
#
# 1 0.067632 -0.007826 -0.007898 0.000000 0.000000 0.000000
# 2 -0.007826 0.013089 -0.006652 0.000000 0.000000 0.000000
# 3 -0.007898 -0.006652 0.013273 0.000000 0.000000 0.000000
# 4 0.000000 0.000000 0.000000 0.146576 0.000000 0.000000
# 5 0.000000 0.000000 0.000000 0.000000 0.039973 0.000000
# 6 0.000000 0.000000 0.000000 0.000000 0.000000 0.090303
#
#
# Mechanical properties :
#
#
# Convention : Reuss Voigt Hill
#
# Bulk Modulus (GPa) = 20.30815 60.55030 40.42923
# Shear Modulus (GPa) = 11.57371 18.78814 15.18093
#
# Velocity S-wave (km/s) = 2.71403 3.45796 3.10833
# Velocity P-wave (km/s) = 4.76929 7.38105 6.21394
#
# Compressibility (1/GPa) = 0.04924132
#
# Stress axis : x y z
#
# Youngs Moduli (GPa) = 14.78590 76.39810 75.34289
#
# Poissons Ratio (x) = 0.59788 0.59506
# Poissons Ratio (y) = 0.11571 0.50121
# Poissons Ratio (z) = 0.11678 0.50823
#
# Static dielectric constant tensor:
#      x y z
#    x 1.531900 0.000000 0.000000 
#    y 0.000000 1.548520 0.000000 
#    z 0.000000 0.000000 1.496070 
# 
# From -- ./inp_files/22596.got.cif
#   From: 2010.05.17/outbox.cif.g08.bks.cpg/sg51_12_cif.got.tgz:22596.got - 2010.06.03 11:52:47.
