data_PCOD9400988
_publ_section_title
;
Structure prediction by ZEFSAII (Michael W. Deem and Ramdas Pophale) SiO2 
 PCOD9400988
Probable space group: P M M A
;
_chemical_formula_sum "Si O2"
_cell_formula_units_Z 56
_cell_length_a 9.031500
_cell_length_b 14.688168
_cell_length_c 23.905657
_cell_angle_alpha 90.000000
_cell_angle_beta 90.000000
_cell_angle_gamma 90.000000
_cell_volume 3171.233360
_symmetry_space_group_name_H-M "P M M A"
_symmetry_group_IT_number 51
_symmetry_cell_setting 'orthorhombic'
loop_
_space_group_symop_operation_xyz
x,y,z
1/2-x,-y,z
1/2+x,-y,-z
-x,y,-z
-x,-y,-z
1/2+x,y,-z
1/2-x,y,z
x,-y,z
loop_
_atom_site_type_symbol
_atom_site_label
_atom_site_fract_x
_atom_site_fract_y
_atom_site_fract_z
Si Si1 0.924282 0.107819 0.165519
Si Si2 0.074230 0.393661 0.108942
Si Si3 0.071791 0.727000 0.664667
Si Si4 0.576641 0.607466 0.227021
Si Si5 0.073344 0.894358 0.283232
Si Si6 0.573081 0.775547 0.056876
Si Si7 0.428317 0.605316 0.559625
O O1 0.750000 0.125610 0.176492
O O2 0.968243 0.164230 0.110959
O O3 0.014012 0.130687 0.221352
O O4 0.941641 0.000000 0.154904
O O5 0.250000 0.379854 0.104069
O O6 0.041213 0.500000 0.097828
O O7 0.020188 0.374180 0.172278
O O8 0.987537 0.325309 0.069063
O O9 0.250000 0.736153 0.663565
O O10 0.034866 0.666275 0.719227
O O11 0.025504 0.672723 0.609185
O O12 0.998034 0.824584 0.673371
O O13 0.750000 0.625970 0.213500
O O14 0.564727 0.500000 0.240372
O O15 0.250000 0.887817 0.284333
O O16 0.031034 0.000000 0.293052
O O17 0.750000 0.775472 0.051874
O O18 0.500000 0.810569 0.000000
O O19 0.500000 0.627606 0.500000
O O20 0.250000 0.609582 0.555025
O O21 0.466856 0.500000 0.573322
#
# Coordination Sequence:
#
# PCOD9400988 Si02
#       7
#     8   8   8   8   8   8   8
#     4   9  19  37  58  78 102 132 164 199 246 306
#     4  10  21  36  52  71  98 131 165 204 250 298
#     4  10  19  31  51  77 104 137 174 210 250 298
#     4   9  17  30  49  74 103 132 162 199 246 300
#     4  10  21  35  52  77 106 134 166 208 257 303
#     4  11  23  37  54  75  98 127 164 205 248 296
#     4   9  18  33  52  76 108 144 180 215 251 295
#
# _framework density 17.658743999999999
#
# number of rings (size 3 to 8) (size 9 to 14) (size 15 to 20)
#    0.000    2.286    0.000    2.571    0.000    9.714 
#    0.000    0.000    0.000    4.714    0.000    0.000 
#    0.000    0.000    0.000    0.000    0.000    0.000 
#
# Total GULP energy -312684.900695 kJ/mol
# GULP energy per Si atom -5583.658941 kJ/mol
# Density = 1.761855 g / cm^3
# Si number density = 17.658744 Si / 1000 Ang^3
#
#
#
# Elastic Constant Matrix: (Units=GPa)
#
#
# Indices 1 2 3 4 5 6 
#
# 1 27.7384 35.6876 33.4488 0.0000 0.0000 0.0000
# 2 35.6876 86.0021 69.2837 0.0000 0.0000 0.0000
# 3 33.4488 69.2837 94.9158 0.0000 0.0000 0.0000
# 4 0.0000 0.0000 0.0000 24.4344 0.0000 0.0000
# 5 0.0000 0.0000 0.0000 0.0000 29.7182 0.0000
# 6 0.0000 0.0000 0.0000 0.0000 0.0000 22.0128
#
#
#
# Elastic Compliance Matrix: (Units=1/GPa)
#
#
# Indices 1 2 3 4 5 6 
#
# 1 0.080875 -0.025731 -0.009719 0.000000 0.000000 0.000000
# 2 -0.025731 0.036412 -0.017511 0.000000 0.000000 0.000000
# 3 -0.009719 -0.017511 0.026743 0.000000 0.000000 0.000000
# 4 0.000000 0.000000 0.000000 0.040926 0.000000 0.000000
# 5 0.000000 0.000000 0.000000 0.000000 0.033649 0.000000
# 6 0.000000 0.000000 0.000000 0.000000 0.000000 0.045428
#
#
# Mechanical properties :
#
#
# Convention : Reuss Voigt Hill
#
# Bulk Modulus (GPa) = 26.24071 53.94403 40.09237
# Shear Modulus (GPa) = 13.06650 19.91550 16.49100
#
# Velocity S-wave (km/s) = 2.72314 3.36191 3.05925
# Velocity P-wave (km/s) = 4.97790 6.75902 5.93565
#
# Compressibility (1/GPa) = 0.03810872
#
# Stress axis : x y z
#
# Youngs Moduli (GPa) = 12.36475 27.46339 37.39300
#
# Poissons Ratio (x) = 0.70665 0.36341
# Poissons Ratio (y) = 0.31815 0.65480
# Poissons Ratio (z) = 0.12017 0.48092
#
# Static dielectric constant tensor:
#      x y z
#    x 1.587680 0.000000 0.000000 
#    y 0.000000 1.614620 0.000000 
#    z 0.000000 0.000000 1.578270 
# 
# From -- ./inp_files/31936.got.cif
#   From: 2010.05.17/outbox.cif.g08.bks.cpg/sg51_16_cif.got.tgz:31936.got - 2010.06.03 11:52:47.
