data_PCOD9400187
_publ_section_title
;
Structure prediction by ZEFSAII (Michael W. Deem and Ramdas Pophale) SiO2 
 PCOD9400187
Probable space group: P M M A
;
_chemical_formula_sum "Si O2"
_cell_formula_units_Z 64
_cell_length_a 13.793583
_cell_length_b 19.498436
_cell_length_c 13.539831
_cell_angle_alpha 90.000000
_cell_angle_beta 90.000000
_cell_angle_gamma 90.000000
_cell_volume 3641.582166
_symmetry_space_group_name_H-M "P M M A"
_symmetry_group_IT_number 51
_symmetry_cell_setting 'orthorhombic'
loop_
_space_group_symop_operation_xyz
x,y,z
1/2-x,-y,z
1/2+x,-y,-z
-x,y,-z
-x,-y,-z
1/2+x,y,-z
1/2-x,y,z
x,-y,z
loop_
_atom_site_type_symbol
_atom_site_label
_atom_site_fract_x
_atom_site_fract_y
_atom_site_fract_z
Si Si1 0.365555 0.706965 0.362166
Si Si2 0.137578 0.917520 0.055311
Si Si3 0.053129 0.861474 0.852729
Si Si4 0.866875 0.574964 0.513899
Si Si5 0.954890 0.719285 0.245709
Si Si6 0.366289 0.214148 0.557322
Si Si7 0.633129 0.076223 0.348224
Si Si8 0.132955 0.421541 0.717602
O O1 0.250000 0.708680 0.345175
O O2 0.394653 0.635073 0.413012
O O3 0.430364 0.717617 0.266609
O O4 0.391870 0.760726 0.448455
O O5 0.250000 0.905162 0.080779
O O6 0.058422 0.881292 0.125008
O O7 0.121292 0.000000 0.055405
O O8 0.113757 0.888184 0.946441
O O9 0.066758 0.780456 0.830805
O O10 0.088331 0.901232 0.755751
O O11 0.750000 0.574996 0.514080
O O12 0.900035 0.500000 0.546883
O O13 0.892672 0.585118 0.399230
O O14 0.908729 0.742991 0.351072
O O15 0.914975 0.642862 0.226771
O O16 0.250000 0.222788 0.564694
O O17 0.392075 0.135309 0.574550
O O18 0.750000 0.076962 0.337533
O O19 0.602541 0.000000 0.375963
O O20 0.250000 0.415814 0.724725
O O21 0.107037 0.500000 0.747328
#
# Coordination Sequence:
#
# PCOD9400187 Si02
#       8
#     8   8   8   8   8   8   8   8
#     4  10  19  30  42  59  90 130 171 206 235 274
#     4  10  20  36  59  81 100 123 148 181 237 304
#     4  10  20  32  49  76 106 123 146 189 235 293
#     4   8  14  25  41  60  85 121 165 209 245 274
#     4  11  20  29  46  69  95 130 163 194 244 294
#     4   9  17  28  42  62  89 121 162 207 238 269
#     4   9  16  27  46  69  92 121 155 191 232 273
#     4   9  17  29  45  68  98 129 166 214 257 287
#
# _framework density 17.574777999999998
#
# number of rings (size 3 to 8) (size 9 to 14) (size 15 to 20)
#    0.000    2.500    1.250    3.375    0.000    3.500 
#    0.000    1.250    0.000    7.500    0.000    3.500 
#    0.000    1.000    0.000    0.000    0.000    0.000 
#
# Total GULP energy -356891.870802 kJ/mol
# GULP energy per Si atom -5576.435481 kJ/mol
# Density = 1.753478 g / cm^3
# Si number density = 17.574778 Si / 1000 Ang^3
#
#
#
# Elastic Constant Matrix: (Units=GPa)
#
#
# Indices 1 2 3 4 5 6 
#
# 1 53.3023 16.5927 0.8366 0.0000 0.0000 0.0000
# 2 16.5927 125.7168 15.1940 0.0000 0.0000 0.0000
# 3 0.8366 15.1940 13.0495 0.0000 0.0000 0.0000
# 4 0.0000 0.0000 0.0000 17.1827 0.0000 0.0000
# 5 0.0000 0.0000 0.0000 0.0000 13.3043 0.0000
# 6 0.0000 0.0000 0.0000 0.0000 0.0000 19.5917
#
#
#
# Elastic Compliance Matrix: (Units=1/GPa)
#
#
# Indices 1 2 3 4 5 6 
#
# 1 0.019611 -0.002835 0.002044 0.000000 0.000000 0.000000
# 2 -0.002835 0.009667 -0.011074 0.000000 0.000000 0.000000
# 3 0.002044 -0.011074 0.089394 0.000000 0.000000 0.000000
# 4 0.000000 0.000000 0.000000 0.058198 0.000000 0.000000
# 5 0.000000 0.000000 0.000000 0.000000 0.075164 0.000000
# 6 0.000000 0.000000 0.000000 0.000000 0.000000 0.051042
#
#
# Mechanical properties :
#
#
# Convention : Reuss Voigt Hill
#
# Bulk Modulus (GPa) = 10.53271 28.59056 19.56163
# Shear Modulus (GPa) = 13.94879 20.64543 17.29711
#
# Velocity S-wave (km/s) = 2.82029 3.43114 3.14060
# Velocity P-wave (km/s) = 4.07572 5.65687 4.93010
#
# Compressibility (1/GPa) = 0.09494234
#
# Stress axis : x y z
#
# Youngs Moduli (GPa) = 50.99053 103.44474 11.18641
#
# Poissons Ratio (x) = 0.29331 -0.02287
# Poissons Ratio (y) = 0.14458 0.12388
# Poissons Ratio (z) = -0.10423 1.14553
#
# Static dielectric constant tensor:
#      x y z
#    x 1.640080 0.000000 0.000000 
#    y 0.000000 1.634020 0.000000 
#    z 0.000000 0.000000 1.558010 
# 
# From -- ./inp_files/24467.got.cif
#   From: 2010.05.17/outbox.cif.g08.bks.cpg/sg51_13_cif.got.tgz:24467.got - 2010.06.03 11:52:47.
