data_PCOD9400336
_publ_section_title
;
Structure prediction by ZEFSAII (Michael W. Deem and Ramdas Pophale) SiO2 
 PCOD9400336
Probable space group: P M M A
;
_chemical_formula_sum "Si O2"
_cell_formula_units_Z 38
_cell_length_a 7.704994
_cell_length_b 26.014877
_cell_length_c 9.271325
_cell_angle_alpha 90.000000
_cell_angle_beta 90.000000
_cell_angle_gamma 90.000000
_cell_volume 1858.385837
_symmetry_space_group_name_H-M "P M M A"
_symmetry_group_IT_number 51
_symmetry_cell_setting 'orthorhombic'
loop_
_space_group_symop_operation_xyz
x,y,z
1/2-x,-y,z
1/2+x,-y,-z
-x,y,-z
-x,-y,-z
1/2+x,y,-z
1/2-x,y,z
x,-y,z
loop_
_atom_site_type_symbol
_atom_site_label
_atom_site_fract_x
_atom_site_fract_y
_atom_site_fract_z
Si Si1 0.960415 0.079679 0.670217
Si Si2 0.957694 0.198168 0.666076
Si Si3 0.545549 0.704473 0.834046
Si Si4 0.540451 0.500000 0.168665
Si Si5 0.250000 0.000000 0.767303
Si Si6 0.044652 0.399278 0.667938
O O1 0.750000 0.071905 0.693036
O O2 0.008594 0.139395 0.696912
O O3 0.000000 0.069118 0.500000
O O4 0.093741 0.044237 0.756816
O O5 0.750000 0.197588 0.677996
O O6 0.031530 0.243046 0.767191
O O7 0.000000 0.210066 0.500000
O O8 0.750000 0.710835 0.828053
O O9 0.504563 0.654548 0.739873
O O10 0.500000 0.696392 0.000000
O O11 0.750000 0.500000 0.182021
O O12 0.471801 0.551425 0.246501
O O13 0.500000 0.500000 0.000000
O O14 0.250000 0.402667 0.679540
O O15 0.000000 0.400980 0.500000
#
# Coordination Sequence:
#
# PCOD9400336 Si02
#       6
#     8   8   8   4   2   8
#     4  10  19  30  45  73 111 149 186 236 290 353
#     4   9  20  36  54  78 114 148 187 235 295 350
#     4  11  23  40  60  87 117 152 198 248 300 359
#     4  10  23  40  60  86 124 162 207 250 297 348
#     4  12  20  28  46  78 110 152 190 230 294 350
#     4  11  23  40  61  90 120 160 200 249 302 358
#
# _framework density 20.447855000000001
#
# number of rings (size 3 to 8) (size 9 to 14) (size 15 to 20)
#    0.000    1.684    1.053    3.474    1.474    6.737 
#    0.000    0.000    0.000    0.000    0.000    0.737 
#    0.000    0.000    0.000    0.000    0.000    0.000 
#
# Total GULP energy -211607.728311 kJ/mol
# GULP energy per Si atom -5568.624429 kJ/mol
# Density = 2.040131 g / cm^3
# Si number density = 20.447855 Si / 1000 Ang^3
#
#
#
# Elastic Constant Matrix: (Units=GPa)
#
#
# Indices 1 2 3 4 5 6 
#
# 1 86.3642 29.0625 8.3048 0.0000 0.0000 0.0000
# 2 29.0625 152.1171 78.0602 0.0000 0.0000 0.0000
# 3 8.3048 78.0602 108.7149 0.0000 0.0000 0.0000
# 4 0.0000 0.0000 0.0000 32.9452 0.0000 0.0000
# 5 0.0000 0.0000 0.0000 0.0000 23.5338 0.0000
# 6 0.0000 0.0000 0.0000 0.0000 0.0000 30.9971
#
#
#
# Elastic Compliance Matrix: (Units=1/GPa)
#
#
# Indices 1 2 3 4 5 6 
#
# 1 0.012473 -0.002999 0.001201 0.000000 0.000000 0.000000
# 2 -0.002999 0.011130 -0.007763 0.000000 0.000000 0.000000
# 3 0.001201 -0.007763 0.014681 0.000000 0.000000 0.000000
# 4 0.000000 0.000000 0.000000 0.030353 0.000000 0.000000
# 5 0.000000 0.000000 0.000000 0.000000 0.042492 0.000000
# 6 0.000000 0.000000 0.000000 0.000000 0.000000 0.032261
#
#
# Mechanical properties :
#
#
# Convention : Reuss Voigt Hill
#
# Bulk Modulus (GPa) = 52.18915 64.22790 58.20853
# Shear Modulus (GPa) = 29.60335 32.94647 31.27491
#
# Velocity S-wave (km/s) = 3.80906 4.01838 3.91512
# Velocity P-wave (km/s) = 6.70251 7.28070 6.99758
#
# Compressibility (1/GPa) = 0.01916107
#
# Stress axis : x y z
#
# Youngs Moduli (GPa) = 80.17558 89.84378 68.11713
#
# Poissons Ratio (x) = 0.26944 -0.08178
# Poissons Ratio (y) = 0.24045 0.52878
# Poissons Ratio (z) = -0.09626 0.69744
#
# Static dielectric constant tensor:
#      x y z
#    x 1.745520 0.000000 0.000000 
#    y 0.000000 1.803560 0.000000 
#    z 0.000000 0.000000 1.712340 
# 
# From -- ./inp_files/5370.got.cif
#   From: 2010.05.17/outbox.cif.g08.bks.cpg/sg51_3_cif.got.tgz:5370.got - 2010.06.03 11:52:47.
