data_PCOD9400711
_publ_section_title
;
Structure prediction by ZEFSAII (Michael W. Deem and Ramdas Pophale) SiO2 
 PCOD9400711
Probable space group: P M M A
;
_chemical_formula_sum "Si O2"
_cell_formula_units_Z 48
_cell_length_a 8.294106
_cell_length_b 18.398171
_cell_length_c 13.611008
_cell_angle_alpha 90.000000
_cell_angle_beta 90.000000
_cell_angle_gamma 90.000000
_cell_volume 2076.990555
_symmetry_space_group_name_H-M "P M M A"
_symmetry_group_IT_number 51
_symmetry_cell_setting 'orthorhombic'
loop_
_space_group_symop_operation_xyz
x,y,z
1/2-x,-y,z
1/2+x,-y,-z
-x,y,-z
-x,-y,-z
1/2+x,y,-z
1/2-x,y,z
x,-y,z
loop_
_atom_site_type_symbol
_atom_site_label
_atom_site_fract_x
_atom_site_fract_y
_atom_site_fract_z
Si Si1 0.065567 0.385926 0.896394
Si Si2 0.567397 0.269372 0.633677
Si Si3 0.556620 0.578758 0.681955
Si Si4 0.929787 0.234280 0.865474
Si Si5 0.442792 0.079460 0.821187
Si Si6 0.554765 0.113288 0.602448
O O1 0.250000 0.406016 0.884519
O O2 0.974383 0.412232 0.798744
O O3 0.046338 0.298120 0.900262
O O4 0.000000 0.413806 0.000000
O O5 0.750000 0.272854 0.592872
O O6 0.490172 0.349063 0.628302
O O7 0.581615 0.251814 0.749451
O O8 0.485467 0.196007 0.598250
O O9 0.750000 0.580422 0.668805
O O10 0.494403 0.500000 0.649816
O O11 0.750000 0.243725 0.906961
O O12 0.984443 0.150914 0.872821
O O13 0.250000 0.084309 0.827318
O O14 0.492360 0.082487 0.705685
O O15 0.495201 0.000000 0.859476
O O16 0.500000 0.078798 0.500000
O O17 0.750000 0.114116 0.607657
#
# Coordination Sequence:
#
# PCOD9400711 Si02
#       6
#     8   8   8   8   8   8
#     4  11  21  33  50  72 100 131 164 202 244 290
#     4   7  13  27  46  67  89 118 157 198 238 283
#     4   9  17  31  51  73  97 126 162 204 249 296
#     4   9  17  32  52  72  95 125 164 202 238 284
#     4  10  20  33  50  74 102 130 161 197 240 291
#     4  10  19  31  48  69  96 129 166 207 250 295
#
# _framework density 23.11036
#
# number of rings (size 3 to 8) (size 9 to 14) (size 15 to 20)
#    0.000    2.667    0.000    5.000    0.000    2.333 
#    0.000    0.833    0.000    1.000    0.000    0.000 
#    0.000    0.000    0.000    0.000    0.000    0.500 
#
# Total GULP energy -267698.214638 kJ/mol
# GULP energy per Si atom -5577.046138 kJ/mol
# Density = 2.305776 g / cm^3
# Si number density = 23.110360 Si / 1000 Ang^3
#
#
#
# Elastic Constant Matrix: (Units=GPa)
#
#
# Indices 1 2 3 4 5 6 
#
# 1 44.3270 11.0237 -9.4133 0.0000 0.0000 0.0000
# 2 11.0237 192.6331 -10.2440 0.0000 0.0000 0.0000
# 3 -9.4133 -10.2440 37.7798 0.0000 0.0000 0.0000
# 4 0.0000 0.0000 0.0000 -18.3766 0.0000 0.0000
# 5 0.0000 0.0000 0.0000 0.0000 14.6572 0.0000
# 6 0.0000 0.0000 0.0000 0.0000 0.0000 12.8200
#
#
#
# Elastic Compliance Matrix: (Units=1/GPa)
#
#
# Indices 1 2 3 4 5 6 
#
# 1 0.024036 -0.001072 0.005698 0.000000 0.000000 0.000000
# 2 -0.001072 0.005315 0.001174 0.000000 0.000000 0.000000
# 3 0.005698 0.001174 0.028207 0.000000 0.000000 0.000000
# 4 0.000000 0.000000 0.000000 -0.054417 0.000000 0.000000
# 5 0.000000 0.000000 0.000000 0.000000 0.068226 0.000000
# 6 0.000000 0.000000 0.000000 0.000000 0.000000 0.078003
#
#
# Mechanical properties :
#
#
# Convention : Reuss Voigt Hill
#
# Bulk Modulus (GPa) = 14.45967 28.60807 21.53387
# Shear Modulus (GPa) = 31.08985 20.71169 25.90077
#
# Velocity S-wave (km/s) = 3.67178 2.99692 3.35138
# Velocity P-wave (km/s) = 4.92406 4.93773 4.93090
#
# Compressibility (1/GPa) = 0.06915787
#
# Stress axis : x y z
#
# Youngs Moduli (GPa) = 41.60361 188.14608 35.45187
#
# Poissons Ratio (x) = 0.20179 -0.20201
# Poissons Ratio (y) = 0.04462 -0.04162
# Poissons Ratio (z) = -0.23706 -0.22087
#
# Static dielectric constant tensor:
#      x y z
#    x 1.822500 0.000000 0.000000 
#    y 0.000000 1.954650 0.000000 
#    z 0.000000 0.000000 1.892970 
# 
# From -- ./inp_files/27846.got.cif
#   From: 2010.05.17/outbox.cif.g08.bks.cpg/sg51_14_cif.got.tgz:27846.got - 2010.06.03 11:52:47.
