data_PCOD9400887
_publ_section_title
;
Structure prediction by ZEFSAII (Michael W. Deem and Ramdas Pophale) SiO2 
 PCOD9400887
Probable space group: P M M A
;
_chemical_formula_sum "Si O2"
_cell_formula_units_Z 64
_cell_length_a 8.929926
_cell_length_b 29.943549
_cell_length_c 14.342370
_cell_angle_alpha 90.000000
_cell_angle_beta 90.000000
_cell_angle_gamma 90.000000
_cell_volume 3835.059048
_symmetry_space_group_name_H-M "P M M A"
_symmetry_group_IT_number 51
_symmetry_cell_setting 'orthorhombic'
loop_
_space_group_symop_operation_xyz
x,y,z
1/2-x,-y,z
1/2+x,-y,-z
-x,y,-z
-x,-y,-z
1/2+x,y,-z
1/2-x,y,z
x,-y,z
loop_
_atom_site_type_symbol
_atom_site_label
_atom_site_fract_x
_atom_site_fract_y
_atom_site_fract_z
Si Si1 0.928961 0.764384 0.896724
Si Si2 0.071072 0.407453 0.897810
Si Si3 0.417995 0.946352 0.590401
Si Si4 0.927845 0.684230 0.213056
Si Si5 0.930441 0.368491 0.398291
Si Si6 0.069965 0.949874 0.213982
Si Si7 0.430315 0.136068 0.101454
Si Si8 0.928325 0.448338 0.716879
O O1 0.750000 0.761421 0.906387
O O2 0.967763 0.814454 0.861013
O O3 0.987056 0.726730 0.826987
O O4 0.000000 0.758565 0.000000
O O5 0.250000 0.414809 0.901491
O O6 0.045203 0.357562 0.856735
O O7 0.996590 0.438750 0.819338
O O8 0.000000 0.412456 0.000000
O O9 0.500000 0.927624 0.500000
O O10 0.250000 0.928892 0.602006
O O11 0.516754 0.940864 0.681559
O O12 0.405687 0.000000 0.577641
O O13 0.750000 0.692953 0.212423
O O14 0.968948 0.667762 0.317386
O O15 0.750000 0.370651 0.404426
O O16 0.000000 0.359838 0.500000
O O17 0.993210 0.414822 0.355632
O O18 0.250000 0.950713 0.210438
O O19 0.015502 0.907961 0.154546
O O20 0.016948 0.000000 0.186495
O O21 0.250000 0.133773 0.096661
O O22 0.500000 0.134631 0.000000
O O23 0.750000 0.439550 0.718733
O O24 0.952384 0.500000 0.692097
#
# Coordination Sequence:
#
# PCOD9400887 Si02
#       8
#     8   8   8   8   8   8   8   8
#     4  10  19  31  50  74 100 130 160 195 240 290
#     4  10  20  33  50  73 102 134 167 206 251 299
#     4   9  16  26  42  65  90 115 147 188 233 280
#     4   9  19  34  52  76 101 125 158 200 244 292
#     4  10  21  37  57  79 103 131 164 205 250 295
#     4   9  17  30  47  66  92 127 164 203 244 284
#     4   9  19  33  47  68  97 128 164 201 239 285
#     4  10  21  36  53  74 101 135 175 214 250 291
#
# _framework density 16.688139
#
# number of rings (size 3 to 8) (size 9 to 14) (size 15 to 20)
#    0.000    2.500    0.000    3.000    0.000    8.250 
#    0.000    0.000    0.000    0.750    0.000    1.750 
#    0.000    0.000    0.000    0.000    0.000    0.000 
#
# Total GULP energy -356644.696010 kJ/mol
# GULP energy per Si atom -5572.573375 kJ/mol
# Density = 1.665016 g / cm^3
# Si number density = 16.688139 Si / 1000 Ang^3
#
#
#
# Elastic Constant Matrix: (Units=GPa)
#
#
# Indices 1 2 3 4 5 6 
#
# 1 37.6933 46.3335 32.7678 0.0000 0.0000 0.0000
# 2 46.3335 114.4605 58.0982 0.0000 0.0000 0.0000
# 3 32.7678 58.0982 94.1298 0.0000 0.0000 0.0000
# 4 0.0000 0.0000 0.0000 18.9613 0.0000 0.0000
# 5 0.0000 0.0000 0.0000 0.0000 27.6704 0.0000
# 6 0.0000 0.0000 0.0000 0.0000 0.0000 16.4148
#
#
#
# Elastic Compliance Matrix: (Units=1/GPa)
#
#
# Indices 1 2 3 4 5 6 
#
# 1 0.056773 -0.018858 -0.008124 0.000000 0.000000 0.000000
# 2 -0.018858 0.018986 -0.005154 0.000000 0.000000 0.000000
# 3 -0.008124 -0.005154 0.016633 0.000000 0.000000 0.000000
# 4 0.000000 0.000000 0.000000 0.052739 0.000000 0.000000
# 5 0.000000 0.000000 0.000000 0.000000 0.036140 0.000000
# 6 0.000000 0.000000 0.000000 0.000000 0.000000 0.060921
#
#
# Mechanical properties :
#
#
# Convention : Reuss Voigt Hill
#
# Bulk Modulus (GPa) = 35.56149 57.85363 46.70756
# Shear Modulus (GPa) = 15.83095 19.88159 17.85627
#
# Velocity S-wave (km/s) = 3.08333 3.45535 3.27463
# Velocity P-wave (km/s) = 5.83366 7.11773 6.50745
#
# Compressibility (1/GPa) = 0.02812031
#
# Stress axis : x y z
#
# Youngs Moduli (GPa) = 17.61396 52.66919 60.12237
#
# Poissons Ratio (x) = 0.99324 0.48843
# Poissons Ratio (y) = 0.33217 0.30987
# Poissons Ratio (z) = 0.14309 0.27145
#
# Static dielectric constant tensor:
#      x y z
#    x 1.562220 0.000000 0.000000 
#    y 0.000000 1.574870 0.000000 
#    z 0.000000 0.000000 1.537030 
# 
# From -- ./inp_files/14834.got.cif
#   From: 2010.05.17/outbox.cif.g08.bks.cpg/sg51_8_cif.got.tgz:14834.got - 2010.06.03 11:52:47.
