data_PCOD9400609
_publ_section_title
;
Structure prediction by ZEFSAII (Michael W. Deem and Ramdas Pophale) SiO2 
 PCOD9400609
Probable space group: P M M A
;
_chemical_formula_sum "Si O2"
_cell_formula_units_Z 56
_cell_length_a 9.657761
_cell_length_b 20.208874
_cell_length_c 15.688887
_cell_angle_alpha 90.000000
_cell_angle_beta 90.000000
_cell_angle_gamma 90.000000
_cell_volume 3062.038908
_symmetry_space_group_name_H-M "P M M A"
_symmetry_group_IT_number 51
_symmetry_cell_setting 'orthorhombic'
loop_
_space_group_symop_operation_xyz
x,y,z
1/2-x,-y,z
1/2+x,-y,-z
-x,y,-z
-x,-y,-z
1/2+x,y,-z
1/2-x,y,z
x,-y,z
loop_
_atom_site_type_symbol
_atom_site_label
_atom_site_fract_x
_atom_site_fract_y
_atom_site_fract_z
Si Si1 0.582786 0.814391 0.273734
Si Si2 0.090677 0.278821 0.577985
Si Si3 0.904044 0.572391 0.376000
Si Si4 0.085524 0.077411 0.585251
Si Si5 0.409742 0.805072 0.918581
Si Si6 0.590927 0.424101 0.784514
Si Si7 0.091774 0.645398 0.920510
O O1 0.750000 0.810753 0.264576
O O2 0.542936 0.749820 0.330226
O O3 0.548326 0.875741 0.335356
O O4 0.532293 0.820625 0.176401
O O5 0.250000 0.257379 0.567319
O O6 0.089108 0.358509 0.575420
O O7 0.000000 0.253320 0.500000
O O8 0.750000 0.574230 0.333241
O O9 0.908435 0.500000 0.419900
O O10 0.029204 0.574157 0.310015
O O11 0.250000 0.085925 0.569260
O O12 0.000000 0.093154 0.500000
O O13 0.061544 0.000000 0.605333
O O14 0.250000 0.828546 0.926055
O O15 0.405480 0.725012 0.921355
O O16 0.500000 0.827244 0.000000
O O17 0.750000 0.401761 0.787558
O O18 0.585529 0.500000 0.816665
O O19 0.488182 0.379281 0.838079
O O20 0.250000 0.621722 0.924326
O O21 0.000000 0.622348 0.000000
#
# Coordination Sequence:
#
# PCOD9400609 Si02
#       7
#     8   8   8   8   8   8   8
#     4   9  17  31  51  73 101 134 165 200 245 296
#     4  10  20  33  49  71  98 128 162 201 247 296
#     4   9  18  33  50  65  85 119 160 197 238 291
#     4   9  17  30  50  76 105 138 173 205 239 284
#     4   9  18  33  52  73  96 125 162 203 245 290
#     4  10  20  32  46  65  87 112 148 195 244 294
#     4  10  19  31  47  65  87 116 150 191 242 297
#
# _framework density 18.288468999999999
#
# number of rings (size 3 to 8) (size 9 to 14) (size 15 to 20)
#    0.000    2.571    0.000    2.143    0.000    4.857 
#    0.000    1.429    0.000    0.429    0.000    0.000 
#    0.000    0.000    0.000    0.000    0.000    0.000 
#
# Total GULP energy -311863.023016 kJ/mol
# GULP energy per Si atom -5568.982554 kJ/mol
# Density = 1.824684 g / cm^3
# Si number density = 18.288469 Si / 1000 Ang^3
#
#
#
# Elastic Constant Matrix: (Units=GPa)
#
#
# Indices 1 2 3 4 5 6 
#
# 1 94.1115 20.6642 53.6949 0.0000 0.0000 0.0000
# 2 20.6642 61.1627 25.5572 0.0000 0.0000 0.0000
# 3 53.6949 25.5572 123.4949 0.0000 0.0000 0.0000
# 4 0.0000 0.0000 0.0000 24.8995 0.0000 0.0000
# 5 0.0000 0.0000 0.0000 0.0000 31.5005 0.0000
# 6 0.0000 0.0000 0.0000 0.0000 0.0000 15.4955
#
#
#
# Elastic Compliance Matrix: (Units=1/GPa)
#
#
# Indices 1 2 3 4 5 6 
#
# 1 0.014465 -0.002473 -0.005778 0.000000 0.000000 0.000000
# 2 -0.002473 0.018320 -0.002716 0.000000 0.000000 0.000000
# 3 -0.005778 -0.002716 0.011172 0.000000 0.000000 0.000000
# 4 0.000000 0.000000 0.000000 0.040161 0.000000 0.000000
# 5 0.000000 0.000000 0.000000 0.000000 0.031746 0.000000
# 6 0.000000 0.000000 0.000000 0.000000 0.000000 0.064535
#
#
# Mechanical properties :
#
#
# Convention : Reuss Voigt Hill
#
# Bulk Modulus (GPa) = 45.40560 53.17797 49.29179
# Shear Modulus (GPa) = 23.84662 26.30262 25.07462
#
# Velocity S-wave (km/s) = 3.61489 3.79649 3.70680
# Velocity P-wave (km/s) = 6.50420 6.95401 6.73286
#
# Compressibility (1/GPa) = 0.02202371
#
# Stress axis : x y z
#
# Youngs Moduli (GPa) = 69.13223 54.58426 89.51230
#
# Poissons Ratio (x) = 0.13498 0.51716
# Poissons Ratio (y) = 0.17096 0.24313
# Poissons Ratio (z) = 0.39941 0.14826
#
# Static dielectric constant tensor:
#      x y z
#    x 1.627600 0.000000 0.000000 
#    y 0.000000 1.655570 0.000000 
#    z 0.000000 0.000000 1.651590 
# 
# From -- ./inp_files/21821.got.cif
#   From: 2010.05.17/outbox.cif.g08.bks.cpg/sg51_11_cif.got.tgz:21821.got - 2010.06.03 11:52:47.
