data_PCOD9400308
_publ_section_title
;
Structure prediction by ZEFSAII (Michael W. Deem and Ramdas Pophale) SiO2 
 PCOD9400308
Probable space group: P M M A
;
_chemical_formula_sum "Si O2"
_cell_formula_units_Z 64
_cell_length_a 9.130460
_cell_length_b 23.026250
_cell_length_c 16.702945
_cell_angle_alpha 90.000000
_cell_angle_beta 90.000000
_cell_angle_gamma 90.000000
_cell_volume 3511.631409
_symmetry_space_group_name_H-M "P M M A"
_symmetry_group_IT_number 51
_symmetry_cell_setting 'orthorhombic'
loop_
_space_group_symop_operation_xyz
x,y,z
1/2-x,-y,z
1/2+x,-y,-z
-x,y,-z
-x,-y,-z
1/2+x,y,-z
1/2-x,y,z
x,-y,z
loop_
_atom_site_type_symbol
_atom_site_label
_atom_site_fract_x
_atom_site_fract_y
_atom_site_fract_z
Si Si1 0.581711 0.678720 0.705400
Si Si2 0.917941 0.282603 0.888671
Si Si3 0.073943 0.563854 0.745446
Si Si4 0.425103 0.771172 0.419762
Si Si5 0.572956 0.065406 0.766821
Si Si6 0.422965 0.600556 0.922941
Si Si7 0.427016 0.147101 0.084245
Si Si8 0.573890 0.907908 0.584429
O O1 0.750000 0.666073 0.683551
O O2 0.583405 0.705175 0.794107
O O3 0.493297 0.619201 0.701963
O O4 0.522337 0.729849 0.650367
O O5 0.750000 0.292261 0.917974
O O6 0.959011 0.216002 0.905152
O O7 0.027655 0.331989 0.918882
O O8 0.250000 0.566692 0.741497
O O9 0.026753 0.500000 0.717617
O O10 0.032191 0.571915 0.838990
O O11 0.500000 0.750622 0.500000
O O12 0.250000 0.767351 0.424837
O O13 0.457464 0.839052 0.409450
O O14 0.750000 0.071738 0.762612
O O15 0.525420 0.111433 0.835539
O O16 0.525210 0.070286 0.672996
O O17 0.538266 0.000000 0.794179
O O18 0.250000 0.595964 0.930444
O O19 0.500000 0.574154 0.000000
O O20 0.250000 0.141295 0.078320
O O21 0.500000 0.128057 0.000000
O O22 0.500000 0.927979 0.500000
O O23 0.750000 0.917606 0.577541
#
# Coordination Sequence:
#
# PCOD9400308 Si02
#       8
#     8   8   8   8   8   8   8   8
#     4   9  17  30  49  71  93 120 155 194 232 275
#     4   9  17  30  48  69  93 120 152 193 242 290
#     4   9  19  34  48  64  89 121 155 190 230 274
#     4   9  17  29  47  73 102 126 150 184 229 281
#     4   9  18  33  52  72  96 131 172 206 240 290
#     4  10  19  30  45  66  92 120 150 186 229 278
#     4  10  20  33  50  71  95 127 167 209 251 293
#     4   9  17  31  52  77 104 132 160 194 240 294
#
# _framework density 18.225148000000001
#
# number of rings (size 3 to 8) (size 9 to 14) (size 15 to 20)
#    0.000    2.750    0.000    1.500    0.000    6.500 
#    0.000    0.625    0.000    4.125    0.000    0.000 
#    0.000    0.000    0.000    0.000    0.000    0.000 
#
# Total GULP energy -356395.336807 kJ/mol
# GULP energy per Si atom -5568.677138 kJ/mol
# Density = 1.818367 g / cm^3
# Si number density = 18.225148 Si / 1000 Ang^3
#
#
#
# Elastic Constant Matrix: (Units=GPa)
#
#
# Indices 1 2 3 4 5 6 
#
# 1 7.9105 17.2050 11.8013 0.0000 0.0000 0.0000
# 2 17.2050 81.4913 34.8325 0.0000 0.0000 0.0000
# 3 11.8013 34.8325 67.6895 0.0000 0.0000 0.0000
# 4 0.0000 0.0000 0.0000 -7.5290 0.0000 0.0000
# 5 0.0000 0.0000 0.0000 0.0000 27.7475 0.0000
# 6 0.0000 0.0000 0.0000 0.0000 0.0000 6.5324
#
#
#
# Elastic Compliance Matrix: (Units=1/GPa)
#
#
# Indices 1 2 3 4 5 6 
#
# 1 0.256180 -0.044863 -0.021577 0.000000 0.000000 0.000000
# 2 -0.044863 0.023588 -0.004317 0.000000 0.000000 0.000000
# 3 -0.021577 -0.004317 0.020757 0.000000 0.000000 0.000000
# 4 0.000000 0.000000 0.000000 -0.132819 0.000000 0.000000
# 5 0.000000 0.000000 0.000000 0.000000 0.036039 0.000000
# 6 0.000000 0.000000 0.000000 0.000000 0.000000 0.153082
#
#
# Mechanical properties :
#
#
# Convention : Reuss Voigt Hill
#
# Bulk Modulus (GPa) = 6.28892 31.64101 18.96497
# Shear Modulus (GPa) = 9.06873 11.56702 10.31788
#
# Velocity S-wave (km/s) = 2.23310 2.52201 2.38194
# Velocity P-wave (km/s) = 3.17918 5.08720 4.24186
#
# Compressibility (1/GPa) = 0.15900977
#
# Stress axis : x y z
#
# Youngs Moduli (GPa) = 3.90351 42.39407 48.17766
#
# Poissons Ratio (x) = 1.90195 1.03954
# Poissons Ratio (y) = 0.17513 0.20796
# Poissons Ratio (z) = 0.08423 0.18300
#
# Static dielectric constant tensor:
#      x y z
#    x 1.622940 0.000000 0.000000 
#    y 0.000000 1.634450 0.000000 
#    z 0.000000 0.000000 1.653680 
# 
# From -- ./inp_files/28453.got.cif
#   From: 2010.05.17/outbox.cif.g08.bks.cpg/sg51_15_cif.got.tgz:28453.got - 2010.06.03 11:52:47.
