data_PCOD9400289
_publ_section_title
;
Structure prediction by ZEFSAII (Michael W. Deem and Ramdas Pophale) SiO2 
 PCOD9400289
Probable space group: P M M A
;
_chemical_formula_sum "Si O2"
_cell_formula_units_Z 48
_cell_length_a 8.909974
_cell_length_b 18.378257
_cell_length_c 13.909841
_cell_angle_alpha 90.000000
_cell_angle_beta 90.000000
_cell_angle_gamma 90.000000
_cell_volume 2277.733571
_symmetry_space_group_name_H-M "P M M A"
_symmetry_group_IT_number 51
_symmetry_cell_setting 'orthorhombic'
loop_
_space_group_symop_operation_xyz
x,y,z
1/2-x,-y,z
1/2+x,-y,-z
-x,y,-z
-x,-y,-z
1/2+x,y,-z
1/2-x,y,z
x,-y,z
loop_
_atom_site_type_symbol
_atom_site_label
_atom_site_fract_x
_atom_site_fract_y
_atom_site_fract_z
Si Si1 0.926614 0.116877 0.903845
Si Si2 0.567413 0.579032 0.186300
Si Si3 0.581083 0.224480 0.360959
Si Si4 0.578845 0.264398 0.134952
Si Si5 0.931869 0.383004 0.403842
Si Si6 0.069464 0.920361 0.312742
O O1 0.750000 0.106191 0.909274
O O2 0.977948 0.086765 0.800038
O O3 0.968969 0.202434 0.902364
O O4 0.000000 0.085629 0.000000
O O5 0.750000 0.581420 0.184199
O O6 0.518084 0.500000 0.149289
O O7 0.520956 0.652591 0.131329
O O8 0.525977 0.585042 0.299568
O O9 0.750000 0.214550 0.398186
O O10 0.591181 0.244992 0.248024
O O11 0.514700 0.298820 0.401679
O O12 0.493433 0.149296 0.368234
O O13 0.750000 0.258596 0.095859
O O14 0.750000 0.384469 0.408378
O O15 0.000000 0.416800 0.500000
O O16 0.250000 0.916911 0.313931
O O17 0.021724 0.000000 0.348425
#
# Coordination Sequence:
#
# PCOD9400289 Si02
#       6
#     8   8   8   8   8   8
#     4  10  19  30  45  65  90 117 143 174 212 255
#     4   8  14  26  45  67  90 117 147 179 217 260
#     4   8  15  28  44  62  84 113 149 182 211 250
#     4   8  14  27  46  64  83 111 148 183 213 251
#     4   9  17  28  43  65  92 119 148 181 215 255
#     4   9  18  31  46  66  90 113 139 175 218 259
#
# _framework density 21.073581999999998
#
# number of rings (size 3 to 8) (size 9 to 14) (size 15 to 20)
#    0.000    3.333    0.000    2.500    0.000    2.333 
#    0.000    2.500    0.000    2.500    0.000    0.000 
#    0.000    0.000    0.000    0.000    0.000    0.000 
#
# Total GULP energy -267370.536114 kJ/mol
# GULP energy per Si atom -5570.219502 kJ/mol
# Density = 2.102562 g / cm^3
# Si number density = 21.073582 Si / 1000 Ang^3
#
#
#
# Elastic Constant Matrix: (Units=GPa)
#
#
# Indices 1 2 3 4 5 6 
#
# 1 5.6395 13.9796 -2.2554 0.0000 0.0000 0.0000
# 2 13.9796 160.9598 -12.5118 0.0000 0.0000 0.0000
# 3 -2.2554 -12.5118 23.7267 0.0000 0.0000 0.0000
# 4 0.0000 0.0000 0.0000 -0.2854 0.0000 0.0000
# 5 0.0000 0.0000 0.0000 0.0000 17.6879 0.0000
# 6 0.0000 0.0000 0.0000 0.0000 0.0000 2.5878
#
#
#
# Elastic Compliance Matrix: (Units=1/GPa)
#
#
# Indices 1 2 3 4 5 6 
#
# 1 0.229077 -0.018981 0.011767 0.000000 0.000000 0.000000
# 2 -0.018981 0.008051 0.002441 0.000000 0.000000 0.000000
# 3 0.011767 0.002441 0.044552 0.000000 0.000000 0.000000
# 4 0.000000 0.000000 0.000000 -3.504066 0.000000 0.000000
# 5 0.000000 0.000000 0.000000 0.000000 0.056536 0.000000
# 6 0.000000 0.000000 0.000000 0.000000 0.000000 0.386431
#
#
# Mechanical properties :
#
#
# Convention : Reuss Voigt Hill
#
# Bulk Modulus (GPa) = 3.67466 20.97231 12.32348
# Shear Modulus (GPa) = -1.86626 16.73896 7.43635
#
# Velocity S-wave (km/s) = -0.94208 2.82141 1.88054
# Velocity P-wave (km/s) = 0.75111 4.53733 3.25204
#
# Compressibility (1/GPa) = 0.27213436
#
# Stress axis : x y z
#
# Youngs Moduli (GPa) = 4.36534 124.20775 22.44545
#
# Poissons Ratio (x) = 2.35760 -0.26411
# Poissons Ratio (y) = 0.08286 -0.05479
# Poissons Ratio (z) = -0.05137 -0.30322
#
# Static dielectric constant tensor:
#      x y z
#    x 1.724690 0.000000 0.000000 
#    y 0.000000 1.805990 0.000000 
#    z 0.000000 0.000000 1.805860 
# 
# From -- ./inp_files/27840.got.cif
#   From: 2010.05.17/outbox.cif.g08.bks.cpg/sg51_14_cif.got.tgz:27840.got - 2010.06.03 11:52:47.
