data_PCOD9400146
_publ_section_title
;
Structure prediction by ZEFSAII (Michael W. Deem and Ramdas Pophale) SiO2 
 PCOD9400146
Probable space group: P M M A
;
_chemical_formula_sum "Si O2"
_cell_formula_units_Z 32
_cell_length_a 16.823306
_cell_length_b 11.360271
_cell_length_c 7.237876
_cell_angle_alpha 90.000000
_cell_angle_beta 90.000000
_cell_angle_gamma 90.000000
_cell_volume 1383.283429
_symmetry_space_group_name_H-M "P M M A"
_symmetry_group_IT_number 51
_symmetry_cell_setting 'orthorhombic'
loop_
_space_group_symop_operation_xyz
x,y,z
1/2-x,-y,z
1/2+x,-y,-z
-x,y,-z
-x,-y,-z
1/2+x,y,-z
1/2-x,y,z
x,-y,z
loop_
_atom_site_type_symbol
_atom_site_label
_atom_site_fract_x
_atom_site_fract_y
_atom_site_fract_z
Si Si1 0.158013 0.500000 0.464654
Si Si2 0.156407 0.500000 0.015527
Si Si3 0.906187 0.000000 0.967836
Si Si4 0.093791 0.251788 0.468845
Si Si5 0.595913 0.000000 0.527684
Si Si6 0.846035 0.752275 0.953227
O O1 0.250000 0.500000 0.506297
O O2 0.149573 0.500000 0.240384
O O3 0.123803 0.377593 0.537298
O O4 0.250000 0.500000 0.969510
O O5 0.125410 0.628661 0.957183
O O6 0.889268 0.000000 0.747918
O O7 0.871904 0.876312 0.039369
O O8 0.000000 0.000000 0.000000
O O9 0.116492 0.249379 0.252023
O O10 0.000000 0.249891 0.500000
O O11 0.126444 0.126283 0.542810
O O12 0.500000 0.000000 0.500000
O O13 0.750000 0.749051 0.937983
#
# Coordination Sequence:
#
# PCOD9400146 Si02
#       6
#     4   4   4   8   4   8
#     4   9  15  23  35  58  91 124 156 196 239 286
#     4   7  12  23  40  60  85 114 153 198 234 270
#     4  10  19  29  44  71  99 118 149 200 242 277
#     4   9  15  24  40  64  92 121 155 201 246 281
#     4   8  16  29  44  63  90 122 151 184 227 281
#     4   9  16  28  45  66  91 124 161 199 239 288
#
# _framework density 23.133365000000001
#
# number of rings (size 3 to 8) (size 9 to 14) (size 15 to 20)
#    0.000    3.250    0.000    3.000    0.000    0.000 
#    0.000    2.500    0.000    0.000    0.000   87.500 
#    0.000   18.000    0.000    0.000    0.000    0.000 
#
# Total GULP energy -178294.097939 kJ/mol
# GULP energy per Si atom -5571.690561 kJ/mol
# Density = 2.308071 g / cm^3
# Si number density = 23.133365 Si / 1000 Ang^3
#
#
#
# Elastic Constant Matrix: (Units=GPa)
#
#
# Indices 1 2 3 4 5 6 
#
# 1 59.3375 56.4700 -0.7875 0.0000 0.0000 0.0000
# 2 56.4700 357.1952 18.3092 0.0000 0.0000 0.0000
# 3 -0.7875 18.3092 104.6792 0.0000 0.0000 0.0000
# 4 0.0000 0.0000 0.0000 -43.1308 0.0000 0.0000
# 5 0.0000 0.0000 0.0000 0.0000 9.6751 0.0000
# 6 0.0000 0.0000 0.0000 0.0000 0.0000 26.9589
#
#
#
# Elastic Compliance Matrix: (Units=1/GPa)
#
#
# Indices 1 2 3 4 5 6 
#
# 1 0.019889 -0.003180 0.000706 0.000000 0.000000 0.000000
# 2 -0.003180 0.003334 -0.000607 0.000000 0.000000 0.000000
# 3 0.000706 -0.000607 0.009664 0.000000 0.000000 0.000000
# 4 0.000000 0.000000 0.000000 -0.023185 0.000000 0.000000
# 5 0.000000 0.000000 0.000000 0.000000 0.103358 0.000000
# 6 0.000000 0.000000 0.000000 0.000000 0.000000 0.037094
#
#
# Mechanical properties :
#
#
# Convention : Reuss Voigt Hill
#
# Bulk Modulus (GPa) = 37.41989 74.35506 55.88748
# Shear Modulus (GPa) = 30.26184 28.51531 29.38858
#
# Velocity S-wave (km/s) = 3.62076 3.51472 3.56813
# Velocity P-wave (km/s) = 5.80437 6.97730 6.41768
#
# Compressibility (1/GPa) = 0.02672376
#
# Stress axis : x y z
#
# Youngs Moduli (GPa) = 50.27935 299.98384 103.47181
#
# Poissons Ratio (x) = 0.95409 -0.07304
# Poissons Ratio (y) = 0.15991 0.06281
# Poissons Ratio (z) = -0.03549 0.18208
#
# Static dielectric constant tensor:
#      x y z
#    x 1.772200 0.000000 0.000000 
#    y 0.000000 2.001530 0.000000 
#    z 0.000000 0.000000 1.643050 
# 
# From -- ./inp_files/7654.got.cif
#   From: 2010.05.17/outbox.cif.g08.bks.cpg/sg51_4_cif.got.tgz:7654.got - 2010.06.03 11:52:47.
