data_PCOD9400608
_publ_section_title
;
Structure prediction by ZEFSAII (Michael W. Deem and Ramdas Pophale) SiO2 
 PCOD9400608
Probable space group: P M M A
;
_chemical_formula_sum "Si O2"
_cell_formula_units_Z 56
_cell_length_a 8.723888
_cell_length_b 14.852900
_cell_length_c 23.647685
_cell_angle_alpha 90.000000
_cell_angle_beta 90.000000
_cell_angle_gamma 90.000000
_cell_volume 3064.149637
_symmetry_space_group_name_H-M "P M M A"
_symmetry_group_IT_number 51
_symmetry_cell_setting 'orthorhombic'
loop_
_space_group_symop_operation_xyz
x,y,z
1/2-x,-y,z
1/2+x,-y,-z
-x,y,-z
-x,-y,-z
1/2+x,y,-z
1/2-x,y,z
x,-y,z
loop_
_atom_site_type_symbol
_atom_site_label
_atom_site_fract_x
_atom_site_fract_y
_atom_site_fract_z
Si Si1 0.434710 0.395465 0.560382
Si Si2 0.424011 0.354284 0.212678
Si Si3 0.066024 0.205581 0.940388
Si Si4 0.433759 0.596299 0.903079
Si Si5 0.435650 0.706215 0.673288
Si Si6 0.924098 0.145977 0.826898
Si Si7 0.434150 0.096618 0.710629
O O1 0.500000 0.365612 0.500000
O O2 0.250000 0.392839 0.557875
O O3 0.480770 0.500000 0.569013
O O4 0.483883 0.335647 0.613621
O O5 0.250000 0.388381 0.214770
O O6 0.519472 0.400029 0.162838
O O7 0.500061 0.351566 0.274230
O O8 0.418662 0.250194 0.192844
O O9 0.250000 0.204737 0.940631
O O10 0.011718 0.310040 0.930721
O O11 0.005352 0.148030 0.887485
O O12 0.000000 0.174351 0.000000
O O13 0.250000 0.597319 0.907357
O O14 0.490878 0.500000 0.926464
O O15 0.250000 0.704208 0.676407
O O16 0.487038 0.810301 0.681606
O O17 0.750000 0.112728 0.830966
O O18 0.014702 0.100195 0.775963
O O19 0.250000 0.098302 0.708313
O O20 0.487025 0.000000 0.686572
#
# Coordination Sequence:
#
# PCOD9400608 Si02
#       7
#     8   8   8   8   8   8   8
#     4   9  18  32  49  69  94 127 167 206 241 277
#     4   9  17  28  43  65  90 116 149 190 235 281
#     4  10  19  31  47  65  86 116 156 198 239 286
#     4   9  18  31  44  59  84 119 155 192 238 291
#     4   9  17  30  48  70  97 128 160 195 237 285
#     4   9  17  30  47  67  92 120 150 186 230 279
#     4   9  17  30  50  75 100 126 156 190 231 283
#
# _framework density 18.275869
#
# number of rings (size 3 to 8) (size 9 to 14) (size 15 to 20)
#    0.000    2.857    0.000    1.286    0.000    6.000 
#    0.000    1.429    0.000    0.857    0.000    0.000 
#    0.000    0.000    0.000    0.000    0.000    0.000 
#
# Total GULP energy -312010.308479 kJ/mol
# GULP energy per Si atom -5571.612651 kJ/mol
# Density = 1.823427 g / cm^3
# Si number density = 18.275869 Si / 1000 Ang^3
#
#
#
# Elastic Constant Matrix: (Units=GPa)
#
#
# Indices 1 2 3 4 5 6 
#
# 1 8.5362 -0.0319 13.9376 0.0000 0.0000 0.0000
# 2 -0.0319 51.2871 25.9341 0.0000 0.0000 0.0000
# 3 13.9376 25.9341 134.5987 0.0000 0.0000 0.0000
# 4 0.0000 0.0000 0.0000 8.8773 0.0000 0.0000
# 5 0.0000 0.0000 0.0000 0.0000 26.7299 0.0000
# 6 0.0000 0.0000 0.0000 0.0000 0.0000 1.4698
#
#
#
# Elastic Compliance Matrix: (Units=1/GPa)
#
#
# Indices 1 2 3 4 5 6 
#
# 1 0.144228 0.008467 -0.016566 0.000000 0.000000 0.000000
# 2 0.008467 0.022100 -0.005135 0.000000 0.000000 0.000000
# 3 -0.016566 -0.005135 0.010134 0.000000 0.000000 0.000000
# 4 0.000000 0.000000 0.000000 0.112647 0.000000 0.000000
# 5 0.000000 0.000000 0.000000 0.000000 0.037411 0.000000
# 6 0.000000 0.000000 0.000000 0.000000 0.000000 0.680382
#
#
# Mechanical properties :
#
#
# Convention : Reuss Voigt Hill
#
# Bulk Modulus (GPa) = 6.66695 30.45573 18.56134
# Shear Modulus (GPa) = 4.61524 17.72088 11.16806
#
# Velocity S-wave (km/s) = 1.59085 3.11727 2.47469
# Velocity P-wave (km/s) = 2.65147 5.44584 4.28295
#
# Compressibility (1/GPa) = 0.14999368
#
# Stress axis : x y z
#
# Youngs Moduli (GPa) = 6.93347 45.24913 98.67514
#
# Poissons Ratio (x) = -0.38311 1.63465
# Poissons Ratio (y) = -0.05870 0.50668
# Poissons Ratio (z) = 0.11486 0.23235
#
# Static dielectric constant tensor:
#      x y z
#    x 1.554380 0.000000 0.000000 
#    y 0.000000 1.697880 0.000000 
#    z 0.000000 0.000000 1.595340 
# 
# From -- ./inp_files/32030.got.cif
#   From: 2010.05.17/outbox.cif.g08.bks.cpg/sg51_17_cif.got.tgz:32030.got - 2010.06.03 11:52:47.
