data_PCOD9400244
_publ_section_title
;
Structure prediction by ZEFSAII (Michael W. Deem and Ramdas Pophale) SiO2 
 PCOD9400244
Probable space group: P M M A
;
_chemical_formula_sum "Si O2"
_cell_formula_units_Z 56
_cell_length_a 9.217461
_cell_length_b 22.253137
_cell_length_c 15.830358
_cell_angle_alpha 90.000000
_cell_angle_beta 90.000000
_cell_angle_gamma 90.000000
_cell_volume 3247.082229
_symmetry_space_group_name_H-M "P M M A"
_symmetry_group_IT_number 51
_symmetry_cell_setting 'orthorhombic'
loop_
_space_group_symop_operation_xyz
x,y,z
1/2-x,-y,z
1/2+x,-y,-z
-x,y,-z
-x,-y,-z
1/2+x,y,-z
1/2-x,y,z
x,-y,z
loop_
_atom_site_type_symbol
_atom_site_label
_atom_site_fract_x
_atom_site_fract_y
_atom_site_fract_z
Si Si1 0.923358 0.564328 0.909172
Si Si2 0.588381 0.928809 0.921424
Si Si3 0.915458 0.093980 0.248442
Si Si4 0.417981 0.760914 0.414464
Si Si5 0.083017 0.761262 0.755545
Si Si6 0.916991 0.907529 0.584372
Si Si7 0.424920 0.698653 0.092331
O O1 0.750000 0.564119 0.921110
O O2 0.961872 0.500000 0.866620
O O3 0.956956 0.630430 0.874201
O O4 0.000000 0.563527 0.000000
O O5 0.750000 0.902755 0.914391
O O6 0.500756 0.923010 0.835464
O O7 0.603354 0.000000 0.937653
O O8 0.500000 0.901966 0.000000
O O9 0.750000 0.072572 0.246756
O O10 0.912597 0.166468 0.249831
O O11 0.999169 0.072993 0.331767
O O12 0.500000 0.742080 0.500000
O O13 0.250000 0.741903 0.413816
O O14 0.501698 0.740923 0.329995
O O15 0.417798 0.834198 0.414895
O O16 0.250000 0.739932 0.759284
O O17 0.994797 0.742327 0.838636
O O18 0.750000 0.926612 0.584508
O O19 0.000000 0.926522 0.500000
O O20 0.250000 0.706135 0.085268
O O21 0.500000 0.705304 0.000000
#
# Coordination Sequence:
#
# PCOD9400244 Si02
#       7
#     8   8   8   8   8   8   8
#     4   8  14  25  41  60  81 108 146 189 228 266
#     4  10  21  37  56  75  93 115 147 189 233 273
#     4  10  20  33  50  71  94 122 154 187 225 269
#     4   9  16  27  44  65  89 118 151 187 226 266
#     4  10  20  32  45  65  94 125 156 188 223 267
#     4   9  16  27  45  69  96 123 151 183 219 264
#     4  10  19  30  44  62  88 123 157 189 228 271
#
# _framework density 17.246251999999998
#
# number of rings (size 3 to 8) (size 9 to 14) (size 15 to 20)
#    0.000    2.571    0.000    2.571    0.000    7.143 
#    0.000    0.000    0.000    0.429    0.000    0.000 
#    0.000    0.571    0.000    1.571    0.000    2.571 
#
# Total GULP energy -312112.591625 kJ/mol
# GULP energy per Si atom -5573.439136 kJ/mol
# Density = 1.720700 g / cm^3
# Si number density = 17.246252 Si / 1000 Ang^3
#
#
#
# Elastic Constant Matrix: (Units=GPa)
#
#
# Indices 1 2 3 4 5 6 
#
# 1 164.4659 16.3279 93.2639 0.0000 0.0000 0.0000
# 2 16.3279 34.5825 12.5039 0.0000 0.0000 0.0000
# 3 93.2639 12.5039 147.0509 0.0000 0.0000 0.0000
# 4 0.0000 0.0000 0.0000 7.1069 0.0000 0.0000
# 5 0.0000 0.0000 0.0000 0.0000 31.8616 0.0000
# 6 0.0000 0.0000 0.0000 0.0000 0.0000 8.3445
#
#
#
# Elastic Compliance Matrix: (Units=1/GPa)
#
#
# Indices 1 2 3 4 5 6 
#
# 1 0.009689 -0.002427 -0.005939 0.000000 0.000000 0.000000
# 2 -0.002427 0.030442 -0.001049 0.000000 0.000000 0.000000
# 3 -0.005939 -0.001049 0.010656 0.000000 0.000000 0.000000
# 4 0.000000 0.000000 0.000000 0.140708 0.000000 0.000000
# 5 0.000000 0.000000 0.000000 0.000000 0.031386 0.000000
# 6 0.000000 0.000000 0.000000 0.000000 0.000000 0.119840
#
#
# Mechanical properties :
#
#
# Convention : Reuss Voigt Hill
#
# Bulk Modulus (GPa) = 31.29232 65.58787 48.44009
# Shear Modulus (GPa) = 13.43358 24.39618 18.91488
#
# Velocity S-wave (km/s) = 2.79395 3.76517 3.31532
# Velocity P-wave (km/s) = 5.34715 7.55081 6.54243
#
# Compressibility (1/GPa) = 0.03195672
#
# Stress axis : x y z
#
# Youngs Moduli (GPa) = 103.21145 32.84968 93.84419
#
# Poissons Ratio (x) = 0.07974 0.55730
# Poissons Ratio (y) = 0.25053 0.09844
# Poissons Ratio (z) = 0.61293 0.03446
#
# Static dielectric constant tensor:
#      x y z
#    x 1.591620 0.000000 0.000000 
#    y 0.000000 1.633990 0.000000 
#    z 0.000000 0.000000 1.552700 
# 
# From -- ./inp_files/21781.got.cif
#   From: 2010.05.17/outbox.cif.g08.bks.cpg/sg51_11_cif.got.tgz:21781.got - 2010.06.03 11:52:47.
