data_PCOD9400401
_publ_section_title
;
Structure prediction by ZEFSAII (Michael W. Deem and Ramdas Pophale) SiO2 
 PCOD9400401
Probable space group: P M M A
;
_chemical_formula_sum "Si O2"
_cell_formula_units_Z 48
_cell_length_a 8.999136
_cell_length_b 14.080387
_cell_length_c 24.372580
_cell_angle_alpha 90.000000
_cell_angle_beta 90.000000
_cell_angle_gamma 90.000000
_cell_volume 3088.281724
_symmetry_space_group_name_H-M "P M M A"
_symmetry_group_IT_number 51
_symmetry_cell_setting 'orthorhombic'
loop_
_space_group_symop_operation_xyz
x,y,z
1/2-x,-y,z
1/2+x,-y,-z
-x,y,-z
-x,-y,-z
1/2+x,y,-z
1/2-x,y,z
x,-y,z
loop_
_atom_site_type_symbol
_atom_site_label
_atom_site_fract_x
_atom_site_fract_y
_atom_site_fract_z
Si Si1 0.572543 0.708591 0.661437
Si Si2 0.071367 0.889324 0.942377
Si Si3 0.428375 0.212959 0.830866
Si Si4 0.928381 0.891181 0.728506
Si Si5 0.572749 0.388688 0.441982
Si Si6 0.928443 0.609348 0.776577
O O1 0.750000 0.703258 0.652154
O O2 0.534389 0.815223 0.681155
O O3 0.488862 0.672774 0.608049
O O4 0.537627 0.642645 0.714286
O O5 0.250000 0.885212 0.947014
O O6 0.026329 0.826270 0.890394
O O7 0.030433 0.000000 0.932452
O O8 0.000000 0.859881 0.000000
O O9 0.250000 0.213713 0.827987
O O10 0.491935 0.143714 0.783752
O O11 0.492223 0.316525 0.816620
O O12 0.750000 0.884049 0.737020
O O13 0.965202 0.000000 0.715704
O O14 0.500000 0.361562 0.500000
O O15 0.750000 0.380894 0.445713
O O16 0.534870 0.500000 0.432035
O O17 0.750000 0.618158 0.782978
O O18 0.970564 0.500000 0.784882
#
# Coordination Sequence:
#
# PCOD9400401 Si02
#       6
#     8   8   8   8   8   8
#     4   9  17  30  48  69  93 120 150 187 228 267
#     4   9  18  31  46  66  92 121 152 187 229 275
#     4  10  19  30  46  70  98 123 150 190 236 277
#     4   9  18  32  49  69  94 126 160 189 223 272
#     4  10  20  32  47  68  93 121 152 186 226 272
#     4   9  18  32  49  69  94 125 158 189 225 273
#
# _framework density 15.542624
#
# number of rings (size 3 to 8) (size 9 to 14) (size 15 to 20)
#    0.000    2.667    0.000    3.000    0.000    7.000 
#    0.000    1.667    0.000    1.000    0.000    0.000 
#    0.000    0.000    0.000    0.000    0.000    0.000 
#
# Total GULP energy -267627.831856 kJ/mol
# GULP energy per Si atom -5575.579830 kJ/mol
# Density = 1.550725 g / cm^3
# Si number density = 15.542624 Si / 1000 Ang^3
#
#
#
# Elastic Constant Matrix: (Units=GPa)
#
#
# Indices 1 2 3 4 5 6 
#
# 1 31.0884 44.4422 53.5653 0.0000 0.0000 0.0000
# 2 44.4422 129.3075 87.6926 0.0000 0.0000 0.0000
# 3 53.5653 87.6926 148.5087 0.0000 0.0000 0.0000
# 4 0.0000 0.0000 0.0000 21.4997 0.0000 0.0000
# 5 0.0000 0.0000 0.0000 0.0000 31.1227 0.0000
# 6 0.0000 0.0000 0.0000 0.0000 0.0000 22.4397
#
#
#
# Elastic Compliance Matrix: (Units=1/GPa)
#
#
# Indices 1 2 3 4 5 6 
#
# 1 0.103621 -0.017125 -0.027262 0.000000 0.000000 0.000000
# 2 -0.017125 0.015729 -0.003111 0.000000 0.000000 0.000000
# 3 -0.027262 -0.003111 0.018404 0.000000 0.000000 0.000000
# 4 0.000000 0.000000 0.000000 0.046512 0.000000 0.000000
# 5 0.000000 0.000000 0.000000 0.000000 0.032131 0.000000
# 6 0.000000 0.000000 0.000000 0.000000 0.000000 0.044564
#
#
# Mechanical properties :
#
#
# Convention : Reuss Voigt Hill
#
# Bulk Modulus (GPa) = 23.38839 75.58942 49.48890
# Shear Modulus (GPa) = 13.50584 23.22606 18.36595
#
# Velocity S-wave (km/s) = 2.95100 3.86987 3.44124
# Velocity P-wave (km/s) = 5.16641 8.28897 6.90648
#
# Compressibility (1/GPa) = 0.04275626
#
# Stress axis : x y z
#
# Youngs Moduli (GPa) = 9.65059 63.57632 54.33642
#
# Poissons Ratio (x) = 1.08876 1.48135
# Poissons Ratio (y) = 0.16527 0.16904
# Poissons Ratio (z) = 0.26310 0.19779
#
# Static dielectric constant tensor:
#      x y z
#    x 1.519300 0.000000 0.000000 
#    y 0.000000 1.518170 0.000000 
#    z 0.000000 0.000000 1.487880 
# 
# From -- ./inp_files/31629.got.cif
#   From: 2010.05.17/outbox.cif.g08.bks.cpg/sg51_16_cif.got.tgz:31629.got - 2010.06.03 11:52:47.
