data_PCOD9400497
_publ_section_title
;
Structure prediction by ZEFSAII (Michael W. Deem and Ramdas Pophale) SiO2 
 PCOD9400497
Probable space group: P M M A
;
_chemical_formula_sum "Si O2"
_cell_formula_units_Z 48
_cell_length_a 20.969067
_cell_length_b 9.074555
_cell_length_c 14.536623
_cell_angle_alpha 90.000000
_cell_angle_beta 90.000000
_cell_angle_gamma 90.000000
_cell_volume 2766.100607
_symmetry_space_group_name_H-M "P M M A"
_symmetry_group_IT_number 51
_symmetry_cell_setting 'orthorhombic'
loop_
_space_group_symop_operation_xyz
x,y,z
1/2-x,-y,z
1/2+x,-y,-z
-x,y,-z
-x,-y,-z
1/2+x,y,-z
1/2-x,y,z
x,-y,z
loop_
_atom_site_type_symbol
_atom_site_label
_atom_site_fract_x
_atom_site_fract_y
_atom_site_fract_z
Si Si1 0.675023 0.336117 0.198658
Si Si2 0.174808 0.823720 0.987775
Si Si3 0.516527 0.674944 0.715618
Si Si4 0.054844 0.676493 0.073774
Si Si5 0.930258 0.171579 0.549539
Si Si6 0.887614 0.176738 0.357344
O O1 0.750000 0.352065 0.186246
O O2 0.645161 0.500000 0.197635
O O3 0.654054 0.239314 0.112004
O O4 0.663909 0.253443 0.293741
O O5 0.250000 0.784408 0.004888
O O6 0.171217 0.000000 0.987959
O O7 0.122382 0.754695 0.055148
O O8 0.507149 0.500000 0.704514
O O9 0.533155 0.705032 0.821514
O O10 0.568072 0.731181 0.640773
O O11 0.453100 0.762447 0.686743
O O12 0.063255 0.500000 0.062914
O O13 0.000000 0.721932 0.000000
O O14 0.884691 0.216440 0.465285
O O15 0.000000 0.179767 0.500000
O O16 0.919862 0.000000 0.573123
O O17 0.886375 0.000000 0.351404
#
# Coordination Sequence:
#
# PCOD9400497 Si02
#       6
#     8   8   8   8   8   8
#     4  10  20  33  50  72  98 128 160 198 246 296
#     4  10  21  36  54  76 101 133 173 210 248 302
#     4  10  19  30  48  74 101 130 165 204 246 294
#     4  10  21  35  51  75 106 136 169 211 256 300
#     4   8  16  30  46  67  96 128 159 193 239 293
#     4  10  19  31  49  72  99 130 162 199 245 295
#
# _framework density 17.352948000000001
#
# number of rings (size 3 to 8) (size 9 to 14) (size 15 to 20)
#    0.000    2.333    0.000    4.000    0.000    8.667 
#    0.000    0.000    0.000    1.000    0.000    0.000 
#    0.000    0.000    0.000    0.000    0.000    0.000 
#
# Total GULP energy -267444.581372 kJ/mol
# GULP energy per Si atom -5571.762112 kJ/mol
# Density = 1.731345 g / cm^3
# Si number density = 17.352948 Si / 1000 Ang^3
#
#
#
# Elastic Constant Matrix: (Units=GPa)
#
#
# Indices 1 2 3 4 5 6 
#
# 1 41.2687 28.0345 26.1746 0.0000 0.0000 0.0000
# 2 28.0345 67.1876 51.9471 0.0000 0.0000 0.0000
# 3 26.1746 51.9471 106.4443 0.0000 0.0000 0.0000
# 4 0.0000 0.0000 0.0000 25.2600 0.0000 0.0000
# 5 0.0000 0.0000 0.0000 0.0000 26.6647 0.0000
# 6 0.0000 0.0000 0.0000 0.0000 0.0000 25.3211
#
#
#
# Elastic Compliance Matrix: (Units=1/GPa)
#
#
# Indices 1 2 3 4 5 6 
#
# 1 0.034170 -0.012464 -0.002319 0.000000 0.000000 0.000000
# 2 -0.012464 0.028449 -0.010819 0.000000 0.000000 0.000000
# 3 -0.002319 -0.010819 0.015245 0.000000 0.000000 0.000000
# 4 0.000000 0.000000 0.000000 0.039588 0.000000 0.000000
# 5 0.000000 0.000000 0.000000 0.000000 0.037503 0.000000
# 6 0.000000 0.000000 0.000000 0.000000 0.000000 0.039493
#
#
# Mechanical properties :
#
#
# Convention : Reuss Voigt Hill
#
# Bulk Modulus (GPa) = 37.51141 47.46811 42.48976
# Shear Modulus (GPa) = 19.64335 22.69880 21.17107
#
# Velocity S-wave (km/s) = 3.36815 3.62064 3.49668
# Velocity P-wave (km/s) = 6.06544 6.70020 6.39071
#
# Compressibility (1/GPa) = 0.02665855
#
# Stress axis : x y z
#
# Youngs Moduli (GPa) = 29.26568 35.15020 65.59595
#
# Poissons Ratio (x) = 0.43812 0.15215
# Poissons Ratio (y) = 0.36477 0.70968
# Poissons Ratio (z) = 0.06788 0.38029
#
# Static dielectric constant tensor:
#      x y z
#    x 1.648130 0.000000 0.000000 
#    y 0.000000 1.592730 0.000000 
#    z 0.000000 0.000000 1.613920 
# 
# From -- ./inp_files/25506.got.cif
#   From: 2010.05.17/outbox.cif.g08.bks.cpg/sg51_13_cif.got.tgz:25506.got - 2010.06.03 11:52:47.
