data_PCOD9400964
_publ_section_title
;
Structure prediction by ZEFSAII (Michael W. Deem and Ramdas Pophale) SiO2 
 PCOD9400964
Probable space group: P M M A
;
_chemical_formula_sum "Si O2"
_cell_formula_units_Z 32
_cell_length_a 8.835888
_cell_length_b 10.391074
_cell_length_c 19.792937
_cell_angle_alpha 90.000000
_cell_angle_beta 90.000000
_cell_angle_gamma 90.000000
_cell_volume 1817.275963
_symmetry_space_group_name_H-M "P M M A"
_symmetry_group_IT_number 51
_symmetry_cell_setting 'orthorhombic'
loop_
_space_group_symop_operation_xyz
x,y,z
1/2-x,-y,z
1/2+x,-y,-z
-x,y,-z
-x,-y,-z
1/2+x,y,-z
1/2-x,y,z
x,-y,z
loop_
_atom_site_type_symbol
_atom_site_label
_atom_site_fract_x
_atom_site_fract_y
_atom_site_fract_z
Si Si1 0.424149 0.156491 0.569669
Si Si2 0.931474 0.500000 0.924432
Si Si3 0.431259 0.000000 0.926058
Si Si4 0.931940 0.257835 0.154345
Si Si5 0.930723 0.152269 0.711992
O O1 0.500000 0.201378 0.500000
O O2 0.250000 0.197842 0.574059
O O3 0.514376 0.191190 0.637327
O O4 0.424908 0.000000 0.567389
O O5 0.750000 0.500000 0.928503
O O6 0.990754 0.376203 0.883581
O O7 0.000000 0.500000 0.000000
O O8 0.475089 0.127665 0.885572
O O9 0.250000 0.000000 0.931377
O O10 0.500000 0.000000 0.000000
O O11 0.750000 0.272208 0.153098
O O12 0.989168 0.235475 0.230372
O O13 0.750000 0.163027 0.717238
O O14 0.970818 0.000000 0.721313
#
# Coordination Sequence:
#
# PCOD9400964 Si02
#       5
#     8   4   4   8   8
#     4   9  16  26  42  67 103 145 185 227 274 328
#     4  12  26  44  62  84 111 146 187 232 282 338
#     4  10  22  36  56  82 109 138 177 222 274 332
#     4  11  22  39  59  83 111 147 186 230 281 334
#     4  10  19  31  50  78 111 147 185 229 278 331
#
# _framework density 17.608771999999998
#
# number of rings (size 3 to 8) (size 9 to 14) (size 15 to 20)
#    0.000    1.750    1.250    4.125    0.000    8.000 
#    0.000    0.000    0.000    0.000    0.000    0.875 
#    0.000    0.000    0.000    0.000    0.000    0.000 
#
# Total GULP energy -178691.201992 kJ/mol
# GULP energy per Si atom -5584.100062 kJ/mol
# Density = 1.756869 g / cm^3
# Si number density = 17.608772 Si / 1000 Ang^3
#
#
#
# Elastic Constant Matrix: (Units=GPa)
#
#
# Indices 1 2 3 4 5 6 
#
# 1 99.9101 50.1259 65.7000 0.0000 0.0000 0.0000
# 2 50.1259 95.6655 63.7915 0.0000 0.0000 0.0000
# 3 65.7000 63.7915 177.0670 0.0000 0.0000 0.0000
# 4 0.0000 0.0000 0.0000 4.4606 0.0000 0.0000
# 5 0.0000 0.0000 0.0000 0.0000 40.7252 0.0000
# 6 0.0000 0.0000 0.0000 0.0000 0.0000 17.6608
#
#
#
# Elastic Compliance Matrix: (Units=1/GPa)
#
#
# Indices 1 2 3 4 5 6 
#
# 1 0.015174 -0.005523 -0.003640 0.000000 0.000000 0.000000
# 2 -0.005523 0.015769 -0.003632 0.000000 0.000000 0.000000
# 3 -0.003640 -0.003632 0.008307 0.000000 0.000000 0.000000
# 4 0.000000 0.000000 0.000000 0.224187 0.000000 0.000000
# 5 0.000000 0.000000 0.000000 0.000000 0.024555 0.000000
# 6 0.000000 0.000000 0.000000 0.000000 0.000000 0.056623
#
#
# Mechanical properties :
#
#
# Convention : Reuss Voigt Hill
#
# Bulk Modulus (GPa) = 73.21219 81.31969 77.26594
# Shear Modulus (GPa) = 13.34197 25.43767 19.38982
#
# Velocity S-wave (km/s) = 2.75560 3.80492 3.32195
# Velocity P-wave (km/s) = 7.19665 8.09844 7.66083
#
# Compressibility (1/GPa) = 0.01365893
#
# Stress axis : x y z
#
# Youngs Moduli (GPa) = 65.90246 63.41678 120.38512
#
# Poissons Ratio (x) = 0.35026 0.43825
# Poissons Ratio (y) = 0.36399 0.43719
# Poissons Ratio (z) = 0.23991 0.23030
#
# Static dielectric constant tensor:
#      x y z
#    x 1.588610 0.000000 0.000000 
#    y 0.000000 1.585560 0.000000 
#    z 0.000000 0.000000 1.590460 
# 
# From -- ./inp_files/26970.got.cif
#   From: 2010.05.17/outbox.cif.g08.bks.cpg/sg51_14_cif.got.tgz:26970.got - 2010.06.03 11:52:47.
