data_PCOD9400348
_publ_section_title
;
Structure prediction by ZEFSAII (Michael W. Deem and Ramdas Pophale) SiO2 
 PCOD9400348
Probable space group: P M M A
;
_chemical_formula_sum "Si O2"
_cell_formula_units_Z 52
_cell_length_a 8.705794
_cell_length_b 18.863156
_cell_length_c 18.924663
_cell_angle_alpha 90.000000
_cell_angle_beta 90.000000
_cell_angle_gamma 90.000000
_cell_volume 3107.784508
_symmetry_space_group_name_H-M "P M M A"
_symmetry_group_IT_number 51
_symmetry_cell_setting 'orthorhombic'
loop_
_space_group_symop_operation_xyz
x,y,z
1/2-x,-y,z
1/2+x,-y,-z
-x,y,-z
-x,-y,-z
1/2+x,y,-z
1/2-x,y,z
x,-y,z
loop_
_atom_site_type_symbol
_atom_site_label
_atom_site_fract_x
_atom_site_fract_y
_atom_site_fract_z
Si Si1 0.563358 0.077062 0.850976
Si Si2 0.566003 0.283703 0.212907
Si Si3 0.931677 0.500000 0.578481
Si Si4 0.564885 0.774697 0.922244
Si Si5 0.933784 0.361198 0.349817
Si Si6 0.433489 0.788668 0.577775
Si Si7 0.567162 0.854387 0.710022
O O1 0.750000 0.077667 0.853113
O O2 0.514676 0.146425 0.894888
O O3 0.520322 0.087511 0.768375
O O4 0.510038 0.000000 0.876814
O O5 0.750000 0.271940 0.213059
O O6 0.502509 0.281697 0.133784
O O7 0.535068 0.348205 0.266538
O O8 0.481509 0.217780 0.250235
O O9 0.750000 0.500000 0.573341
O O10 0.000000 0.500000 0.500000
O O11 0.986880 0.429742 0.618789
O O12 0.750000 0.772197 0.921328
O O13 0.500000 0.763362 0.000000
O O14 0.750000 0.368294 0.358270
O O15 0.980071 0.289128 0.391592
O O16 0.500000 0.798383 0.500000
O O17 0.250000 0.789750 0.575888
O O18 0.490531 0.847479 0.633691
O O19 0.750000 0.857584 0.701352
#
# Coordination Sequence:
#
# PCOD9400348 Si02
#       7
#     8   8   4   8   8   8   8
#     4   8  15  28  45  65  90 122 157 189 227 278
#     4   9  17  31  50  69  91 121 157 196 234 274
#     4  12  24  34  48  70 101 136 165 196 230 270
#     4  10  19  30  47  71  99 127 155 193 236 278
#     4   9  19  34  50  68  93 125 158 192 230 275
#     4  10  19  30  46  67  90 117 151 194 239 280
#     4   9  16  27  45  66  88 116 150 191 235 279
#
# _framework density 16.732178000000001
#
# number of rings (size 3 to 8) (size 9 to 14) (size 15 to 20)
#    0.000    2.615    0.000    4.846    0.000    5.231 
#    0.000    0.000    0.000   16.615    0.000    0.538 
#    0.000    0.000    0.000    0.000    0.000    0.000 
#
# Total GULP energy -289622.100030 kJ/mol
# GULP energy per Si atom -5569.655770 kJ/mol
# Density = 1.669409 g / cm^3
# Si number density = 16.732178 Si / 1000 Ang^3
#
#
#
# Elastic Constant Matrix: (Units=GPa)
#
#
# Indices 1 2 3 4 5 6 
#
# 1 34.9570 11.5226 27.5285 0.0000 0.0000 0.0000
# 2 11.5226 35.3256 21.1149 0.0000 0.0000 0.0000
# 3 27.5285 21.1149 135.4491 0.0000 0.0000 0.0000
# 4 0.0000 0.0000 0.0000 13.2553 0.0000 0.0000
# 5 0.0000 0.0000 0.0000 0.0000 29.1886 0.0000
# 6 0.0000 0.0000 0.0000 0.0000 0.0000 12.0497
#
#
#
# Elastic Compliance Matrix: (Units=1/GPa)
#
#
# Indices 1 2 3 4 5 6 
#
# 1 0.036062 -0.008141 -0.006060 0.000000 0.000000 0.000000
# 2 -0.008141 0.033054 -0.003498 0.000000 0.000000 0.000000
# 3 -0.006060 -0.003498 0.009160 0.000000 0.000000 0.000000
# 4 0.000000 0.000000 0.000000 0.075441 0.000000 0.000000
# 5 0.000000 0.000000 0.000000 0.000000 0.034260 0.000000
# 6 0.000000 0.000000 0.000000 0.000000 0.000000 0.082989
#
#
# Mechanical properties :
#
#
# Convention : Reuss Voigt Hill
#
# Bulk Modulus (GPa) = 23.32179 36.22930 29.77554
# Shear Modulus (GPa) = 15.59293 20.60311 18.09802
#
# Velocity S-wave (km/s) = 3.05604 3.51286 3.29238
# Velocity P-wave (km/s) = 5.14014 6.17682 5.68217
#
# Compressibility (1/GPa) = 0.04287836
#
# Stress axis : x y z
#
# Youngs Moduli (GPa) = 27.72984 30.25316 109.17188
#
# Poissons Ratio (x) = 0.24628 0.66161
# Poissons Ratio (y) = 0.22574 0.38192
# Poissons Ratio (z) = 0.16805 0.10584
#
# Static dielectric constant tensor:
#      x y z
#    x 1.558250 0.000000 0.000000 
#    y 0.000000 1.573200 0.000000 
#    z 0.000000 0.000000 1.890560 
# 
# From -- ./inp_files/27910.got.cif
#   From: 2010.05.17/outbox.cif.g08.bks.cpg/sg51_14_cif.got.tgz:27910.got - 2010.06.03 11:52:47.
