data_PCOD9400275
_publ_section_title
;
Structure prediction by ZEFSAII (Michael W. Deem and Ramdas Pophale) SiO2 
 PCOD9400275
Probable space group: P M M A
;
_chemical_formula_sum "Si O2"
_cell_formula_units_Z 64
_cell_length_a 9.532142
_cell_length_b 19.375796
_cell_length_c 24.149396
_cell_angle_alpha 90.000000
_cell_angle_beta 90.000000
_cell_angle_gamma 90.000000
_cell_volume 4460.220503
_symmetry_space_group_name_H-M "P M M A"
_symmetry_group_IT_number 51
_symmetry_cell_setting 'orthorhombic'
loop_
_space_group_symop_operation_xyz
x,y,z
1/2-x,-y,z
1/2+x,-y,-z
-x,y,-z
-x,-y,-z
1/2+x,y,-z
1/2-x,y,z
x,-y,z
loop_
_atom_site_type_symbol
_atom_site_label
_atom_site_fract_x
_atom_site_fract_y
_atom_site_fract_z
Si Si1 0.582418 0.145704 0.280945
Si Si2 0.916361 0.921710 0.620239
Si Si3 0.588338 0.915923 0.946416
Si Si4 0.585983 0.917604 0.160913
Si Si5 0.915823 0.726509 0.676219
Si Si6 0.094516 0.418363 0.548598
Si Si7 0.585870 0.576459 0.659185
Si Si8 0.915501 0.216858 0.555368
O O1 0.750000 0.147262 0.289966
O O2 0.507977 0.096196 0.325850
O O3 0.555995 0.119197 0.218931
O O4 0.512095 0.219968 0.291432
O O5 0.750000 0.916003 0.633924
O O6 0.945007 0.861904 0.575533
O O7 0.943245 0.000000 0.601565
O O8 0.750000 0.893748 0.948932
O O9 0.511947 0.894977 0.889688
O O10 0.587690 0.000000 0.946901
O O11 0.500000 0.893481 0.000000
O O12 0.750000 0.906360 0.146599
O O13 0.567796 0.000000 0.168692
O O14 0.750000 0.743328 0.683037
O O15 0.938027 0.646811 0.692595
O O16 0.946685 0.737694 0.610391
O O17 0.250000 0.387745 0.551621
O O18 0.110812 0.500000 0.535645
O O19 0.000000 0.387857 0.500000
O O20 0.012746 0.417439 0.606030
O O21 0.750000 0.579037 0.641591
O O22 0.563281 0.500000 0.684347
O O23 0.750000 0.223691 0.544524
O O24 0.000000 0.231822 0.500000
#
# Coordination Sequence:
#
# PCOD9400275 Si02
#       8
#     8   8   8   8   8   8   8   8
#     4  10  19  30  45  64  84 107 137 171 206 245
#     4   9  18  32  47  61  79 102 128 164 209 251
#     4   9  16  25  38  57  82 113 147 180 213 245
#     4   9  17  28  41  59  84 111 141 179 214 240
#     4   9  19  34  47  60  81 105 127 158 202 250
#     4   9  16  25  37  54  76  98 118 143 177 219
#     4   9  17  30  47  63  77  96 125 159 195 237
#     4   9  18  31  44  58  76  99 126 155 192 241
#
# _framework density 14.349066000000001
#
# number of rings (size 3 to 8) (size 9 to 14) (size 15 to 20)
#    0.000    2.875    0.000    2.250    0.000    8.000 
#    0.000    2.500    0.000    0.000    0.000    0.000 
#    0.000    0.000    0.000    0.000    0.000    0.625 
#
# Total GULP energy -356495.232681 kJ/mol
# GULP energy per Si atom -5570.238011 kJ/mol
# Density = 1.431641 g / cm^3
# Si number density = 14.349066 Si / 1000 Ang^3
#
#
#
# Elastic Constant Matrix: (Units=GPa)
#
#
# Indices 1 2 3 4 5 6 
#
# 1 65.3621 25.6658 47.9163 0.0000 0.0000 0.0000
# 2 25.6658 80.3301 18.5061 0.0000 0.0000 0.0000
# 3 47.9163 18.5061 69.6066 0.0000 0.0000 0.0000
# 4 0.0000 0.0000 0.0000 8.0811 0.0000 0.0000
# 5 0.0000 0.0000 0.0000 0.0000 23.2261 0.0000
# 6 0.0000 0.0000 0.0000 0.0000 0.0000 8.5264
#
#
#
# Elastic Compliance Matrix: (Units=1/GPa)
#
#
# Indices 1 2 3 4 5 6 
#
# 1 0.033155 -0.005683 -0.021312 0.000000 0.000000 0.000000
# 2 -0.005683 0.014235 0.000128 0.000000 0.000000 0.000000
# 3 -0.021312 0.000128 0.029004 0.000000 0.000000 0.000000
# 4 0.000000 0.000000 0.000000 0.123746 0.000000 0.000000
# 5 0.000000 0.000000 0.000000 0.000000 0.043055 0.000000
# 6 0.000000 0.000000 0.000000 0.000000 0.000000 0.117283
#
#
# Mechanical properties :
#
#
# Convention : Reuss Voigt Hill
#
# Bulk Modulus (GPa) = 44.13526 44.38611 44.26069
# Shear Modulus (GPa) = 11.85492 16.18077 14.01784
#
# Velocity S-wave (km/s) = 2.87745 3.36170 3.12896
# Velocity P-wave (km/s) = 6.47029 6.78736 6.63072
#
# Compressibility (1/GPa) = 0.02265762
#
# Stress axis : x y z
#
# Youngs Moduli (GPa) = 30.16134 70.24916 34.47832
#
# Poissons Ratio (x) = 0.39925 0.73482
# Poissons Ratio (y) = 0.17142 -0.00440
# Poissons Ratio (z) = 0.64281 -0.00897
#
# Static dielectric constant tensor:
#      x y z
#    x 1.490190 0.000000 0.000000 
#    y 0.000000 1.504280 0.000000 
#    z 0.000000 0.000000 1.439050 
# 
# From -- ./inp_files/35177.got.cif
#   From: 2010.05.17/outbox.cif.g08.bks.cpg/sg51_18_cif.got.tgz:35177.got - 2010.06.03 11:52:47.
