data_PCOD9400833
_publ_section_title
;
Structure prediction by ZEFSAII (Michael W. Deem and Ramdas Pophale) SiO2 
 PCOD9400833
Probable space group: P M M A
;
_chemical_formula_sum "Si O2"
_cell_formula_units_Z 64
_cell_length_a 21.825427
_cell_length_b 19.242764
_cell_length_c 8.273050
_cell_angle_alpha 90.000000
_cell_angle_beta 90.000000
_cell_angle_gamma 90.000000
_cell_volume 3474.528287
_symmetry_space_group_name_H-M "P M M A"
_symmetry_group_IT_number 51
_symmetry_cell_setting 'orthorhombic'
loop_
_space_group_symop_operation_xyz
x,y,z
1/2-x,-y,z
1/2+x,-y,-z
-x,y,-z
-x,-y,-z
1/2+x,y,-z
1/2-x,y,z
x,-y,z
loop_
_atom_site_type_symbol
_atom_site_label
_atom_site_fract_x
_atom_site_fract_y
_atom_site_fract_z
Si Si1 0.906478 0.420950 0.851376
Si Si2 0.139242 0.309241 0.660778
Si Si3 0.323675 0.839838 0.159608
Si Si4 0.969620 0.580789 0.321761
Si Si5 0.684929 0.576628 0.557298
Si Si6 0.821573 0.306020 0.987961
Si Si7 0.675568 0.919940 0.161232
Si Si8 0.824724 0.830241 0.478786
O O1 0.901083 0.500000 0.910753
O O2 0.870544 0.416652 0.680394
O O3 0.976963 0.407180 0.809767
O O4 0.868868 0.368159 0.959736
O O5 0.078710 0.356389 0.685343
O O6 0.182628 0.364768 0.574792
O O7 0.167676 0.283145 0.828174
O O8 0.138869 0.241729 0.547801
O O9 0.250000 0.845990 0.153324
O O10 0.340851 0.859349 0.342945
O O11 0.336853 0.758458 0.128209
O O12 0.346864 0.883098 0.004534
O O13 0.947419 0.500000 0.300437
O O14 0.000000 0.582217 0.500000
O O15 0.750000 0.580827 0.647225
O O16 0.681230 0.500000 0.483232
O O17 0.750000 0.324448 0.966575
O O18 0.750000 0.919372 0.154901
O O19 0.660199 0.879724 0.327086
O O20 0.655679 0.000000 0.166588
O O21 0.750000 0.817542 0.476739
#
# Coordination Sequence:
#
# PCOD9400833 Si02
#       8
#     8   8   8   8   8   8   8   8
#     4  10  21  37  54  71  99 140 184 233 286 339
#     4  12  21  33  54  76 106 146 187 233 285 333
#     4   9  18  32  49  73 110 151 184 219 269 329
#     4  10  21  39  57  74 101 142 194 247 293 337
#     4  10  19  31  49  73  98 132 180 226 275 337
#     4  11  22  35  52  78 112 144 180 231 288 343
#     4   9  17  31  51  78 115 153 186 220 263 329
#     4  10  19  32  52  80 114 150 187 228 282 340
#
# _framework density 18.419765999999999
#
# number of rings (size 3 to 8) (size 9 to 14) (size 15 to 20)
#    0.000    1.875    2.500    2.625    0.000    3.750 
#    0.000    3.750    0.000    0.000    0.000    0.000 
#    0.000    2.500    0.000    0.000    0.000    0.000 
#
# Total GULP energy -356716.448090 kJ/mol
# GULP energy per Si atom -5573.694501 kJ/mol
# Density = 1.837784 g / cm^3
# Si number density = 18.419766 Si / 1000 Ang^3
#
#
#
# Elastic Constant Matrix: (Units=GPa)
#
#
# Indices 1 2 3 4 5 6 
#
# 1 54.2046 23.3535 13.7538 0.0000 0.0000 0.0000
# 2 23.3535 87.4979 52.3731 0.0000 0.0000 0.0000
# 3 13.7538 52.3731 120.8850 0.0000 0.0000 0.0000
# 4 0.0000 0.0000 0.0000 12.0296 0.0000 0.0000
# 5 0.0000 0.0000 0.0000 0.0000 16.4576 0.0000
# 6 0.0000 0.0000 0.0000 0.0000 0.0000 12.5550
#
#
#
# Elastic Compliance Matrix: (Units=1/GPa)
#
#
# Indices 1 2 3 4 5 6 
#
# 1 0.020846 -0.005595 0.000052 0.000000 0.000000 0.000000
# 2 -0.005595 0.016932 -0.006699 0.000000 0.000000 0.000000
# 3 0.000052 -0.006699 0.011169 0.000000 0.000000 0.000000
# 4 0.000000 0.000000 0.000000 0.083129 0.000000 0.000000
# 5 0.000000 0.000000 0.000000 0.000000 0.060762 0.000000
# 6 0.000000 0.000000 0.000000 0.000000 0.000000 0.079649
#
#
# Mechanical properties :
#
#
# Convention : Reuss Voigt Hill
#
# Bulk Modulus (GPa) = 40.87846 49.06093 44.96969
# Shear Modulus (GPa) = 16.38671 19.74891 18.06781
#
# Velocity S-wave (km/s) = 2.98590 3.27794 3.13532
# Velocity P-wave (km/s) = 5.84195 6.40463 6.12975
#
# Compressibility (1/GPa) = 0.02446276
#
# Stress axis : x y z
#
# Youngs Moduli (GPa) = 47.97089 59.05935 89.53524
#
# Poissons Ratio (x) = 0.33045 -0.00468
# Poissons Ratio (y) = 0.26841 0.59981
# Poissons Ratio (z) = -0.00251 0.39565
#
# Static dielectric constant tensor:
#      x y z
#    x 1.633470 0.000000 0.000000 
#    y 0.000000 1.632380 0.000000 
#    z 0.000000 0.000000 1.694340 
# 
# From -- ./inp_files/11226.got.cif
#   From: 2010.05.17/outbox.cif.g08.bks.cpg/sg51_6_cif.got.tgz:11226.got - 2010.06.03 11:52:47.
