data_PCOD9400880
_publ_section_title
;
Structure prediction by ZEFSAII (Michael W. Deem and Ramdas Pophale) SiO2 
 PCOD9400880
Probable space group: P M M A
;
_chemical_formula_sum "Si O2"
_cell_formula_units_Z 64
_cell_length_a 9.106565
_cell_length_b 14.669686
_cell_length_c 31.953607
_cell_angle_alpha 90.000000
_cell_angle_beta 90.000000
_cell_angle_gamma 90.000000
_cell_volume 4268.696709
_symmetry_space_group_name_H-M "P M M A"
_symmetry_group_IT_number 51
_symmetry_cell_setting 'orthorhombic'
loop_
_space_group_symop_operation_xyz
x,y,z
1/2-x,-y,z
1/2+x,-y,-z
-x,y,-z
-x,-y,-z
1/2+x,y,-z
1/2-x,y,z
x,-y,z
loop_
_atom_site_type_symbol
_atom_site_label
_atom_site_fract_x
_atom_site_fract_y
_atom_site_fract_z
Si Si1 0.427993 0.399539 0.075631
Si Si2 0.075061 0.107907 0.879044
Si Si3 0.419375 0.888882 0.542456
Si Si4 0.073543 0.603200 0.173780
Si Si5 0.580907 0.110914 0.627062
Si Si6 0.426671 0.781338 0.795110
Si Si7 0.573418 0.106873 0.286891
Si Si8 0.573305 0.204943 0.957175
O O1 0.250000 0.401261 0.074210
O O2 0.480444 0.500000 0.061667
O O3 0.467792 0.387532 0.124578
O O4 0.474742 0.310350 0.050618
O O5 0.250000 0.122488 0.886193
O O6 0.034365 0.159417 0.836174
O O7 0.984676 0.148331 0.917651
O O8 0.051146 0.000000 0.874671
O O9 0.500000 0.859533 0.500000
O O10 0.250000 0.860999 0.542341
O O11 0.499736 0.858653 0.584829
O O12 0.422269 0.000000 0.542546
O O13 0.250000 0.612213 0.175976
O O14 0.035053 0.500000 0.186658
O O15 0.997551 0.682533 0.199597
O O16 0.750000 0.139613 0.627019
O O17 0.500333 0.137576 0.669850
O O18 0.578070 0.000000 0.626405
O O19 0.250000 0.773691 0.794445
O O20 0.472020 0.833762 0.753024
O O21 0.750000 0.112097 0.291109
O O22 0.536895 0.000000 0.279811
O O23 0.750000 0.201060 0.959501
O O24 0.500000 0.172005 0.000000
#
# Coordination Sequence:
#
# PCOD9400880 Si02
#       8
#     8   8   8   8   8   8   8   8
#     4   8  15  30  51  72  94 118 140 165 203 251
#     4  10  21  37  54  71  92 117 146 181 218 255
#     4   9  15  22  33  49  70 100 140 186 233 277
#     4   9  17  31  51  72  94 119 143 169 208 257
#     4   9  16  25  36  52  76 106 143 188 230 266
#     4  10  19  31  50  73  94 114 143 182 220 257
#     4   9  17  29  43  60  85 118 150 180 222 270
#     4  11  22  36  54  73  94 118 145 176 211 254
#
# _framework density 14.992865999999999
#
# number of rings (size 3 to 8) (size 9 to 14) (size 15 to 20)
#    0.000    2.625    1.250    2.250    0.000    6.000 
#    0.000    0.000    0.000    3.375    0.000    0.000 
#    0.000    0.000    0.000    0.000    0.000    0.625 
#
# Total GULP energy -356699.187079 kJ/mol
# GULP energy per Si atom -5573.424798 kJ/mol
# Density = 1.495874 g / cm^3
# Si number density = 14.992866 Si / 1000 Ang^3
#
#
#
# Elastic Constant Matrix: (Units=GPa)
#
#
# Indices 1 2 3 4 5 6 
#
# 1 50.9313 31.3567 58.0929 0.0000 0.0000 0.0000
# 2 31.3567 62.9537 48.8780 0.0000 0.0000 0.0000
# 3 58.0929 48.8780 140.3946 0.0000 0.0000 0.0000
# 4 0.0000 0.0000 0.0000 3.6744 0.0000 0.0000
# 5 0.0000 0.0000 0.0000 0.0000 23.5888 0.0000
# 6 0.0000 0.0000 0.0000 0.0000 0.0000 19.1920
#
#
#
# Elastic Compliance Matrix: (Units=1/GPa)
#
#
# Indices 1 2 3 4 5 6 
#
# 1 0.041329 -0.010015 -0.013615 0.000000 0.000000 0.000000
# 2 -0.010015 0.024196 -0.004280 0.000000 0.000000 0.000000
# 3 -0.013615 -0.004280 0.014246 0.000000 0.000000 0.000000
# 4 0.000000 0.000000 0.000000 0.272152 0.000000 0.000000
# 5 0.000000 0.000000 0.000000 0.000000 0.042393 0.000000
# 6 0.000000 0.000000 0.000000 0.000000 0.000000 0.052105
#
#
# Mechanical properties :
#
#
# Convention : Reuss Voigt Hill
#
# Bulk Modulus (GPa) = 41.74914 58.99276 50.37095
# Shear Modulus (GPa) = 9.79961 17.02117 13.41039
#
# Velocity S-wave (km/s) = 2.55937 3.37305 2.99398
# Velocity P-wave (km/s) = 6.05312 7.38936 6.75437
#
# Compressibility (1/GPa) = 0.02395259
#
# Stress axis : x y z
#
# Youngs Moduli (GPa) = 24.19586 41.32926 70.19405
#
# Poissons Ratio (x) = 0.41392 0.95567
# Poissons Ratio (y) = 0.24233 0.30040
# Poissons Ratio (z) = 0.32942 0.17687
#
# Static dielectric constant tensor:
#      x y z
#    x 1.501630 0.000000 0.000000 
#    y 0.000000 1.485490 0.000000 
#    z 0.000000 0.000000 1.487560 
# 
# From -- ./inp_files/37662.got.cif
#   From: 2010.05.17/outbox.cif.g08.bks.cpg/sg51_19_cif.got.tgz:37662.got - 2010.06.03 11:52:47.
