data_PCOD9400270
_publ_section_title
;
Structure prediction by ZEFSAII (Michael W. Deem and Ramdas Pophale) SiO2 
 PCOD9400270
Probable space group: P M M A
;
_chemical_formula_sum "Si O2"
_cell_formula_units_Z 48
_cell_length_a 9.566876
_cell_length_b 13.584238
_cell_length_c 25.339593
_cell_angle_alpha 90.000000
_cell_angle_beta 90.000000
_cell_angle_gamma 90.000000
_cell_volume 3293.101084
_symmetry_space_group_name_H-M "P M M A"
_symmetry_group_IT_number 51
_symmetry_cell_setting 'orthorhombic'
loop_
_space_group_symop_operation_xyz
x,y,z
1/2-x,-y,z
1/2+x,-y,-z
-x,y,-z
-x,-y,-z
1/2+x,y,-z
1/2-x,y,z
x,-y,z
loop_
_atom_site_type_symbol
_atom_site_label
_atom_site_fract_x
_atom_site_fract_y
_atom_site_fract_z
Si Si1 0.404430 0.883930 0.453194
Si Si2 0.085951 0.116275 0.742721
Si Si3 0.912210 0.119962 0.051663
Si Si4 0.914275 0.792778 0.368980
Si Si5 0.910871 0.119415 0.846497
Si Si6 0.084643 0.386633 0.554164
O O1 0.500000 0.843617 0.500000
O O2 0.250000 0.839603 0.453109
O O3 0.486065 0.867288 0.399555
O O4 0.390777 0.000000 0.462148
O O5 0.250000 0.122544 0.758054
O O6 0.063629 0.187781 0.692833
O O7 0.987337 0.142873 0.791595
O O8 0.061582 0.000000 0.728587
O O9 0.750000 0.151689 0.050484
O O10 0.995228 0.152261 0.104000
O O11 0.910050 0.000000 0.052077
O O12 0.000000 0.149570 0.000000
O O13 0.750000 0.814376 0.379061
O O14 0.945759 0.688788 0.397841
O O15 0.750000 0.153526 0.849074
O O16 0.907267 0.000000 0.849118
O O17 0.250000 0.376960 0.542674
O O18 0.057651 0.500000 0.570122
O O19 0.000000 0.369609 0.500000
#
# Coordination Sequence:
#
# PCOD9400270 Si02
#       6
#     8   8   8   8   8   8
#     4  10  20  31  42  57  78 102 126 154 189 228
#     4   9  17  28  40  54  74 101 131 161 193 230
#     4   9  15  22  33  49  69  94 127 167 206 238
#     4  10  19  30  45  62  79 101 129 160 194 234
#     4   9  16  25  36  50  70  97 129 164 199 232
#     4   9  18  32  48  65  83 101 123 155 197 243
#
# _framework density 14.575926000000001
#
# number of rings (size 3 to 8) (size 9 to 14) (size 15 to 20)
#    0.000    2.667    0.000    2.500    0.000    8.333 
#    0.000    1.667    0.000    0.000    0.000    0.000 
#    0.000    0.000    0.000    0.000    0.000    0.833 
#
# Total GULP energy -267219.425379 kJ/mol
# GULP energy per Si atom -5567.071362 kJ/mol
# Density = 1.454275 g / cm^3
# Si number density = 14.575926 Si / 1000 Ang^3
#
#
#
# Elastic Constant Matrix: (Units=GPa)
#
#
# Indices 1 2 3 4 5 6 
#
# 1 110.6889 21.7217 85.0944 0.0000 0.0000 0.0000
# 2 21.7217 40.1337 23.2880 0.0000 0.0000 0.0000
# 3 85.0944 23.2880 114.1823 0.0000 0.0000 0.0000
# 4 0.0000 0.0000 0.0000 8.5477 0.0000 0.0000
# 5 0.0000 0.0000 0.0000 0.0000 24.7307 0.0000
# 6 0.0000 0.0000 0.0000 0.0000 0.0000 -13.7651
#
#
#
# Elastic Compliance Matrix: (Units=1/GPa)
#
#
# Indices 1 2 3 4 5 6 
#
# 1 0.021398 -0.002640 -0.015408 0.000000 0.000000 0.000000
# 2 -0.002640 0.028587 -0.003863 0.000000 0.000000 0.000000
# 3 -0.015408 -0.003863 0.021029 0.000000 0.000000 0.000000
# 4 0.000000 0.000000 0.000000 0.116990 0.000000 0.000000
# 5 0.000000 0.000000 0.000000 0.000000 0.040436 0.000000
# 6 0.000000 0.000000 0.000000 0.000000 0.000000 -0.072648
#
#
# Mechanical properties :
#
#
# Convention : Reuss Voigt Hill
#
# Bulk Modulus (GPa) = 36.77686 58.35702 47.56694
# Shear Modulus (GPa) = 23.96032 12.89606 18.42819
#
# Velocity S-wave (km/s) = 4.05881 2.97770 3.55954
# Velocity P-wave (km/s) = 6.87396 7.20734 7.04262
#
# Compressibility (1/GPa) = 0.02719101
#
# Stress axis : x y z
#
# Youngs Moduli (GPa) = 46.73348 34.98074 47.55395
#
# Poissons Ratio (x) = 0.09237 0.73272
# Poissons Ratio (y) = 0.12340 0.18368
# Poissons Ratio (z) = 0.72008 0.13512
#
# Static dielectric constant tensor:
#      x y z
#    x 1.503460 0.000000 0.000000 
#    y 0.000000 1.477310 0.000000 
#    z 0.000000 0.000000 1.486710 
# 
# From -- ./inp_files/34621.got.cif
#   From: 2010.05.17/outbox.cif.g08.bks.cpg/sg51_18_cif.got.tgz:34621.got - 2010.06.03 11:52:47.
