data_PCOD9400764
_publ_section_title
;
Structure prediction by ZEFSAII (Michael W. Deem and Ramdas Pophale) SiO2 
 PCOD9400764
Probable space group: P M M A
;
_chemical_formula_sum "Si O2"
_cell_formula_units_Z 56
_cell_length_a 21.652658
_cell_length_b 8.527761
_cell_length_c 15.150098
_cell_angle_alpha 90.000000
_cell_angle_beta 90.000000
_cell_angle_gamma 90.000000
_cell_volume 2797.445786
_symmetry_space_group_name_H-M "P M M A"
_symmetry_group_IT_number 51
_symmetry_cell_setting 'orthorhombic'
loop_
_space_group_symop_operation_xyz
x,y,z
1/2-x,-y,z
1/2+x,-y,-z
-x,y,-z
-x,-y,-z
1/2+x,y,-z
1/2-x,y,z
x,-y,z
loop_
_atom_site_type_symbol
_atom_site_label
_atom_site_fract_x
_atom_site_fract_y
_atom_site_fract_z
Si Si1 0.820872 0.178146 0.400768
Si Si2 0.750000 0.812108 0.911898
Si Si3 0.750000 0.190657 0.114958
Si Si4 0.964750 0.825167 0.591112
Si Si5 0.126204 0.808843 0.780517
Si Si6 0.160221 0.322325 0.408813
Si Si7 0.855262 0.310534 0.785694
Si Si8 0.001039 0.312063 0.233380
O O1 0.750000 0.175751 0.369129
O O2 0.859783 0.248725 0.320237
O O3 0.820143 0.247589 0.498941
O O4 0.843223 0.000000 0.412072
O O5 0.689324 0.752426 0.860818
O O6 0.750000 0.000000 0.910551
O O7 0.750000 0.758515 0.013294
O O8 0.686504 0.238475 0.163190
O O9 0.750000 0.000000 0.117072
O O10 0.913510 0.692089 0.587032
O O11 0.000000 0.826736 0.500000
O O12 0.005267 0.781462 0.674597
O O13 0.937342 0.000000 0.603826
O O14 0.061159 0.742038 0.816144
O O15 0.123611 0.000000 0.779330
O O16 0.181378 0.500000 0.408583
O O17 0.170904 0.254157 0.310485
O O18 0.852233 0.500000 0.783371
O O19 0.928449 0.270516 0.796688
O O20 0.999681 0.500000 0.244013
#
# Coordination Sequence:
#
# PCOD9400764 Si02
#       8
#     8   4   4   8   8   8   8   8
#     4  10  20  33  51  79 113 153 198 235 276 335
#     4  11  23  39  66  93 110 136 187 247 290 341
#     4   9  20  41  64  89 116 146 187 235 294 351
#     4  10  19  31  48  73 106 148 194 233 275 329
#     4  10  19  37  62  84 116 158 191 232 287 343
#     4  10  21  34  50  75 111 153 190 231 279 328
#     4   9  21  41  59  80 117 159 189 225 289 351
#     4  10  21  36  56  84 116 150 191 237 283 337
#
# _framework density 20.018260000000001
#
# number of rings (size 3 to 8) (size 9 to 14) (size 15 to 20)
#    0.000    2.143    0.714    3.214    1.000    8.857 
#    0.000    2.500    0.000    4.286    0.000    0.000 
#    0.000    0.000    0.000    0.000    0.000    0.000 
#
# Total GULP energy -311971.554131 kJ/mol
# GULP energy per Si atom -5570.920609 kJ/mol
# Density = 1.997270 g / cm^3
# Si number density = 20.018260 Si / 1000 Ang^3
#
#
#
# Elastic Constant Matrix: (Units=GPa)
#
#
# Indices 1 2 3 4 5 6 
#
# 1 151.3088 28.1370 70.0605 0.0000 0.0000 0.0000
# 2 28.1370 33.9803 22.6016 0.0000 0.0000 0.0000
# 3 70.0605 22.6016 110.9420 0.0000 0.0000 0.0000
# 4 0.0000 0.0000 0.0000 26.6366 0.0000 0.0000
# 5 0.0000 0.0000 0.0000 0.0000 -3.4972 0.0000
# 6 0.0000 0.0000 0.0000 0.0000 0.0000 30.8329
#
#
#
# Elastic Compliance Matrix: (Units=1/GPa)
#
#
# Indices 1 2 3 4 5 6 
#
# 1 0.009948 -0.004695 -0.005326 0.000000 0.000000 0.000000
# 2 -0.004695 0.036257 -0.004422 0.000000 0.000000 0.000000
# 3 -0.005326 -0.004422 0.013278 0.000000 0.000000 0.000000
# 4 0.000000 0.000000 0.000000 0.037542 0.000000 0.000000
# 5 0.000000 0.000000 0.000000 0.000000 -0.285946 0.000000
# 6 0.000000 0.000000 0.000000 0.000000 0.000000 0.032433
#
#
# Mechanical properties :
#
#
# Convention : Reuss Voigt Hill
#
# Bulk Modulus (GPa) = 32.68133 59.75880 46.22007
# Shear Modulus (GPa) = -42.58814 22.48993 -10.04911
#
# Velocity S-wave (km/s) = -4.61745 3.35546 -2.24296
# Velocity P-wave (km/s) = 3.47370 6.70292 4.05355
#
# Compressibility (1/GPa) = 0.03059851
#
# Stress axis : x y z
#
# Youngs Moduli (GPa) = 100.52208 27.58055 75.31385
#
# Poissons Ratio (x) = 0.12949 0.40110
# Poissons Ratio (y) = 0.47195 0.33301
# Poissons Ratio (z) = 0.53536 0.12195
#
# Static dielectric constant tensor:
#      x y z
#    x 1.653600 0.000000 0.000000 
#    y 0.000000 1.712400 0.000000 
#    z 0.000000 0.000000 1.737460 
# 
# From -- ./inp_files/25874.got.cif
#   From: 2010.05.17/outbox.cif.g08.bks.cpg/sg51_13_cif.got.tgz:25874.got - 2010.06.03 11:52:47.
