data_PCOD9400516
_publ_section_title
;
Structure prediction by ZEFSAII (Michael W. Deem and Ramdas Pophale) SiO2 
 PCOD9400516
Probable space group: P M M A
;
_chemical_formula_sum "Si O2"
_cell_formula_units_Z 52
_cell_length_a 8.625993
_cell_length_b 16.285327
_cell_length_c 22.332007
_cell_angle_alpha 90.000000
_cell_angle_beta 90.000000
_cell_angle_gamma 90.000000
_cell_volume 3137.135954
_symmetry_space_group_name_H-M "P M M A"
_symmetry_group_IT_number 51
_symmetry_cell_setting 'orthorhombic'
loop_
_space_group_symop_operation_xyz
x,y,z
1/2-x,-y,z
1/2+x,-y,-z
-x,y,-z
-x,-y,-z
1/2+x,y,-z
1/2-x,y,z
x,-y,z
loop_
_atom_site_type_symbol
_atom_site_label
_atom_site_fract_x
_atom_site_fract_y
_atom_site_fract_z
Si Si1 0.560677 0.500000 0.719440
Si Si2 0.570561 0.905942 0.215713
Si Si3 0.068439 0.349532 0.933827
Si Si4 0.069140 0.247363 0.164792
Si Si5 0.437869 0.682284 0.295470
Si Si6 0.436534 0.000000 0.433193
Si Si7 0.065211 0.500000 0.141229
Si Si8 0.061700 0.143212 0.342520
O O1 0.750000 0.500000 0.717477
O O2 0.509581 0.588418 0.692553
O O3 0.513570 0.500000 0.789571
O O4 0.750000 0.878764 0.210938
O O5 0.459354 0.847321 0.178581
O O6 0.514880 0.896541 0.284030
O O7 0.560615 0.000000 0.197544
O O8 0.250000 0.363493 0.938407
O O9 0.028407 0.272087 0.892700
O O10 0.992830 0.422337 0.895516
O O11 0.000000 0.344624 0.000000
O O12 0.250000 0.266582 0.155142
O O13 0.019892 0.293377 0.226741
O O14 0.250000 0.680921 0.296626
O O15 0.483394 0.759501 0.337992
O O16 0.500000 0.000000 0.500000
O O17 0.482525 0.916439 0.397450
O O18 0.250000 0.000000 0.434876
O O19 0.250000 0.500000 0.142705
O O20 0.250000 0.140331 0.337231
#
# Coordination Sequence:
#
# PCOD9400516 Si02
#       8
#     4   8   8   8   8   4   4   8
#     4   9  14  24  46  73  98 123 155 198 248 297
#     4  10  19  30  48  75 104 131 160 198 244 298
#     4  12  24  37  51  69  94 127 167 210 258 310
#     4  10  19  33  51  71  95 126 163 206 252 301
#     4   8  14  25  45  70  95 123 156 200 247 293
#     4  10  20  32  48  72 104 140 175 214 251 298
#     4  11  20  34  51  71  98 127 165 204 250 308
#     4   9  17  30  47  70  99 132 171 206 245 297
#
# _framework density 16.575628999999999
#
# number of rings (size 3 to 8) (size 9 to 14) (size 15 to 20)
#    0.000    2.154    2.308    3.692    0.000    1.538 
#    0.000    0.000    0.000    0.462    0.000    0.538 
#    0.000    0.000    0.000    0.000    0.000    0.000 
#
# Total GULP energy -289671.069152 kJ/mol
# GULP energy per Si atom -5570.597484 kJ/mol
# Density = 1.653790 g / cm^3
# Si number density = 16.575629 Si / 1000 Ang^3
#
#
#
# Elastic Constant Matrix: (Units=GPa)
#
#
# Indices 1 2 3 4 5 6 
#
# 1 29.3437 11.7988 11.1336 0.0000 0.0000 0.0000
# 2 11.7988 118.5147 43.3856 0.0000 0.0000 0.0000
# 3 11.1336 43.3856 71.8255 0.0000 0.0000 0.0000
# 4 0.0000 0.0000 0.0000 12.5491 0.0000 0.0000
# 5 0.0000 0.0000 0.0000 0.0000 21.3408 0.0000
# 6 0.0000 0.0000 0.0000 0.0000 0.0000 17.1046
#
#
#
# Elastic Compliance Matrix: (Units=1/GPa)
#
#
# Indices 1 2 3 4 5 6 
#
# 1 0.036578 -0.002010 -0.004455 0.000000 0.000000 0.000000
# 2 -0.002010 0.010944 -0.006299 0.000000 0.000000 0.000000
# 3 -0.004455 -0.006299 0.018418 0.000000 0.000000 0.000000
# 4 0.000000 0.000000 0.000000 0.079687 0.000000 0.000000
# 5 0.000000 0.000000 0.000000 0.000000 0.046859 0.000000
# 6 0.000000 0.000000 0.000000 0.000000 0.000000 0.058464
#
#
# Mechanical properties :
#
#
# Convention : Reuss Voigt Hill
#
# Bulk Modulus (GPa) = 24.74633 39.14665 31.94649
# Shear Modulus (GPa) = 17.24444 20.42331 18.83387
#
# Velocity S-wave (km/s) = 3.22894 3.51398 3.37447
# Velocity P-wave (km/s) = 5.37245 6.33501 5.87348
#
# Compressibility (1/GPa) = 0.04041003
#
# Stress axis : x y z
#
# Youngs Moduli (GPa) = 27.33901 91.37594 54.29461
#
# Poissons Ratio (x) = 0.18371 0.24191
# Poissons Ratio (y) = 0.05496 0.34199
# Poissons Ratio (z) = 0.12181 0.57557
#
# Static dielectric constant tensor:
#      x y z
#    x 1.565620 0.000000 0.000000 
#    y 0.000000 1.666040 0.000000 
#    z 0.000000 0.000000 1.527300 
# 
# From -- ./inp_files/31810.got.cif
#   From: 2010.05.17/outbox.cif.g08.bks.cpg/sg51_16_cif.got.tgz:31810.got - 2010.06.03 11:52:47.
