data_PCOD9400745
_publ_section_title
;
Structure prediction by ZEFSAII (Michael W. Deem and Ramdas Pophale) SiO2 
 PCOD9400745
Probable space group: P M M A
;
_chemical_formula_sum "Si O2"
_cell_formula_units_Z 56
_cell_length_a 16.997854
_cell_length_b 18.071926
_cell_length_c 9.244539
_cell_angle_alpha 90.000000
_cell_angle_beta 90.000000
_cell_angle_gamma 90.000000
_cell_volume 2839.774095
_symmetry_space_group_name_H-M "P M M A"
_symmetry_group_IT_number 51
_symmetry_cell_setting 'orthorhombic'
loop_
_space_group_symop_operation_xyz
x,y,z
1/2-x,-y,z
1/2+x,-y,-z
-x,y,-z
-x,-y,-z
1/2+x,y,-z
1/2-x,y,z
x,-y,z
loop_
_atom_site_type_symbol
_atom_site_label
_atom_site_fract_x
_atom_site_fract_y
_atom_site_fract_z
Si Si1 0.584277 0.756320 0.423148
Si Si2 0.583453 0.724850 0.082590
Si Si3 0.837103 0.189011 0.841728
Si Si4 0.154631 0.415074 0.064997
Si Si5 0.914271 0.917954 0.422233
Si Si6 0.477623 0.916611 0.164562
Si Si7 0.161529 0.661297 0.347483
O O1 0.500000 0.763024 0.500000
O O2 0.576379 0.740793 0.252397
O O3 0.624395 0.837611 0.450594
O O4 0.623243 0.686682 0.503406
O O5 0.500000 0.732009 0.000000
O O6 0.641874 0.782149 0.002510
O O7 0.616474 0.643492 0.044244
O O8 0.750000 0.155379 0.836547
O O9 0.908019 0.137436 0.790549
O O10 0.837067 0.262391 0.744282
O O11 0.250000 0.404780 0.064123
O O12 0.137358 0.500000 0.030872
O O13 0.126473 0.395057 0.229035
O O14 0.000000 0.920456 0.500000
O O15 0.943094 0.911902 0.256598
O O16 0.877546 0.000000 0.447428
O O17 0.447568 0.000000 0.180121
O O18 0.500000 0.903119 0.000000
O O19 0.250000 0.636224 0.377928
#
# Coordination Sequence:
#
# PCOD9400745 Si02
#       7
#     8   8   8   8   8   8   8
#     4  11  20  32  53  78 107 141 179 226 271 310
#     4  11  21  34  55  81 109 141 181 222 263 319
#     4  10  19  33  51  72 102 139 179 221 268 323
#     4   9  19  39  63  83 107 140 176 216 268 330
#     4   9  17  29  47  70  97 133 177 220 263 310
#     4  10  19  31  48  71  99 132 175 226 274 319
#     4   9  19  34  53  78 105 135 172 216 266 317
#
# _framework density 19.71988
#
# number of rings (size 3 to 8) (size 9 to 14) (size 15 to 20)
#    0.000    2.143    0.000    6.857    0.000    1.714 
#    0.000    0.714    0.000    4.714    0.000    0.000 
#    0.000    0.000    0.000    0.000    0.000    0.000 
#
# Total GULP energy -312081.919680 kJ/mol
# GULP energy per Si atom -5572.891423 kJ/mol
# Density = 1.967500 g / cm^3
# Si number density = 19.719880 Si / 1000 Ang^3
#
#
#
# Elastic Constant Matrix: (Units=GPa)
#
#
# Indices 1 2 3 4 5 6 
#
# 1 27.9789 13.5943 -0.9997 0.0000 0.0000 0.0000
# 2 13.5943 112.1920 8.6004 0.0000 0.0000 0.0000
# 3 -0.9997 8.6004 116.0744 0.0000 0.0000 0.0000
# 4 0.0000 0.0000 0.0000 20.1285 0.0000 0.0000
# 5 0.0000 0.0000 0.0000 0.0000 18.8160 0.0000
# 6 0.0000 0.0000 0.0000 0.0000 0.0000 338.7587
#
#
#
# Elastic Compliance Matrix: (Units=1/GPa)
#
#
# Indices 1 2 3 4 5 6 
#
# 1 0.038029 -0.004660 0.000673 0.000000 0.000000 0.000000
# 2 -0.004660 0.009535 -0.000747 0.000000 0.000000 0.000000
# 3 0.000673 -0.000747 0.008676 0.000000 0.000000 0.000000
# 4 0.000000 0.000000 0.000000 0.049681 0.000000 0.000000
# 5 0.000000 0.000000 0.000000 0.000000 0.053146 0.000000
# 6 0.000000 0.000000 0.000000 0.000000 0.000000 0.002952
#
#
# Mechanical properties :
#
#
# Convention : Reuss Voigt Hill
#
# Bulk Modulus (GPa) = 21.37951 33.18170 27.28060
# Shear Modulus (GPa) = 26.72685 91.21065 58.96875
#
# Velocity S-wave (km/s) = 3.68547 6.80834 5.47431
# Velocity P-wave (km/s) = 5.38288 8.86949 7.33632
#
# Compressibility (1/GPa) = 0.04677376
#
# Stress axis : x y z
#
# Youngs Moduli (GPa) = 26.29559 104.87541 115.25683
#
# Poissons Ratio (x) = 0.48867 -0.07754
# Poissons Ratio (y) = 0.12253 0.08605
# Poissons Ratio (z) = -0.01769 0.07830
#
# Static dielectric constant tensor:
#      x y z
#    x 1.713960 0.000000 0.000000 
#    y 0.000000 1.735800 0.000000 
#    z 0.000000 0.000000 1.776590 
# 
# From -- ./inp_files/9973.got.cif
#   From: 2010.05.17/outbox.cif.g08.bks.cpg/sg51_5_cif.got.tgz:9973.got - 2010.06.03 11:52:47.
