data_PCOD9400716
_publ_section_title
;
Structure prediction by ZEFSAII (Michael W. Deem and Ramdas Pophale) SiO2 
 PCOD9400716
Probable space group: P M M A
;
_chemical_formula_sum "Si O2"
_cell_formula_units_Z 40
_cell_length_a 26.065854
_cell_length_b 7.478109
_cell_length_c 10.328096
_cell_angle_alpha 90.000000
_cell_angle_beta 90.000000
_cell_angle_gamma 90.000000
_cell_volume 2013.186528
_symmetry_space_group_name_H-M "P M M A"
_symmetry_group_IT_number 51
_symmetry_cell_setting 'orthorhombic'
loop_
_space_group_symop_operation_xyz
x,y,z
1/2-x,-y,z
1/2+x,-y,-z
-x,y,-z
-x,-y,-z
1/2+x,y,-z
1/2-x,y,z
x,-y,z
loop_
_atom_site_type_symbol
_atom_site_label
_atom_site_fract_x
_atom_site_fract_y
_atom_site_fract_z
Si Si1 0.033341 0.707990 0.616222
Si Si2 0.750000 0.792788 0.949209
Si Si3 0.750000 0.282353 0.254030
Si Si4 0.138028 0.285719 0.730324
Si Si5 0.638974 0.214971 0.962114
Si Si6 0.469749 0.216816 0.129566
O O1 0.042505 0.500000 0.581915
O O2 0.089074 0.786301 0.652629
O O3 0.000000 0.788849 0.500000
O O4 0.999213 0.716002 0.745253
O O5 0.805667 0.714131 0.915179
O O6 0.750000 0.000000 0.907745
O O7 0.750000 0.784220 0.105864
O O8 0.750000 0.500000 0.250383
O O9 0.804892 0.223695 0.310293
O O10 0.137633 0.500000 0.716770
O O11 0.132042 0.250736 0.884338
O O12 0.588944 0.277852 0.885959
O O13 0.640860 0.000000 0.950262
O O14 0.470226 0.000000 0.134690
O O15 0.500000 0.270173 0.000000
#
# Coordination Sequence:
#
# PCOD9400716 Si02
#       6
#     8   4   4   8   8   8
#     4  10  21  34  47  66  94 126 158 191 229 274
#     4   8  14  24  40  63  90 118 144 178 226 271
#     4   8  14  24  40  63  86 110 144 186 228 267
#     4   9  16  27  44  65  89 116 148 187 229 270
#     4   9  16  27  44  67  93 118 148 186 227 271
#     4  10  19  31  48  70  95 121 151 189 229 272
#
# _framework density 19.868998000000001
#
# number of rings (size 3 to 8) (size 9 to 14) (size 15 to 20)
#    0.000    2.800    2.000    0.000    0.000    1.600 
#    0.000    0.000    0.000    1.200    0.000    1.400 
#    0.000    0.000    0.000    0.000    0.000    0.000 
#
# Total GULP energy -222869.620376 kJ/mol
# GULP energy per Si atom -5571.740509 kJ/mol
# Density = 1.982378 g / cm^3
# Si number density = 19.868998 Si / 1000 Ang^3
#
#
#
# Elastic Constant Matrix: (Units=GPa)
#
#
# Indices 1 2 3 4 5 6 
#
# 1 218.1708 5.4260 39.9655 0.0000 0.0000 0.0000
# 2 5.4260 59.3874 -6.0158 0.0000 0.0000 0.0000
# 3 39.9655 -6.0158 53.7804 0.0000 0.0000 0.0000
# 4 0.0000 0.0000 0.0000 15.6361 0.0000 0.0000
# 5 0.0000 0.0000 0.0000 0.0000 19.6198 0.0000
# 6 0.0000 0.0000 0.0000 0.0000 0.0000 3.1698
#
#
#
# Elastic Compliance Matrix: (Units=1/GPa)
#
#
# Indices 1 2 3 4 5 6 
#
# 1 0.005353 -0.000902 -0.004079 0.000000 0.000000 0.000000
# 2 -0.000902 0.017184 0.002593 0.000000 0.000000 0.000000
# 3 -0.004079 0.002593 0.021915 0.000000 0.000000 0.000000
# 4 0.000000 0.000000 0.000000 0.063954 0.000000 0.000000
# 5 0.000000 0.000000 0.000000 0.000000 0.050969 0.000000
# 6 0.000000 0.000000 0.000000 0.000000 0.000000 0.315474
#
#
# Mechanical properties :
#
#
# Convention : Reuss Voigt Hill
#
# Bulk Modulus (GPa) = 25.20486 45.56557 35.38521
# Shear Modulus (GPa) = 10.14503 27.14934 18.64718
#
# Velocity S-wave (km/s) = 2.26209 3.70052 3.06683
# Velocity P-wave (km/s) = 4.41993 6.42193 5.51258
#
# Compressibility (1/GPa) = 0.03967489
#
# Stress axis : x y z
#
# Youngs Moduli (GPa) = 186.80340 58.19482 45.63008
#
# Poissons Ratio (x) = 0.05251 0.18613
# Poissons Ratio (y) = 0.16855 -0.11830
# Poissons Ratio (z) = 0.76198 -0.15088
#
# Static dielectric constant tensor:
#      x y z
#    x 1.789830 0.000000 0.000000 
#    y 0.000000 1.741200 0.000000 
#    z 0.000000 0.000000 1.633020 
# 
# From -- ./inp_files/10704.got.cif
#   From: 2010.05.17/outbox.cif.g08.bks.cpg/sg51_6_cif.got.tgz:10704.got - 2010.06.03 11:52:47.
