data_PCOD9400085
_publ_section_title
;
Structure prediction by ZEFSAII (Michael W. Deem and Ramdas Pophale) SiO2 
 PCOD9400085
Probable space group: P M M A
;
_chemical_formula_sum "Si O2"
_cell_formula_units_Z 64
_cell_length_a 7.721440
_cell_length_b 20.942525
_cell_length_c 20.612767
_cell_angle_alpha 90.000000
_cell_angle_beta 90.000000
_cell_angle_gamma 90.000000
_cell_volume 3333.217381
_symmetry_space_group_name_H-M "P M M A"
_symmetry_group_IT_number 51
_symmetry_cell_setting 'orthorhombic'
loop_
_space_group_symop_operation_xyz
x,y,z
1/2-x,-y,z
1/2+x,-y,-z
-x,y,-z
-x,-y,-z
1/2+x,y,-z
1/2-x,y,z
x,-y,z
loop_
_atom_site_type_symbol
_atom_site_label
_atom_site_fract_x
_atom_site_fract_y
_atom_site_fract_z
Si Si1 0.454705 0.930482 0.208197
Si Si2 0.554481 0.402331 0.928936
Si Si3 0.959698 0.707432 0.749647
Si Si4 0.037503 0.569765 0.214157
Si Si5 0.541879 0.928289 0.575293
Si Si6 0.462266 0.831769 0.315368
Si Si7 0.545055 0.737249 0.102508
Si Si8 0.455980 0.122153 0.929248
O O1 0.250000 0.933218 0.221718
O O2 0.520684 0.873496 0.253176
O O3 0.476377 0.915960 0.132458
O O4 0.529621 0.000000 0.223941
O O5 0.750000 0.423190 0.922757
O O6 0.471962 0.423687 0.860651
O O7 0.542279 0.325359 0.926949
O O8 0.500000 0.424018 0.000000
O O9 0.750000 0.706654 0.748796
O O10 0.018737 0.633684 0.748178
O O11 0.018917 0.758861 0.696438
O O12 0.013540 0.733714 0.820362
O O13 0.250000 0.571640 0.213492
O O14 0.986439 0.500000 0.239150
O O15 0.500000 0.917348 0.500000
O O16 0.750000 0.930057 0.581885
O O17 0.479256 0.871824 0.622084
O O18 0.478144 0.000000 0.592809
O O19 0.250000 0.830233 0.316587
O O20 0.750000 0.732307 0.089609
O O21 0.477729 0.804743 0.076370
O O22 0.250000 0.124541 0.922582
O O23 0.500000 0.095921 0.000000
#
# Coordination Sequence:
#
# PCOD9400085 Si02
#       8
#     8   8   8   8   8   8   8   8
#     4  10  20  34  52  70  88 113 147 189 234 279
#     4  10  19  29  43  61  82 110 144 183 230 282
#     4   9  16  28  49  70  89 117 149 187 228 268
#     4   8  15  27  42  62  88 115 143 179 229 283
#     4   9  17  30  48  72 104 137 165 191 222 266
#     4   9  16  29  51  75  96 122 158 192 224 268
#     4  10  19  31  46  65  87 111 143 186 236 283
#     4  11  23  35  48  64  84 113 147 191 242 288
#
# _framework density 19.200668
#
# number of rings (size 3 to 8) (size 9 to 14) (size 15 to 20)
#    0.000    2.500    1.250    2.625    0.000    4.750 
#    0.000    1.250    0.000   10.500    0.000    0.000 
#    0.000    0.500    0.000    0.375    0.000    0.750 
#
# Total GULP energy -356949.874600 kJ/mol
# GULP energy per Si atom -5577.341791 kJ/mol
# Density = 1.915697 g / cm^3
# Si number density = 19.200668 Si / 1000 Ang^3
#
#
#
# Elastic Constant Matrix: (Units=GPa)
#
#
# Indices 1 2 3 4 5 6 
#
# 1 29.9287 7.7488 -4.2338 0.0000 0.0000 0.0000
# 2 7.7488 156.7739 62.0000 0.0000 0.0000 0.0000
# 3 -4.2338 62.0000 79.7991 0.0000 0.0000 0.0000
# 4 0.0000 0.0000 0.0000-2313.4010 0.0000 0.0000
# 5 0.0000 0.0000 0.0000 0.0000 15.7629 0.0000
# 6 0.0000 0.0000 0.0000 0.0000 0.0000 21.1194
#
#
#
# Elastic Compliance Matrix: (Units=1/GPa)
#
#
# Indices 1 2 3 4 5 6 
#
# 1 0.034987 -0.003556 0.004619 0.000000 0.000000 0.000000
# 2 -0.003556 0.009569 -0.007624 0.000000 0.000000 0.000000
# 3 0.004619 -0.007624 0.018700 0.000000 0.000000 0.000000
# 4 0.000000 0.000000 0.000000 -0.000432 0.000000 0.000000
# 5 0.000000 0.000000 0.000000 0.000000 0.063440 0.000000
# 6 0.000000 0.000000 0.000000 0.000000 0.000000 0.047350
#
#
# Mechanical properties :
#
#
# Convention : Reuss Voigt Hill
#
# Bulk Modulus (GPa) = 19.94619 44.17021 32.05820
# Shear Modulus (GPa) = 24.57654 -441.90464 -208.66405
#
# Velocity S-wave (km/s) = 3.58157 -15.18718 -10.43606
# Velocity P-wave (km/s) = 5.24541 16.86651 11.33501
#
# Compressibility (1/GPa) = 0.05013489
#
# Stress axis : x y z
#
# Youngs Moduli (GPa) = 28.58214 104.50108 53.47697
#
# Poissons Ratio (x) = 0.37161 -0.24701
# Poissons Ratio (y) = 0.10164 0.40768
# Poissons Ratio (z) = -0.13202 0.79667
#
# Static dielectric constant tensor:
#      x y z
#    x 1.705910 0.000000 0.000000 
#    y 0.000000 1.718150 0.000000 
#    z 0.000000 0.000000 1.658110 
# 
# From -- ./inp_files/32669.got.cif
#   From: 2010.05.17/outbox.cif.g08.bks.cpg/sg51_17_cif.got.tgz:32669.got - 2010.06.03 11:52:47.
