data_PCOD9400599
_publ_section_title
;
Structure prediction by ZEFSAII (Michael W. Deem and Ramdas Pophale) SiO2 
 PCOD9400599
Probable space group: P M M A
;
_chemical_formula_sum "Si O2"
_cell_formula_units_Z 44
_cell_length_a 8.668452
_cell_length_b 29.256551
_cell_length_c 10.120009
_cell_angle_alpha 90.000000
_cell_angle_beta 90.000000
_cell_angle_gamma 90.000000
_cell_volume 2566.525444
_symmetry_space_group_name_H-M "P M M A"
_symmetry_group_IT_number 51
_symmetry_cell_setting 'orthorhombic'
loop_
_space_group_symop_operation_xyz
x,y,z
1/2-x,-y,z
1/2+x,-y,-z
-x,y,-z
-x,-y,-z
1/2+x,y,-z
1/2-x,y,z
x,-y,z
loop_
_atom_site_type_symbol
_atom_site_label
_atom_site_fract_x
_atom_site_fract_y
_atom_site_fract_z
Si Si1 0.935597 0.098917 0.150015
Si Si2 0.065010 0.376184 0.354821
Si Si3 0.564233 0.000000 0.149462
Si Si4 0.935893 0.271333 0.644974
Si Si5 0.065272 0.447534 0.854056
Si Si6 0.564742 0.805912 0.851245
O O1 0.750000 0.102518 0.147410
O O2 0.979940 0.049286 0.209930
O O3 0.005668 0.145541 0.205884
O O4 0.000000 0.097763 0.000000
O O5 0.250000 0.378248 0.357314
O O6 0.018335 0.323673 0.323676
O O7 0.000000 0.386778 0.500000
O O8 0.001033 0.411632 0.249218
O O9 0.750000 0.000000 0.141341
O O10 0.500000 0.000000 0.000000
O O11 0.750000 0.270085 0.638792
O O12 0.985117 0.235428 0.756450
O O13 0.000000 0.259940 0.500000
O O14 0.250000 0.444568 0.856941
O O15 0.022532 0.500000 0.819211
O O16 0.000000 0.438411 0.000000
O O17 0.750000 0.806996 0.858792
O O18 0.500000 0.800567 0.000000
#
# Coordination Sequence:
#
# PCOD9400599 Si02
#       6
#     8   8   4   8   8   8
#     4   9  15  24  38  59  87 120 154 191 235 281
#     4  10  20  36  56  78 103 132 168 209 250 294
#     4   8  14  22  34  54  83 116 151 188 230 280
#     4   9  20  36  53  73  98 128 164 203 244 290
#     4  10  21  37  56  79 107 138 170 205 247 294
#     4  10  19  31  46  69  98 126 158 197 239 286
#
# _framework density 17.143799999999999
#
# number of rings (size 3 to 8) (size 9 to 14) (size 15 to 20)
#    0.000    2.545    0.000    3.273    0.000    5.091 
#    0.000    1.818    0.000    0.000    0.000    0.636 
#    0.000    0.000    0.000    0.000    0.000    0.000 
#
# Total GULP energy -245161.495828 kJ/mol
# GULP energy per Si atom -5571.852178 kJ/mol
# Density = 1.710478 g / cm^3
# Si number density = 17.143800 Si / 1000 Ang^3
#
#
#
# Elastic Constant Matrix: (Units=GPa)
#
#
# Indices 1 2 3 4 5 6 
#
# 1 46.4023 48.0154 31.0886 0.0000 0.0000 0.0000
# 2 48.0154 173.3798 104.5403 0.0000 0.0000 0.0000
# 3 31.0886 104.5403 80.5069 0.0000 0.0000 0.0000
# 4 0.0000 0.0000 0.0000 -12.9023 0.0000 0.0000
# 5 0.0000 0.0000 0.0000 0.0000 25.1652 0.0000
# 6 0.0000 0.0000 0.0000 0.0000 0.0000 70.2526
#
#
#
# Elastic Compliance Matrix: (Units=1/GPa)
#
#
# Indices 1 2 3 4 5 6 
#
# 1 0.030447 -0.006186 -0.003725 0.000000 0.000000 0.000000
# 2 -0.006186 0.027830 -0.033750 0.000000 0.000000 0.000000
# 3 -0.003725 -0.033750 0.057684 0.000000 0.000000 0.000000
# 4 0.000000 0.000000 0.000000 -0.077505 0.000000 0.000000
# 5 0.000000 0.000000 0.000000 0.000000 0.039737 0.000000
# 6 0.000000 0.000000 0.000000 0.000000 0.000000 0.014234
#
#
# Mechanical properties :
#
#
# Convention : Reuss Voigt Hill
#
# Bulk Modulus (GPa) = 34.91471 74.17528 54.54500
# Shear Modulus (GPa) = 26.41359 24.27940 25.34650
#
# Velocity S-wave (km/s) = 3.92944 3.76735 3.84925
# Velocity P-wave (km/s) = 6.40292 7.89205 7.18616
#
# Compressibility (1/GPa) = 0.02864122
#
# Stress axis : x y z
#
# Youngs Moduli (GPa) = 32.84355 35.93197 17.33575
#
# Poissons Ratio (x) = 0.22229 0.06457
# Poissons Ratio (y) = 0.20318 0.58507
# Poissons Ratio (z) = 0.12233 1.21269
#
# Static dielectric constant tensor:
#      x y z
#    x 1.578120 0.000000 0.000000 
#    y 0.000000 1.632660 0.000000 
#    z 0.000000 0.000000 1.546860 
# 
# From -- ./inp_files/5800.got.cif
#   From: 2010.05.17/outbox.cif.g08.bks.cpg/sg51_3_cif.got.tgz:5800.got - 2010.06.03 11:52:47.
