data_PCOD9400826
_publ_section_title
;
Structure prediction by ZEFSAII (Michael W. Deem and Ramdas Pophale) SiO2 
 PCOD9400826
Probable space group: P M M A
;
_chemical_formula_sum "Si O2"
_cell_formula_units_Z 64
_cell_length_a 8.701741
_cell_length_b 26.931072
_cell_length_c 14.778786
_cell_angle_alpha 90.000000
_cell_angle_beta 90.000000
_cell_angle_gamma 90.000000
_cell_volume 3463.367316
_symmetry_space_group_name_H-M "P M M A"
_symmetry_group_IT_number 51
_symmetry_cell_setting 'orthorhombic'
loop_
_space_group_symop_operation_xyz
x,y,z
1/2-x,-y,z
1/2+x,-y,-z
-x,y,-z
-x,-y,-z
1/2+x,y,-z
1/2-x,y,z
x,-y,z
loop_
_atom_site_type_symbol
_atom_site_label
_atom_site_fract_x
_atom_site_fract_y
_atom_site_fract_z
Si Si1 0.078538 0.559083 0.909516
Si Si2 0.565361 0.756599 0.399120
Si Si3 0.934162 0.297902 0.902970
Si Si4 0.434497 0.812884 0.904629
Si Si5 0.934750 0.145254 0.286366
Si Si6 0.933656 0.056861 0.598855
Si Si7 0.436323 0.337591 0.292239
Si Si8 0.433464 0.554878 0.284653
O O1 0.250000 0.579776 0.894594
O O2 0.096571 0.500000 0.924092
O O3 0.973268 0.561613 0.821188
O O4 0.000000 0.578905 0.000000
O O5 0.500000 0.759840 0.500000
O O6 0.750000 0.755052 0.401522
O O7 0.518429 0.805415 0.342138
O O8 0.504227 0.707180 0.350176
O O9 0.750000 0.297768 0.908472
O O10 0.979488 0.328506 0.813407
O O11 0.995373 0.241861 0.889424
O O12 0.000000 0.313916 0.000000
O O13 0.250000 0.808265 0.909799
O O14 0.475132 0.846056 0.818319
O O15 0.500000 0.831388 0.000000
O O16 0.750000 0.141707 0.292787
O O17 0.007135 0.096673 0.329836
O O18 0.750000 0.058488 0.594365
O O19 0.000000 0.069513 0.500000
O O20 0.981035 0.000000 0.619648
O O21 0.250000 0.335660 0.296701
O O22 0.487654 0.392525 0.325261
O O23 0.250000 0.553180 0.295798
O O24 0.494900 0.500000 0.312402
#
# Coordination Sequence:
#
# PCOD9400826 Si02
#       8
#     8   8   8   8   8   8   8   8
#     4   9  16  26  41  62  89 122 161 204 250 301
#     4  11  23  39  58  83 113 142 175 219 272 329
#     4  10  19  31  49  73 104 141 180 220 265 319
#     4  10  19  33  52  79 112 146 187 228 272 324
#     4  10  21  36  57  85 116 151 190 229 274 327
#     4  10  21  36  56  84 118 156 197 239 284 332
#     4  10  21  36  54  78 106 139 177 217 271 329
#     4   9  18  33  51  70  95 128 168 214 263 320
#
# _framework density 18.479126000000001
#
# number of rings (size 3 to 8) (size 9 to 14) (size 15 to 20)
#    0.000    2.125    1.250    3.000    0.000    6.750 
#    0.000    1.250    0.000    0.750    0.000    0.000 
#    0.000    0.000    0.000    0.000    0.000    0.000 
#
# Total GULP energy -357072.430960 kJ/mol
# GULP energy per Si atom -5579.256734 kJ/mol
# Density = 1.843707 g / cm^3
# Si number density = 18.479126 Si / 1000 Ang^3
#
#
#
# Elastic Constant Matrix: (Units=GPa)
#
#
# Indices 1 2 3 4 5 6 
#
# 1 23.3040 32.5721 31.5760 0.0000 0.0000 0.0000
# 2 32.5721 126.8810 72.1651 0.0000 0.0000 0.0000
# 3 31.5760 72.1651 105.0525 0.0000 0.0000 0.0000
# 4 0.0000 0.0000 0.0000 -38.3708 0.0000 0.0000
# 5 0.0000 0.0000 0.0000 0.0000 27.2375 0.0000
# 6 0.0000 0.0000 0.0000 0.0000 0.0000 14.0248
#
#
#
# Elastic Compliance Matrix: (Units=1/GPa)
#
#
# Indices 1 2 3 4 5 6 
#
# 1 0.081423 -0.011460 -0.016601 0.000000 0.000000 0.000000
# 2 -0.011460 0.014548 -0.006549 0.000000 0.000000 0.000000
# 3 -0.016601 -0.006549 0.019008 0.000000 0.000000 0.000000
# 4 0.000000 0.000000 0.000000 -0.026061 0.000000 0.000000
# 5 0.000000 0.000000 0.000000 0.000000 0.036714 0.000000
# 6 0.000000 0.000000 0.000000 0.000000 0.000000 0.071302
#
#
# Mechanical properties :
#
#
# Convention : Reuss Voigt Hill
#
# Bulk Modulus (GPa) = 21.85403 58.65153 40.25278
# Shear Modulus (GPa) = 17.76778 8.50660 13.13719
#
# Velocity S-wave (km/s) = 3.10418 2.14787 2.66920
# Velocity P-wave (km/s) = 4.96990 6.16112 5.59729
#
# Compressibility (1/GPa) = 0.04575816
#
# Stress axis : x y z
#
# Youngs Moduli (GPa) = 12.28149 68.73617 52.60986
#
# Poissons Ratio (x) = 0.78774 0.87338
# Poissons Ratio (y) = 0.14075 0.34455
# Poissons Ratio (z) = 0.20389 0.45017
#
# Static dielectric constant tensor:
#      x y z
#    x 1.631710 0.000000 0.000000 
#    y 0.000000 1.664350 0.000000 
#    z 0.000000 0.000000 1.660280 
# 
# From -- ./inp_files/22271.got.cif
#   From: 2010.05.17/outbox.cif.g08.bks.cpg/sg51_12_cif.got.tgz:22271.got - 2010.06.03 11:52:47.
