data_PCOD9400293
_publ_section_title
;
Structure prediction by ZEFSAII (Michael W. Deem and Ramdas Pophale) SiO2 
 PCOD9400293
Probable space group: P M M A
;
_chemical_formula_sum "Si O2"
_cell_formula_units_Z 64
_cell_length_a 8.843014
_cell_length_b 14.767299
_cell_length_c 32.074707
_cell_angle_alpha 90.000000
_cell_angle_beta 90.000000
_cell_angle_gamma 90.000000
_cell_volume 4188.553613
_symmetry_space_group_name_H-M "P M M A"
_symmetry_group_IT_number 51
_symmetry_cell_setting 'orthorhombic'
loop_
_space_group_symop_operation_xyz
x,y,z
1/2-x,-y,z
1/2+x,-y,-z
-x,y,-z
-x,-y,-z
1/2+x,y,-z
1/2-x,y,z
x,-y,z
loop_
_atom_site_type_symbol
_atom_site_label
_atom_site_fract_x
_atom_site_fract_y
_atom_site_fract_z
Si Si1 0.432529 0.894048 0.203216
Si Si2 0.932122 0.104994 0.044498
Si Si3 0.075298 0.889895 0.543002
Si Si4 0.931888 0.603106 0.844328
Si Si5 0.066160 0.399392 0.253438
Si Si6 0.567638 0.105537 0.630233
Si Si7 0.934493 0.210264 0.712436
Si Si8 0.068741 0.215821 0.874223
O O1 0.250000 0.886721 0.200212
O O2 0.477699 0.848882 0.247168
O O3 0.504136 0.840270 0.164874
O O4 0.472732 0.000000 0.202171
O O5 0.750000 0.107936 0.041906
O O6 0.980368 0.167358 0.082968
O O7 0.976129 0.000000 0.052363
O O8 0.000000 0.132205 0.000000
O O9 0.250000 0.863975 0.543932
O O10 0.000000 0.858100 0.500000
O O11 0.994163 0.862140 0.585700
O O12 0.067113 0.000000 0.542439
O O13 0.750000 0.612071 0.847068
O O14 0.971656 0.500000 0.856227
O O15 0.972414 0.614680 0.795318
O O16 0.009585 0.682001 0.870161
O O17 0.250000 0.400254 0.254992
O O18 0.014134 0.500000 0.266074
O O19 0.014375 0.313372 0.279924
O O20 0.750000 0.107807 0.628903
O O21 0.515013 0.164639 0.669472
O O22 0.523343 0.000000 0.636278
O O23 0.750000 0.210453 0.711613
O O24 0.250000 0.214356 0.872527
#
# Coordination Sequence:
#
# PCOD9400293 Si02
#       8
#     8   8   8   8   8   8   8   8
#     4  10  19  30  45  65  90 124 164 196 219 256
#     4   9  19  35  52  70  93 121 152 186 226 271
#     4   9  16  26  40  57  78 106 142 183 221 259
#     4   9  17  31  51  72  93 119 155 195 228 264
#     4   8  13  23  42  65  86 110 145 191 231 256
#     4   9  16  25  38  57  82 114 148 181 218 257
#     4   9  15  25  41  61  87 117 152 189 221 258
#     4  11  21  32  48  71  99 124 147 184 234 282
#
# _framework density 15.279738
#
# number of rings (size 3 to 8) (size 9 to 14) (size 15 to 20)
#    0.000    2.750    1.250    2.250    0.000    5.000 
#    0.000    1.875    0.000    1.875    0.000    0.000 
#    0.000    0.500    0.000    0.875    0.000    1.250 
#
# Total GULP energy -356599.446345 kJ/mol
# GULP energy per Si atom -5571.866349 kJ/mol
# Density = 1.524496 g / cm^3
# Si number density = 15.279738 Si / 1000 Ang^3
#
#
#
# Elastic Constant Matrix: (Units=GPa)
#
#
# Indices 1 2 3 4 5 6 
#
# 1 13.9111 27.1153 31.1917 0.0000 0.0000 0.0000
# 2 27.1153 112.3974 80.4358 0.0000 0.0000 0.0000
# 3 31.1917 80.4358 143.5708 0.0000 0.0000 0.0000
# 4 0.0000 0.0000 0.0000 9.4893 0.0000 0.0000
# 5 0.0000 0.0000 0.0000 0.0000 21.0222 0.0000
# 6 0.0000 0.0000 0.0000 0.0000 0.0000 13.9738
#
#
#
# Elastic Compliance Matrix: (Units=1/GPa)
#
#
# Indices 1 2 3 4 5 6 
#
# 1 0.173783 -0.024881 -0.023816 0.000000 0.000000 0.000000
# 2 -0.024881 0.018414 -0.004911 0.000000 0.000000 0.000000
# 3 -0.023816 -0.004911 0.014891 0.000000 0.000000 0.000000
# 4 0.000000 0.000000 0.000000 0.105382 0.000000 0.000000
# 5 0.000000 0.000000 0.000000 0.000000 0.047569 0.000000
# 6 0.000000 0.000000 0.000000 0.000000 0.000000 0.071563
#
#
# Mechanical properties :
#
#
# Convention : Reuss Voigt Hill
#
# Bulk Modulus (GPa) = 10.01279 60.81832 35.41556
# Shear Modulus (GPa) = 8.73963 17.63947 13.18955
#
# Velocity S-wave (km/s) = 2.39420 3.40138 2.94122
# Velocity P-wave (km/s) = 3.76963 7.43744 5.89600
#
# Compressibility (1/GPa) = 0.09987222
#
# Stress axis : x y z
#
# Youngs Moduli (GPa) = 5.75432 54.30735 67.15601
#
# Poissons Ratio (x) = 1.35120 1.59939
# Poissons Ratio (y) = 0.14317 0.32979
# Poissons Ratio (z) = 0.13704 0.26670
#
# Static dielectric constant tensor:
#      x y z
#    x 1.515910 0.000000 0.000000 
#    y 0.000000 1.510130 0.000000 
#    z 0.000000 0.000000 1.491720 
# 
# From -- ./inp_files/37576.got.cif
#   From: 2010.05.17/outbox.cif.g08.bks.cpg/sg51_19_cif.got.tgz:37576.got - 2010.06.03 11:52:47.
