data_PCOD9400751
_publ_section_title
;
Structure prediction by ZEFSAII (Michael W. Deem and Ramdas Pophale) SiO2 
 PCOD9400751
Probable space group: P M M A
;
_chemical_formula_sum "Si O2"
_cell_formula_units_Z 40
_cell_length_a 26.519096
_cell_length_b 8.527409
_cell_length_c 9.983643
_cell_angle_alpha 90.000000
_cell_angle_beta 90.000000
_cell_angle_gamma 90.000000
_cell_volume 2257.692820
_symmetry_space_group_name_H-M "P M M A"
_symmetry_group_IT_number 51
_symmetry_cell_setting 'orthorhombic'
loop_
_space_group_symop_operation_xyz
x,y,z
1/2-x,-y,z
1/2+x,-y,-z
-x,y,-z
-x,-y,-z
1/2+x,y,-z
1/2-x,y,z
x,-y,z
loop_
_atom_site_type_symbol
_atom_site_label
_atom_site_fract_x
_atom_site_fract_y
_atom_site_fract_z
Si Si1 0.613465 0.189234 0.550123
Si Si2 0.612280 0.312546 0.976685
Si Si3 0.583490 0.189502 0.255486
Si Si4 0.967643 0.810700 0.773228
Si Si5 0.192388 0.689355 0.244758
O O1 0.605368 0.242537 0.398123
O O2 0.565676 0.233997 0.643411
O O3 0.662692 0.253744 0.624083
O O4 0.615698 0.000000 0.550523
O O5 0.612259 0.500000 0.979986
O O6 0.561674 0.254892 0.901643
O O7 0.658686 0.259037 0.882533
O O8 0.613310 0.247621 0.126159
O O9 0.525204 0.241522 0.240585
O O10 0.583329 0.000000 0.255870
O O11 0.967435 0.000000 0.782393
O O12 0.250000 0.744255 0.239086
O O13 0.192516 0.500000 0.244727
#
# Coordination Sequence:
#
# PCOD9400751 Si02
#       5
#     8   8   8   8   8
#     4   9  18  32  51  75  99 124 160 201 237 279
#     4  10  20  32  48  72  99 127 163 203 238 277
#     4  10  19  31  48  72 103 133 158 190 235 286
#     4   9  17  31  50  70  97 135 168 191 227 282
#     4   9  19  37  56  70  89 122 162 201 243 291
#
# _framework density 17.717202
#
# number of rings (size 3 to 8) (size 9 to 14) (size 15 to 20)
#    0.000    2.600    0.000    1.800    0.000    7.600 
#    0.000    1.000    0.000    9.600    0.000    0.000 
#    0.000    0.000    0.000    0.000    0.000    0.000 
#
# Total GULP energy -223153.908593 kJ/mol
# GULP energy per Si atom -5578.847715 kJ/mol
# Density = 1.767688 g / cm^3
# Si number density = 17.717202 Si / 1000 Ang^3
#
#
#
# Elastic Constant Matrix: (Units=GPa)
#
#
# Indices 1 2 3 4 5 6 
#
# 1 121.2757 15.1169 60.5806 0.0000 0.0000 0.0000
# 2 15.1169 4.1211 18.8000 0.0000 0.0000 0.0000
# 3 60.5806 18.8000 157.9907 0.0000 0.0000 0.0000
# 4 0.0000 0.0000 0.0000 18.6482 0.0000 0.0000
# 5 0.0000 0.0000 0.0000 0.0000 6.7651 0.0000
# 6 0.0000 0.0000 0.0000 0.0000 0.0000 24.8001
#
#
#
# Elastic Compliance Matrix: (Units=1/GPa)
#
#
# Indices 1 2 3 4 5 6 
#
# 1 0.015420 -0.064725 0.001789 0.000000 0.000000 0.000000
# 2 -0.064725 0.802468 -0.070671 0.000000 0.000000 0.000000
# 3 0.001789 -0.070671 0.014053 0.000000 0.000000 0.000000
# 4 0.000000 0.000000 0.000000 0.053624 0.000000 0.000000
# 5 0.000000 0.000000 0.000000 0.000000 0.147817 0.000000
# 6 0.000000 0.000000 0.000000 0.000000 0.000000 0.040322
#
#
# Mechanical properties :
#
#
# Convention : Reuss Voigt Hill
#
# Bulk Modulus (GPa) = 1.77076 52.48692 27.12884
# Shear Modulus (GPa) = 3.26977 22.63537 12.95257
#
# Velocity S-wave (km/s) = 1.35998 3.57822 2.70677
# Velocity P-wave (km/s) = 1.86217 6.83818 5.01141
#
# Compressibility (1/GPa) = 0.56472806
#
# Stress axis : x y z
#
# Youngs Moduli (GPa) = 64.85194 1.24616 71.16014
#
# Poissons Ratio (x) = 0.08066 -0.12732
# Poissons Ratio (y) = 4.19752 5.02894
# Poissons Ratio (z) = -0.11604 0.08807
#
# Static dielectric constant tensor:
#      x y z
#    x 1.590460 0.000000 0.000000 
#    y 0.000000 1.607340 0.000000 
#    z 0.000000 0.000000 1.597880 
# 
# From -- ./inp_files/11422.got.cif
#   From: 2010.05.17/outbox.cif.g08.bks.cpg/sg51_6_cif.got.tgz:11422.got - 2010.06.03 11:52:47.
