data_PCOD9400538
_publ_section_title
;
Structure prediction by ZEFSAII (Michael W. Deem and Ramdas Pophale) SiO2 
 PCOD9400538
Probable space group: P M M A
;
_chemical_formula_sum "Si O2"
_cell_formula_units_Z 58
_cell_length_a 22.873206
_cell_length_b 9.181850
_cell_length_c 15.002425
_cell_angle_alpha 90.000000
_cell_angle_beta 90.000000
_cell_angle_gamma 90.000000
_cell_volume 3150.784492
_symmetry_space_group_name_H-M "P M M A"
_symmetry_group_IT_number 51
_symmetry_cell_setting 'orthorhombic'
loop_
_space_group_symop_operation_xyz
x,y,z
1/2-x,-y,z
1/2+x,-y,-z
-x,y,-z
-x,-y,-z
1/2+x,y,-z
1/2-x,y,z
x,-y,z
loop_
_atom_site_type_symbol
_atom_site_label
_atom_site_fract_x
_atom_site_fract_y
_atom_site_fract_z
Si Si1 0.429299 0.826461 0.743181
Si Si2 0.493984 0.668313 0.896669
Si Si3 0.474116 0.175137 0.404883
Si Si4 0.819077 0.833676 0.026178
Si Si5 0.138065 0.661956 0.338051
Si Si6 0.817145 0.673745 0.214320
Si Si7 0.370847 0.668141 0.140908
Si Si8 0.250000 0.500000 0.398022
O O1 0.453163 0.769858 0.838070
O O2 0.478644 0.785495 0.671059
O O3 0.367183 0.749276 0.727298
O O4 0.422362 0.000000 0.742948
O O5 0.472653 0.500000 0.894361
O O6 0.558997 0.672400 0.856669
O O7 0.500000 0.710840 0.000000
O O8 0.500000 0.221444 0.500000
O O9 0.410883 0.242271 0.384694
O O10 0.468961 0.000000 0.404748
O O11 0.750000 0.836199 0.006379
O O12 0.850529 0.764593 0.941490
O O13 0.838299 0.000000 0.043415
O O14 0.825604 0.736826 0.114614
O O15 0.110797 0.500000 0.322790
O O16 0.151957 0.716265 0.237784
O O17 0.197655 0.625415 0.389744
O O18 0.750000 0.707642 0.240793
O O19 0.824042 0.500000 0.214381
O O20 0.352168 0.500000 0.125223
#
# Coordination Sequence:
#
# PCOD9400538 Si02
#       8
#     8   8   8   8   8   8   8   2
#     4  11  22  36  59  87 114 148 189 243 300 350
#     4  10  20  33  50  77 113 151 191 235 285 342
#     4  10  22  41  65  92 121 154 196 244 301 368
#     4  10  21  33  48  75 111 154 202 247 288 343
#     4   9  19  36  59  85 117 155 196 241 290 346
#     4  10  21  38  58  79 109 151 198 244 295 355
#     4  10  19  30  50  75 109 153 196 240 288 341
#     4   8  20  36  60  88 122 152 198 244 290 348
#
# _framework density 18.408113
#
# number of rings (size 3 to 8) (size 9 to 14) (size 15 to 20)
#    0.414    1.655    1.379    2.069    0.966    4.966 
#    0.000    0.345    1.517    0.000    0.000    0.000 
#    0.000    0.000    0.000    0.000    0.000    0.000 
#
# Total GULP energy -322925.241753 kJ/mol
# GULP energy per Si atom -5567.676582 kJ/mol
# Density = 1.836622 g / cm^3
# Si number density = 18.408113 Si / 1000 Ang^3
#
#
#
# Elastic Constant Matrix: (Units=GPa)
#
#
# Indices 1 2 3 4 5 6 
#
# 1 129.0212 52.4248 40.3681 0.0000 0.0000 0.0000
# 2 52.4248 59.1525 25.5019 0.0000 0.0000 0.0000
# 3 40.3681 25.5019 44.4836 0.0000 0.0000 0.0000
# 4 0.0000 0.0000 0.0000 15.1960 0.0000 0.0000
# 5 0.0000 0.0000 0.0000 0.0000 10.8404 0.0000
# 6 0.0000 0.0000 0.0000 0.0000 0.0000 31.5852
#
#
#
# Elastic Compliance Matrix: (Units=1/GPa)
#
#
# Indices 1 2 3 4 5 6 
#
# 1 0.013674 -0.008991 -0.007254 0.000000 0.000000 0.000000
# 2 -0.008991 0.028368 -0.008103 0.000000 0.000000 0.000000
# 3 -0.007254 -0.008103 0.033709 0.000000 0.000000 0.000000
# 4 0.000000 0.000000 0.000000 0.065807 0.000000 0.000000
# 5 0.000000 0.000000 0.000000 0.000000 0.092248 0.000000
# 6 0.000000 0.000000 0.000000 0.000000 0.000000 0.031660
#
#
# Mechanical properties :
#
#
# Convention : Reuss Voigt Hill
#
# Bulk Modulus (GPa) = 36.96501 52.13853 44.55177
# Shear Modulus (GPa) = 15.47127 19.14848 17.30987
#
# Velocity S-wave (km/s) = 2.90221 3.22874 3.06982
# Velocity P-wave (km/s) = 5.59954 6.50268 6.06794
#
# Compressibility (1/GPa) = 0.02705261
#
# Stress axis : x y z
#
# Youngs Moduli (GPa) = 73.13333 35.25159 29.66580
#
# Poissons Ratio (x) = 0.31695 0.21520
# Poissons Ratio (y) = 0.65755 0.24040
# Poissons Ratio (z) = 0.53052 0.28566
#
# Static dielectric constant tensor:
#      x y z
#    x 1.650200 0.000000 0.000000 
#    y 0.000000 1.634370 0.000000 
#    z 0.000000 0.000000 1.637370 
# 
# From -- ./inp_files/26136.got.cif
#   From: 2010.05.17/outbox.cif.g08.bks.cpg/sg51_14_cif.got.tgz:26136.got - 2010.06.03 11:52:47.
