data_PCOD9400258
_publ_section_title
;
Structure prediction by ZEFSAII (Michael W. Deem and Ramdas Pophale) SiO2 
 PCOD9400258
Probable space group: P M M A
;
_chemical_formula_sum "Si O2"
_cell_formula_units_Z 36
_cell_length_a 8.895687
_cell_length_b 13.028691
_cell_length_c 20.109164
_cell_angle_alpha 90.000000
_cell_angle_beta 90.000000
_cell_angle_gamma 90.000000
_cell_volume 2330.635159
_symmetry_space_group_name_H-M "P M M A"
_symmetry_group_IT_number 51
_symmetry_cell_setting 'orthorhombic'
loop_
_space_group_symop_operation_xyz
x,y,z
1/2-x,-y,z
1/2+x,-y,-z
-x,y,-z
-x,-y,-z
1/2+x,y,-z
1/2-x,y,z
x,-y,z
loop_
_atom_site_type_symbol
_atom_site_label
_atom_site_fract_x
_atom_site_fract_y
_atom_site_fract_z
Si Si1 0.923472 0.624896 0.431467
Si Si2 0.069308 0.500000 0.073752
Si Si3 0.072367 0.376639 0.292645
Si Si4 0.430372 0.312514 0.843168
Si Si5 0.069348 0.116677 0.928326
O O1 0.750000 0.656689 0.428431
O O2 0.926113 0.500000 0.432647
O O3 0.000000 0.659698 0.500000
O O4 0.010988 0.655389 0.364811
O O5 0.250000 0.500000 0.071048
O O6 0.010074 0.599187 0.113552
O O7 0.000000 0.500000 0.000000
O O8 0.250000 0.357675 0.287648
O O9 0.049218 0.500000 0.286453
O O10 0.985182 0.324386 0.232234
O O11 0.250000 0.325995 0.846889
O O12 0.471012 0.202600 0.874718
O O13 0.250000 0.117574 0.934668
O O14 0.022719 0.000000 0.911247
O O15 0.000000 0.142631 0.000000
#
# Coordination Sequence:
#
# PCOD9400258 Si02
#       5
#     8   4   8   8   8
#     4   9  16  26  41  61  87 121 160 197 230 272
#     4  12  24  36  48  66  93 124 157 194 232 280
#     4  10  19  30  44  64  93 127 159 194 233 277
#     4  11  21  33  50  70  94 124 157 194 236 285
#     4   9  19  35  53  72  92 117 152 196 243 287
#
# _framework density 15.446432
#
# number of rings (size 3 to 8) (size 9 to 14) (size 15 to 20)
#    0.000    2.000    1.111    3.667    0.000    7.111 
#    0.000    0.000    0.000    0.000    0.000    0.000 
#    0.000    0.889    0.000    2.444    0.000    3.556 
#
# Total GULP energy -200861.227492 kJ/mol
# GULP energy per Si atom -5579.478541 kJ/mol
# Density = 1.541128 g / cm^3
# Si number density = 15.446432 Si / 1000 Ang^3
#
#
#
# Elastic Constant Matrix: (Units=GPa)
#
#
# Indices 1 2 3 4 5 6 
#
# 1 83.6235 40.2012 60.4520 0.0000 0.0000 0.0000
# 2 40.2012 58.8384 56.8384 0.0000 0.0000 0.0000
# 3 60.4520 56.8384 148.9305 0.0000 0.0000 0.0000
# 4 0.0000 0.0000 0.0000 10.3751 0.0000 0.0000
# 5 0.0000 0.0000 0.0000 0.0000 33.2169 0.0000
# 6 0.0000 0.0000 0.0000 0.0000 0.0000 6.6558
#
#
#
# Elastic Compliance Matrix: (Units=1/GPa)
#
#
# Indices 1 2 3 4 5 6 
#
# 1 0.019537 -0.009009 -0.004492 0.000000 0.000000 0.000000
# 2 -0.009009 0.031075 -0.008203 0.000000 0.000000 0.000000
# 3 -0.004492 -0.008203 0.011668 0.000000 0.000000 0.000000
# 4 0.000000 0.000000 0.000000 0.096384 0.000000 0.000000
# 5 0.000000 0.000000 0.000000 0.000000 0.030105 0.000000
# 6 0.000000 0.000000 0.000000 0.000000 0.000000 0.150245
#
#
# Mechanical properties :
#
#
# Convention : Reuss Voigt Hill
#
# Bulk Modulus (GPa) = 52.98689 67.37507 60.18098
# Shear Modulus (GPa) = 12.86297 18.97628 15.91963
#
# Velocity S-wave (km/s) = 2.88887 3.50883 3.21383
# Velocity P-wave (km/s) = 6.74578 7.75429 7.26755
#
# Compressibility (1/GPa) = 0.01887259
#
# Stress axis : x y z
#
# Youngs Moduli (GPa) = 51.18605 32.18009 85.70264
#
# Poissons Ratio (x) = 0.28992 0.38495
# Poissons Ratio (y) = 0.46115 0.70299
# Poissons Ratio (z) = 0.22991 0.26396
#
# Static dielectric constant tensor:
#      x y z
#    x 1.515820 0.000000 0.000000 
#    y 0.000000 1.498820 0.000000 
#    z 0.000000 0.000000 1.501330 
# 
# From -- ./inp_files/26999.got.cif
#   From: 2010.05.17/outbox.cif.g08.bks.cpg/sg51_14_cif.got.tgz:26999.got - 2010.06.03 11:52:47.
