data_PCOD9400858
_publ_section_title
;
Structure prediction by ZEFSAII (Michael W. Deem and Ramdas Pophale) SiO2 
 PCOD9400858
Probable space group: P M M A
;
_chemical_formula_sum "Si O2"
_cell_formula_units_Z 40
_cell_length_a 14.394654
_cell_length_b 10.734443
_cell_length_c 12.846334
_cell_angle_alpha 90.000000
_cell_angle_beta 90.000000
_cell_angle_gamma 90.000000
_cell_volume 1984.997453
_symmetry_space_group_name_H-M "P M M A"
_symmetry_group_IT_number 51
_symmetry_cell_setting 'orthorhombic'
loop_
_space_group_symop_operation_xyz
x,y,z
1/2-x,-y,z
1/2+x,-y,-z
-x,y,-z
-x,-y,-z
1/2+x,y,-z
1/2-x,y,z
x,-y,z
loop_
_atom_site_type_symbol
_atom_site_label
_atom_site_fract_x
_atom_site_fract_y
_atom_site_fract_z
Si Si1 0.644206 0.285430 0.198796
Si Si2 0.637589 0.645326 0.543322
Si Si3 0.139814 0.134792 0.608091
Si Si4 0.946810 0.639869 0.759254
Si Si5 0.641591 0.645500 0.967005
O O1 0.750000 0.333077 0.218200
O O2 0.633388 0.162281 0.268584
O O3 0.557755 0.364715 0.239466
O O4 0.632979 0.280407 0.074762
O O5 0.750000 0.645190 0.549700
O O6 0.609967 0.500000 0.523862
O O7 0.607579 0.743825 0.455410
O O8 0.595101 0.691131 0.652975
O O9 0.250000 0.128898 0.585384
O O10 0.098513 0.000000 0.581823
O O11 0.907576 0.500000 0.763813
O O12 0.914767 0.697126 0.868953
O O13 0.750000 0.644542 0.938402
O O14 0.614551 0.500000 0.989403
#
# Coordination Sequence:
#
# PCOD9400858 Si02
#       5
#     8   8   8   8   8
#     4  10  20  32  48  72 101 136 177 215 252 303
#     4   9  18  33  54  79 105 134 172 219 264 305
#     4   9  19  37  58  77 103 141 178 214 261 313
#     4  10  19  31  49  75 108 141 172 211 261 311
#     4   9  17  30  50  76 105 137 173 213 258 308
#
# _framework density 20.151160000000001
#
# number of rings (size 3 to 8) (size 9 to 14) (size 15 to 20)
#    0.000    2.600    0.000    1.800    0.000    7.600 
#    0.000   10.000    0.000    3.600    0.000    5.600 
#    0.000    0.000    0.000    0.000    0.000    0.000 
#
# Total GULP energy -222741.127812 kJ/mol
# GULP energy per Si atom -5568.528195 kJ/mol
# Density = 2.010530 g / cm^3
# Si number density = 20.151160 Si / 1000 Ang^3
#
#
#
# Elastic Constant Matrix: (Units=GPa)
#
#
# Indices 1 2 3 4 5 6 
#
# 1 83.8701 21.7078 46.0824 0.0000 0.0000 0.0000
# 2 21.7078 82.7906 63.4318 0.0000 0.0000 0.0000
# 3 46.0824 63.4318 149.1284 0.0000 0.0000 0.0000
# 4 0.0000 0.0000 0.0000 16.4465 0.0000 0.0000
# 5 0.0000 0.0000 0.0000 0.0000 25.3019 0.0000
# 6 0.0000 0.0000 0.0000 0.0000 0.0000 3.4873
#
#
#
# Elastic Compliance Matrix: (Units=1/GPa)
#
#
# Indices 1 2 3 4 5 6 
#
# 1 0.014378 -0.000543 -0.004212 0.000000 0.000000 0.000000
# 2 -0.000543 0.017938 -0.007462 0.000000 0.000000 0.000000
# 3 -0.004212 -0.007462 0.011181 0.000000 0.000000 0.000000
# 4 0.000000 0.000000 0.000000 0.060803 0.000000 0.000000
# 5 0.000000 0.000000 0.000000 0.000000 0.039523 0.000000
# 6 0.000000 0.000000 0.000000 0.000000 0.000000 0.286753
#
#
# Mechanical properties :
#
#
# Convention : Reuss Voigt Hill
#
# Bulk Modulus (GPa) = 52.45674 64.24810 58.35242
# Shear Modulus (GPa) = 10.83738 21.35161 16.09449
#
# Velocity S-wave (km/s) = 2.32158 3.25864 2.82917
# Velocity P-wave (km/s) = 5.76840 6.79048 6.30020
#
# Compressibility (1/GPa) = 0.01906333
#
# Stress axis : x y z
#
# Youngs Moduli (GPa) = 69.55053 55.74613 89.43446
#
# Poissons Ratio (x) = 0.03025 0.37671
# Poissons Ratio (y) = 0.03775 0.66740
# Poissons Ratio (z) = 0.29296 0.41600
#
# Static dielectric constant tensor:
#      x y z
#    x 1.738280 0.000000 0.000000 
#    y 0.000000 1.718070 0.000000 
#    z 0.000000 0.000000 1.767540 
# 
# From -- ./inp_files/16154.got.cif
#   From: 2010.05.17/outbox.cif.g08.bks.cpg/sg51_9_cif.got.tgz:16154.got - 2010.06.03 11:52:47.
