data_PCOD9400400
_publ_section_title
;
Structure prediction by ZEFSAII (Michael W. Deem and Ramdas Pophale) SiO2 
 PCOD9400400
Probable space group: P M M A
;
_chemical_formula_sum "Si O2"
_cell_formula_units_Z 64
_cell_length_a 8.929442
_cell_length_b 19.476998
_cell_length_c 24.002848
_cell_angle_alpha 90.000000
_cell_angle_beta 90.000000
_cell_angle_gamma 90.000000
_cell_volume 4174.544696
_symmetry_space_group_name_H-M "P M M A"
_symmetry_group_IT_number 51
_symmetry_cell_setting 'orthorhombic'
loop_
_space_group_symop_operation_xyz
x,y,z
1/2-x,-y,z
1/2+x,-y,-z
-x,y,-z
-x,-y,-z
1/2+x,y,-z
1/2-x,y,z
x,-y,z
loop_
_atom_site_type_symbol
_atom_site_label
_atom_site_fract_x
_atom_site_fract_y
_atom_site_fract_z
Si Si1 0.071797 0.848138 0.164723
Si Si2 0.071109 0.921338 0.729346
Si Si3 0.428304 0.711621 0.440161
Si Si4 0.428623 0.578380 0.612429
Si Si5 0.928839 0.422322 0.254557
Si Si6 0.071160 0.919812 0.940071
Si Si7 0.928539 0.789523 0.338770
Si Si8 0.571810 0.284611 0.767561
O O1 0.250000 0.855679 0.159340
O O2 0.038886 0.769824 0.183471
O O3 0.013460 0.894758 0.215879
O O4 0.993092 0.872617 0.108638
O O5 0.250000 0.917349 0.740415
O O6 0.039879 0.867785 0.679721
O O7 0.033080 0.000000 0.716794
O O8 0.500000 0.725691 0.500000
O O9 0.250000 0.714358 0.442861
O O10 0.481545 0.636229 0.419941
O O11 0.490544 0.764291 0.394106
O O12 0.250000 0.588898 0.604372
O O13 0.464370 0.500000 0.595770
O O14 0.457496 0.584109 0.678838
O O15 0.750000 0.414858 0.247166
O O16 0.970932 0.500000 0.238271
O O17 0.014615 0.361583 0.223763
O O18 0.250000 0.913789 0.943004
O O19 0.034799 0.000000 0.927426
O O20 0.000000 0.903708 0.000000
O O21 0.750000 0.779998 0.344256
O O22 0.988009 0.744073 0.287186
O O23 0.750000 0.283679 0.757661
#
# Coordination Sequence:
#
# PCOD9400400 Si02
#       8
#     8   8   8   8   8   8   8   8
#     4  10  20  31  45  70 103 133 164 201 237 273
#     4   9  18  32  51  74  97 123 154 189 233 283
#     4  12  24  36  51  69  90 117 152 190 229 278
#     4   9  18  33  51  70  93 120 151 187 227 273
#     4   9  17  29  47  69  94 125 157 190 232 282
#     4  10  20  33  49  69  96 133 174 209 242 281
#     4  10  19  33  51  69  93 120 148 187 233 280
#     4  10  19  30  46  70  97 126 159 195 234 278
#
# _framework density 15.331014
#
# number of rings (size 3 to 8) (size 9 to 14) (size 15 to 20)
#    0.000    2.125    1.250    3.750    0.000    5.250 
#    0.000    1.250    0.000    0.375    0.000    0.000 
#    0.000    0.500    0.000    1.625    0.000    2.375 
#
# Total GULP energy -357121.850786 kJ/mol
# GULP energy per Si atom -5580.028919 kJ/mol
# Density = 1.529612 g / cm^3
# Si number density = 15.331014 Si / 1000 Ang^3
#
#
#
# Elastic Constant Matrix: (Units=GPa)
#
#
# Indices 1 2 3 4 5 6 
#
# 1 73.6253 59.7823 58.7585 0.0000 0.0000 0.0000
# 2 59.7823 125.0803 65.1305 0.0000 0.0000 0.0000
# 3 58.7585 65.1305 99.5577 0.0000 0.0000 0.0000
# 4 0.0000 0.0000 0.0000 21.0155 0.0000 0.0000
# 5 0.0000 0.0000 0.0000 0.0000 25.9482 0.0000
# 6 0.0000 0.0000 0.0000 0.0000 0.0000 11.9499
#
#
#
# Elastic Compliance Matrix: (Units=1/GPa)
#
#
# Indices 1 2 3 4 5 6 
#
# 1 0.029919 -0.007743 -0.012593 0.000000 0.000000 0.000000
# 2 -0.007743 0.014129 -0.004673 0.000000 0.000000 0.000000
# 3 -0.012593 -0.004673 0.020534 0.000000 0.000000 0.000000
# 4 0.000000 0.000000 0.000000 0.047584 0.000000 0.000000
# 5 0.000000 0.000000 0.000000 0.000000 0.038538 0.000000
# 6 0.000000 0.000000 0.000000 0.000000 0.000000 0.083683
#
#
# Mechanical properties :
#
#
# Convention : Reuss Voigt Hill
#
# Bulk Modulus (GPa) = 68.66173 73.95623 71.30898
# Shear Modulus (GPa) = 17.28545 19.42220 18.35382
#
# Velocity S-wave (km/s) = 3.36144 3.56315 3.46377
# Velocity P-wave (km/s) = 7.74268 8.07914 7.91270
#
# Compressibility (1/GPa) = 0.01456415
#
# Stress axis : x y z
#
# Youngs Moduli (GPa) = 33.42311 70.77632 48.69937
#
# Poissons Ratio (x) = 0.54800 0.61327
# Poissons Ratio (y) = 0.25879 0.22759
# Poissons Ratio (z) = 0.42090 0.33077
#
# Static dielectric constant tensor:
#      x y z
#    x 1.508850 0.000000 0.000000 
#    y 0.000000 1.526270 0.000000 
#    z 0.000000 0.000000 1.477240 
# 
# From -- ./inp_files/35107.got.cif
#   From: 2010.05.17/outbox.cif.g08.bks.cpg/sg51_18_cif.got.tgz:35107.got - 2010.06.03 11:52:47.
