data_PCOD9400105
_publ_section_title
;
Structure prediction by ZEFSAII (Michael W. Deem and Ramdas Pophale) SiO2 
 PCOD9400105
Probable space group: P M M A
;
_chemical_formula_sum "Si O2"
_cell_formula_units_Z 64
_cell_length_a 8.894349
_cell_length_b 25.241930
_cell_length_c 15.246938
_cell_angle_alpha 90.000000
_cell_angle_beta 90.000000
_cell_angle_gamma 90.000000
_cell_volume 3423.098205
_symmetry_space_group_name_H-M "P M M A"
_symmetry_group_IT_number 51
_symmetry_cell_setting 'orthorhombic'
loop_
_space_group_symop_operation_xyz
x,y,z
1/2-x,-y,z
1/2+x,-y,-z
-x,y,-z
-x,-y,-z
1/2+x,y,-z
1/2-x,y,z
x,-y,z
loop_
_atom_site_type_symbol
_atom_site_label
_atom_site_fract_x
_atom_site_fract_y
_atom_site_fract_z
Si Si1 0.923528 0.833864 0.160749
Si Si2 0.568926 0.940833 0.785692
Si Si3 0.572788 0.086472 0.588490
Si Si4 0.427442 0.563086 0.094212
Si Si5 0.430460 0.315027 0.591242
Si Si6 0.424480 0.194372 0.633551
Si Si7 0.428429 0.267680 0.091259
Si Si8 0.930801 0.647481 0.219904
O O1 0.750000 0.832456 0.131641
O O2 0.928268 0.812939 0.261396
O O3 0.987756 0.893224 0.164224
O O4 0.023214 0.793040 0.106342
O O5 0.750000 0.933072 0.789008
O O6 0.523972 0.937011 0.682485
O O7 0.534358 0.000000 0.817593
O O8 0.500000 0.064647 0.500000
O O9 0.750000 0.079757 0.582261
O O10 0.528041 0.148361 0.595361
O O11 0.250000 0.575416 0.092207
O O12 0.445530 0.500000 0.107060
O O13 0.507084 0.596136 0.170366
O O14 0.500000 0.576476 0.000000
O O15 0.500000 0.333329 0.500000
O O16 0.250000 0.316292 0.585183
O O17 0.472608 0.253334 0.607654
O O18 0.474151 0.347571 0.677982
O O19 0.250000 0.186139 0.606115
O O20 0.250000 0.273320 0.090078
O O21 0.499916 0.302682 0.168311
O O22 0.500000 0.286231 0.000000
O O23 0.750000 0.649899 0.214015
#
# Coordination Sequence:
#
# PCOD9400105 Si02
#       8
#     8   8   8   8   8   8   8   8
#     4  10  19  35  56  79 109 139 177 226 277 336
#     4   9  19  35  52  71  97 133 178 224 274 336
#     4  10  19  29  43  66  94 129 172 221 276 331
#     4  10  21  38  61  91 124 159 200 243 289 345
#     4  10  21  35  52  77 111 152 195 240 286 335
#     4   9  17  32  50  70 100 138 178 224 275 327
#     4  12  24  38  59  87 119 154 188 225 281 344
#     4  11  22  39  59  85 123 160 197 242 290 338
#
# _framework density 18.696511999999998
#
# number of rings (size 3 to 8) (size 9 to 14) (size 15 to 20)
#    0.000    1.875    1.250    3.375    0.000    4.750 
#    0.000    0.000    0.000    0.750    0.000    0.000 
#    0.000    0.000    0.000    0.000    0.000    0.000 
#
# Total GULP energy -357508.186921 kJ/mol
# GULP energy per Si atom -5586.065421 kJ/mol
# Density = 1.865396 g / cm^3
# Si number density = 18.696512 Si / 1000 Ang^3
#
#
#
# Elastic Constant Matrix: (Units=GPa)
#
#
# Indices 1 2 3 4 5 6 
#
# 1 77.3560 41.9866 42.3140 0.0000 0.0000 0.0000
# 2 41.9866 81.5909 45.4921 0.0000 0.0000 0.0000
# 3 42.3140 45.4921 99.9027 0.0000 0.0000 0.0000
# 4 0.0000 0.0000 0.0000 0.0242 0.0000 0.0000
# 5 0.0000 0.0000 0.0000 0.0000 28.0478 0.0000
# 6 0.0000 0.0000 0.0000 0.0000 0.0000 21.4883
#
#
#
# Elastic Compliance Matrix: (Units=1/GPa)
#
#
# Indices 1 2 3 4 5 6 
#
# 1 0.019625 -0.007324 -0.004977 0.000000 0.000000 0.000000
# 2 -0.007324 0.019160 -0.005623 0.000000 0.000000 0.000000
# 3 -0.004977 -0.005623 0.014678 0.000000 0.000000 0.000000
# 4 0.000000 0.000000 0.000000 41.351760 0.000000 0.000000
# 5 0.000000 0.000000 0.000000 0.000000 0.035653 0.000000
# 6 0.000000 0.000000 0.000000 0.000000 0.000000 0.046537
#
#
# Mechanical properties :
#
#
# Convention : Reuss Voigt Hill
#
# Bulk Modulus (GPa) = 56.76761 57.60389 57.18575
# Shear Modulus (GPa) = 0.12040 18.51584 9.31812
#
# Velocity S-wave (km/s) = 0.25404 3.15038 2.23488
# Velocity P-wave (km/s) = 5.52401 6.64154 6.10838
#
# Compressibility (1/GPa) = 0.01761568
#
# Stress axis : x y z
#
# Youngs Moduli (GPa) = 50.95541 52.19143 68.12800
#
# Poissons Ratio (x) = 0.38225 0.33908
# Poissons Ratio (y) = 0.37319 0.38307
# Poissons Ratio (z) = 0.25361 0.29346
#
# Static dielectric constant tensor:
#      x y z
#    x 1.629770 0.000000 0.000000 
#    y 0.000000 1.648970 0.000000 
#    z 0.000000 0.000000 1.661550 
# 
# From -- ./inp_files/22252.got.cif
#   From: 2010.05.17/outbox.cif.g08.bks.cpg/sg51_12_cif.got.tgz:22252.got - 2010.06.03 11:52:47.
