data_PCOD9400030
_publ_section_title
;
Structure prediction by ZEFSAII (Michael W. Deem and Ramdas Pophale) SiO2 
 PCOD9400030
Probable space group: P M M A
;
_chemical_formula_sum "Si O2"
_cell_formula_units_Z 56
_cell_length_a 8.736905
_cell_length_b 23.746577
_cell_length_c 14.730676
_cell_angle_alpha 90.000000
_cell_angle_beta 90.000000
_cell_angle_gamma 90.000000
_cell_volume 3056.196732
_symmetry_space_group_name_H-M "P M M A"
_symmetry_group_IT_number 51
_symmetry_cell_setting 'orthorhombic'
loop_
_space_group_symop_operation_xyz
x,y,z
1/2-x,-y,z
1/2+x,-y,-z
-x,y,-z
-x,-y,-z
1/2+x,y,-z
1/2-x,y,z
x,-y,z
loop_
_atom_site_type_symbol
_atom_site_label
_atom_site_fract_x
_atom_site_fract_y
_atom_site_fract_z
Si Si1 0.428994 0.300490 0.406267
Si Si2 0.428834 0.784836 0.852398
Si Si3 0.066865 0.564967 0.100089
Si Si4 0.430992 0.101313 0.092536
Si Si5 0.431079 0.181196 0.334217
Si Si6 0.564727 0.938663 0.706935
Si Si7 0.066379 0.666309 0.787954
O O1 0.500000 0.321721 0.500000
O O2 0.250000 0.313810 0.402791
O O3 0.444274 0.232186 0.403720
O O4 0.505212 0.322934 0.313788
O O5 0.250000 0.789395 0.876519
O O6 0.524733 0.832529 0.902997
O O7 0.458079 0.801479 0.747665
O O8 0.479075 0.719629 0.852470
O O9 0.250000 0.570333 0.097462
O O10 0.028754 0.500000 0.123215
O O11 0.997989 0.609355 0.170048
O O12 0.000000 0.576146 0.000000
O O13 0.250000 0.095230 0.089142
O O14 0.483850 0.074652 0.188622
O O15 0.500000 0.077098 0.000000
O O16 0.250000 0.181834 0.303979
O O17 0.470689 0.116246 0.353806
O O18 0.750000 0.941579 0.708651
O O19 0.506120 0.000000 0.678705
O O20 0.250000 0.665977 0.785678
#
# Coordination Sequence:
#
# PCOD9400030 Si02
#       7
#     8   8   8   8   8   8   8
#     4  10  19  32  52  79 109 139 172 211 258 314
#     4   9  17  29  45  65  89 118 153 194 242 295
#     4  10  21  37  57  81 110 146 186 224 260 299
#     4  10  19  29  41  58  83 116 153 196 248 303
#     4   8  15  28  46  67  91 120 153 192 240 292
#     4   8  14  26  44  63  82 110 153 201 247 298
#     4  10  20  34  54  80 108 139 175 216 263 311
#
# _framework density 18.323428
#
# number of rings (size 3 to 8) (size 9 to 14) (size 15 to 20)
#    0.000    2.714    0.000    3.000    0.000    4.000 
#    0.000    0.000    0.000   11.143    0.000    0.000 
#    0.000    0.000    0.000    0.000    0.000    1.286 
#
# Total GULP energy -311819.749422 kJ/mol
# GULP energy per Si atom -5568.209811 kJ/mol
# Density = 1.828172 g / cm^3
# Si number density = 18.323428 Si / 1000 Ang^3
#
#
#
# Elastic Constant Matrix: (Units=GPa)
#
#
# Indices 1 2 3 4 5 6 
#
# 1 35.3406 27.7302 16.9414 0.0000 0.0000 0.0000
# 2 27.7302 118.6677 35.8474 0.0000 0.0000 0.0000
# 3 16.9414 35.8474 40.3538 0.0000 0.0000 0.0000
# 4 0.0000 0.0000 0.0000 9.4292 0.0000 0.0000
# 5 0.0000 0.0000 0.0000 0.0000 22.6252 0.0000
# 6 0.0000 0.0000 0.0000 0.0000 0.0000 14.0960
#
#
#
# Elastic Compliance Matrix: (Units=1/GPa)
#
#
# Indices 1 2 3 4 5 6 
#
# 1 0.037913 -0.005537 -0.010998 0.000000 0.000000 0.000000
# 2 -0.005537 0.012326 -0.008625 0.000000 0.000000 0.000000
# 3 -0.010998 -0.008625 0.037060 0.000000 0.000000 0.000000
# 4 0.000000 0.000000 0.000000 0.106053 0.000000 0.000000
# 5 0.000000 0.000000 0.000000 0.000000 0.044198 0.000000
# 6 0.000000 0.000000 0.000000 0.000000 0.000000 0.070942
#
#
# Mechanical properties :
#
#
# Convention : Reuss Voigt Hill
#
# Bulk Modulus (GPa) = 27.04253 39.48891 33.26572
# Shear Modulus (GPa) = 13.47201 16.81962 15.14581
#
# Velocity S-wave (km/s) = 2.71446 3.03302 2.87815
# Velocity P-wave (km/s) = 4.96134 5.81923 5.40733
#
# Compressibility (1/GPa) = 0.03697879
#
# Stress axis : x y z
#
# Youngs Moduli (GPa) = 26.37619 81.12696 26.98334
#
# Poissons Ratio (x) = 0.44922 0.29676
# Poissons Ratio (y) = 0.14605 0.23274
# Poissons Ratio (z) = 0.29008 0.69974
#
# Static dielectric constant tensor:
#      x y z
#    x 1.617990 0.000000 0.000000 
#    y 0.000000 1.671080 0.000000 
#    z 0.000000 0.000000 1.625590 
# 
# From -- ./inp_files/21846.got.cif
#   From: 2010.05.17/outbox.cif.g08.bks.cpg/sg51_11_cif.got.tgz:21846.got - 2010.06.03 11:52:47.
