data_PCOD9400954
_publ_section_title
;
Structure prediction by ZEFSAII (Michael W. Deem and Ramdas Pophale) SiO2 
 PCOD9400954
Probable space group: P M M A
;
_chemical_formula_sum "Si O2"
_cell_formula_units_Z 56
_cell_length_a 8.394765
_cell_length_b 15.983821
_cell_length_c 20.868604
_cell_angle_alpha 90.000000
_cell_angle_beta 90.000000
_cell_angle_gamma 90.000000
_cell_volume 2800.158072
_symmetry_space_group_name_H-M "P M M A"
_symmetry_group_IT_number 51
_symmetry_cell_setting 'orthorhombic'
loop_
_space_group_symop_operation_xyz
x,y,z
1/2-x,-y,z
1/2+x,-y,-z
-x,y,-z
-x,-y,-z
1/2+x,y,-z
1/2-x,y,z
x,-y,z
loop_
_atom_site_type_symbol
_atom_site_label
_atom_site_fract_x
_atom_site_fract_y
_atom_site_fract_z
Si Si1 0.938094 0.675883 0.705313
Si Si2 0.059188 0.592570 0.828748
Si Si3 0.057759 0.090843 0.879416
Si Si4 0.439182 0.272569 0.432098
Si Si5 0.562329 0.870239 0.738398
Si Si6 0.061686 0.909357 0.600863
Si Si7 0.942871 0.730928 0.070031
O O1 0.750000 0.656566 0.703268
O O2 0.000941 0.681922 0.632337
O O3 0.955366 0.769914 0.733136
O O4 0.019530 0.615026 0.755557
O O5 0.250000 0.591525 0.835319
O O6 0.997748 0.500000 0.845073
O O7 0.999702 0.665704 0.875950
O O8 0.250000 0.091836 0.881453
O O9 0.000009 0.174522 0.914849
O O10 0.004408 0.099094 0.805669
O O11 0.002861 0.000000 0.904399
O O12 0.500000 0.304805 0.500000
O O13 0.250000 0.278760 0.430346
O O14 0.482092 0.174149 0.426274
O O15 0.750000 0.889950 0.732714
O O16 0.471243 0.905892 0.677046
O O17 0.250000 0.904159 0.588773
O O18 0.001839 0.000000 0.577494
O O19 0.750000 0.731875 0.071493
O O20 0.000000 0.705393 0.000000
#
# Coordination Sequence:
#
# PCOD9400954 Si02
#       7
#     8   8   8   8   8   8   8
#     4   9  19  35  56  83 113 144 182 227 277 333
#     4  10  21  38  62  90 115 143 183 227 279 342
#     4  10  20  34  53  77 107 148 194 234 279 334
#     4  10  21  36  54  79 109 146 190 233 281 340
#     4  10  19  31  50  77 108 142 185 235 286 335
#     4  10  20  32  47  70 103 145 191 238 288 338
#     4  10  22  39  57  81 115 152 188 233 280 332
#
# _framework density 19.998871999999999
#
# number of rings (size 3 to 8) (size 9 to 14) (size 15 to 20)
#    0.000    2.143    1.429    2.571    0.000    8.286 
#    0.000    0.000    0.000    0.429    0.000    0.000 
#    0.000    0.000    0.000    0.000    0.000    0.000 
#
# Total GULP energy -312576.415038 kJ/mol
# GULP energy per Si atom -5581.721697 kJ/mol
# Density = 1.995335 g / cm^3
# Si number density = 19.998872 Si / 1000 Ang^3
#
#
#
# Elastic Constant Matrix: (Units=GPa)
#
#
# Indices 1 2 3 4 5 6 
#
# 1 8.1142 17.5676 -0.4062 0.0000 0.0000 0.0000
# 2 17.5676 97.1070 50.7318 0.0000 0.0000 0.0000
# 3 -0.4062 50.7318 115.9086 0.0000 0.0000 0.0000
# 4 0.0000 0.0000 0.0000 2.2559 0.0000 0.0000
# 5 0.0000 0.0000 0.0000 0.0000 28.3232 0.0000
# 6 0.0000 0.0000 0.0000 0.0000 0.0000 10.8751
#
#
#
# Elastic Compliance Matrix: (Units=1/GPa)
#
#
# Indices 1 2 3 4 5 6 
#
# 1 0.255844 -0.060613 0.027426 0.000000 0.000000 0.000000
# 2 -0.060613 0.027711 -0.012341 0.000000 0.000000 0.000000
# 3 0.027426 -0.012341 0.014125 0.000000 0.000000 0.000000
# 4 0.000000 0.000000 0.000000 0.443288 0.000000 0.000000
# 5 0.000000 0.000000 0.000000 0.000000 0.035307 0.000000
# 6 0.000000 0.000000 0.000000 0.000000 0.000000 0.091953
#
#
# Mechanical properties :
#
#
# Convention : Reuss Voigt Hill
#
# Bulk Modulus (GPa) = 4.83969 39.65735 22.24852
# Shear Modulus (GPa) = 4.86306 18.50661 11.68484
#
# Velocity S-wave (km/s) = 1.56107 3.04531 2.41980
# Velocity P-wave (km/s) = 2.38212 5.67786 4.35388
#
# Compressibility (1/GPa) = 0.20662469
#
# Stress axis : x y z
#
# Youngs Moduli (GPa) = 3.90862 36.08708 70.79571
#
# Poissons Ratio (x) = 2.18735 -1.94166
# Poissons Ratio (y) = 0.23691 0.87370
# Poissons Ratio (z) = -0.10720 0.44535
#
# Static dielectric constant tensor:
#      x y z
#    x 1.678580 0.000000 0.000000 
#    y 0.000000 1.741260 0.000000 
#    z 0.000000 0.000000 1.698730 
# 
# From -- ./inp_files/31878.got.cif
#   From: 2010.05.17/outbox.cif.g08.bks.cpg/sg51_16_cif.got.tgz:31878.got - 2010.06.03 11:52:47.
