data_PCOD9400800
_publ_section_title
;
Structure prediction by ZEFSAII (Michael W. Deem and Ramdas Pophale) SiO2 
 PCOD9400800
Probable space group: P M M A
;
_chemical_formula_sum "Si O2"
_cell_formula_units_Z 64
_cell_length_a 19.722845
_cell_length_b 7.938467
_cell_length_c 22.299807
_cell_angle_alpha 90.000000
_cell_angle_beta 90.000000
_cell_angle_gamma 90.000000
_cell_volume 3491.461920
_symmetry_space_group_name_H-M "P M M A"
_symmetry_group_IT_number 51
_symmetry_cell_setting 'orthorhombic'
loop_
_space_group_symop_operation_xyz
x,y,z
1/2-x,-y,z
1/2+x,-y,-z
-x,y,-z
-x,-y,-z
1/2+x,y,-z
1/2-x,y,z
x,-y,z
loop_
_atom_site_type_symbol
_atom_site_label
_atom_site_fract_x
_atom_site_fract_y
_atom_site_fract_z
Si Si1 0.618358 0.201929 0.770040
Si Si2 0.076052 0.299019 0.489702
Si Si3 0.176609 0.702737 0.108770
Si Si4 0.471079 0.293356 0.064206
Si Si5 0.674137 0.299942 0.407109
Si Si6 0.921502 0.797098 0.643944
Si Si7 0.527959 0.693787 0.185993
Si Si8 0.430028 0.197195 0.688855
O O1 0.671340 0.249217 0.820989
O O2 0.626764 0.247783 0.700219
O O3 0.549598 0.292586 0.791134
O O4 0.606936 0.000000 0.772269
O O5 0.072186 0.500000 0.499259
O O6 0.128509 0.229470 0.538501
O O7 0.096895 0.268916 0.421198
O O8 0.000000 0.229906 0.500000
O O9 0.250000 0.762415 0.085314
O O10 0.175716 0.500000 0.104367
O O11 0.106555 0.762673 0.077612
O O12 0.470592 0.500000 0.066282
O O13 0.520239 0.236561 0.118655
O O14 0.500000 0.242144 0.000000
O O15 0.750000 0.229132 0.404657
O O16 0.679885 0.500000 0.417194
O O17 0.632162 0.276671 0.346192
O O18 0.997856 0.738092 0.662078
O O19 0.923165 0.000000 0.640615
O O20 0.549217 0.500000 0.182664
O O21 0.569609 0.777813 0.239534
O O22 0.428605 0.000000 0.676383
#
# Coordination Sequence:
#
# PCOD9400800 Si02
#       8
#     8   8   8   8   8   8   8   8
#     4   9  17  29  44  67  96 124 156 195 240 286
#     4  10  19  31  49  72  93 120 161 202 242 293
#     4   9  17  29  46  69  95 126 165 204 243 291
#     4   8  14  26  46  72 100 129 162 201 241 282
#     4  10  21  36  51  69  95 124 157 202 254 304
#     4   9  18  30  46  69  93 119 153 196 237 280
#     4   9  16  27  47  72  97 125 157 196 239 281
#     4  10  19  31  49  72  96 122 157 200 243 289
#
# _framework density 18.33043
#
# number of rings (size 3 to 8) (size 9 to 14) (size 15 to 20)
#    0.000    2.750    1.250    2.625    0.000    3.750 
#    0.000    0.625    0.000   12.375    0.000    3.500 
#    0.000    0.000    0.000    0.000    0.000    0.000 
#
# Total GULP energy -356360.013561 kJ/mol
# GULP energy per Si atom -5568.125212 kJ/mol
# Density = 1.828871 g / cm^3
# Si number density = 18.330430 Si / 1000 Ang^3
#
#
#
# Elastic Constant Matrix: (Units=GPa)
#
#
# Indices 1 2 3 4 5 6 
#
# 1 101.4359 8.0243 61.0448 0.0000 0.0000 0.0000
# 2 8.0243 13.7297 -4.5912 0.0000 0.0000 0.0000
# 3 61.0448 -4.5912 139.8238 0.0000 0.0000 0.0000
# 4 0.0000 0.0000 0.0000 65.8128 0.0000 0.0000
# 5 0.0000 0.0000 0.0000 0.0000 16.0485 0.0000
# 6 0.0000 0.0000 0.0000 0.0000 0.0000 0.6641
#
#
#
# Elastic Compliance Matrix: (Units=1/GPa)
#
#
# Indices 1 2 3 4 5 6 
#
# 1 0.014842 -0.010961 -0.006840 0.000000 0.000000 0.000000
# 2 -0.010961 0.081739 0.007470 0.000000 0.000000 0.000000
# 3 -0.006840 0.007470 0.010383 0.000000 0.000000 0.000000
# 4 0.000000 0.000000 0.000000 0.015195 0.000000 0.000000
# 5 0.000000 0.000000 0.000000 0.000000 0.062311 0.000000
# 6 0.000000 0.000000 0.000000 0.000000 0.000000 1.505800
#
#
# Mechanical properties :
#
#
# Convention : Reuss Voigt Hill
#
# Bulk Modulus (GPa) = 11.58734 42.66059 27.12397
# Shear Modulus (GPa) = 2.87406 29.20583 16.03994
#
# Velocity S-wave (km/s) = 1.25352 3.99594 2.96132
# Velocity P-wave (km/s) = 2.90348 6.67935 5.14995
#
# Compressibility (1/GPa) = 0.08630107
#
# Stress axis : x y z
#
# Youngs Moduli (GPa) = 67.37789 12.23405 96.30978
#
# Poissons Ratio (x) = 0.13410 0.65872
# Poissons Ratio (y) = 0.73856 -0.71939
# Poissons Ratio (z) = 0.46083 -0.09138
#
# Static dielectric constant tensor:
#      x y z
#    x 1.645770 0.000000 0.000000 
#    y 0.000000 1.651710 0.000000 
#    z 0.000000 0.000000 1.649620 
# 
# From -- ./inp_files/34129.got.cif
#   From: 2010.05.17/outbox.cif.g08.bks.cpg/sg51_18_cif.got.tgz:34129.got - 2010.06.03 11:52:47.
