data_PCOD9400237
_publ_section_title
;
Structure prediction by ZEFSAII (Michael W. Deem and Ramdas Pophale) SiO2 
 PCOD9400237
Probable space group: P M M A
;
_chemical_formula_sum "Si O2"
_cell_formula_units_Z 64
_cell_length_a 7.615910
_cell_length_b 20.990211
_cell_length_c 20.459934
_cell_angle_alpha 90.000000
_cell_angle_beta 90.000000
_cell_angle_gamma 90.000000
_cell_volume 3270.716003
_symmetry_space_group_name_H-M "P M M A"
_symmetry_group_IT_number 51
_symmetry_cell_setting 'orthorhombic'
loop_
_space_group_symop_operation_xyz
x,y,z
1/2-x,-y,z
1/2+x,-y,-z
-x,y,-z
-x,-y,-z
1/2+x,y,-z
1/2-x,y,z
x,-y,z
loop_
_atom_site_type_symbol
_atom_site_label
_atom_site_fract_x
_atom_site_fract_y
_atom_site_fract_z
Si Si1 0.456347 0.931298 0.211408
Si Si2 0.459306 0.394122 0.929281
Si Si3 0.962027 0.707192 0.751177
Si Si4 0.043563 0.568685 0.215705
Si Si5 0.539412 0.928601 0.576228
Si Si6 0.465150 0.830092 0.315667
Si Si7 0.540987 0.744446 0.101450
Si Si8 0.458810 0.116215 0.928881
O O1 0.250000 0.933813 0.227174
O O2 0.524493 0.872398 0.253451
O O3 0.472799 0.920074 0.134345
O O4 0.533942 0.000000 0.228856
O O5 0.250000 0.393223 0.921643
O O6 0.529746 0.425218 0.863111
O O7 0.529931 0.321187 0.928513
O O8 0.500000 0.422741 0.000000
O O9 0.750000 0.703642 0.747984
O O10 0.029948 0.634443 0.754120
O O11 0.022963 0.757369 0.696429
O O12 0.007513 0.737982 0.821332
O O13 0.250000 0.567634 0.231843
O O14 0.967081 0.500000 0.235012
O O15 0.500000 0.918509 0.500000
O O16 0.750000 0.930524 0.583977
O O17 0.476145 0.870911 0.621739
O O18 0.473866 0.000000 0.594138
O O19 0.250000 0.827754 0.316783
O O20 0.750000 0.744854 0.090103
O O21 0.469342 0.811129 0.075211
O O22 0.250000 0.118325 0.921595
O O23 0.500000 0.089016 0.000000
#
# Coordination Sequence:
#
# PCOD9400237 Si02
#       8
#     8   8   8   8   8   8   8   8
#     4  10  20  34  51  69  88 113 148 190 234 279
#     4  10  19  30  44  62  83 109 144 183 227 281
#     4   9  16  28  49  70  88 114 149 186 224 269
#     4   9  18  31  45  63  88 115 142 179 229 280
#     4   9  17  30  48  72 104 137 164 189 220 264
#     4   9  16  29  51  75  95 121 157 192 225 266
#     4   9  18  31  45  64  87 110 140 185 236 281
#     4  11  22  34  48  64  85 113 147 191 242 289
#
# _framework density 19.56758
#
# number of rings (size 3 to 8) (size 9 to 14) (size 15 to 20)
#    0.000    2.500    1.250    1.500    0.000    3.500 
#    0.000    1.250    0.000    1.500    0.000    0.000 
#    0.000    0.500    0.000    0.375    0.000    0.750 
#
# Total GULP energy -356990.097500 kJ/mol
# GULP energy per Si atom -5577.970273 kJ/mol
# Density = 1.952304 g / cm^3
# Si number density = 19.567580 Si / 1000 Ang^3
#
#
#
# Elastic Constant Matrix: (Units=GPa)
#
#
# Indices 1 2 3 4 5 6 
#
# 1 39.4990 1.4728 -10.3952 0.0000 0.0000 0.0000
# 2 1.4728 155.4431 58.0694 0.0000 0.0000 0.0000
# 3 -10.3952 58.0694 78.5112 0.0000 0.0000 0.0000
# 4 0.0000 0.0000 0.0000 17.5561 0.0000 0.0000
# 5 0.0000 0.0000 0.0000 0.0000 15.0454 0.0000
# 6 0.0000 0.0000 0.0000 0.0000 0.0000 2.9447
#
#
#
# Elastic Compliance Matrix: (Units=1/GPa)
#
#
# Indices 1 2 3 4 5 6 
#
# 1 0.026755 -0.002179 0.005154 0.000000 0.000000 0.000000
# 2 -0.002179 0.009067 -0.006995 0.000000 0.000000 0.000000
# 3 0.005154 -0.006995 0.018593 0.000000 0.000000 0.000000
# 4 0.000000 0.000000 0.000000 0.056960 0.000000 0.000000
# 5 0.000000 0.000000 0.000000 0.000000 0.066466 0.000000
# 6 0.000000 0.000000 0.000000 0.000000 0.000000 0.339590
#
#
# Mechanical properties :
#
#
# Convention : Reuss Voigt Hill
#
# Bulk Modulus (GPa) = 21.56308 41.30525 31.43416
# Shear Modulus (GPa) = 9.24337 22.06300 15.65318
#
# Velocity S-wave (km/s) = 2.17579 3.36151 2.83142
# Velocity P-wave (km/s) = 4.16603 6.01840 5.17576
#
# Compressibility (1/GPa) = 0.04637557
#
# Stress axis : x y z
#
# Youngs Moduli (GPa) = 37.37647 110.29145 53.78389
#
# Poissons Ratio (x) = 0.24032 -0.27721
# Poissons Ratio (y) = 0.08144 0.37620
# Poissons Ratio (z) = -0.19264 0.77145
#
# Static dielectric constant tensor:
#      x y z
#    x 1.721350 0.000000 0.000000 
#    y 0.000000 1.759150 0.000000 
#    z 0.000000 0.000000 1.701350 
# 
# From -- ./inp_files/32658.got.cif
#   From: 2010.05.17/outbox.cif.g08.bks.cpg/sg51_17_cif.got.tgz:32658.got - 2010.06.03 11:52:47.
