data_PCOD9400023
_publ_section_title
;
Structure prediction by ZEFSAII (Michael W. Deem and Ramdas Pophale) SiO2 
 PCOD9400023
Probable space group: P M M A
;
_chemical_formula_sum "Si O2"
_cell_formula_units_Z 64
_cell_length_a 9.247429
_cell_length_b 17.835678
_cell_length_c 28.428453
_cell_angle_alpha 90.000000
_cell_angle_beta 90.000000
_cell_angle_gamma 90.000000
_cell_volume 4688.823185
_symmetry_space_group_name_H-M "P M M A"
_symmetry_group_IT_number 51
_symmetry_cell_setting 'orthorhombic'
loop_
_space_group_symop_operation_xyz
x,y,z
1/2-x,-y,z
1/2+x,-y,-z
-x,y,-z
-x,-y,-z
1/2+x,y,-z
1/2-x,y,z
x,-y,z
loop_
_atom_site_type_symbol
_atom_site_label
_atom_site_fract_x
_atom_site_fract_y
_atom_site_fract_z
Si Si1 0.085465 0.083337 0.401649
Si Si2 0.581076 0.803775 0.686374
Si Si3 0.415777 0.090486 0.141027
Si Si4 0.091474 0.189822 0.541112
Si Si5 0.081653 0.590048 0.450413
Si Si6 0.924157 0.911373 0.239075
Si Si7 0.915862 0.310165 0.375749
Si Si8 0.082419 0.908581 0.952495
O O1 0.250000 0.083161 0.418861
O O2 0.080720 0.139657 0.358000
O O3 0.982341 0.114098 0.441690
O O4 0.045797 0.000000 0.386188
O O5 0.750000 0.789995 0.698831
O O6 0.496230 0.851136 0.725932
O O7 0.500893 0.728293 0.667888
O O8 0.250000 0.117781 0.144784
O O9 0.509483 0.104680 0.187597
O O10 0.496583 0.116949 0.093912
O O11 0.407987 0.000000 0.137239
O O12 0.250000 0.176068 0.523114
O O13 0.095400 0.244132 0.585540
O O14 0.000000 0.225750 0.500000
O O15 0.250000 0.614880 0.453295
O O16 0.920269 0.500000 0.555053
O O17 0.000000 0.605654 0.500000
O O18 0.003365 0.627273 0.405293
O O19 0.750000 0.904868 0.239348
O O20 0.958433 0.000000 0.250393
O O21 0.750000 0.332445 0.363930
O O22 0.250000 0.885054 0.952179
O O23 0.082611 0.000000 0.951960
O O24 0.000000 0.885656 0.000000
#
# Coordination Sequence:
#
# PCOD9400023 Si02
#       8
#     8   8   8   8   8   8   8   8
#     4   9  18  31  44  56  70  89 115 147 181 217
#     4  10  19  31  46  61  77  98 125 156 191 230
#     4   9  16  25  36  50  68  91 121 157 198 242
#     4  10  20  31  43  58  74  94 118 143 173 209
#     4  10  20  33  50  72  94 113 131 150 176 213
#     4  10  19  29  41  57  77 100 128 165 206 245
#     4  10  20  33  48  65  84 104 126 151 180 217
#     4   9  15  22  32  46  65  89 117 150 191 240
#
# _framework density 13.649480000000001
#
# number of rings (size 3 to 8) (size 9 to 14) (size 15 to 20)
#    0.000    2.375    0.000    3.375    0.000    8.500 
#    0.000    0.000    0.000    0.000    0.000    0.000 
#    0.000    0.000    0.000    0.000    0.000    0.000 
#
# Total GULP energy -356412.553220 kJ/mol
# GULP energy per Si atom -5568.946144 kJ/mol
# Density = 1.361841 g / cm^3
# Si number density = 13.649480 Si / 1000 Ang^3
#
#
#
# Elastic Constant Matrix: (Units=GPa)
#
#
# Indices 1 2 3 4 5 6 
#
# 1 124.3368 29.2829 56.7920 0.0000 0.0000 0.0000
# 2 29.2829 36.3872 18.4376 0.0000 0.0000 0.0000
# 3 56.7920 18.4376 80.0091 0.0000 0.0000 0.0000
# 4 0.0000 0.0000 0.0000 3.0882 0.0000 0.0000
# 5 0.0000 0.0000 0.0000 0.0000 23.9112 0.0000
# 6 0.0000 0.0000 0.0000 0.0000 0.0000 -7.3180
#
#
#
# Elastic Compliance Matrix: (Units=1/GPa)
#
#
# Indices 1 2 3 4 5 6 
#
# 1 0.013182 -0.006643 -0.007826 0.000000 0.000000 0.000000
# 2 -0.006643 0.034463 -0.003227 0.000000 0.000000 0.000000
# 3 -0.007826 -0.003227 0.018797 0.000000 0.000000 0.000000
# 4 0.000000 0.000000 0.000000 0.323812 0.000000 0.000000
# 5 0.000000 0.000000 0.000000 0.000000 0.041821 0.000000
# 6 0.000000 0.000000 0.000000 0.000000 0.000000 -0.136650
#
#
# Mechanical properties :
#
#
# Convention : Reuss Voigt Hill
#
# Bulk Modulus (GPa) = 32.20480 49.97311 41.08896
# Shear Modulus (GPa) = 14.65564 13.01767 13.83666
#
# Velocity S-wave (km/s) = 3.28031 3.09157 3.18734
# Velocity P-wave (km/s) = 6.16382 7.03100 6.61164
#
# Compressibility (1/GPa) = 0.03105127
#
# Stress axis : x y z
#
# Youngs Moduli (GPa) = 75.86340 29.01674 53.19982
#
# Poissons Ratio (x) = 0.19275 0.41633
# Poissons Ratio (y) = 0.50393 0.17166
# Poissons Ratio (z) = 0.59369 0.09363
#
# Static dielectric constant tensor:
#      x y z
#    x 1.461700 0.000000 0.000000 
#    y 0.000000 1.434500 0.000000 
#    z 0.000000 0.000000 1.445660 
# 
# From -- ./inp_files/36441.got.cif
#   From: 2010.05.17/outbox.cif.g08.bks.cpg/sg51_19_cif.got.tgz:36441.got - 2010.06.03 11:52:47.
