data_PCOD9400402
_publ_section_title
;
Structure prediction by ZEFSAII (Michael W. Deem and Ramdas Pophale) SiO2 
 PCOD9400402
Probable space group: P M M A
;
_chemical_formula_sum "Si O2"
_cell_formula_units_Z 56
_cell_length_a 8.592980
_cell_length_b 19.724142
_cell_length_c 19.085818
_cell_angle_alpha 90.000000
_cell_angle_beta 90.000000
_cell_angle_gamma 90.000000
_cell_volume 3234.839217
_symmetry_space_group_name_H-M "P M M A"
_symmetry_group_IT_number 51
_symmetry_cell_setting 'orthorhombic'
loop_
_space_group_symop_operation_xyz
x,y,z
1/2-x,-y,z
1/2+x,-y,-z
-x,y,-z
-x,-y,-z
1/2+x,y,-z
1/2-x,y,z
x,-y,z
loop_
_atom_site_type_symbol
_atom_site_label
_atom_site_fract_x
_atom_site_fract_y
_atom_site_fract_z
Si Si1 0.436522 0.073277 0.079666
Si Si2 0.438265 0.923130 0.578604
Si Si3 0.563767 0.659075 0.575463
Si Si4 0.562190 0.295370 0.210437
Si Si5 0.562275 0.576868 0.712414
Si Si6 0.435901 0.214324 0.921407
Si Si7 0.062029 0.787806 0.653731
O O1 0.250000 0.079168 0.077860
O O2 0.509593 0.141580 0.109034
O O3 0.477347 0.000000 0.112025
O O4 0.500000 0.071404 0.000000
O O5 0.500000 0.910123 0.500000
O O6 0.250000 0.922075 0.576353
O O7 0.489595 0.862819 0.630437
O O8 0.486493 0.000000 0.598518
O O9 0.500000 0.639696 0.500000
O O10 0.750000 0.662629 0.573710
O O11 0.516795 0.606230 0.636156
O O12 0.497846 0.732195 0.598422
O O13 0.750000 0.296802 0.211492
O O14 0.500239 0.368526 0.232562
O O15 0.511883 0.270690 0.133929
O O16 0.511842 0.241260 0.270445
O O17 0.750000 0.577149 0.715259
O O18 0.507827 0.500000 0.722761
O O19 0.250000 0.213872 0.925712
O O20 0.500000 0.222740 0.000000
O O21 0.250000 0.787334 0.652995
#
# Coordination Sequence:
#
# PCOD9400402 Si02
#       7
#     8   8   8   8   8   8   8
#     4   9  16  26  42  65  93 124 157 192 231 276
#     4   9  17  28  43  63  87 118 156 197 237 273
#     4  10  19  30  46  70  98 126 157 192 229 272
#     4   9  19  34  51  73  97 122 155 194 236 284
#     4   9  19  35  53  73  97 126 158 190 229 280
#     4  10  19  31  49  73  99 126 159 198 240 288
#     4   9  17  31  48  65  90 122 157 197 238 281
#
# _framework density 17.311525
#
# number of rings (size 3 to 8) (size 9 to 14) (size 15 to 20)
#    0.000    2.714    0.000    2.571    0.000    4.857 
#    0.000    0.714    0.000    3.000    0.000    2.000 
#    0.000    0.000    0.000    0.000    0.000    0.000 
#
# Total GULP energy -312024.090782 kJ/mol
# GULP energy per Si atom -5571.858764 kJ/mol
# Density = 1.727212 g / cm^3
# Si number density = 17.311525 Si / 1000 Ang^3
#
#
#
# Elastic Constant Matrix: (Units=GPa)
#
#
# Indices 1 2 3 4 5 6 
#
# 1 18.4956 24.8828 21.1550 0.0000 0.0000 0.0000
# 2 24.8828 163.0053 75.5840 0.0000 0.0000 0.0000
# 3 21.1550 75.5840 86.5133 0.0000 0.0000 0.0000
# 4 0.0000 0.0000 0.0000 14.5093 0.0000 0.0000
# 5 0.0000 0.0000 0.0000 0.0000 18.6962 0.0000
# 6 0.0000 0.0000 0.0000 0.0000 0.0000 23.7570
#
#
#
# Elastic Compliance Matrix: (Units=1/GPa)
#
#
# Indices 1 2 3 4 5 6 
#
# 1 0.077519 -0.005117 -0.014485 0.000000 0.000000 0.000000
# 2 -0.005117 0.010650 -0.008054 0.000000 0.000000 0.000000
# 3 -0.014485 -0.008054 0.022137 0.000000 0.000000 0.000000
# 4 0.000000 0.000000 0.000000 0.068921 0.000000 0.000000
# 5 0.000000 0.000000 0.000000 0.000000 0.053487 0.000000
# 6 0.000000 0.000000 0.000000 0.000000 0.000000 0.042093
#
#
# Mechanical properties :
#
#
# Convention : Reuss Voigt Hill
#
# Bulk Modulus (GPa) = 18.18347 56.80641 37.49494
# Shear Modulus (GPa) = 14.34926 21.15197 17.75062
#
# Velocity S-wave (km/s) = 2.88216 3.49928 3.20560
# Velocity P-wave (km/s) = 4.64782 7.01513 5.95039
#
# Compressibility (1/GPa) = 0.05499499
#
# Stress axis : x y z
#
# Youngs Moduli (GPa) = 12.90013 93.89500 45.17284
#
# Poissons Ratio (x) = 0.48042 0.65435
# Poissons Ratio (y) = 0.06600 0.36380
# Poissons Ratio (z) = 0.18686 0.75619
#
# Static dielectric constant tensor:
#      x y z
#    x 1.584740 0.000000 0.000000 
#    y 0.000000 1.608780 0.000000 
#    z 0.000000 0.000000 1.595220 
# 
# From -- ./inp_files/28260.got.cif
#   From: 2010.05.17/outbox.cif.g08.bks.cpg/sg51_15_cif.got.tgz:28260.got - 2010.06.03 11:52:47.
