data_PCOD9400199
_publ_section_title
;
Structure prediction by ZEFSAII (Michael W. Deem and Ramdas Pophale) SiO2 
 PCOD9400199
Probable space group: P M M A
;
_chemical_formula_sum "Si O2"
_cell_formula_units_Z 64
_cell_length_a 8.245281
_cell_length_b 24.007385
_cell_length_c 13.760271
_cell_angle_alpha 90.000000
_cell_angle_beta 90.000000
_cell_angle_gamma 90.000000
_cell_volume 2723.813107
_symmetry_space_group_name_H-M "P M M A"
_symmetry_group_IT_number 51
_symmetry_cell_setting 'orthorhombic'
loop_
_space_group_symop_operation_xyz
x,y,z
1/2-x,-y,z
1/2+x,-y,-z
-x,y,-z
-x,-y,-z
1/2+x,y,-z
1/2-x,y,z
x,-y,z
loop_
_atom_site_type_symbol
_atom_site_label
_atom_site_fract_x
_atom_site_fract_y
_atom_site_fract_z
Si Si1 0.068303 0.206242 0.843845
Si Si2 0.562489 0.821077 0.641742
Si Si3 0.438671 0.296657 0.370080
Si Si4 0.553946 0.583915 0.601599
Si Si5 0.565290 0.082280 0.102343
Si Si6 0.056225 0.560669 0.820141
Si Si7 0.556091 0.939532 0.682850
Si Si8 0.433102 0.319223 0.137897
O O1 0.250000 0.210552 0.800587
O O2 0.065772 0.149676 0.904068
O O3 0.943680 0.191946 0.757317
O O4 0.032066 0.264809 0.895047
O O5 0.750000 0.823421 0.610048
O O6 0.485980 0.763200 0.604653
O O7 0.488864 0.882869 0.632888
O O8 0.250000 0.295173 0.401311
O O9 0.518668 0.353328 0.403918
O O10 0.434313 0.307571 0.254132
O O11 0.500000 0.557522 0.500000
O O12 0.750000 0.584460 0.605964
O O13 0.495141 0.562106 0.706002
O O14 0.750000 0.064685 0.116228
O O15 0.473672 0.065770 0.201056
O O16 0.500000 0.061259 0.000000
O O17 0.250000 0.562626 0.824543
O O18 0.000523 0.500000 0.859113
O O19 0.993217 0.617248 0.871269
O O20 0.750000 0.938747 0.668017
O O21 0.492568 0.000000 0.650361
O O22 0.250000 0.315888 0.101247
#
# Coordination Sequence:
#
# PCOD9400199 Si02
#       8
#     8   8   8   8   8   8   8   8
#     4   9  16  26  41  61  81 101 131 171 213 252
#     4   8  13  24  41  58  77 101 130 166 210 256
#     4   7  12  23  39  57  74  96 127 163 204 247
#     4  10  19  30  43  59  81 110 144 178 213 253
#     4  10  20  31  43  59  81 112 146 179 212 247
#     4  10  20  32  45  62  85 113 144 177 209 240
#     4   9  17  28  42  60  82 109 140 174 212 254
#     4   9  16  27  44  63  82 106 134 166 208 252
#
# _framework density 23.496473999999999
#
# number of rings (size 3 to 8) (size 9 to 14) (size 15 to 20)
#    0.000    3.000    0.000    3.375    0.000    3.250 
#    0.000    0.625    0.000    0.000    0.000    0.000 
#    0.000    1.000    0.000    2.000    0.000    4.125 
#
# Total GULP energy -356352.561800 kJ/mol
# GULP energy per Si atom -5568.008778 kJ/mol
# Density = 2.344300 g / cm^3
# Si number density = 23.496474 Si / 1000 Ang^3
#
#
#
# Elastic Constant Matrix: (Units=GPa)
#
#
# Indices 1 2 3 4 5 6 
#
# 1 44.0589 19.6807 -6.1229 0.0000 0.0000 0.0000
# 2 19.6807 259.8382 -6.3610 0.0000 0.0000 0.0000
# 3 -6.1229 -6.3610 33.9909 0.0000 0.0000 0.0000
# 4 0.0000 0.0000 0.0000 -3.8452 0.0000 0.0000
# 5 0.0000 0.0000 0.0000 0.0000 4.8104 0.0000
# 6 0.0000 0.0000 0.0000 0.0000 0.0000 19.5551
#
#
#
# Elastic Compliance Matrix: (Units=1/GPa)
#
#
# Indices 1 2 3 4 5 6 
#
# 1 0.024022 -0.001721 0.004005 0.000000 0.000000 0.000000
# 2 -0.001721 0.003990 0.000437 0.000000 0.000000 0.000000
# 3 0.004005 0.000437 0.030223 0.000000 0.000000 0.000000
# 4 0.000000 0.000000 0.000000 -0.260066 0.000000 0.000000
# 5 0.000000 0.000000 0.000000 0.000000 0.207882 0.000000
# 6 0.000000 0.000000 0.000000 0.000000 0.000000 0.051137
#
#
# Mechanical properties :
#
#
# Convention : Reuss Voigt Hill
#
# Bulk Modulus (GPa) = 15.70475 39.14242 27.42358
# Shear Modulus (GPa) = 68.51905 26.15016 47.33461
#
# Velocity S-wave (km/s) = 5.40599 3.33969 4.49323
# Velocity P-wave (km/s) = 6.75757 5.61840 6.21414
#
# Compressibility (1/GPa) = 0.06367502
#
# Stress axis : x y z
#
# Youngs Moduli (GPa) = 41.62779 250.65028 33.08764
#
# Poissons Ratio (x) = 0.43149 -0.13252
# Poissons Ratio (y) = 0.07166 -0.01444
# Poissons Ratio (z) = -0.16672 -0.10941
#
# Static dielectric constant tensor:
#      x y z
#    x 1.931120 0.000000 0.000000 
#    y 0.000000 2.011780 0.000000 
#    z 0.000000 0.000000 1.895240 
# 
# From -- ./inp_files/28644.got.cif
#   From: 2010.05.17/outbox.cif.g08.bks.cpg/sg51_15_cif.got.tgz:28644.got - 2010.06.03 11:52:47.
