data_PCOD9400183
_publ_section_title
;
Structure prediction by ZEFSAII (Michael W. Deem and Ramdas Pophale) SiO2 
 PCOD9400183
Probable space group: P M M A
;
_chemical_formula_sum "Si O2"
_cell_formula_units_Z 52
_cell_length_a 7.524012
_cell_length_b 19.803589
_cell_length_c 13.838742
_cell_angle_alpha 90.000000
_cell_angle_beta 90.000000
_cell_angle_gamma 90.000000
_cell_volume 2062.006342
_symmetry_space_group_name_H-M "P M M A"
_symmetry_group_IT_number 51
_symmetry_cell_setting 'orthorhombic'
loop_
_space_group_symop_operation_xyz
x,y,z
1/2-x,-y,z
1/2+x,-y,-z
-x,y,-z
-x,-y,-z
1/2+x,y,-z
1/2-x,y,z
x,-y,z
loop_
_atom_site_type_symbol
_atom_site_label
_atom_site_fract_x
_atom_site_fract_y
_atom_site_fract_z
Si Si1 0.041441 0.861250 0.306427
Si Si2 0.036941 0.000000 0.387788
Si Si3 0.530745 0.716763 0.675966
Si Si4 0.055314 0.717607 0.104809
Si Si5 0.535636 0.573169 0.138266
Si Si6 0.957929 0.426332 0.633846
Si Si7 0.960739 0.923351 0.111647
O O1 0.250000 0.861440 0.328761
O O2 0.974547 0.791966 0.354020
O O3 0.024956 0.869372 0.190138
O O4 0.961840 0.930967 0.344361
O O5 0.000000 0.000000 0.500000
O O6 0.250000 0.000000 0.369684
O O7 0.750000 0.712234 0.677021
O O8 0.465765 0.718951 0.788974
O O9 0.469730 0.650084 0.617186
O O10 0.250000 0.745173 0.121344
O O11 0.057653 0.636645 0.091745
O O12 0.000000 0.745314 0.000000
O O13 0.750000 0.580080 0.134160
O O14 0.483678 0.500000 0.100413
O O15 0.476173 0.572754 0.250213
O O16 0.750000 0.426836 0.605915
O O17 0.034671 0.500000 0.602717
O O18 0.750000 0.925761 0.121524
O O19 0.031816 0.000000 0.131148
O O20 0.000000 0.907962 0.000000
#
# Coordination Sequence:
#
# PCOD9400183 Si02
#       7
#     8   4   8   8   8   8   8
#     4  10  19  35  56  80 108 140 178 217 264 313
#     4  10  22  38  61  86 111 142 171 208 256 312
#     4   8  16  29  46  67  92 121 157 203 249 299
#     4  10  19  30  41  54  76 111 151 197 247 293
#     4   9  16  25  37  53  73 102 145 199 252 298
#     4   8  13  24  42  62  85 116 152 192 242 294
#     4  10  20  33  51  76 107 144 183 224 264 309
#
# _framework density 25.218156
#
# number of rings (size 3 to 8) (size 9 to 14) (size 15 to 20)
#    0.000    2.769    0.769    2.308    0.000    3.077 
#    0.000    5.385    0.000    0.000    0.000    0.000 
#    0.000    0.615    0.000    0.462    0.000    1.077 
#
# Total GULP energy -289780.941836 kJ/mol
# GULP energy per Si atom -5572.710420 kJ/mol
# Density = 2.516076 g / cm^3
# Si number density = 25.218156 Si / 1000 Ang^3
#
#
#
# Elastic Constant Matrix: (Units=GPa)
#
#
# Indices 1 2 3 4 5 6 
#
# 1 79.3297 15.3624 -9.3842 0.0000 0.0000 0.0000
# 2 15.3624 241.8839 22.4296 0.0000 0.0000 0.0000
# 3 -9.3842 22.4296 76.8382 0.0000 0.0000 0.0000
# 4 0.0000 0.0000 0.0000 49.5020 0.0000 0.0000
# 5 0.0000 0.0000 0.0000 0.0000 15.4377 0.0000
# 6 0.0000 0.0000 0.0000 0.0000 0.0000 -1.7130
#
#
#
# Elastic Compliance Matrix: (Units=1/GPa)
#
#
# Indices 1 2 3 4 5 6 
#
# 1 0.013022 -0.001002 0.001883 0.000000 0.000000 0.000000
# 2 -0.001002 0.004326 -0.001385 0.000000 0.000000 0.000000
# 3 0.001883 -0.001385 0.013649 0.000000 0.000000 0.000000
# 4 0.000000 0.000000 0.000000 0.020201 0.000000 0.000000
# 5 0.000000 0.000000 0.000000 0.000000 0.064777 0.000000
# 6 0.000000 0.000000 0.000000 0.000000 0.000000 -0.583762
#
#
# Mechanical properties :
#
#
# Convention : Reuss Voigt Hill
#
# Bulk Modulus (GPa) = 33.34539 50.54081 41.94310
# Shear Modulus (GPa) = -10.94614 37.28827 13.17107
#
# Velocity S-wave (km/s) = -2.08567 3.84946 2.28784
# Velocity P-wave (km/s) = 2.72974 6.31211 4.86283
#
# Compressibility (1/GPa) = 0.02998915
#
# Stress axis : x y z
#
# Youngs Moduli (GPa) = 76.79124 231.14552 73.26728
#
# Poissons Ratio (x) = 0.23153 -0.13795
# Poissons Ratio (y) = 0.07692 0.10149
# Poissons Ratio (z) = -0.14458 0.32018
#
# Static dielectric constant tensor:
#      x y z
#    x 1.938380 0.000000 0.000000 
#    y 0.000000 2.113770 0.000000 
#    z 0.000000 0.000000 1.952220 
# 
# From -- ./inp_files/21553.got.cif
#   From: 2010.05.17/outbox.cif.g08.bks.cpg/sg51_11_cif.got.tgz:21553.got - 2010.06.03 11:52:47.
