data_PCOD9400635
_publ_section_title
;
Structure prediction by ZEFSAII (Michael W. Deem and Ramdas Pophale) SiO2 
 PCOD9400635
Probable space group: P M M A
;
_chemical_formula_sum "Si O2"
_cell_formula_units_Z 64
_cell_length_a 9.162870
_cell_length_b 19.654676
_cell_length_c 19.107315
_cell_angle_alpha 90.000000
_cell_angle_beta 90.000000
_cell_angle_gamma 90.000000
_cell_volume 3441.098287
_symmetry_space_group_name_H-M "P M M A"
_symmetry_group_IT_number 51
_symmetry_cell_setting 'orthorhombic'
loop_
_space_group_symop_operation_xyz
x,y,z
1/2-x,-y,z
1/2+x,-y,-z
-x,y,-z
-x,-y,-z
1/2+x,y,-z
1/2-x,y,z
x,-y,z
loop_
_atom_site_type_symbol
_atom_site_label
_atom_site_fract_x
_atom_site_fract_y
_atom_site_fract_z
Si Si1 0.920772 0.078397 0.283232
Si Si2 0.084235 0.579410 0.788881
Si Si3 0.414424 0.217504 0.932240
Si Si4 0.074611 0.575593 0.357921
Si Si5 0.423759 0.795120 0.216077
Si Si6 0.913447 0.378703 0.065170
Si Si7 0.926158 0.274152 0.638372
Si Si8 0.078980 0.145155 0.569580
O O1 0.750000 0.092594 0.265671
O O2 0.936127 0.093405 0.365837
O O3 0.024530 0.131819 0.245090
O O4 0.951947 0.000000 0.267351
O O5 0.250000 0.606151 0.775391
O O6 0.097150 0.500000 0.805584
O O7 0.018510 0.612460 0.858228
O O8 0.985621 0.582227 0.720711
O O9 0.250000 0.189349 0.926746
O O10 0.497602 0.212934 0.858394
O O11 0.400677 0.298194 0.945767
O O12 0.500000 0.188897 0.000000
O O13 0.250000 0.574286 0.358404
O O14 0.025072 0.500000 0.384502
O O15 0.031661 0.649847 0.387620
O O16 0.250000 0.791527 0.206903
O O17 0.463173 0.741924 0.279233
O O18 0.750000 0.407595 0.068765
O O19 0.000000 0.408316 0.000000
O O20 0.750000 0.267398 0.632923
O O21 0.004877 0.215689 0.594418
O O22 0.250000 0.156293 0.556672
O O23 0.000000 0.120703 0.500000
#
# Coordination Sequence:
#
# PCOD9400635 Si02
#       8
#     8   8   8   8   8   8   8   8
#     4   9  19  36  56  79 108 141 173 201 234 282
#     4   9  17  28  40  56  81 112 147 190 241 297
#     4  10  19  31  47  67  93 125 163 209 258 305
#     4   9  17  29  46  68  92 120 157 202 251 298
#     4  10  19  31  50  76 103 132 168 209 253 300
#     4   9  18  29  40  56  79 110 149 193 242 295
#     4   9  18  32  50  73 102 134 168 209 254 300
#     4  10  20  34  54  80 109 140 172 204 239 283
#
# _framework density 18.598714000000001
#
# number of rings (size 3 to 8) (size 9 to 14) (size 15 to 20)
#    0.000    2.625    0.000    1.875    0.000    3.250 
#    0.000    0.000    0.000    0.750    0.000    0.000 
#    0.000    0.000    0.000    0.000    0.000    0.000 
#
# Total GULP energy -356363.449397 kJ/mol
# GULP energy per Si atom -5568.178897 kJ/mol
# Density = 1.855638 g / cm^3
# Si number density = 18.598714 Si / 1000 Ang^3
#
#
#
# Elastic Constant Matrix: (Units=GPa)
#
#
# Indices 1 2 3 4 5 6 
#
# 1 39.4397 10.5351 17.4953 0.0000 0.0000 0.0000
# 2 10.5351 60.8948 -15.6638 0.0000 0.0000 0.0000
# 3 17.4953 -15.6638 29.8917 0.0000 0.0000 0.0000
# 4 0.0000 0.0000 0.0000 7.3112 0.0000 0.0000
# 5 0.0000 0.0000 0.0000 0.0000 28.0147 0.0000
# 6 0.0000 0.0000 0.0000 0.0000 0.0000 17.9775
#
#
#
# Elastic Compliance Matrix: (Units=1/GPa)
#
#
# Indices 1 2 3 4 5 6 
#
# 1 0.045805 -0.017129 -0.035785 0.000000 0.000000 0.000000
# 2 -0.017129 0.025386 0.023328 0.000000 0.000000 0.000000
# 3 -0.035785 0.023328 0.066623 0.000000 0.000000 0.000000
# 4 0.000000 0.000000 0.000000 0.136777 0.000000 0.000000
# 5 0.000000 0.000000 0.000000 0.000000 0.035696 0.000000
# 6 0.000000 0.000000 0.000000 0.000000 0.000000 0.055625
#
#
# Mechanical properties :
#
#
# Convention : Reuss Voigt Hill
#
# Bulk Modulus (GPa) = 12.71594 17.21773 14.96683
# Shear Modulus (GPa) = 11.07914 18.51798 14.79856
#
# Velocity S-wave (km/s) = 2.44333 3.15883 2.82383
# Velocity P-wave (km/s) = 3.84859 4.75204 4.32398
#
# Compressibility (1/GPa) = 0.07864148
#
# Stress axis : x y z
#
# Youngs Moduli (GPa) = 21.83167 39.39195 15.00972
#
# Poissons Ratio (x) = 0.67476 0.53713
# Poissons Ratio (y) = 0.37396 -0.35015
# Poissons Ratio (z) = 0.78126 -0.91895
#
# Static dielectric constant tensor:
#      x y z
#    x 1.654140 0.000000 0.000000 
#    y 0.000000 1.659970 0.000000 
#    z 0.000000 0.000000 1.648690 
# 
# From -- ./inp_files/28350.got.cif
#   From: 2010.05.17/outbox.cif.g08.bks.cpg/sg51_15_cif.got.tgz:28350.got - 2010.06.03 11:52:47.
