data_PCOD9400742
_publ_section_title
;
Structure prediction by ZEFSAII (Michael W. Deem and Ramdas Pophale) SiO2 
 PCOD9400742
Probable space group: P M M A
;
_chemical_formula_sum "Si O2"
_cell_formula_units_Z 64
_cell_length_a 9.050680
_cell_length_b 15.640963
_cell_length_c 24.647394
_cell_angle_alpha 90.000000
_cell_angle_beta 90.000000
_cell_angle_gamma 90.000000
_cell_volume 3489.118393
_symmetry_space_group_name_H-M "P M M A"
_symmetry_group_IT_number 51
_symmetry_cell_setting 'orthorhombic'
loop_
_space_group_symop_operation_xyz
x,y,z
1/2-x,-y,z
1/2+x,-y,-z
-x,y,-z
-x,-y,-z
1/2+x,y,-z
1/2-x,y,z
x,-y,z
loop_
_atom_site_type_symbol
_atom_site_label
_atom_site_fract_x
_atom_site_fract_y
_atom_site_fract_z
Si Si1 0.571509 0.597821 0.059127
Si Si2 0.418622 0.896815 0.444535
Si Si3 0.570233 0.408352 0.233944
Si Si4 0.581985 0.661470 0.345070
Si Si5 0.069966 0.095544 0.790931
Si Si6 0.576088 0.400917 0.554377
Si Si7 0.080594 0.140097 0.669692
Si Si8 0.569905 0.266961 0.150412
O O1 0.750000 0.600703 0.055536
O O2 0.535628 0.500000 0.078778
O O3 0.525229 0.677511 0.097477
O O4 0.500000 0.606635 0.000000
O O5 0.500000 0.866508 0.500000
O O6 0.250000 0.864573 0.444116
O O7 0.496011 0.877754 0.386635
O O8 0.414625 0.000000 0.448220
O O9 0.750000 0.406425 0.232689
O O10 0.522090 0.500000 0.212379
O O11 0.528673 0.397534 0.296257
O O12 0.520744 0.328695 0.199181
O O13 0.750000 0.637017 0.360466
O O14 0.477445 0.654075 0.395782
O O15 0.586159 0.757768 0.323811
O O16 0.250000 0.100676 0.788607
O O17 0.021441 0.106598 0.727723
O O18 0.021660 0.171598 0.831702
O O19 0.029427 0.000000 0.809206
O O20 0.500000 0.370056 0.500000
O O21 0.750000 0.399277 0.548120
O O22 0.529419 0.500000 0.563608
O O23 0.250000 0.108774 0.663098
O O24 0.750000 0.264439 0.148688
#
# Coordination Sequence:
#
# PCOD9400742 Si02
#       8
#     8   8   8   8   8   8   8   8
#     4   9  17  29  48  75 107 142 177 213 251 292
#     4  10  21  36  53  72  93 120 158 204 255 313
#     4   9  15  24  42  68  97 126 156 196 242 286
#     4  10  19  31  48  71  97 122 153 195 242 297
#     4   9  16  27  46  72 102 133 165 208 257 300
#     4  10  21  36  52  68  88 119 161 205 247 296
#     4  10  19  32  50  73 100 127 158 200 251 309
#     4   9  15  26  44  71 102 131 170 210 244 290
#
# _framework density 18.342741
#
# number of rings (size 3 to 8) (size 9 to 14) (size 15 to 20)
#    0.000    2.500    1.250    1.875    0.000    5.000 
#    0.000    0.000    0.000    1.875    0.000    1.750 
#    0.000    0.000    0.000    0.000    0.000    0.000 
#
# Total GULP energy -356476.695189 kJ/mol
# GULP energy per Si atom -5569.948362 kJ/mol
# Density = 1.830099 g / cm^3
# Si number density = 18.342741 Si / 1000 Ang^3
#
#
#
# Elastic Constant Matrix: (Units=GPa)
#
#
# Indices 1 2 3 4 5 6 
#
# 1 24.8756 13.1039 26.4721 0.0000 0.0000 0.0000
# 2 13.1039 119.9271 59.9080 0.0000 0.0000 0.0000
# 3 26.4721 59.9080 106.4074 0.0000 0.0000 0.0000
# 4 0.0000 0.0000 0.0000 26.9023 0.0000 0.0000
# 5 0.0000 0.0000 0.0000 0.0000 17.0165 0.0000
# 6 0.0000 0.0000 0.0000 0.0000 0.0000 12.9910
#
#
#
# Elastic Compliance Matrix: (Units=1/GPa)
#
#
# Indices 1 2 3 4 5 6 
#
# 1 0.054788 0.001144 -0.014274 0.000000 0.000000 0.000000
# 2 0.001144 0.011625 -0.006830 0.000000 0.000000 0.000000
# 3 -0.014274 -0.006830 0.016794 0.000000 0.000000 0.000000
# 4 0.000000 0.000000 0.000000 0.037171 0.000000 0.000000
# 5 0.000000 0.000000 0.000000 0.000000 0.058767 0.000000
# 6 0.000000 0.000000 0.000000 0.000000 0.000000 0.076976
#
#
# Mechanical properties :
#
#
# Convention : Reuss Voigt Hill
#
# Bulk Modulus (GPa) = 23.10146 50.01979 36.56063
# Shear Modulus (GPa) = 16.10464 21.49705 18.80085
#
# Velocity S-wave (km/s) = 2.96630 3.42711 3.20500
# Velocity P-wave (km/s) = 4.93493 6.55659 5.80269
#
# Compressibility (1/GPa) = 0.04328731
#
# Stress axis : x y z
#
# Youngs Moduli (GPa) = 18.25230 86.02139 59.54480
#
# Poissons Ratio (x) = -0.09842 0.84996
# Poissons Ratio (y) = -0.02088 0.40667
# Poissons Ratio (z) = 0.26054 0.58749
#
# Static dielectric constant tensor:
#      x y z
#    x 1.623430 0.000000 0.000000 
#    y 0.000000 1.691270 0.000000 
#    z 0.000000 0.000000 1.651710 
# 
# From -- ./inp_files/34954.got.cif
#   From: 2010.05.17/outbox.cif.g08.bks.cpg/sg51_18_cif.got.tgz:34954.got - 2010.06.03 11:52:47.
