data_PCOD9400725
_publ_section_title
;
Structure prediction by ZEFSAII (Michael W. Deem and Ramdas Pophale) SiO2 
 PCOD9400725
Probable space group: P M M A
;
_chemical_formula_sum "Si O2"
_cell_formula_units_Z 64
_cell_length_a 9.011596
_cell_length_b 18.369177
_cell_length_c 23.048933
_cell_angle_alpha 90.000000
_cell_angle_beta 90.000000
_cell_angle_gamma 90.000000
_cell_volume 3815.418999
_symmetry_space_group_name_H-M "P M M A"
_symmetry_group_IT_number 51
_symmetry_cell_setting 'orthorhombic'
loop_
_space_group_symop_operation_xyz
x,y,z
1/2-x,-y,z
1/2+x,-y,-z
-x,y,-z
-x,-y,-z
1/2+x,y,-z
1/2-x,y,z
x,-y,z
loop_
_atom_site_type_symbol
_atom_site_label
_atom_site_fract_x
_atom_site_fract_y
_atom_site_fract_z
Si Si1 0.927999 0.259970 0.936384
Si Si2 0.072861 0.415491 0.663114
Si Si3 0.071615 0.577826 0.063831
Si Si4 0.073383 0.800218 0.828583
Si Si5 0.428278 0.084477 0.730128
Si Si6 0.918823 0.810293 0.643133
Si Si7 0.418370 0.309828 0.253971
Si Si8 0.072913 0.699528 0.562214
O O1 0.750000 0.254770 0.940423
O O2 0.967913 0.342011 0.913508
O O3 0.992401 0.203425 0.890162
O O4 0.000000 0.251865 0.000000
O O5 0.250000 0.408098 0.672877
O O6 0.038002 0.500000 0.654030
O O7 0.037162 0.366537 0.606649
O O8 0.986736 0.381838 0.717786
O O9 0.250000 0.577747 0.058776
O O10 0.029134 0.500000 0.092647
O O11 0.000000 0.576238 0.000000
O O12 0.250000 0.800017 0.836217
O O13 0.031901 0.868382 0.787297
O O14 0.020590 0.729001 0.793191
O O15 0.250000 0.090393 0.723697
O O16 0.504246 0.121791 0.674592
O O17 0.467990 0.000000 0.736029
O O18 0.750000 0.826418 0.625717
O O19 0.913932 0.748250 0.693171
O O20 0.009826 0.773084 0.591437
O O21 0.250000 0.320388 0.232416
O O22 0.250000 0.703884 0.557119
O O23 0.000000 0.687515 0.500000
#
# Coordination Sequence:
#
# PCOD9400725 Si02
#       8
#     8   8   8   8   8   8   8   8
#     4  10  19  31  48  70  97 129 165 203 242 289
#     4   9  18  32  48  67  95 131 169 211 258 301
#     4   8  14  25  41  60  82 110 145 185 226 264
#     4  10  19  32  51  73  98 127 158 195 239 290
#     4   9  18  33  54  79 103 126 154 192 241 294
#     4   9  17  30  49  73  99 126 159 198 239 286
#     4   9  17  30  48  69  92 121 159 202 246 290
#     4  10  19  31  48  70  98 134 174 212 249 291
#
# _framework density 16.774042000000001
#
# number of rings (size 3 to 8) (size 9 to 14) (size 15 to 20)
#    0.000    2.750    0.000    1.875    0.000    5.250 
#    0.000    0.625    0.000    3.000    0.000    0.000 
#    0.000    0.000    0.000    0.000    0.000    0.000 
#
# Total GULP energy -356434.065120 kJ/mol
# GULP energy per Si atom -5569.282268 kJ/mol
# Density = 1.673586 g / cm^3
# Si number density = 16.774042 Si / 1000 Ang^3
#
#
#
# Elastic Constant Matrix: (Units=GPa)
#
#
# Indices 1 2 3 4 5 6 
#
# 1 54.9561 44.8183 33.1663 0.0000 0.0000 0.0000
# 2 44.8183 114.7255 46.1824 0.0000 0.0000 0.0000
# 3 33.1663 46.1824 53.5183 0.0000 0.0000 0.0000
# 4 0.0000 0.0000 0.0000 6.4119 0.0000 0.0000
# 5 0.0000 0.0000 0.0000 0.0000 27.9124 0.0000
# 6 0.0000 0.0000 0.0000 0.0000 0.0000 18.7309
#
#
#
# Elastic Compliance Matrix: (Units=1/GPa)
#
#
# Indices 1 2 3 4 5 6 
#
# 1 0.032365 -0.007002 -0.014015 0.000000 0.000000 0.000000
# 2 -0.007002 0.014871 -0.008493 0.000000 0.000000 0.000000
# 3 -0.014015 -0.008493 0.034699 0.000000 0.000000 0.000000
# 4 0.000000 0.000000 0.000000 0.155961 0.000000 0.000000
# 5 0.000000 0.000000 0.000000 0.000000 0.035826 0.000000
# 6 0.000000 0.000000 0.000000 0.000000 0.000000 0.053388
#
#
# Mechanical properties :
#
#
# Convention : Reuss Voigt Hill
#
# Bulk Modulus (GPa) = 43.63951 52.39264 48.01608
# Shear Modulus (GPa) = 12.69786 17.21323 14.95554
#
# Velocity S-wave (km/s) = 2.75434 3.20688 2.98919
# Velocity P-wave (km/s) = 6.01563 6.70927 6.37189
#
# Compressibility (1/GPa) = 0.02291502
#
# Stress axis : x y z
#
# Youngs Moduli (GPa) = 30.89805 67.24654 28.81895
#
# Poissons Ratio (x) = 0.47085 0.40389
# Poissons Ratio (y) = 0.21634 0.24476
# Poissons Ratio (z) = 0.43303 0.57113
#
# Static dielectric constant tensor:
#      x y z
#    x 1.564970 0.000000 0.000000 
#    y 0.000000 1.575620 0.000000 
#    z 0.000000 0.000000 1.552970 
# 
# From -- ./inp_files/32385.got.cif
#   From: 2010.05.17/outbox.cif.g08.bks.cpg/sg51_17_cif.got.tgz:32385.got - 2010.06.03 11:52:47.
