data_PCOD9400583
_publ_section_title
;
Structure prediction by ZEFSAII (Michael W. Deem and Ramdas Pophale) SiO2 
 PCOD9400583
Probable space group: P M M A
;
_chemical_formula_sum "Si O2"
_cell_formula_units_Z 56
_cell_length_a 8.742752
_cell_length_b 20.710418
_cell_length_c 15.852873
_cell_angle_alpha 90.000000
_cell_angle_beta 90.000000
_cell_angle_gamma 90.000000
_cell_volume 2870.417070
_symmetry_space_group_name_H-M "P M M A"
_symmetry_group_IT_number 51
_symmetry_cell_setting 'orthorhombic'
loop_
_space_group_symop_operation_xyz
x,y,z
1/2-x,-y,z
1/2+x,-y,-z
-x,y,-z
-x,-y,-z
1/2+x,y,-z
1/2-x,y,z
x,-y,z
loop_
_atom_site_type_symbol
_atom_site_label
_atom_site_fract_x
_atom_site_fract_y
_atom_site_fract_z
Si Si1 0.064438 0.216842 0.911095
Si Si2 0.435005 0.315613 0.411262
Si Si3 0.566901 0.679477 0.782473
Si Si4 0.572402 0.168746 0.581417
Si Si5 0.074487 0.929606 0.890748
Si Si6 0.922404 0.071267 0.310424
Si Si7 0.569747 0.576409 0.092354
O O1 0.250000 0.217594 0.910880
O O2 0.009361 0.141545 0.909298
O O3 0.006651 0.258307 0.830599
O O4 0.000000 0.244293 0.000000
O O5 0.500000 0.343936 0.500000
O O6 0.250000 0.319357 0.416560
O O7 0.478071 0.335459 0.315315
O O8 0.489908 0.240923 0.410767
O O9 0.750000 0.688932 0.782692
O O10 0.517117 0.619350 0.839647
O O11 0.500000 0.135846 0.500000
O O12 0.750000 0.174758 0.568319
O O13 0.534512 0.126355 0.661015
O O14 0.250000 0.929794 0.923526
O O15 0.083360 0.930552 0.789835
O O16 0.003120 0.000000 0.912903
O O17 0.750000 0.085442 0.340981
O O18 0.967258 0.000000 0.340893
O O19 0.750000 0.592761 0.092408
O O20 0.554038 0.500000 0.109873
O O21 0.500000 0.588216 0.000000
#
# Coordination Sequence:
#
# PCOD9400583 Si02
#       7
#     8   8   8   8   8   8   8
#     4  11  22  35  53  78 109 145 185 231 283 336
#     4   9  20  36  55  80 108 140 178 224 273 322
#     4  11  22  37  58  85 118 151 186 230 279 330
#     4  10  19  31  46  65  91 122 159 204 259 320
#     4   8  16  32  52  71  93 128 175 223 272 328
#     4   9  17  30  47  65  85 113 155 207 261 319
#     4  10  21  38  61  90 123 158 195 232 272 323
#
# _framework density 19.509359
#
# number of rings (size 3 to 8) (size 9 to 14) (size 15 to 20)
#    0.000    2.286    0.000    3.857    0.000    3.429 
#    0.000    0.714    0.000    3.429    0.000    0.000 
#    0.000    0.000    0.000    0.000    0.000    0.000 
#
# Total GULP energy -311905.451636 kJ/mol
# GULP energy per Si atom -5569.740208 kJ/mol
# Density = 1.946495 g / cm^3
# Si number density = 19.509359 Si / 1000 Ang^3
#
#
#
# Elastic Constant Matrix: (Units=GPa)
#
#
# Indices 1 2 3 4 5 6 
#
# 1 38.0514 19.2594 34.4588 0.0000 0.0000 0.0000
# 2 19.2594 56.5985 41.4200 0.0000 0.0000 0.0000
# 3 34.4588 41.4200 137.6418 0.0000 0.0000 0.0000
# 4 0.0000 0.0000 0.0000 15.2687 0.0000 0.0000
# 5 0.0000 0.0000 0.0000 0.0000 25.5980 0.0000
# 6 0.0000 0.0000 0.0000 0.0000 0.0000 -22.2368
#
#
#
# Elastic Compliance Matrix: (Units=1/GPa)
#
#
# Indices 1 2 3 4 5 6 
#
# 1 0.036187 -0.007289 -0.006866 0.000000 0.000000 0.000000
# 2 -0.007289 0.024126 -0.005435 0.000000 0.000000 0.000000
# 3 -0.006866 -0.005435 0.010620 0.000000 0.000000 0.000000
# 4 0.000000 0.000000 0.000000 0.065494 0.000000 0.000000
# 5 0.000000 0.000000 0.000000 0.000000 0.039066 0.000000
# 6 0.000000 0.000000 0.000000 0.000000 0.000000 -0.044970
#
#
# Mechanical properties :
#
#
# Convention : Reuss Voigt Hill
#
# Bulk Modulus (GPa) = 31.49369 46.95202 39.22286
# Shear Modulus (GPa) = 27.73342 12.86953 20.30148
#
# Velocity S-wave (km/s) = 3.77443 2.57117 3.22934
# Velocity P-wave (km/s) = 5.93068 5.73875 5.83550
#
# Compressibility (1/GPa) = 0.03175240
#
# Stress axis : x y z
#
# Youngs Moduli (GPa) = 27.63390 41.44832 94.16342
#
# Poissons Ratio (x) = 0.30212 0.64653
# Poissons Ratio (y) = 0.20143 0.51182
# Poissons Ratio (z) = 0.18974 0.22529
#
# Static dielectric constant tensor:
#      x y z
#    x 1.711190 0.000000 0.000000 
#    y 0.000000 1.700550 0.000000 
#    z 0.000000 0.000000 1.778670 
# 
# From -- ./inp_files/21696.got.cif
#   From: 2010.05.17/outbox.cif.g08.bks.cpg/sg51_11_cif.got.tgz:21696.got - 2010.06.03 11:52:47.
