data_PCOD9400602
_publ_section_title
;
Structure prediction by ZEFSAII (Michael W. Deem and Ramdas Pophale) SiO2 
 PCOD9400602
Probable space group: P M M A
;
_chemical_formula_sum "Si O2"
_cell_formula_units_Z 64
_cell_length_a 9.327581
_cell_length_b 18.677162
_cell_length_c 27.271163
_cell_angle_alpha 90.000000
_cell_angle_beta 90.000000
_cell_angle_gamma 90.000000
_cell_volume 4750.984068
_symmetry_space_group_name_H-M "P M M A"
_symmetry_group_IT_number 51
_symmetry_cell_setting 'orthorhombic'
loop_
_space_group_symop_operation_xyz
x,y,z
1/2-x,-y,z
1/2+x,-y,-z
-x,y,-z
-x,-y,-z
1/2+x,y,-z
1/2-x,y,z
x,-y,z
loop_
_atom_site_type_symbol
_atom_site_label
_atom_site_fract_x
_atom_site_fract_y
_atom_site_fract_z
Si Si1 0.085990 0.706145 0.700108
Si Si2 0.579428 0.915901 0.647305
Si Si3 0.079462 0.666323 0.451712
Si Si4 0.424940 0.082649 0.155964
Si Si5 0.579635 0.416726 0.649709
Si Si6 0.921567 0.168574 0.748036
Si Si7 0.414869 0.207076 0.596872
Si Si8 0.915378 0.087196 0.952095
O O1 0.250000 0.695056 0.715024
O O2 0.086396 0.750106 0.648665
O O3 0.006346 0.632521 0.687582
O O4 0.000991 0.757348 0.737068
O O5 0.750000 0.906354 0.638310
O O6 0.551425 0.884557 0.701913
O O7 0.489303 0.868175 0.609404
O O8 0.546431 0.000000 0.645258
O O9 0.250000 0.672675 0.459154
O O10 0.054622 0.615141 0.404819
O O11 0.000000 0.638576 0.500000
O O12 0.009016 0.742977 0.438417
O O13 0.250000 0.082068 0.154838
O O14 0.468349 0.131220 0.201566
O O15 0.472010 0.107878 0.101843
O O16 0.469625 0.000000 0.163417
O O17 0.750000 0.409635 0.658885
O O18 0.540544 0.500000 0.651859
O O19 0.750000 0.180060 0.749628
O O20 0.250000 0.200026 0.580348
O O21 0.750000 0.109189 0.956154
O O22 0.917812 0.000000 0.951750
O O23 0.000000 0.111538 0.000000
#
# Coordination Sequence:
#
# PCOD9400602 Si02
#       8
#     8   8   8   8   8   8   8   8
#     4   9  17  28  41  58  80 104 128 154 185 222
#     4   9  16  25  39  59  79  98 123 157 195 232
#     4  10  19  31  47  65  84 104 125 150 181 216
#     4   8  13  21  34  52  72  96 131 173 209 239
#     4   9  18  32  48  65  84 105 129 154 177 207
#     4   9  15  24  39  56  75 101 131 161 194 232
#     4   9  17  29  43  58  77 102 130 155 181 219
#     4   8  13  21  32  45  63  90 126 167 207 244
#
# _framework density 13.470893999999999
#
# number of rings (size 3 to 8) (size 9 to 14) (size 15 to 20)
#    0.000    3.125    0.000    2.250    0.000    5.750 
#    0.000    0.625    0.000    2.250    0.000    0.000 
#    0.000    0.000    0.000    0.000    0.000    0.625 
#
# Total GULP energy -356272.650759 kJ/mol
# GULP energy per Si atom -5566.760168 kJ/mol
# Density = 1.344023 g / cm^3
# Si number density = 13.470894 Si / 1000 Ang^3
#
#
#
# Elastic Constant Matrix: (Units=GPa)
#
#
# Indices 1 2 3 4 5 6 
#
# 1 49.6870 46.9897 30.8334 0.0000 0.0000 0.0000
# 2 46.9897 96.4510 35.9768 0.0000 0.0000 0.0000
# 3 30.8334 35.9768 56.3469 0.0000 0.0000 0.0000
# 4 0.0000 0.0000 0.0000 9.2682 0.0000 0.0000
# 5 0.0000 0.0000 0.0000 0.0000 16.5316 0.0000
# 6 0.0000 0.0000 0.0000 0.0000 0.0000 13.0842
#
#
#
# Elastic Compliance Matrix: (Units=1/GPa)
#
#
# Indices 1 2 3 4 5 6 
#
# 1 0.044112 -0.016391 -0.013673 0.000000 0.000000 0.000000
# 2 -0.016391 0.019699 -0.003609 0.000000 0.000000 0.000000
# 3 -0.013673 -0.003609 0.027533 0.000000 0.000000 0.000000
# 4 0.000000 0.000000 0.000000 0.107896 0.000000 0.000000
# 5 0.000000 0.000000 0.000000 0.000000 0.060490 0.000000
# 6 0.000000 0.000000 0.000000 0.000000 0.000000 0.076428
#
#
# Mechanical properties :
#
#
# Convention : Reuss Voigt Hill
#
# Bulk Modulus (GPa) = 41.66730 47.78718 44.72724
# Shear Modulus (GPa) = 12.15058 13.68913 12.91986
#
# Velocity S-wave (km/s) = 3.00657 3.19125 3.10028
# Velocity P-wave (km/s) = 6.56134 7.00929 6.78901
#
# Compressibility (1/GPa) = 0.02399964
#
# Stress axis : x y z
#
# Youngs Moduli (GPa) = 22.66978 50.76323 36.31967
#
# Poissons Ratio (x) = 0.83204 0.49660
# Poissons Ratio (y) = 0.37157 0.13107
# Poissons Ratio (z) = 0.30996 0.18319
#
# Static dielectric constant tensor:
#      x y z
#    x 1.452970 0.000000 0.000000 
#    y 0.000000 1.420620 0.000000 
#    z 0.000000 0.000000 1.442990 
# 
# From -- ./inp_files/36445.got.cif
#   From: 2010.05.17/outbox.cif.g08.bks.cpg/sg51_19_cif.got.tgz:36445.got - 2010.06.03 11:52:47.
