data_PCOD9400479
_publ_section_title
;
Structure prediction by ZEFSAII (Michael W. Deem and Ramdas Pophale) SiO2 
 PCOD9400479
Probable space group: P M M A
;
_chemical_formula_sum "Si O2"
_cell_formula_units_Z 56
_cell_length_a 14.536702
_cell_length_b 9.831968
_cell_length_c 18.325608
_cell_angle_alpha 90.000000
_cell_angle_beta 90.000000
_cell_angle_gamma 90.000000
_cell_volume 2619.176324
_symmetry_space_group_name_H-M "P M M A"
_symmetry_group_IT_number 51
_symmetry_cell_setting 'orthorhombic'
loop_
_space_group_symop_operation_xyz
x,y,z
1/2-x,-y,z
1/2+x,-y,-z
-x,y,-z
-x,-y,-z
1/2+x,y,-z
1/2-x,y,z
x,-y,z
loop_
_atom_site_type_symbol
_atom_site_label
_atom_site_fract_x
_atom_site_fract_y
_atom_site_fract_z
Si Si1 0.359562 0.151620 0.181689
Si Si2 0.903257 0.659241 0.367743
Si Si3 0.581883 0.159550 0.653547
Si Si4 0.862475 0.846156 0.081008
Si Si5 0.856207 0.351059 0.202491
Si Si6 0.387396 0.153358 0.503597
Si Si7 0.637496 0.655037 0.946186
O O1 0.250000 0.145043 0.169997
O O2 0.374556 0.179064 0.267264
O O3 0.393266 0.267690 0.127115
O O4 0.396733 0.000000 0.165102
O O5 0.912661 0.500000 0.385124
O O6 0.856046 0.671180 0.289058
O O7 0.859157 0.738956 0.435586
O O8 0.999871 0.733916 0.353945
O O9 0.641536 0.178156 0.580043
O O10 0.550888 0.000000 0.650365
O O11 0.750000 0.854215 0.080276
O O12 0.893447 0.774696 0.156276
O O13 0.896142 0.000000 0.072762
O O14 0.889018 0.746828 0.015212
O O15 0.750000 0.361701 0.179039
O O16 0.899806 0.500000 0.188412
O O17 0.500000 0.157516 0.500000
O O18 0.361549 0.000000 0.524775
O O19 0.750000 0.650242 0.946103
O O20 0.605033 0.500000 0.950807
#
# Coordination Sequence:
#
# PCOD9400479 Si02
#       7
#     8   8   8   8   8   8   8
#     4   9  17  30  48  69  93 121 154 189 224 267
#     4  10  19  30  48  71  91 117 154 191 226 269
#     4   9  18  32  49  68  92 122 152 187 231 271
#     4   9  16  26  43  67  91 117 153 191 223 262
#     4   9  18  32  47  65  93 124 151 184 229 275
#     4   8  15  29  47  66  89 118 152 188 226 268
#     4   9  16  26  42  65  93 123 152 184 225 268
#
# _framework density 21.380768
#
# number of rings (size 3 to 8) (size 9 to 14) (size 15 to 20)
#    0.000    3.000    0.000    2.143    0.000    7.714 
#    0.000    0.714    0.000    1.714    0.000    6.000 
#    0.000    0.000    0.000    0.000    0.000    0.000 
#
# Total GULP energy -312332.862684 kJ/mol
# GULP energy per Si atom -5577.372548 kJ/mol
# Density = 2.133210 g / cm^3
# Si number density = 21.380768 Si / 1000 Ang^3
#
#
#
# Elastic Constant Matrix: (Units=GPa)
#
#
# Indices 1 2 3 4 5 6 
#
# 1 45.7077 16.5779 -4.2104 0.0000 0.0000 0.0000
# 2 16.5779 207.1454 124.6819 0.0000 0.0000 0.0000
# 3 -4.2104 124.6819 143.5192 0.0000 0.0000 0.0000
# 4 0.0000 0.0000 0.0000 182.1952 0.0000 0.0000
# 5 0.0000 0.0000 0.0000 0.0000 16.7546 0.0000
# 6 0.0000 0.0000 0.0000 0.0000 0.0000 -5.3684
#
#
#
# Elastic Compliance Matrix: (Units=1/GPa)
#
#
# Indices 1 2 3 4 5 6 
#
# 1 0.024131 -0.004941 0.005000 0.000000 0.000000 0.000000
# 2 -0.004941 0.011130 -0.009814 0.000000 0.000000 0.000000
# 3 0.005000 -0.009814 0.015641 0.000000 0.000000 0.000000
# 4 0.000000 0.000000 0.000000 0.005489 0.000000 0.000000
# 5 0.000000 0.000000 0.000000 0.000000 0.059685 0.000000
# 6 0.000000 0.000000 0.000000 0.000000 0.000000 -0.186275
#
#
# Mechanical properties :
#
#
# Convention : Reuss Voigt Hill
#
# Bulk Modulus (GPa) = 31.85545 74.49678 53.17611
# Shear Modulus (GPa) = -124.29813 56.00446 -34.14683
#
# Velocity S-wave (km/s) = -7.63293 5.12355 -4.00069
# Velocity P-wave (km/s) = 7.92154 8.36179 1.89324
#
# Compressibility (1/GPa) = 0.03139180
#
# Stress axis : x y z
#
# Youngs Moduli (GPa) = 41.44080 89.84528 63.93627
#
# Poissons Ratio (x) = 0.44392 -0.31970
# Poissons Ratio (y) = 0.20476 0.62749
# Poissons Ratio (z) = -0.20722 0.88177
#
# Static dielectric constant tensor:
#      x y z
#    x 1.833400 0.000000 0.000000 
#    y 0.000000 1.753980 0.000000 
#    z 0.000000 0.000000 1.785290 
# 
# From -- ./inp_files/30421.got.cif
#   From: 2010.05.17/outbox.cif.g08.bks.cpg/sg51_16_cif.got.tgz:30421.got - 2010.06.03 11:52:47.
