data_PCOD9400535
_publ_section_title
;
Structure prediction by ZEFSAII (Michael W. Deem and Ramdas Pophale) SiO2 
 PCOD9400535
Probable space group: P M M A
;
_chemical_formula_sum "Si O2"
_cell_formula_units_Z 64
_cell_length_a 33.891471
_cell_length_b 8.921683
_cell_length_c 10.814477
_cell_angle_alpha 90.000000
_cell_angle_beta 90.000000
_cell_angle_gamma 90.000000
_cell_volume 3269.962171
_symmetry_space_group_name_H-M "P M M A"
_symmetry_group_IT_number 51
_symmetry_cell_setting 'orthorhombic'
loop_
_space_group_symop_operation_xyz
x,y,z
1/2-x,-y,z
1/2+x,-y,-z
-x,y,-z
-x,-y,-z
1/2+x,y,-z
1/2-x,y,z
x,-y,z
loop_
_atom_site_type_symbol
_atom_site_label
_atom_site_fract_x
_atom_site_fract_y
_atom_site_fract_z
Si Si1 0.938786 0.827232 0.560640
Si Si2 0.060198 0.323049 0.688476
Si Si3 0.204437 0.678103 0.919673
Si Si4 0.368952 0.326671 0.307192
Si Si5 0.418201 0.674217 0.050434
Si Si6 0.628373 0.178476 0.175774
Si Si7 0.011271 0.825227 0.185220
Si Si8 0.295736 0.177296 0.191899
O O1 0.953249 0.726888 0.447601
O O2 0.895715 0.769714 0.600853
O O3 0.965309 0.817079 0.683647
O O4 0.938615 0.000000 0.520302
O O5 0.063026 0.500000 0.697591
O O6 0.102168 0.246079 0.714545
O O7 0.029221 0.260237 0.788510
O O8 0.250000 0.701489 0.881770
O O9 0.197054 0.500000 0.927855
O O10 0.172172 0.754499 0.832858
O O11 0.199885 0.749511 0.056114
O O12 0.367027 0.500000 0.346478
O O13 0.391893 0.322660 0.175373
O O14 0.326302 0.256803 0.282645
O O15 0.422947 0.500000 0.014056
O O16 0.459811 0.749057 0.086253
O O17 0.394391 0.764452 0.947219
O O18 0.629111 0.000000 0.179945
O O19 0.004481 0.000000 0.156827
O O20 0.250000 0.196283 0.228573
O O21 0.304313 0.000000 0.183339
#
# Coordination Sequence:
#
# PCOD9400535 Si02
#       8
#     8   8   8   8   8   8   8   8
#     4  10  21  38  60  83 110 143 185 234 282 332
#     4  12  25  40  58  81 111 147 192 236 279 330
#     4  10  20  35  56  83 115 149 185 227 275 328
#     4  10  19  32  54  81 112 146 182 227 279 333
#     4  10  20  35  55  82 114 148 186 227 280 335
#     4  12  24  38  58  82 115 152 190 232 279 335
#     4  10  21  38  60  85 113 145 185 233 284 334
#     4  10  19  30  49  80 115 148 183 224 274 332
#
# _framework density 19.572092000000001
#
# number of rings (size 3 to 8) (size 9 to 14) (size 15 to 20)
#    0.000    1.500    1.250    4.875    0.000    6.000 
#    0.000    2.500    0.000    0.750    0.000    0.000 
#    0.000    0.000    0.000    0.000    0.000    0.000 
#
# Total GULP energy -357940.086759 kJ/mol
# GULP energy per Si atom -5592.813856 kJ/mol
# Density = 1.952754 g / cm^3
# Si number density = 19.572092 Si / 1000 Ang^3
#
#
#
# Elastic Constant Matrix: (Units=GPa)
#
#
# Indices 1 2 3 4 5 6 
#
# 1 104.2667 58.6731 8.2982 0.0000 0.0000 0.0000
# 2 58.6731 145.2766 14.8383 0.0000 0.0000 0.0000
# 3 8.2982 14.8383 42.7278 0.0000 0.0000 0.0000
# 4 0.0000 0.0000 0.0000 18.1651 0.0000 0.0000
# 5 0.0000 0.0000 0.0000 0.0000 22.1986 0.0000
# 6 0.0000 0.0000 0.0000 0.0000 0.0000 33.8269
#
#
#
# Elastic Compliance Matrix: (Units=1/GPa)
#
#
# Indices 1 2 3 4 5 6 
#
# 1 0.012431 -0.004950 -0.000695 0.000000 0.000000 0.000000
# 2 -0.004950 0.009107 -0.002201 0.000000 0.000000 0.000000
# 3 -0.000695 -0.002201 0.024304 0.000000 0.000000 0.000000
# 4 0.000000 0.000000 0.000000 0.055051 0.000000 0.000000
# 5 0.000000 0.000000 0.000000 0.000000 0.045048 0.000000
# 6 0.000000 0.000000 0.000000 0.000000 0.000000 0.029562
#
#
# Mechanical properties :
#
#
# Convention : Reuss Voigt Hill
#
# Bulk Modulus (GPa) = 33.16844 50.65449 41.91146
# Shear Modulus (GPa) = 24.84522 28.86887 26.85705
#
# Velocity S-wave (km/s) = 3.56676 3.84474 3.70836
# Velocity P-wave (km/s) = 5.82631 6.75622 6.30843
#
# Compressibility (1/GPa) = 0.03014915
#
# Stress axis : x y z
#
# Youngs Moduli (GPa) = 80.44129 109.80192 41.14628
#
# Poissons Ratio (x) = 0.54348 0.02861
# Poissons Ratio (y) = 0.39816 0.09058
# Poissons Ratio (z) = 0.05594 0.24172
#
# Static dielectric constant tensor:
#      x y z
#    x 1.693930 0.000000 0.000000 
#    y 0.000000 1.649660 0.000000 
#    z 0.000000 0.000000 1.704810 
# 
# From -- ./inp_files/19566.got.cif
#   From: 2010.05.17/outbox.cif.g08.bks.cpg/sg51_10_cif.got.tgz:19566.got - 2010.06.03 11:52:47.
