data_PCOD9400672
_publ_section_title
;
Structure prediction by ZEFSAII (Michael W. Deem and Ramdas Pophale) SiO2 
 PCOD9400672
Probable space group: P M M A
;
_chemical_formula_sum "Si O2"
_cell_formula_units_Z 48
_cell_length_a 25.031360
_cell_length_b 7.536162
_cell_length_c 10.846575
_cell_angle_alpha 90.000000
_cell_angle_beta 90.000000
_cell_angle_gamma 90.000000
_cell_volume 2046.102074
_symmetry_space_group_name_H-M "P M M A"
_symmetry_group_IT_number 51
_symmetry_cell_setting 'orthorhombic'
loop_
_space_group_symop_operation_xyz
x,y,z
1/2-x,-y,z
1/2+x,-y,-z
-x,y,-z
-x,-y,-z
1/2+x,y,-z
1/2-x,y,z
x,-y,z
loop_
_atom_site_type_symbol
_atom_site_label
_atom_site_fract_x
_atom_site_fract_y
_atom_site_fract_z
Si Si1 0.002897 0.710215 0.684042
Si Si2 0.889519 0.785685 0.422904
Si Si3 0.878008 0.791927 0.688925
Si Si4 0.054672 0.296292 0.927304
Si Si5 0.841269 0.800237 0.946450
Si Si6 0.309036 0.216451 0.789222
O O1 0.996432 0.500000 0.701828
O O2 0.047478 0.735221 0.578030
O O3 0.038010 0.784417 0.797546
O O4 0.942953 0.781746 0.693557
O O5 0.865130 0.720701 0.552758
O O6 0.854943 0.722610 0.305464
O O7 0.887754 0.000000 0.423390
O O8 0.848704 0.716195 0.810635
O O9 0.864566 0.000000 0.690255
O O10 0.073986 0.500000 0.912075
O O11 0.098065 0.192653 0.003889
O O12 0.000000 0.304686 0.000000
O O13 0.819413 0.000000 0.931781
O O14 0.813896 0.720186 0.068651
O O15 0.250000 0.260090 0.742305
O O16 0.313446 0.000000 0.795000
#
# Coordination Sequence:
#
# PCOD9400672 Si02
#       6
#     8   8   8   8   8   8
#     4  11  21  32  50  76 106 140 176 207 242 294
#     4  10  20  35  52  73 104 139 171 206 251 300
#     4  10  21  33  48  75 109 138 167 204 247 299
#     4  10  19  31  47  72 105 136 166 203 244 288
#     4  10  19  32  52  75  98 129 169 208 248 295
#     4   9  18  34  56  77  96 125 169 216 258 301
#
# _framework density 23.459237999999999
#
# number of rings (size 3 to 8) (size 9 to 14) (size 15 to 20)
#    0.000    2.000    3.333    1.000    0.000    3.667 
#    0.000    0.833    0.000    7.000    0.000    0.000 
#    0.000    4.000    0.000    0.000    0.000    0.000 
#
# Total GULP energy -267574.391849 kJ/mol
# GULP energy per Si atom -5574.466497 kJ/mol
# Density = 2.340584 g / cm^3
# Si number density = 23.459238 Si / 1000 Ang^3
#
#
#
# Elastic Constant Matrix: (Units=GPa)
#
#
# Indices 1 2 3 4 5 6 
#
# 1 95.6391 -4.8578 33.2776 0.0000 0.0000 0.0000
# 2 -4.8578 67.3166 0.3461 0.0000 0.0000 0.0000
# 3 33.2776 0.3461 152.3388 0.0000 0.0000 0.0000
# 4 0.0000 0.0000 0.0000 -6.8154 0.0000 0.0000
# 5 0.0000 0.0000 0.0000 0.0000 23.3689 0.0000
# 6 0.0000 0.0000 0.0000 0.0000 0.0000 36.3443
#
#
#
# Elastic Compliance Matrix: (Units=1/GPa)
#
#
# Indices 1 2 3 4 5 6 
#
# 1 0.011363 0.000833 -0.002484 0.000000 0.000000 0.000000
# 2 0.000833 0.014916 -0.000216 0.000000 0.000000 0.000000
# 3 -0.002484 -0.000216 0.007107 0.000000 0.000000 0.000000
# 4 0.000000 0.000000 0.000000 -0.146727 0.000000 0.000000
# 5 0.000000 0.000000 0.000000 0.000000 0.042792 0.000000
# 6 0.000000 0.000000 0.000000 0.000000 0.000000 0.027515
#
#
# Mechanical properties :
#
#
# Convention : Reuss Voigt Hill
#
# Bulk Modulus (GPa) = 33.72420 41.42513 37.57466
# Shear Modulus (GPa) = -169.97714 29.68146 -70.14784
#
# Velocity S-wave (km/s) = -8.52137 3.56087 -5.47421
# Velocity P-wave (km/s) = 9.07807 5.88244 4.88918
#
# Compressibility (1/GPa) = 0.02965230
#
# Stress axis : x y z
#
# Youngs Moduli (GPa) = 88.00827 67.04037 140.69806
#
# Poissons Ratio (x) = -0.05583 0.34949
# Poissons Ratio (y) = -0.07329 0.03036
# Poissons Ratio (z) = 0.21861 0.01447
#
# Static dielectric constant tensor:
#      x y z
#    x 1.869640 0.000000 0.000000 
#    y 0.000000 1.897580 0.000000 
#    z 0.000000 0.000000 2.025420 
# 
# From -- ./inp_files/18622.got.cif
#   From: 2010.05.17/outbox.cif.g08.bks.cpg/sg51_10_cif.got.tgz:18622.got - 2010.06.03 11:52:47.
