data_PCOD9400612
_publ_section_title
;
Structure prediction by ZEFSAII (Michael W. Deem and Ramdas Pophale) SiO2 
 PCOD9400612
Probable space group: P M M A
;
_chemical_formula_sum "Si O2"
_cell_formula_units_Z 48
_cell_length_a 7.667139
_cell_length_b 16.693394
_cell_length_c 19.101511
_cell_angle_alpha 90.000000
_cell_angle_beta 90.000000
_cell_angle_gamma 90.000000
_cell_volume 2444.813322
_symmetry_space_group_name_H-M "P M M A"
_symmetry_group_IT_number 51
_symmetry_cell_setting 'orthorhombic'
loop_
_space_group_symop_operation_xyz
x,y,z
1/2-x,-y,z
1/2+x,-y,-z
-x,y,-z
-x,-y,-z
1/2+x,y,-z
1/2-x,y,z
x,-y,z
loop_
_atom_site_type_symbol
_atom_site_label
_atom_site_fract_x
_atom_site_fract_y
_atom_site_fract_z
Si Si1 0.541812 0.831333 0.580781
Si Si2 0.453635 0.913418 0.715965
Si Si3 0.040535 0.176694 0.918499
Si Si4 0.958859 0.000000 0.082725
Si Si5 0.538883 0.252040 0.217283
Si Si6 0.455971 0.335055 0.353407
Si Si7 0.460309 0.500000 0.417804
O O1 0.500000 0.843319 0.500000
O O2 0.750000 0.832805 0.589913
O O3 0.466278 0.897590 0.633070
O O4 0.473477 0.744131 0.607027
O O5 0.250000 0.915612 0.736342
O O6 0.525476 0.832302 0.749543
O O7 0.529795 0.000000 0.734660
O O8 0.250000 0.172935 0.913939
O O9 0.975727 0.087797 0.894692
O O10 0.982943 0.244406 0.863532
O O11 0.000000 0.189722 0.000000
O O12 0.750000 0.000000 0.093922
O O13 0.000000 0.000000 0.000000
O O14 0.750000 0.254101 0.219837
O O15 0.478856 0.320288 0.270536
O O16 0.250000 0.335735 0.368257
O O17 0.528262 0.418532 0.382034
O O18 0.250000 0.500000 0.409538
O O19 0.500000 0.500000 0.500000
#
# Coordination Sequence:
#
# PCOD9400612 Si02
#       7
#     8   8   8   4   8   8   4
#     4  10  19  31  47  65  88 117 149 188 231 273
#     4   9  18  31  46  63  84 116 158 197 233 272
#     4   9  17  28  44  67  94 125 161 200 240 282
#     4   8  14  24  38  58  88 120 153 194 237 276
#     4   9  18  31  48  69  94 125 160 197 235 278
#     4   9  19  34  50  71  98 125 152 185 230 284
#     4  10  20  34  54  80 105 128 155 188 231 286
#
# _framework density 19.633402
#
# number of rings (size 3 to 8) (size 9 to 14) (size 15 to 20)
#    0.000    2.833    0.000    1.000    1.167    2.667 
#    0.000    0.000    0.000    0.000    0.000    0.583 
#    0.000    0.000    0.000    0.000    0.000    0.000 
#
# Total GULP energy -267537.132461 kJ/mol
# GULP energy per Si atom -5573.690260 kJ/mol
# Density = 1.958872 g / cm^3
# Si number density = 19.633402 Si / 1000 Ang^3
#
#
#
# Elastic Constant Matrix: (Units=GPa)
#
#
# Indices 1 2 3 4 5 6 
#
# 1 36.3910 2.2101 -13.8033 0.0000 0.0000 0.0000
# 2 2.2101 91.7293 36.2326 0.0000 0.0000 0.0000
# 3 -13.8033 36.2326 109.6002 0.0000 0.0000 0.0000
# 4 0.0000 0.0000 0.0000 29.3972 0.0000 0.0000
# 5 0.0000 0.0000 0.0000 0.0000 15.9784 0.0000
# 6 0.0000 0.0000 0.0000 0.0000 0.0000 9.7934
#
#
#
# Elastic Compliance Matrix: (Units=1/GPa)
#
#
# Indices 1 2 3 4 5 6 
#
# 1 0.029345 -0.002492 0.004520 0.000000 0.000000 0.000000
# 2 -0.002492 0.012751 -0.004529 0.000000 0.000000 0.000000
# 3 0.004520 -0.004529 0.011191 0.000000 0.000000 0.000000
# 4 0.000000 0.000000 0.000000 0.034017 0.000000 0.000000
# 5 0.000000 0.000000 0.000000 0.000000 0.062585 0.000000
# 6 0.000000 0.000000 0.000000 0.000000 0.000000 0.102109
#
#
# Mechanical properties :
#
#
# Convention : Reuss Voigt Hill
#
# Bulk Modulus (GPa) = 20.71125 31.88879 26.30002
# Shear Modulus (GPa) = 18.30868 25.23922 21.77395
#
# Velocity S-wave (km/s) = 3.05704 3.58931 3.33382
# Velocity P-wave (km/s) = 4.79923 5.78402 5.31448
#
# Compressibility (1/GPa) = 0.04828293
#
# Stress axis : x y z
#
# Youngs Moduli (GPa) = 34.07728 78.42725 89.36094
#
# Poissons Ratio (x) = 0.19546 -0.40389
# Poissons Ratio (y) = 0.08493 0.40473
# Poissons Ratio (z) = -0.15402 0.35521
#
# Static dielectric constant tensor:
#      x y z
#    x 1.740220 0.000000 0.000000 
#    y 0.000000 1.704390 0.000000 
#    z 0.000000 0.000000 1.719350 
# 
# From -- ./inp_files/27637.got.cif
#   From: 2010.05.17/outbox.cif.g08.bks.cpg/sg51_14_cif.got.tgz:27637.got - 2010.06.03 11:52:47.
