data_PCOD9400369
_publ_section_title
;
Structure prediction by ZEFSAII (Michael W. Deem and Ramdas Pophale) SiO2 
 PCOD9400369
Probable space group: P M M A
;
_chemical_formula_sum "Si O2"
_cell_formula_units_Z 48
_cell_length_a 8.815183
_cell_length_b 18.134574
_cell_length_c 13.546524
_cell_angle_alpha 90.000000
_cell_angle_beta 90.000000
_cell_angle_gamma 90.000000
_cell_volume 2165.541751
_symmetry_space_group_name_H-M "P M M A"
_symmetry_group_IT_number 51
_symmetry_cell_setting 'orthorhombic'
loop_
_space_group_symop_operation_xyz
x,y,z
1/2-x,-y,z
1/2+x,-y,-z
-x,y,-z
-x,-y,-z
1/2+x,y,-z
1/2-x,y,z
x,-y,z
loop_
_atom_site_type_symbol
_atom_site_label
_atom_site_fract_x
_atom_site_fract_y
_atom_site_fract_z
Si Si1 0.072206 0.116932 0.899382
Si Si2 0.077982 0.763244 0.366621
Si Si3 0.066837 0.919554 0.312384
Si Si4 0.067090 0.417897 0.824226
Si Si5 0.920917 0.732021 0.867501
Si Si6 0.426982 0.386934 0.599632
O O1 0.250000 0.103139 0.897118
O O2 0.996851 0.087667 0.798809
O O3 0.035666 0.204560 0.900663
O O4 0.000000 0.086689 0.000000
O O5 0.250000 0.755039 0.407087
O O6 0.020624 0.847182 0.373946
O O7 0.090552 0.747871 0.249545
O O8 0.964510 0.700277 0.400776
O O9 0.250000 0.915445 0.306327
O O10 0.023382 0.000000 0.352143
O O11 0.250000 0.407193 0.827820
O O12 0.031789 0.500000 0.861452
O O13 0.021008 0.414456 0.707576
O O14 0.984692 0.350330 0.877849
O O15 0.750000 0.740431 0.908242
O O16 0.500000 0.417481 0.500000
O O17 0.250000 0.400946 0.594955
#
# Coordination Sequence:
#
# PCOD9400369 Si02
#       6
#     8   8   8   8   8   8
#     4  11  21  33  50  72  99 130 163 199 239 283
#     4   8  15  29  48  68  91 121 157 195 234 280
#     4   9  18  33  52  74 100 128 158 195 240 288
#     4   9  18  32  49  71  99 129 160 195 238 287
#     4   9  17  31  50  71  94 123 162 201 237 281
#     4  10  19  30  46  68  95 127 161 199 240 283
#
# _framework density 22.165354000000001
#
# number of rings (size 3 to 8) (size 9 to 14) (size 15 to 20)
#    0.000    2.667    0.000    3.500    0.000    6.000 
#    0.000    0.000    0.000    1.000    0.000    0.000 
#    0.000    0.000    0.000    0.000    0.000    0.000 
#
# Total GULP energy -267886.284819 kJ/mol
# GULP energy per Si atom -5580.964267 kJ/mol
# Density = 2.211490 g / cm^3
# Si number density = 22.165354 Si / 1000 Ang^3
#
#
#
# Elastic Constant Matrix: (Units=GPa)
#
#
# Indices 1 2 3 4 5 6 
#
# 1 32.7058 10.8296 1.9904 0.0000 0.0000 0.0000
# 2 10.8296 159.6204 -11.6231 0.0000 0.0000 0.0000
# 3 1.9904 -11.6231 42.1362 0.0000 0.0000 0.0000
# 4 0.0000 0.0000 0.0000 -2.5063 0.0000 0.0000
# 5 0.0000 0.0000 0.0000 0.0000 23.4634 0.0000
# 6 0.0000 0.0000 0.0000 0.0000 0.0000 17.2046
#
#
#
# Elastic Compliance Matrix: (Units=1/GPa)
#
#
# Indices 1 2 3 4 5 6 
#
# 1 0.031462 -0.002289 -0.002118 0.000000 0.000000 0.000000
# 2 -0.002289 0.006560 0.001918 0.000000 0.000000 0.000000
# 3 -0.002118 0.001918 0.024362 0.000000 0.000000 0.000000
# 4 0.000000 0.000000 0.000000 -0.399001 0.000000 0.000000
# 5 0.000000 0.000000 0.000000 0.000000 0.042620 0.000000
# 6 0.000000 0.000000 0.000000 0.000000 0.000000 0.058124
#
#
# Mechanical properties :
#
#
# Convention : Reuss Voigt Hill
#
# Bulk Modulus (GPa) = 17.41969 26.31733 21.86851
# Shear Modulus (GPa) = -23.61154 23.18338 -0.21408
#
# Velocity S-wave (km/s) = -3.26735 3.23759 -0.31111
# Velocity P-wave (km/s) = 2.52152 5.08674 3.12385
#
# Compressibility (1/GPa) = 0.05740631
#
# Stress axis : x y z
#
# Youngs Moduli (GPa) = 31.78397 152.44399 41.04828
#
# Poissons Ratio (x) = 0.34891 0.08692
# Poissons Ratio (y) = 0.07275 -0.07871
# Poissons Ratio (z) = 0.06730 -0.29233
#
# Static dielectric constant tensor:
#      x y z
#    x 1.762650 0.000000 0.000000 
#    y 0.000000 1.863370 0.000000 
#    z 0.000000 0.000000 1.869530 
# 
# From -- ./inp_files/21093.got.cif
#   From: 2010.05.17/outbox.cif.g08.bks.cpg/sg51_11_cif.got.tgz:21093.got - 2010.06.03 11:52:47.
