data_PCOD9400709
_publ_section_title
;
Structure prediction by ZEFSAII (Michael W. Deem and Ramdas Pophale) SiO2 
 PCOD9400709
Probable space group: P M M A
;
_chemical_formula_sum "Si O2"
_cell_formula_units_Z 40
_cell_length_a 8.497351
_cell_length_b 19.448688
_cell_length_c 14.092246
_cell_angle_alpha 90.000000
_cell_angle_beta 90.000000
_cell_angle_gamma 90.000000
_cell_volume 2328.917387
_symmetry_space_group_name_H-M "P M M A"
_symmetry_group_IT_number 51
_symmetry_cell_setting 'orthorhombic'
loop_
_space_group_symop_operation_xyz
x,y,z
1/2-x,-y,z
1/2+x,-y,-z
-x,y,-z
-x,-y,-z
1/2+x,y,-z
1/2-x,y,z
x,-y,z
loop_
_atom_site_type_symbol
_atom_site_label
_atom_site_fract_x
_atom_site_fract_y
_atom_site_fract_z
Si Si1 0.941369 0.786431 0.291223
Si Si2 0.061218 0.352661 0.604762
Si Si3 0.061423 0.577637 0.207883
Si Si4 0.438170 0.289573 0.896000
Si Si5 0.059548 0.922919 0.607024
O O1 0.750000 0.787999 0.289839
O O2 0.985714 0.724883 0.363178
O O3 0.993648 0.762535 0.186795
O O4 0.996560 0.860376 0.327313
O O5 0.250000 0.356665 0.606743
O O6 0.000000 0.367918 0.500000
O O7 0.993753 0.401980 0.686271
O O8 0.250000 0.581030 0.203984
O O9 0.010935 0.500000 0.185151
O O10 0.992470 0.634962 0.137832
O O11 0.250000 0.288532 0.896831
O O12 0.500000 0.273319 0.000000
O O13 0.250000 0.921567 0.605732
O O14 0.000000 0.912057 0.500000
O O15 0.010517 0.000000 0.636895
#
# Coordination Sequence:
#
# PCOD9400709 Si02
#       5
#     8   8   8   8   8
#     4   8  16  30  47  69  95 124 159 197 235 276
#     4  10  19  31  48  69  96 129 164 200 236 280
#     4  10  21  36  52  71  95 122 155 195 239 288
#     4  10  20  35  54  73  94 120 155 198 241 287
#     4   9  16  27  45  70 100 131 160 190 227 272
#
# _framework density 17.175360999999999
#
# number of rings (size 3 to 8) (size 9 to 14) (size 15 to 20)
#    0.000    2.600    0.000    3.600    0.000    2.400 
#    0.000    5.000    0.000    0.600    0.000    0.000 
#    0.000    0.000    0.000    0.000    0.000    0.800 
#
# Total GULP energy -223073.553081 kJ/mol
# GULP energy per Si atom -5576.838827 kJ/mol
# Density = 1.713627 g / cm^3
# Si number density = 17.175361 Si / 1000 Ang^3
#
#
#
# Elastic Constant Matrix: (Units=GPa)
#
#
# Indices 1 2 3 4 5 6 
#
# 1 27.8737 15.7923 9.8580 0.0000 0.0000 0.0000
# 2 15.7923 122.6780 36.3817 0.0000 0.0000 0.0000
# 3 9.8580 36.3817 73.7716 0.0000 0.0000 0.0000
# 4 0.0000 0.0000 0.0000 15.8305 0.0000 0.0000
# 5 0.0000 0.0000 0.0000 0.0000 28.7525 0.0000
# 6 0.0000 0.0000 0.0000 0.0000 0.0000 14.8858
#
#
#
# Elastic Compliance Matrix: (Units=1/GPa)
#
#
# Indices 1 2 3 4 5 6 
#
# 1 0.039346 -0.004106 -0.003233 0.000000 0.000000 0.000000
# 2 -0.004106 0.009976 -0.004371 0.000000 0.000000 0.000000
# 3 -0.003233 -0.004371 0.016143 0.000000 0.000000 0.000000
# 4 0.000000 0.000000 0.000000 0.063169 0.000000 0.000000
# 5 0.000000 0.000000 0.000000 0.000000 0.034780 0.000000
# 6 0.000000 0.000000 0.000000 0.000000 0.000000 0.067178
#
#
# Mechanical properties :
#
#
# Convention : Reuss Voigt Hill
#
# Bulk Modulus (GPa) = 23.78411 38.70969 31.24690
# Shear Modulus (GPa) = 18.65479 22.71317 20.68398
#
# Velocity S-wave (km/s) = 3.29923 3.64047 3.47404
# Velocity P-wave (km/s) = 5.32833 6.34488 5.85870
#
# Compressibility (1/GPa) = 0.04204488
#
# Stress axis : x y z
#
# Youngs Moduli (GPa) = 25.41562 100.23665 61.94593
#
# Poissons Ratio (x) = 0.41160 0.20025
# Poissons Ratio (y) = 0.10436 0.27078
# Poissons Ratio (z) = 0.08216 0.43816
#
# Static dielectric constant tensor:
#      x y z
#    x 1.581410 0.000000 0.000000 
#    y 0.000000 1.595000 0.000000 
#    z 0.000000 0.000000 1.557860 
# 
# From -- ./inp_files/14024.got.cif
#   From: 2010.05.17/outbox.cif.g08.bks.cpg/sg51_8_cif.got.tgz:14024.got - 2010.06.03 11:52:47.
