data_PCOD9400626
_publ_section_title
;
Structure prediction by ZEFSAII (Michael W. Deem and Ramdas Pophale) SiO2 
 PCOD9400626
Probable space group: P M M A
;
_chemical_formula_sum "Si O2"
_cell_formula_units_Z 48
_cell_length_a 8.737155
_cell_length_b 15.093075
_cell_length_c 17.076785
_cell_angle_alpha 90.000000
_cell_angle_beta 90.000000
_cell_angle_gamma 90.000000
_cell_volume 2251.924786
_symmetry_space_group_name_H-M "P M M A"
_symmetry_group_IT_number 51
_symmetry_cell_setting 'orthorhombic'
loop_
_space_group_symop_operation_xyz
x,y,z
1/2-x,-y,z
1/2+x,-y,-z
-x,y,-z
-x,-y,-z
1/2+x,y,-z
1/2-x,y,z
x,-y,z
loop_
_atom_site_type_symbol
_atom_site_label
_atom_site_fract_x
_atom_site_fract_y
_atom_site_fract_z
Si Si1 0.419960 0.868010 0.235378
Si Si2 0.575386 0.393556 0.918181
Si Si3 0.934233 0.707425 0.582018
Si Si4 0.571023 0.098052 0.389640
Si Si5 0.076319 0.342743 0.251068
Si Si6 0.419368 0.104628 0.924657
O O1 0.250000 0.901271 0.254875
O O2 0.544226 0.902270 0.296320
O O3 0.413978 0.762668 0.242067
O O4 0.469897 0.888548 0.148499
O O5 0.750000 0.358653 0.915899
O O6 0.580554 0.500000 0.922933
O O7 0.504465 0.373566 0.831796
O O8 0.500000 0.363018 0.000000
O O9 0.750000 0.705154 0.582679
O O10 0.988900 0.653342 0.659922
O O11 0.000000 0.672910 0.500000
O O12 0.984308 0.811749 0.586327
O O13 0.750000 0.107038 0.409349
O O14 0.517364 0.000000 0.416403
O O15 0.250000 0.381023 0.253330
O O16 0.250000 0.142063 0.909260
O O17 0.400763 0.000000 0.939357
O O18 0.500000 0.145619 0.000000
#
# Coordination Sequence:
#
# PCOD9400626 Si02
#       6
#     8   8   8   8   8   8
#     4  10  19  31  47  66  92 124 160 205 253 303
#     4   9  17  32  55  81 109 139 169 202 243 295
#     4  10  20  35  54  74 100 134 174 219 263 309
#     4  10  20  33  49  70  96 127 167 213 258 307
#     4   8  17  33  51  74 102 133 168 203 245 300
#     4  10  20  32  44  59  82 115 158 206 253 302
#
# _framework density 21.315099
#
# number of rings (size 3 to 8) (size 9 to 14) (size 15 to 20)
#    0.000    2.500    0.000    3.500    0.000    5.333 
#    0.000    6.667    0.000    0.500    0.000    0.000 
#    0.000    0.000    0.000    0.000    0.000    0.667 
#
# Total GULP energy -267279.182078 kJ/mol
# GULP energy per Si atom -5568.316293 kJ/mol
# Density = 2.126658 g / cm^3
# Si number density = 21.315099 Si / 1000 Ang^3
#
#
#
# Elastic Constant Matrix: (Units=GPa)
#
#
# Indices 1 2 3 4 5 6 
#
# 1 44.4827 1.6355 20.6819 0.0000 0.0000 0.0000
# 2 1.6355 21.8996 12.3387 0.0000 0.0000 0.0000
# 3 20.6819 12.3387 197.7905 0.0000 0.0000 0.0000
# 4 0.0000 0.0000 0.0000 4.5254 0.0000 0.0000
# 5 0.0000 0.0000 0.0000 0.0000 26.5010 0.0000
# 6 0.0000 0.0000 0.0000 0.0000 0.0000 7.4433
#
#
#
# Elastic Compliance Matrix: (Units=1/GPa)
#
#
# Indices 1 2 3 4 5 6 
#
# 1 0.023633 -0.000386 -0.002447 0.000000 0.000000 0.000000
# 2 -0.000386 0.047333 -0.002912 0.000000 0.000000 0.000000
# 3 -0.002447 -0.002912 0.005493 0.000000 0.000000 0.000000
# 4 0.000000 0.000000 0.000000 0.220975 0.000000 0.000000
# 5 0.000000 0.000000 0.000000 0.000000 0.037734 0.000000
# 6 0.000000 0.000000 0.000000 0.000000 0.000000 0.134349
#
#
# Mechanical properties :
#
#
# Convention : Reuss Voigt Hill
#
# Bulk Modulus (GPa) = 15.39232 37.05389 26.22310
# Shear Modulus (GPa) = 9.94701 22.99505 16.47103
#
# Velocity S-wave (km/s) = 2.16259 3.28810 2.78284
# Velocity P-wave (km/s) = 3.67052 5.64243 4.75971
#
# Compressibility (1/GPa) = 0.06496747
#
# Stress axis : x y z
#
# Youngs Moduli (GPa) = 42.31445 21.12708 182.03628
#
# Poissons Ratio (x) = 0.00816 0.44545
# Poissons Ratio (y) = 0.01634 0.53016
# Poissons Ratio (z) = 0.10355 0.06153
#
# Static dielectric constant tensor:
#      x y z
#    x 1.789740 0.000000 0.000000 
#    y 0.000000 1.777800 0.000000 
#    z 0.000000 0.000000 1.868860 
# 
# From -- ./inp_files/27585.got.cif
#   From: 2010.05.17/outbox.cif.g08.bks.cpg/sg51_14_cif.got.tgz:27585.got - 2010.06.03 11:52:47.
