data_PCOD9400901
_publ_section_title
;
Structure prediction by ZEFSAII (Michael W. Deem and Ramdas Pophale) SiO2 
 PCOD9400901
Probable space group: P M M A
;
_chemical_formula_sum "Si O2"
_cell_formula_units_Z 64
_cell_length_a 17.814325
_cell_length_b 9.039827
_cell_length_c 23.555362
_cell_angle_alpha 90.000000
_cell_angle_beta 90.000000
_cell_angle_gamma 90.000000
_cell_volume 3793.318188
_symmetry_space_group_name_H-M "P M M A"
_symmetry_group_IT_number 51
_symmetry_cell_setting 'orthorhombic'
loop_
_space_group_symop_operation_xyz
x,y,z
1/2-x,-y,z
1/2+x,-y,-z
-x,y,-z
-x,-y,-z
1/2+x,y,-z
1/2-x,y,z
x,-y,z
loop_
_atom_site_type_symbol
_atom_site_label
_atom_site_fract_x
_atom_site_fract_y
_atom_site_fract_z
Si Si1 0.665700 0.674431 0.827806
Si Si2 0.663880 0.821815 0.558955
Si Si3 0.945759 0.323245 0.128997
Si Si4 0.020792 0.323522 0.245516
Si Si5 0.411479 0.176854 0.070375
Si Si6 0.424780 0.669300 0.538670
Si Si7 0.518426 0.176895 0.632971
Si Si8 0.337397 0.176886 0.951621
O O1 0.750000 0.697431 0.807109
O O2 0.656595 0.500000 0.842661
O O3 0.602800 0.708121 0.781228
O O4 0.649346 0.770884 0.883349
O O5 0.750000 0.780434 0.573311
O O6 0.637588 0.749163 0.499714
O O7 0.599621 0.780143 0.605104
O O8 0.661060 0.000000 0.553486
O O9 0.948456 0.500000 0.124696
O O10 0.870163 0.258968 0.102895
O O11 0.963701 0.284194 0.194427
O O12 0.012465 0.254286 0.090946
O O13 0.015540 0.500000 0.255600
O O14 0.011400 0.237784 0.303709
O O15 0.420836 0.000000 0.071762
O O16 0.384189 0.219737 0.007768
O O17 0.500000 0.667014 0.500000
O O18 0.403870 0.500000 0.551313
O O19 0.452345 0.755936 0.594121
O O20 0.514395 0.000000 0.631786
O O21 0.250000 0.208947 0.960918
O O22 0.345843 0.000000 0.944503
#
# Coordination Sequence:
#
# PCOD9400901 Si02
#       8
#     8   8   8   8   8   8   8   8
#     4   9  18  32  48  68  98 134 168 204 247 293
#     4   9  18  32  49  73 107 137 159 193 240 285
#     4  10  21  36  53  73  98 130 168 208 250 296
#     4   9  19  34  49  68  96 129 166 208 248 286
#     4  10  19  32  51  74 100 130 163 200 246 301
#     4   9  17  30  49  72  98 129 164 199 234 275
#     4  10  19  31  50  74  98 130 170 205 240 285
#     4  10  21  35  51  74 102 128 157 200 255 309
#
# _framework density 16.871772
#
# number of rings (size 3 to 8) (size 9 to 14) (size 15 to 20)
#    0.000    2.500    0.000    3.000    0.000    8.750 
#    0.000    0.000    0.000    0.750    0.000    3.500 
#    0.000    0.000    0.000    0.000    0.000    0.000 
#
# Total GULP energy -356854.427487 kJ/mol
# GULP energy per Si atom -5575.850429 kJ/mol
# Density = 1.683337 g / cm^3
# Si number density = 16.871772 Si / 1000 Ang^3
#
#
#
# Elastic Constant Matrix: (Units=GPa)
#
#
# Indices 1 2 3 4 5 6 
#
# 1 35.2616 21.4425 38.6581 0.0000 0.0000 0.0000
# 2 21.4425 40.1147 50.3592 0.0000 0.0000 0.0000
# 3 38.6581 50.3592 128.7963 0.0000 0.0000 0.0000
# 4 0.0000 0.0000 0.0000 29.7905 0.0000 0.0000
# 5 0.0000 0.0000 0.0000 0.0000 7.9756 0.0000
# 6 0.0000 0.0000 0.0000 0.0000 0.0000 23.8863
#
#
#
# Elastic Compliance Matrix: (Units=1/GPa)
#
#
# Indices 1 2 3 4 5 6 
#
# 1 0.046087 -0.014277 -0.008251 0.000000 0.000000 0.000000
# 2 -0.014277 0.053384 -0.016588 0.000000 0.000000 0.000000
# 3 -0.008251 -0.016588 0.016726 0.000000 0.000000 0.000000
# 4 0.000000 0.000000 0.000000 0.033568 0.000000 0.000000
# 5 0.000000 0.000000 0.000000 0.000000 0.125382 0.000000
# 6 0.000000 0.000000 0.000000 0.000000 0.000000 0.041865
#
#
# Mechanical properties :
#
#
# Convention : Reuss Voigt Hill
#
# Bulk Modulus (GPa) = 26.33925 47.23248 36.78586
# Shear Modulus (GPa) = 12.25796 18.57800 15.41798
#
# Velocity S-wave (km/s) = 2.69836 3.32193 3.02625
# Velocity P-wave (km/s) = 5.03523 6.53983 5.83622
#
# Compressibility (1/GPa) = 0.03796615
#
# Stress axis : x y z
#
# Youngs Moduli (GPa) = 21.69830 18.73215 59.78567
#
# Poissons Ratio (x) = 0.26744 0.49326
# Poissons Ratio (y) = 0.30979 0.99172
# Poissons Ratio (z) = 0.17902 0.31073
#
# Static dielectric constant tensor:
#      x y z
#    x 1.580680 0.000000 0.000000 
#    y 0.000000 1.566430 0.000000 
#    z 0.000000 0.000000 1.551130 
# 
# From -- ./inp_files/33922.got.cif
#   From: 2010.05.17/outbox.cif.g08.bks.cpg/sg51_17_cif.got.tgz:33922.got - 2010.06.03 11:52:47.
