data_PCOD9400024
_publ_section_title
;
Structure prediction by ZEFSAII (Michael W. Deem and Ramdas Pophale) SiO2 
 PCOD9400024
Probable space group: P M M A
;
_chemical_formula_sum "Si O2"
_cell_formula_units_Z 64
_cell_length_a 7.305748
_cell_length_b 21.024326
_cell_length_c 20.620713
_cell_angle_alpha 90.000000
_cell_angle_beta 90.000000
_cell_angle_gamma 90.000000
_cell_volume 3167.309093
_symmetry_space_group_name_H-M "P M M A"
_symmetry_group_IT_number 51
_symmetry_cell_setting 'orthorhombic'
loop_
_space_group_symop_operation_xyz
x,y,z
1/2-x,-y,z
1/2+x,-y,-z
-x,y,-z
-x,-y,-z
1/2+x,y,-z
1/2-x,y,z
x,-y,z
loop_
_atom_site_type_symbol
_atom_site_label
_atom_site_fract_x
_atom_site_fract_y
_atom_site_fract_z
Si Si1 0.474068 0.683504 0.666874
Si Si2 0.472461 0.249051 0.790727
Si Si3 0.532875 0.205609 0.428022
Si Si4 0.967691 0.791896 0.070988
Si Si5 0.972740 0.068237 0.103095
Si Si6 0.028630 0.893585 0.754075
Si Si7 0.031632 0.572231 0.573981
Si Si8 0.473151 0.931354 0.611141
O O1 0.250000 0.749060 0.791408
O O2 0.531298 0.696280 0.740975
O O3 0.534328 0.744675 0.624953
O O4 0.536053 0.621072 0.628317
O O5 0.250000 0.317428 0.666183
O O6 0.534554 0.245912 0.865551
O O7 0.523653 0.180389 0.760535
O O8 0.500000 0.230354 0.500000
O O9 0.750000 0.201455 0.417201
O O10 0.461999 0.133479 0.422304
O O11 0.750000 0.796570 0.079225
O O12 0.037579 0.865112 0.073018
O O13 0.000000 0.764181 0.000000
O O14 0.750000 0.068317 0.099646
O O15 0.024565 0.073041 0.179085
O O16 0.035748 0.000000 0.076789
O O17 0.250000 0.894979 0.753184
O O18 0.971495 0.924009 0.686622
O O19 0.250000 0.569085 0.581713
O O20 0.960141 0.500000 0.579272
O O21 0.000000 0.594670 0.500000
O O22 0.250000 0.931667 0.608758
O O23 0.534567 0.000000 0.585681
#
# Coordination Sequence:
#
# PCOD9400024 Si02
#       8
#     8   8   8   8   8   8   8   8
#     4   9  15  26  44  63  83 107 138 174 203 231
#     4   8  13  23  40  60  78  99 131 168 201 232
#     4  10  19  29  41  57  77 102 131 164 203 243
#     4   9  17  27  40  57  79 104 128 158 199 245
#     4   8  13  20  32  52  74  94 120 156 196 237
#     4   8  11  18  32  52  74  91 116 161 207 236
#     4   9  17  28  43  65  92 120 145 169 201 241
#     4   9  15  22  34  52  72  93 122 164 208 242
#
# _framework density 20.206427000000001
#
# number of rings (size 3 to 8) (size 9 to 14) (size 15 to 20)
#    0.000    3.250    1.250    2.250    0.000    2.000 
#    0.000    0.000    0.000    1.500    0.000    0.000 
#    0.000    2.750    0.000    0.375    0.000    0.750 
#
# Total GULP energy -356989.767129 kJ/mol
# GULP energy per Si atom -5577.965111 kJ/mol
# Density = 2.016044 g / cm^3
# Si number density = 20.206427 Si / 1000 Ang^3
#
#
#
# Elastic Constant Matrix: (Units=GPa)
#
#
# Indices 1 2 3 4 5 6 
#
# 1 82.9095 6.1908 -3.1692 0.0000 0.0000 0.0000
# 2 6.1908 94.5758 64.3920 0.0000 0.0000 0.0000
# 3 -3.1692 64.3920 146.1752 0.0000 0.0000 0.0000
# 4 0.0000 0.0000 0.0000 -10.8682 0.0000 0.0000
# 5 0.0000 0.0000 0.0000 0.0000 6.8448 0.0000
# 6 0.0000 0.0000 0.0000 0.0000 0.0000 -5.2966
#
#
#
# Elastic Compliance Matrix: (Units=1/GPa)
#
#
# Indices 1 2 3 4 5 6 
#
# 1 0.012199 -0.001398 0.000880 0.000000 0.000000 0.000000
# 2 -0.001398 0.015264 -0.006754 0.000000 0.000000 0.000000
# 3 0.000880 -0.006754 0.009835 0.000000 0.000000 0.000000
# 4 0.000000 0.000000 0.000000 -0.092012 0.000000 0.000000
# 5 0.000000 0.000000 0.000000 0.000000 0.146097 0.000000
# 6 0.000000 0.000000 0.000000 0.000000 0.000000 -0.188802
#
#
# Mechanical properties :
#
#
# Convention : Reuss Voigt Hill
#
# Bulk Modulus (GPa) = 43.94644 50.94308 47.44476
# Shear Modulus (GPa) = -66.41070 15.21912 -25.59579
#
# Velocity S-wave (km/s) = -5.73912 2.74739 -3.56296
# Velocity P-wave (km/s) = 4.70326 5.94393 2.56998
#
# Compressibility (1/GPa) = 0.02275497
#
# Stress axis : x y z
#
# Youngs Moduli (GPa) = 81.97143 65.51542 101.67292
#
# Poissons Ratio (x) = 0.09158 -0.08950
# Poissons Ratio (y) = 0.11459 0.68671
# Poissons Ratio (z) = -0.07216 0.44250
#
# Static dielectric constant tensor:
#      x y z
#    x 1.842820 0.000000 0.000000 
#    y 0.000000 1.705910 0.000000 
#    z 0.000000 0.000000 1.720240 
# 
# From -- ./inp_files/32561.got.cif
#   From: 2010.05.17/outbox.cif.g08.bks.cpg/sg51_17_cif.got.tgz:32561.got - 2010.06.03 11:52:47.
