data_PCOD9400123
_publ_section_title
;
Structure prediction by ZEFSAII (Michael W. Deem and Ramdas Pophale) SiO2 
 PCOD9400123
Probable space group: P M M A
;
_chemical_formula_sum "Si O2"
_cell_formula_units_Z 64
_cell_length_a 8.590917
_cell_length_b 20.474851
_cell_length_c 20.630212
_cell_angle_alpha 90.000000
_cell_angle_beta 90.000000
_cell_angle_gamma 90.000000
_cell_volume 3628.807781
_symmetry_space_group_name_H-M "P M M A"
_symmetry_group_IT_number 51
_symmetry_cell_setting 'orthorhombic'
loop_
_space_group_symop_operation_xyz
x,y,z
1/2-x,-y,z
1/2+x,-y,-z
-x,y,-z
-x,-y,-z
1/2+x,y,-z
1/2-x,y,z
x,-y,z
loop_
_atom_site_type_symbol
_atom_site_label
_atom_site_fract_x
_atom_site_fract_y
_atom_site_fract_z
Si Si1 0.065354 0.109803 0.431269
Si Si2 0.067113 0.605435 0.567160
Si Si3 0.434888 0.831159 0.186672
Si Si4 0.566658 0.074201 0.293716
Si Si5 0.061884 0.074420 0.071915
Si Si6 0.066470 0.740896 0.396421
Si Si7 0.436330 0.286447 0.744255
Si Si8 0.560449 0.570771 0.288849
O O1 0.250000 0.098508 0.427795
O O2 0.036842 0.187858 0.425220
O O3 0.000000 0.086638 0.500000
O O4 0.984577 0.079711 0.368313
O O5 0.250000 0.594518 0.566140
O O6 0.007721 0.577978 0.635997
O O7 0.000000 0.579577 0.500000
O O8 0.030371 0.682679 0.571498
O O9 0.250000 0.822127 0.182319
O O10 0.473628 0.875823 0.249004
O O11 0.490366 0.872543 0.124557
O O12 0.514106 0.761283 0.198245
O O13 0.750000 0.088997 0.288626
O O14 0.539217 0.000000 0.271518
O O15 0.250000 0.075235 0.070985
O O16 0.013322 0.000000 0.089345
O O17 0.000000 0.088021 0.000000
O O18 0.250000 0.726362 0.402579
O O19 0.017338 0.740201 0.321085
O O20 0.250000 0.283570 0.735344
O O21 0.483787 0.362800 0.748131
O O22 0.750000 0.570679 0.289843
O O23 0.509049 0.500000 0.263677
#
# Coordination Sequence:
#
# PCOD9400123 Si02
#       8
#     8   8   8   8   8   8   8   8
#     4  11  23  36  52  70  91 124 162 210 267 321
#     4  10  19  29  44  65  89 120 157 201 252 311
#     4  11  21  35  56  81 110 143 176 212 253 302
#     4  11  24  39  55  75  98 127 168 216 261 308
#     4   9  19  35  55  81 114 151 185 215 250 294
#     4  10  19  32  49  69  92 120 157 204 259 313
#     4  10  19  31  52  77 101 130 167 213 255 298
#     4   8  16  31  48  67  94 128 164 205 257 311
#
# _framework density 17.636645999999999
#
# number of rings (size 3 to 8) (size 9 to 14) (size 15 to 20)
#    0.000    2.000    1.250    3.750    0.000    5.500 
#    0.000    1.250    0.000   13.125    0.000    0.000 
#    0.000    0.500    0.000    1.125    0.000    1.750 
#
# Total GULP energy -357262.639029 kJ/mol
# GULP energy per Si atom -5582.228735 kJ/mol
# Density = 1.759650 g / cm^3
# Si number density = 17.636646 Si / 1000 Ang^3
#
#
#
# Elastic Constant Matrix: (Units=GPa)
#
#
# Indices 1 2 3 4 5 6 
#
# 1 13.7199 21.6864 0.7243 0.0000 0.0000 0.0000
# 2 21.6864 98.2474 48.9932 0.0000 0.0000 0.0000
# 3 0.7243 48.9932 75.5952 0.0000 0.0000 0.0000
# 4 0.0000 0.0000 0.0000 32.5922 0.0000 0.0000
# 5 0.0000 0.0000 0.0000 0.0000 23.7917 0.0000
# 6 0.0000 0.0000 0.0000 0.0000 0.0000 12.4940
#
#
#
# Elastic Compliance Matrix: (Units=1/GPa)
#
#
# Indices 1 2 3 4 5 6 
#
# 1 0.144028 -0.045956 0.028404 0.000000 0.000000 0.000000
# 2 -0.045956 0.029702 -0.018810 0.000000 0.000000 0.000000
# 3 0.028404 -0.018810 0.025147 0.000000 0.000000 0.000000
# 4 0.000000 0.000000 0.000000 0.030682 0.000000 0.000000
# 5 0.000000 0.000000 0.000000 0.000000 0.042031 0.000000
# 6 0.000000 0.000000 0.000000 0.000000 0.000000 0.080038
#
#
# Mechanical properties :
#
#
# Convention : Reuss Voigt Hill
#
# Bulk Modulus (GPa) = 7.92684 36.70781 22.31732
# Shear Modulus (GPa) = 10.72034 21.51950 16.11992
#
# Velocity S-wave (km/s) = 2.46813 3.49687 3.02653
# Velocity P-wave (km/s) = 3.55338 6.09612 4.98945
#
# Compressibility (1/GPa) = 0.12615368
#
# Stress axis : x y z
#
# Youngs Moduli (GPa) = 6.94310 33.66751 39.76659
#
# Poissons Ratio (x) = 1.54722 -1.12953
# Poissons Ratio (y) = 0.31908 0.74800
# Poissons Ratio (z) = -0.19721 0.63327
#
# Static dielectric constant tensor:
#      x y z
#    x 1.600280 0.000000 0.000000 
#    y 0.000000 1.644640 0.000000 
#    z 0.000000 0.000000 1.586210 
# 
# From -- ./inp_files/32551.got.cif
#   From: 2010.05.17/outbox.cif.g08.bks.cpg/sg51_17_cif.got.tgz:32551.got - 2010.06.03 11:52:47.
