data_PCOD9400669
_publ_section_title
;
Structure prediction by ZEFSAII (Michael W. Deem and Ramdas Pophale) SiO2 
 PCOD9400669
Probable space group: P M M A
;
_chemical_formula_sum "Si O2"
_cell_formula_units_Z 64
_cell_length_a 8.691486
_cell_length_b 20.495449
_cell_length_c 18.256957
_cell_angle_alpha 90.000000
_cell_angle_beta 90.000000
_cell_angle_gamma 90.000000
_cell_volume 3252.219613
_symmetry_space_group_name_H-M "P M M A"
_symmetry_group_IT_number 51
_symmetry_cell_setting 'orthorhombic'
loop_
_space_group_symop_operation_xyz
x,y,z
1/2-x,-y,z
1/2+x,-y,-z
-x,y,-z
-x,-y,-z
1/2+x,y,-z
1/2-x,y,z
x,-y,z
loop_
_atom_site_type_symbol
_atom_site_label
_atom_site_fract_x
_atom_site_fract_y
_atom_site_fract_z
Si Si1 0.430001 0.120276 0.424504
Si Si2 0.934545 0.290391 0.217953
Si Si3 0.079878 0.922577 0.725913
Si Si4 0.434288 0.391297 0.425643
Si Si5 0.566618 0.790875 0.076020
Si Si6 0.066580 0.747104 0.617044
Si Si7 0.565603 0.571088 0.739739
Si Si8 0.568905 0.924499 0.877350
O O1 0.500000 0.094181 0.500000
O O2 0.250000 0.106746 0.420941
O O3 0.516202 0.094608 0.353012
O O4 0.465975 0.197166 0.420025
O O5 0.750000 0.293625 0.214707
O O6 0.989061 0.249238 0.147648
O O7 0.971456 0.256171 0.295908
O O8 0.996402 0.364305 0.223521
O O9 0.250000 0.892590 0.738641
O O10 0.965472 0.908121 0.792186
O O11 0.095885 0.000000 0.727869
O O12 0.500000 0.422033 0.500000
O O13 0.250000 0.383521 0.431860
O O14 0.519376 0.322008 0.416252
O O15 0.465418 0.425534 0.347798
O O16 0.750000 0.787390 0.074584
O O17 0.518030 0.866711 0.081870
O O18 0.500000 0.764221 0.000000
O O19 0.250000 0.759121 0.608263
O O20 0.750000 0.574329 0.748093
O O21 0.511903 0.500000 0.767036
O O22 0.750000 0.921285 0.892362
O O23 0.518091 0.000000 0.891352
#
# Coordination Sequence:
#
# PCOD9400669 Si02
#       8
#     8   8   8   8   8   8   8   8
#     4  12  24  36  51  72 100 135 178 229 284 335
#     4   9  20  37  58  83 110 143 182 227 275 328
#     4  10  21  38  58  78 102 135 176 222 272 326
#     4  10  19  31  47  71 106 144 182 224 272 325
#     4  11  23  39  60  88 121 153 187 227 275 330
#     4  10  19  34  54  75 101 134 177 224 273 328
#     4   9  19  35  55  80 109 143 185 232 281 333
#     4  10  21  38  61  89 119 152 190 228 270 325
#
# _framework density 19.678867
#
# number of rings (size 3 to 8) (size 9 to 14) (size 15 to 20)
#    0.000    1.875    0.000    4.125    0.000    5.500 
#    0.000    0.000    0.000    0.375    0.000    0.000 
#    0.000    0.000    0.000    0.000    0.000    0.000 
#
# Total GULP energy -357397.476383 kJ/mol
# GULP energy per Si atom -5584.335568 kJ/mol
# Density = 1.963408 g / cm^3
# Si number density = 19.678867 Si / 1000 Ang^3
#
#
#
# Elastic Constant Matrix: (Units=GPa)
#
#
# Indices 1 2 3 4 5 6 
#
# 1 43.3477 11.5018 11.1637 0.0000 0.0000 0.0000
# 2 11.5018 56.4112 37.2805 0.0000 0.0000 0.0000
# 3 11.1637 37.2805 103.7512 0.0000 0.0000 0.0000
# 4 0.0000 0.0000 0.0000 -14.4593 0.0000 0.0000
# 5 0.0000 0.0000 0.0000 0.0000 27.0402 0.0000
# 6 0.0000 0.0000 0.0000 0.0000 0.0000 21.0952
#
#
#
# Elastic Compliance Matrix: (Units=1/GPa)
#
#
# Indices 1 2 3 4 5 6 
#
# 1 0.024484 -0.004264 -0.001103 0.000000 0.000000 0.000000
# 2 -0.004264 0.023990 -0.008161 0.000000 0.000000 0.000000
# 3 -0.001103 -0.008161 0.012690 0.000000 0.000000 0.000000
# 4 0.000000 0.000000 0.000000 -0.069160 0.000000 0.000000
# 5 0.000000 0.000000 0.000000 0.000000 0.036982 0.000000
# 6 0.000000 0.000000 0.000000 0.000000 0.000000 0.047404
#
#
# Mechanical properties :
#
#
# Convention : Reuss Voigt Hill
#
# Bulk Modulus (GPa) = 29.31773 35.93355 32.62564
# Shear Modulus (GPa) = 43.54810 16.30615 29.92712
#
# Velocity S-wave (km/s) = 4.70929 2.88169 3.90394
# Velocity P-wave (km/s) = 6.67085 5.41957 6.07750
#
# Compressibility (1/GPa) = 0.03410906
#
# Stress axis : x y z
#
# Youngs Moduli (GPa) = 40.84222 41.68413 78.80408
#
# Poissons Ratio (x) = 0.17772 0.08688
# Poissons Ratio (y) = 0.17413 0.64316
# Poissons Ratio (z) = 0.04503 0.34020
#
# Static dielectric constant tensor:
#      x y z
#    x 1.667180 0.000000 0.000000 
#    y 0.000000 1.719880 0.000000 
#    z 0.000000 0.000000 1.726790 
# 
# From -- ./inp_files/28498.got.cif
#   From: 2010.05.17/outbox.cif.g08.bks.cpg/sg51_15_cif.got.tgz:28498.got - 2010.06.03 11:52:47.
