data_PCOD9400298
_publ_section_title
;
Structure prediction by ZEFSAII (Michael W. Deem and Ramdas Pophale) SiO2 
 PCOD9400298
Probable space group: P M M A
;
_chemical_formula_sum "Si O2"
_cell_formula_units_Z 64
_cell_length_a 26.648361
_cell_length_b 9.739828
_cell_length_c 14.421380
_cell_angle_alpha 90.000000
_cell_angle_beta 90.000000
_cell_angle_gamma 90.000000
_cell_volume 3743.075706
_symmetry_space_group_name_H-M "P M M A"
_symmetry_group_IT_number 51
_symmetry_cell_setting 'orthorhombic'
loop_
_space_group_symop_operation_xyz
x,y,z
1/2-x,-y,z
1/2+x,-y,-z
-x,y,-z
-x,-y,-z
1/2+x,y,-z
1/2-x,y,z
x,-y,z
loop_
_atom_site_type_symbol
_atom_site_label
_atom_site_fract_x
_atom_site_fract_y
_atom_site_fract_z
Si Si1 0.428320 0.848056 0.662810
Si Si2 0.357141 0.841830 0.212564
Si Si3 0.584398 0.162474 0.124686
Si Si4 0.616703 0.659775 0.961708
Si Si5 0.492161 0.647562 0.128903
Si Si6 0.597144 0.339243 0.508702
Si Si7 0.691977 0.340860 0.631657
Si Si8 0.959428 0.232788 0.688859
O O1 0.406398 0.819708 0.765301
O O2 0.413079 0.740663 0.585326
O O3 0.488911 0.846918 0.672459
O O4 0.412273 0.000000 0.633610
O O5 0.358041 0.749387 0.119881
O O6 0.322592 0.763776 0.287050
O O7 0.413087 0.840587 0.258835
O O8 0.343082 0.000000 0.195665
O O9 0.528387 0.224498 0.112433
O O10 0.586518 0.000000 0.102947
O O11 0.618382 0.255066 0.057359
O O12 0.633294 0.500000 0.966839
O O13 0.558103 0.656133 0.930724
O O14 0.517590 0.500000 0.111516
O O15 0.475255 0.652938 0.236095
O O16 0.588810 0.500000 0.494909
O O17 0.653401 0.317580 0.547664
O O18 0.561219 0.287811 0.591770
O O19 0.750000 0.326848 0.605811
O O20 0.683446 0.500000 0.662720
#
# Coordination Sequence:
#
# PCOD9400298 Si02
#       8
#     8   8   8   8   8   8   8   8
#     4  10  21  33  44  63  95 134 171 206 245 286
#     4  10  19  31  50  76 102 127 159 197 237 287
#     4  10  20  31  42  59  87 125 167 207 244 280
#     4  10  19  30  45  65  91 124 160 197 239 284
#     4   9  17  28  42  61  87 121 162 204 242 283
#     4  10  20  32  49  72  94 123 164 204 244 289
#     4   9  19  37  57  76 101 128 153 189 239 293
#     4   9  18  30  46  66  96 133 168 200 239 287
#
# _framework density 17.098239
#
# number of rings (size 3 to 8) (size 9 to 14) (size 15 to 20)
#    0.000    2.375    0.000    2.625    0.000   14.750 
#    0.000    0.000    0.000    0.000    0.000    0.875 
#    0.000    3.000    0.000    0.000    0.000    0.000 
#
# Total GULP energy -356664.608830 kJ/mol
# GULP energy per Si atom -5572.884513 kJ/mol
# Density = 1.705932 g / cm^3
# Si number density = 17.098239 Si / 1000 Ang^3
#
#
#
# Elastic Constant Matrix: (Units=GPa)
#
#
# Indices 1 2 3 4 5 6 
#
# 1 29.4666 20.0130 15.4582 0.0000 0.0000 0.0000
# 2 20.0130 127.4589 68.9610 0.0000 0.0000 0.0000
# 3 15.4582 68.9610 100.4670 0.0000 0.0000 0.0000
# 4 0.0000 0.0000 0.0000 21.9862 0.0000 0.0000
# 5 0.0000 0.0000 0.0000 0.0000 7.4852 0.0000
# 6 0.0000 0.0000 0.0000 0.0000 0.0000 7.8178
#
#
#
# Elastic Compliance Matrix: (Units=1/GPa)
#
#
# Indices 1 2 3 4 5 6 
#
# 1 0.038484 -0.004516 -0.002821 0.000000 0.000000 0.000000
# 2 -0.004516 0.013011 -0.008236 0.000000 0.000000 0.000000
# 3 -0.002821 -0.008236 0.016041 0.000000 0.000000 0.000000
# 4 0.000000 0.000000 0.000000 0.045483 0.000000 0.000000
# 5 0.000000 0.000000 0.000000 0.000000 0.133597 0.000000
# 6 0.000000 0.000000 0.000000 0.000000 0.000000 0.127913
#
#
# Mechanical properties :
#
#
# Convention : Reuss Voigt Hill
#
# Bulk Modulus (GPa) = 27.48086 51.80631 39.64359
# Shear Modulus (GPa) = 11.96731 17.65519 14.81125
#
# Velocity S-wave (km/s) = 2.64846 3.21685 2.94640
# Velocity P-wave (km/s) = 5.04576 6.64549 5.90009
#
# Compressibility (1/GPa) = 0.03638896
#
# Stress axis : x y z
#
# Youngs Moduli (GPa) = 25.98477 76.86012 62.34151
#
# Poissons Ratio (x) = 0.34710 0.17589
# Poissons Ratio (y) = 0.11735 0.51343
# Poissons Ratio (z) = 0.07332 0.63300
#
# Static dielectric constant tensor:
#      x y z
#    x 1.561750 0.000000 0.000000 
#    y 0.000000 1.589210 0.000000 
#    z 0.000000 0.000000 1.595310 
# 
# From -- ./inp_files/26663.got.cif
#   From: 2010.05.17/outbox.cif.g08.bks.cpg/sg51_14_cif.got.tgz:26663.got - 2010.06.03 11:52:47.
