data_PCOD9400993
_publ_section_title
;
Structure prediction by ZEFSAII (Michael W. Deem and Ramdas Pophale) SiO2 
 PCOD9400993
Probable space group: P M M A
;
_chemical_formula_sum "Si O2"
_cell_formula_units_Z 56
_cell_length_a 14.106062
_cell_length_b 14.235796
_cell_length_c 15.422516
_cell_angle_alpha 90.000000
_cell_angle_beta 90.000000
_cell_angle_gamma 90.000000
_cell_volume 3097.011184
_symmetry_space_group_name_H-M "P M M A"
_symmetry_group_IT_number 51
_symmetry_cell_setting 'orthorhombic'
loop_
_space_group_symop_operation_xyz
x,y,z
1/2-x,-y,z
1/2+x,-y,-z
-x,y,-z
-x,-y,-z
1/2+x,y,-z
1/2-x,y,z
x,-y,z
loop_
_atom_site_type_symbol
_atom_site_label
_atom_site_fract_x
_atom_site_fract_y
_atom_site_fract_z
Si Si1 0.134950 0.393569 0.445713
Si Si2 0.527956 0.894841 0.399170
Si Si3 0.388365 0.392317 0.981892
Si Si4 0.363070 0.293601 0.623956
Si Si5 0.647134 0.661460 0.834216
Si Si6 0.858874 0.216806 0.676837
Si Si7 0.436002 0.392673 0.793866
O O1 0.250000 0.398376 0.446637
O O2 0.100292 0.500000 0.428032
O O3 0.105297 0.354774 0.540210
O O4 0.113241 0.312577 0.375510
O O5 0.500000 0.895433 0.500000
O O6 0.605519 0.813799 0.387988
O O7 0.434308 0.861333 0.347904
O O8 0.557499 0.000000 0.374104
O O9 0.353241 0.500000 0.989294
O O10 0.382660 0.360710 0.882289
O O11 0.500000 0.397119 0.000000
O O12 0.350604 0.332008 0.061784
O O13 0.250000 0.301464 0.629276
O O14 0.408873 0.332038 0.711615
O O15 0.750000 0.618969 0.807356
O O16 0.639681 0.756040 0.778051
O O17 0.549467 0.608970 0.811315
O O18 0.750000 0.193814 0.652186
O O19 0.407471 0.500000 0.778325
#
# Coordination Sequence:
#
# PCOD9400993 Si02
#       7
#     8   8   8   8   8   8   8
#     4   9  18  32  50  74 109 148 182 214 252 310
#     4  11  23  40  61  83 106 137 181 233 293 342
#     4   8  16  30  46  71 108 148 189 228 262 306
#     4  11  22  38  56  78 109 144 188 231 273 327
#     4  10  19  31  51  77 111 149 187 228 272 320
#     4  10  20  36  55  81 112 143 181 221 269 331
#     4  10  20  34  53  79 114 155 194 227 267 321
#
# _framework density 18.081949999999999
#
# number of rings (size 3 to 8) (size 9 to 14) (size 15 to 20)
#    0.000    2.143    2.857    1.714    0.000    4.286 
#    0.000    6.429    0.000    0.000    0.000    2.000 
#    0.000    2.286    0.000    0.000    0.000    0.000 
#
# Total GULP energy -312247.351593 kJ/mol
# GULP energy per Si atom -5575.845564 kJ/mol
# Density = 1.804079 g / cm^3
# Si number density = 18.081950 Si / 1000 Ang^3
#
#
#
# Elastic Constant Matrix: (Units=GPa)
#
#
# Indices 1 2 3 4 5 6 
#
# 1 72.9698 8.9966 20.7018 0.0000 0.0000 0.0000
# 2 8.9966 71.5800 29.3920 0.0000 0.0000 0.0000
# 3 20.7018 29.3920 112.1740 0.0000 0.0000 0.0000
# 4 0.0000 0.0000 0.0000 -2.9023 0.0000 0.0000
# 5 0.0000 0.0000 0.0000 0.0000 19.6597 0.0000
# 6 0.0000 0.0000 0.0000 0.0000 0.0000 19.8309
#
#
#
# Elastic Compliance Matrix: (Units=1/GPa)
#
#
# Indices 1 2 3 4 5 6 
#
# 1 0.014503 -0.000811 -0.002464 0.000000 0.000000 0.000000
# 2 -0.000811 0.015700 -0.003964 0.000000 0.000000 0.000000
# 3 -0.002464 -0.003964 0.010408 0.000000 0.000000 0.000000
# 4 0.000000 0.000000 0.000000 -0.344560 0.000000 0.000000
# 5 0.000000 0.000000 0.000000 0.000000 0.050865 0.000000
# 6 0.000000 0.000000 0.000000 0.000000 0.000000 0.050426
#
#
# Mechanical properties :
#
#
# Convention : Reuss Voigt Hill
#
# Bulk Modulus (GPa) = 38.26566 41.65607 39.96086
# Shear Modulus (GPa) = -27.86032 20.49323 -3.68354
#
# Velocity S-wave (km/s) = -3.92954 3.37018 -1.42883
# Velocity P-wave (km/s) = 0.78737 6.18317 4.40747
#
# Compressibility (1/GPa) = 0.02613309
#
# Stress axis : x y z
#
# Youngs Moduli (GPa) = 68.94949 63.69412 96.07868
#
# Poissons Ratio (x) = 0.05166 0.23675
# Poissons Ratio (y) = 0.05592 0.38086
# Poissons Ratio (z) = 0.16990 0.25249
#
# Static dielectric constant tensor:
#      x y z
#    x 1.688800 0.000000 0.000000 
#    y 0.000000 1.585080 0.000000 
#    z 0.000000 0.000000 1.649810 
# 
# From -- ./inp_files/24181.got.cif
#   From: 2010.05.17/outbox.cif.g08.bks.cpg/sg51_13_cif.got.tgz:24181.got - 2010.06.03 11:52:47.
