data_PCOD9400120
_publ_section_title
;
Structure prediction by ZEFSAII (Michael W. Deem and Ramdas Pophale) SiO2 
 PCOD9400120
Probable space group: P M M A
;
_chemical_formula_sum "Si O2"
_cell_formula_units_Z 52
_cell_length_a 9.058756
_cell_length_b 18.442929
_cell_length_c 18.794596
_cell_angle_alpha 90.000000
_cell_angle_beta 90.000000
_cell_angle_gamma 90.000000
_cell_volume 3140.013036
_symmetry_space_group_name_H-M "P M M A"
_symmetry_group_IT_number 51
_symmetry_cell_setting 'orthorhombic'
loop_
_space_group_symop_operation_xyz
x,y,z
1/2-x,-y,z
1/2+x,-y,-z
-x,y,-z
-x,-y,-z
1/2+x,y,-z
1/2-x,y,z
x,-y,z
loop_
_atom_site_type_symbol
_atom_site_label
_atom_site_fract_x
_atom_site_fract_y
_atom_site_fract_z
Si Si1 0.080989 0.857737 0.706491
Si Si2 0.926204 0.500000 0.422594
Si Si3 0.924565 0.363373 0.650644
Si Si4 0.424896 0.207872 0.423756
Si Si5 0.929937 0.079430 0.147834
Si Si6 0.071603 0.771062 0.924843
Si Si7 0.080916 0.699016 0.781011
O O1 0.250000 0.877594 0.688861
O O2 0.024033 0.908895 0.769866
O O3 0.084696 0.778775 0.744633
O O4 0.987931 0.847126 0.635422
O O5 0.750000 0.500000 0.428388
O O6 0.000000 0.500000 0.500000
O O7 0.983379 0.428851 0.382008
O O8 0.750000 0.378214 0.646961
O O9 0.954090 0.289342 0.606249
O O10 0.976237 0.348228 0.731307
O O11 0.500000 0.198997 0.500000
O O12 0.250000 0.199664 0.430055
O O13 0.750000 0.081679 0.148936
O O14 0.977112 0.148400 0.101281
O O15 0.976155 0.000000 0.122006
O O16 0.250000 0.771714 0.929731
O O17 0.033317 0.714896 0.861733
O O18 0.000000 0.753952 0.000000
O O19 0.250000 0.671555 0.779919
#
# Coordination Sequence:
#
# PCOD9400120 Si02
#       7
#     8   4   8   8   8   8   8
#     4   8  14  26  44  62  81 109 147 189 228 269
#     4  12  24  36  50  70 101 136 163 190 224 264
#     4  10  20  33  49  70  94 122 156 191 227 270
#     4  10  19  29  44  65  88 113 143 184 230 271
#     4   8  14  26  44  64  87 119 155 186 223 276
#     4   9  17  28  44  68  97 125 154 191 232 274
#     4   8  15  29  46  64  88 120 156 191 229 272
#
# _framework density 16.560441000000001
#
# number of rings (size 3 to 8) (size 9 to 14) (size 15 to 20)
#    0.000    2.923    0.000    3.923    0.000    4.000 
#    0.000    2.308    0.000    1.846    0.000    0.538 
#    0.000    0.000    0.000    0.000    0.000    0.000 
#
# Total GULP energy -289670.238817 kJ/mol
# GULP energy per Si atom -5570.581516 kJ/mol
# Density = 1.652275 g / cm^3
# Si number density = 16.560441 Si / 1000 Ang^3
#
#
#
# Elastic Constant Matrix: (Units=GPa)
#
#
# Indices 1 2 3 4 5 6 
#
# 1 36.8167 14.1784 36.5579 0.0000 0.0000 0.0000
# 2 14.1784 27.6789 16.9652 0.0000 0.0000 0.0000
# 3 36.5579 16.9652 132.2710 0.0000 0.0000 0.0000
# 4 0.0000 0.0000 0.0000 16.0793 0.0000 0.0000
# 5 0.0000 0.0000 0.0000 0.0000 29.6719 0.0000
# 6 0.0000 0.0000 0.0000 0.0000 0.0000 10.4372
#
#
#
# Elastic Compliance Matrix: (Units=1/GPa)
#
#
# Indices 1 2 3 4 5 6 
#
# 1 0.043137 -0.016051 -0.009864 0.000000 0.000000 0.000000
# 2 -0.016051 0.045184 -0.001359 0.000000 0.000000 0.000000
# 3 -0.009864 -0.001359 0.010461 0.000000 0.000000 0.000000
# 4 0.000000 0.000000 0.000000 0.062192 0.000000 0.000000
# 5 0.000000 0.000000 0.000000 0.000000 0.033702 0.000000
# 6 0.000000 0.000000 0.000000 0.000000 0.000000 0.095811
#
#
# Mechanical properties :
#
#
# Convention : Reuss Voigt Hill
#
# Bulk Modulus (GPa) = 22.60706 36.90774 29.75740
# Shear Modulus (GPa) = 13.89741 19.84203 16.86972
#
# Velocity S-wave (km/s) = 2.90003 3.46520 3.19513
# Velocity P-wave (km/s) = 4.98943 6.19235 5.62315
#
# Compressibility (1/GPa) = 0.04423397
#
# Stress axis : x y z
#
# Youngs Moduli (GPa) = 23.18172 22.13191 95.59519
#
# Poissons Ratio (x) = 0.35524 0.94294
# Poissons Ratio (y) = 0.37209 0.12991
# Poissons Ratio (z) = 0.22866 0.03008
#
# Static dielectric constant tensor:
#      x y z
#    x 1.554060 0.000000 0.000000 
#    y 0.000000 1.563460 0.000000 
#    z 0.000000 0.000000 1.557960 
# 
# From -- ./inp_files/27952.got.cif
#   From: 2010.05.17/outbox.cif.g08.bks.cpg/sg51_14_cif.got.tgz:27952.got - 2010.06.03 11:52:47.
