data_PCOD9400088
_publ_section_title
;
Structure prediction by ZEFSAII (Michael W. Deem and Ramdas Pophale) SiO2 
 PCOD9400088
Probable space group: P M M A
;
_chemical_formula_sum "Si O2"
_cell_formula_units_Z 64
_cell_length_a 9.140722
_cell_length_b 20.282797
_cell_length_c 20.568594
_cell_angle_alpha 90.000000
_cell_angle_beta 90.000000
_cell_angle_gamma 90.000000
_cell_volume 3813.405167
_symmetry_space_group_name_H-M "P M M A"
_symmetry_group_IT_number 51
_symmetry_cell_setting 'orthorhombic'
loop_
_space_group_symop_operation_xyz
x,y,z
1/2-x,-y,z
1/2+x,-y,-z
-x,y,-z
-x,-y,-z
1/2+x,y,-z
1/2-x,y,z
x,-y,z
loop_
_atom_site_type_symbol
_atom_site_label
_atom_site_fract_x
_atom_site_fract_y
_atom_site_fract_z
Si Si1 0.078013 0.109270 0.433512
Si Si2 0.077152 0.608801 0.564281
Si Si3 0.427003 0.836754 0.192035
Si Si4 0.578981 0.075371 0.300987
Si Si5 0.074351 0.075913 0.069053
Si Si6 0.082730 0.737330 0.400706
Si Si7 0.578860 0.297012 0.750088
Si Si8 0.573922 0.572687 0.289883
O O1 0.250000 0.092894 0.434055
O O2 0.064825 0.188729 0.425592
O O3 0.000000 0.088935 0.500000
O O4 0.998561 0.080257 0.370681
O O5 0.250000 0.600924 0.558301
O O6 0.030203 0.579087 0.633831
O O7 0.000000 0.581876 0.500000
O O8 0.031551 0.685610 0.570630
O O9 0.250000 0.839940 0.198757
O O10 0.499063 0.877254 0.250491
O O11 0.468159 0.872645 0.125030
O O12 0.469259 0.760104 0.200337
O O13 0.750000 0.092954 0.307343
O O14 0.568733 0.000000 0.277613
O O15 0.250000 0.078908 0.061873
O O16 0.037128 0.000000 0.087736
O O17 0.000000 0.089609 0.000000
O O18 0.250000 0.715434 0.415612
O O19 0.066256 0.734334 0.322499
O O20 0.750000 0.310950 0.760821
O O21 0.492628 0.365406 0.747819
O O22 0.750000 0.577274 0.288264
O O23 0.530340 0.500000 0.266264
#
# Coordination Sequence:
#
# PCOD9400088 Si02
#       8
#     8   8   8   8   8   8   8   8
#     4  11  22  36  52  69  90 121 160 208 264 319
#     4  10  19  29  43  63  86 116 152 193 242 298
#     4  10  19  35  57  80 105 137 174 213 254 298
#     4  11  24  38  52  73  98 126 165 212 260 310
#     4   9  18  32  52  79 113 151 183 209 244 291
#     4   9  17  31  48  67  89 114 149 196 248 301
#     4   9  17  31  51  75  98 121 160 207 248 294
#     4   9  19  34  48  65  93 127 160 197 248 307
#
# _framework density 16.782900000000001
#
# number of rings (size 3 to 8) (size 9 to 14) (size 15 to 20)
#    0.000    2.250    1.250    1.875    0.000    5.750 
#    0.000    1.250    0.000    0.000    0.000    0.000 
#    0.000    0.500    0.000    1.125    0.000    2.000 
#
# Total GULP energy -357145.798183 kJ/mol
# GULP energy per Si atom -5580.403097 kJ/mol
# Density = 1.674470 g / cm^3
# Si number density = 16.782900 Si / 1000 Ang^3
#
#
#
# Elastic Constant Matrix: (Units=GPa)
#
#
# Indices 1 2 3 4 5 6 
#
# 1 40.0332 41.4130 29.5938 0.0000 0.0000 0.0000
# 2 41.4130 112.4230 57.6186 0.0000 0.0000 0.0000
# 3 29.5938 57.6186 81.4900 0.0000 0.0000 0.0000
# 4 0.0000 0.0000 0.0000 73.7909 0.0000 0.0000
# 5 0.0000 0.0000 0.0000 0.0000 23.2170 0.0000
# 6 0.0000 0.0000 0.0000 0.0000 0.0000 -65.8106
#
#
#
# Elastic Compliance Matrix: (Units=1/GPa)
#
#
# Indices 1 2 3 4 5 6 
#
# 1 0.042680 -0.012199 -0.006874 0.000000 0.000000 0.000000
# 2 -0.012199 0.017437 -0.007899 0.000000 0.000000 0.000000
# 3 -0.006874 -0.007899 0.020353 0.000000 0.000000 0.000000
# 4 0.000000 0.000000 0.000000 0.013552 0.000000 0.000000
# 5 0.000000 0.000000 0.000000 0.000000 0.043072 0.000000
# 6 0.000000 0.000000 0.000000 0.000000 0.000000 -0.015195
#
#
# Mechanical properties :
#
#
# Convention : Reuss Voigt Hill
#
# Bulk Modulus (GPa) = 37.69888 54.57743 46.13816
# Shear Modulus (GPa) = 27.07315 13.26087 20.16701
#
# Velocity S-wave (km/s) = 4.02075 2.81399 3.47023
# Velocity P-wave (km/s) = 6.63827 6.56874 6.60360
#
# Compressibility (1/GPa) = 0.02652599
#
# Stress axis : x y z
#
# Youngs Moduli (GPa) = 23.43004 57.34948 49.13293
#
# Poissons Ratio (x) = 0.69960 0.33776
# Poissons Ratio (y) = 0.28582 0.38810
# Poissons Ratio (z) = 0.16107 0.45300
#
# Static dielectric constant tensor:
#      x y z
#    x 1.564640 0.000000 0.000000 
#    y 0.000000 1.590160 0.000000 
#    z 0.000000 0.000000 1.548380 
# 
# From -- ./inp_files/32552.got.cif
#   From: 2010.05.17/outbox.cif.g08.bks.cpg/sg51_17_cif.got.tgz:32552.got - 2010.06.03 11:52:47.
