data_PCOD9400126
_publ_section_title
;
Structure prediction by ZEFSAII (Michael W. Deem and Ramdas Pophale) SiO2 
 PCOD9400126
Probable space group: P M M A
;
_chemical_formula_sum "Si O2"
_cell_formula_units_Z 64
_cell_length_a 15.272649
_cell_length_b 18.236177
_cell_length_c 14.340654
_cell_angle_alpha 90.000000
_cell_angle_beta 90.000000
_cell_angle_gamma 90.000000
_cell_volume 3994.083383
_symmetry_space_group_name_H-M "P M M A"
_symmetry_group_IT_number 51
_symmetry_cell_setting 'orthorhombic'
loop_
_space_group_symop_operation_xyz
x,y,z
1/2-x,-y,z
1/2+x,-y,-z
-x,y,-z
-x,-y,-z
1/2+x,y,-z
1/2-x,y,z
x,-y,z
loop_
_atom_site_type_symbol
_atom_site_label
_atom_site_fract_x
_atom_site_fract_y
_atom_site_fract_z
Si Si1 0.893947 0.915569 0.393655
Si Si2 0.848571 0.184794 0.224142
Si Si3 0.019482 0.912876 0.890303
Si Si4 0.401694 0.872069 0.401902
Si Si5 0.353875 0.674401 0.654912
Si Si6 0.353684 0.708411 0.434675
Si Si7 0.982650 0.417898 0.611215
Si Si8 0.657985 0.913668 0.795453
O O1 0.850380 0.865898 0.316290
O O2 0.865575 0.898281 0.498808
O O3 0.998236 0.898796 0.392180
O O4 0.879448 0.000000 0.372409
O O5 0.750000 0.191884 0.188556
O O6 0.906852 0.141577 0.148971
O O7 0.875050 0.263699 0.267704
O O8 0.930840 0.886327 0.840152
O O9 0.037209 0.000000 0.867266
O O10 0.000000 0.909585 0.000000
O O11 0.396232 0.784403 0.402293
O O12 0.349929 0.903197 0.314752
O O13 0.250000 0.654143 0.664536
O O14 0.363178 0.704160 0.547871
O O15 0.427687 0.611437 0.658046
O O16 0.250000 0.707602 0.414798
O O17 0.405040 0.641856 0.385346
O O18 0.959952 0.500000 0.643412
O O19 0.000000 0.422165 0.500000
O O20 0.750000 0.881143 0.828830
O O21 0.659027 0.000000 0.816964
#
# Coordination Sequence:
#
# PCOD9400126 Si02
#       8
#     8   8   8   8   8   8   8   8
#     4  11  21  30  45  69  98 133 168 207 252 295
#     4  11  21  34  53  75  98 128 165 207 257 312
#     4  10  22  39  54  69  93 125 166 218 267 305
#     4  11  19  30  46  67  97 134 168 199 242 293
#     4   9  18  32  48  70  97 127 161 200 246 290
#     4  10  19  29  44  65  95 135 171 202 238 278
#     4   9  18  30  46  68  95 133 172 201 232 278
#     4  10  20  33  49  68  91 123 163 204 246 292
#
# _framework density 16.023700999999999
#
# number of rings (size 3 to 8) (size 9 to 14) (size 15 to 20)
#    0.000    1.875    2.500    3.000    3.500    2.500 
#    0.000    3.750    0.000    0.000    0.000    0.000 
#    0.000    0.500    0.000    0.000    0.500    0.000 
#
# Total GULP energy -356741.165779 kJ/mol
# GULP energy per Si atom -5574.080715 kJ/mol
# Density = 1.598723 g / cm^3
# Si number density = 16.023701 Si / 1000 Ang^3
#
#
#
# Elastic Constant Matrix: (Units=GPa)
#
#
# Indices 1 2 3 4 5 6 
#
# 1 54.3851 13.9152 19.8459 0.0000 0.0000 0.0000
# 2 13.9152 59.7169 1.2433 0.0000 0.0000 0.0000
# 3 19.8459 1.2433 42.6326 0.0000 0.0000 0.0000
# 4 0.0000 0.0000 0.0000 15.0795 0.0000 0.0000
# 5 0.0000 0.0000 0.0000 0.0000 -9.7338 0.0000
# 6 0.0000 0.0000 0.0000 0.0000 0.0000 0.0414
#
#
#
# Elastic Compliance Matrix: (Units=1/GPa)
#
#
# Indices 1 2 3 4 5 6 
#
# 1 0.023716 -0.005300 -0.010885 0.000000 0.000000 0.000000
# 2 -0.005300 0.017940 0.001944 0.000000 0.000000 0.000000
# 3 -0.010885 0.001944 0.028467 0.000000 0.000000 0.000000
# 4 0.000000 0.000000 0.000000 0.066315 0.000000 0.000000
# 5 0.000000 0.000000 0.000000 0.000000 -0.102734 0.000000
# 6 0.000000 0.000000 0.000000 0.000000 0.000000 24.146060
#
#
# Mechanical properties :
#
#
# Convention : Reuss Voigt Hill
#
# Bulk Modulus (GPa) = 24.01515 25.19370 24.60443
# Shear Modulus (GPa) = 0.20642 9.19277 4.69960
#
# Velocity S-wave (km/s) = 0.35931 2.39780 1.71443
# Velocity P-wave (km/s) = 3.89768 4.83971 4.39402
#
# Compressibility (1/GPa) = 0.04164038
#
# Stress axis : x y z
#
# Youngs Moduli (GPa) = 42.16637 55.74100 35.12866
#
# Poissons Ratio (x) = 0.29540 0.38239
# Poissons Ratio (y) = 0.22346 -0.06828
# Poissons Ratio (z) = 0.45899 -0.10835
#
# Static dielectric constant tensor:
#      x y z
#    x 1.489880 0.000000 0.000000 
#    y 0.000000 1.535320 0.000000 
#    z 0.000000 0.000000 1.532310 
# 
# From -- ./inp_files/24450.got.cif
#   From: 2010.05.17/outbox.cif.g08.bks.cpg/sg51_13_cif.got.tgz:24450.got - 2010.06.03 11:52:47.
