data_PCOD9400955
_publ_section_title
;
Structure prediction by ZEFSAII (Michael W. Deem and Ramdas Pophale) SiO2 
 PCOD9400955
Probable space group: P M M A
;
_chemical_formula_sum "Si O2"
_cell_formula_units_Z 56
_cell_length_a 16.504714
_cell_length_b 14.059010
_cell_length_c 13.047852
_cell_angle_alpha 90.000000
_cell_angle_beta 90.000000
_cell_angle_gamma 90.000000
_cell_volume 3027.622784
_symmetry_space_group_name_H-M "P M M A"
_symmetry_group_IT_number 51
_symmetry_cell_setting 'orthorhombic'
loop_
_space_group_symop_operation_xyz
x,y,z
1/2-x,-y,z
1/2+x,-y,-z
-x,y,-z
-x,-y,-z
1/2+x,y,-z
1/2-x,y,z
x,-y,z
loop_
_atom_site_type_symbol
_atom_site_label
_atom_site_fract_x
_atom_site_fract_y
_atom_site_fract_z
Si Si1 0.848168 0.796363 0.050946
Si Si2 0.151871 0.107426 0.161057
Si Si3 0.053726 0.753139 0.596707
Si Si4 0.156138 0.391307 0.468160
Si Si5 0.348057 0.609517 0.061732
Si Si6 0.406232 0.705417 0.267193
Si Si7 0.347605 0.888242 0.735862
O O1 0.750000 0.800455 0.053527
O O2 0.876096 0.838502 0.158383
O O3 0.873548 0.859744 0.953314
O O4 0.870150 0.687424 0.024582
O O5 0.250000 0.109145 0.162930
O O6 0.121148 0.187991 0.237902
O O7 0.125010 0.000000 0.183063
O O8 0.105982 0.667414 0.550706
O O9 0.109503 0.834998 0.642800
O O10 0.000000 0.787529 0.500000
O O11 0.995466 0.713633 0.685695
O O12 0.250000 0.391302 0.496649
O O13 0.127474 0.500000 0.459674
O O14 0.145714 0.340220 0.358710
O O15 0.250000 0.617736 0.078594
O O16 0.365696 0.500000 0.036647
O O17 0.392010 0.642955 0.165691
O O18 0.250000 0.878053 0.728587
O O19 0.366011 0.000000 0.739054
#
# Coordination Sequence:
#
# PCOD9400955 Si02
#       7
#     8   8   8   8   8   8   8
#     4   8  15  29  51  79 107 134 172 217 255 299
#     4   9  16  28  48  75 107 140 174 214 258 302
#     4  10  23  38  53  75 106 138 169 214 266 312
#     4  10  20  36  58  79  99 129 173 220 260 302
#     4   9  16  28  50  80 112 144 176 213 256 302
#     4  10  19  31  50  77 109 141 172 208 254 313
#     4  10  20  37  61  81  99 132 176 217 257 305
#
# _framework density 18.496359000000002
#
# number of rings (size 3 to 8) (size 9 to 14) (size 15 to 20)
#    0.000    2.571    0.000    3.429    0.000    6.857 
#    0.000    5.714    0.000   15.429    0.000    0.000 
#    0.000    0.000    0.000    0.000    0.000    0.000 
#
# Total GULP energy -312376.645983 kJ/mol
# GULP energy per Si atom -5578.154393 kJ/mol
# Density = 1.845426 g / cm^3
# Si number density = 18.496359 Si / 1000 Ang^3
#
#
#
# Elastic Constant Matrix: (Units=GPa)
#
#
# Indices 1 2 3 4 5 6 
#
# 1 33.4935 46.0950 40.3662 0.0000 0.0000 0.0000
# 2 46.0950 186.6143 91.3937 0.0000 0.0000 0.0000
# 3 40.3662 91.3937 101.0336 0.0000 0.0000 0.0000
# 4 0.0000 0.0000 0.0000 20.5017 0.0000 0.0000
# 5 0.0000 0.0000 0.0000 0.0000 7.7538 0.0000
# 6 0.0000 0.0000 0.0000 0.0000 0.0000 -6.4557
#
#
#
# Elastic Compliance Matrix: (Units=1/GPa)
#
#
# Indices 1 2 3 4 5 6 
#
# 1 0.060669 -0.005592 -0.019181 0.000000 0.000000 0.000000
# 2 -0.005592 0.010136 -0.006935 0.000000 0.000000 0.000000
# 3 -0.019181 -0.006935 0.023834 0.000000 0.000000 0.000000
# 4 0.000000 0.000000 0.000000 0.048776 0.000000 0.000000
# 5 0.000000 0.000000 0.000000 0.000000 0.128970 0.000000
# 6 0.000000 0.000000 0.000000 0.000000 0.000000 -0.154903
#
#
# Mechanical properties :
#
#
# Convention : Reuss Voigt Hill
#
# Bulk Modulus (GPa) = 32.02648 75.20569 53.61608
# Shear Modulus (GPa) = 26.13605 13.91240 20.02422
#
# Velocity S-wave (km/s) = 3.76312 2.74555 3.29386
# Velocity P-wave (km/s) = 6.01947 7.12732 6.59669
#
# Compressibility (1/GPa) = 0.03122416
#
# Stress axis : x y z
#
# Youngs Moduli (GPa) = 16.48285 98.65562 41.95621
#
# Poissons Ratio (x) = 0.55167 0.80476
# Poissons Ratio (y) = 0.09217 0.29097
# Poissons Ratio (z) = 0.31616 0.68417
#
# Static dielectric constant tensor:
#      x y z
#    x 1.655980 0.000000 0.000000 
#    y 0.000000 1.624410 0.000000 
#    z 0.000000 0.000000 1.617250 
# 
# From -- ./inp_files/16668.got.cif
#   From: 2010.05.17/outbox.cif.g08.bks.cpg/sg51_9_cif.got.tgz:16668.got - 2010.06.03 11:52:47.
