data_PCOD9400419
_publ_section_title
;
Structure prediction by ZEFSAII (Michael W. Deem and Ramdas Pophale) SiO2 
 PCOD9400419
Probable space group: P M M A
;
_chemical_formula_sum "Si O2"
_cell_formula_units_Z 64
_cell_length_a 28.475058
_cell_length_b 7.551138
_cell_length_c 15.377853
_cell_angle_alpha 90.000000
_cell_angle_beta 90.000000
_cell_angle_gamma 90.000000
_cell_volume 3306.531997
_symmetry_space_group_name_H-M "P M M A"
_symmetry_group_IT_number 51
_symmetry_cell_setting 'orthorhombic'
loop_
_space_group_symop_operation_xyz
x,y,z
1/2-x,-y,z
1/2+x,-y,-z
-x,y,-z
-x,-y,-z
1/2+x,y,-z
1/2-x,y,z
x,-y,z
loop_
_atom_site_type_symbol
_atom_site_label
_atom_site_fract_x
_atom_site_fract_y
_atom_site_fract_z
Si Si1 0.885445 0.217223 0.527018
Si Si2 0.889781 0.711242 0.971128
Si Si3 0.967698 0.714467 0.836396
Si Si4 0.578679 0.212005 0.347808
Si Si5 0.527728 0.791458 0.640268
Si Si6 0.803066 0.787306 0.851257
Si Si7 0.075187 0.712233 0.847373
Si Si8 0.304057 0.783933 0.344447
O O1 0.888589 0.273135 0.426633
O O2 0.933483 0.277659 0.574039
O O3 0.841020 0.276621 0.583543
O O4 0.884813 0.000000 0.529517
O O5 0.896292 0.500000 0.975013
O O6 0.931094 0.779684 0.908010
O O7 0.840492 0.741357 0.924279
O O8 0.896104 0.778806 0.069361
O O9 0.967994 0.500000 0.838299
O O10 0.954373 0.770160 0.738933
O O11 0.021082 0.776294 0.852607
O O12 0.525272 0.282489 0.361214
O O13 0.593539 0.248087 0.249091
O O14 0.575742 0.000000 0.354924
O O15 0.523541 0.000000 0.620974
O O16 0.750000 0.723796 0.868600
O O17 0.817132 0.726853 0.753871
O O18 0.801305 0.000000 0.847292
O O19 0.073160 0.500000 0.852616
O O20 0.250000 0.731110 0.360402
O O21 0.304772 0.000000 0.344857
#
# Coordination Sequence:
#
# PCOD9400419 Si02
#       8
#     8   8   8   8   8   8   8   8
#     4   9  15  24  41  62  85 114 144 176 215 257
#     4  10  19  30  47  68  88 116 153 186 218 261
#     4   9  17  29  44  64  91 119 148 183 220 260
#     4   9  17  28  42  62  86 113 148 186 218 250
#     4   9  16  26  41  62  88 116 145 177 216 262
#     4   9  18  32  49  70  95 118 140 174 222 269
#     4   9  18  32  46  61  87 122 153 182 220 262
#     4   8  14  25  42  65  90 113 137 166 207 262
#
# _framework density 19.355626999999998
#
# number of rings (size 3 to 8) (size 9 to 14) (size 15 to 20)
#    0.000    3.000    0.000    2.250    0.000    5.250 
#    0.000    0.625    0.000    8.250    0.000    1.750 
#    0.000    0.000    0.000    0.000    0.000    0.000 
#
# Total GULP energy -356934.549611 kJ/mol
# GULP energy per Si atom -5577.102338 kJ/mol
# Density = 1.931157 g / cm^3
# Si number density = 19.355627 Si / 1000 Ang^3
#
#
#
# Elastic Constant Matrix: (Units=GPa)
#
#
# Indices 1 2 3 4 5 6 
#
# 1 72.9752 -1.6949 89.8078 0.0000 0.0000 0.0000
# 2 -1.6949 42.4165 -3.1687 0.0000 0.0000 0.0000
# 3 89.8078 -3.1687 182.4417 0.0000 0.0000 0.0000
# 4 0.0000 0.0000 0.0000 20.5447 0.0000 0.0000
# 5 0.0000 0.0000 0.0000 0.0000 29.4561 0.0000
# 6 0.0000 0.0000 0.0000 0.0000 0.0000 10.5814
#
#
#
# Elastic Compliance Matrix: (Units=1/GPa)
#
#
# Indices 1 2 3 4 5 6 
#
# 1 0.034763 0.000111 -0.017110 0.000000 0.000000 0.000000
# 2 0.000111 0.023607 0.000355 0.000000 0.000000 0.000000
# 3 -0.017110 0.000355 0.013910 0.000000 0.000000 0.000000
# 4 0.000000 0.000000 0.000000 0.048674 0.000000 0.000000
# 5 0.000000 0.000000 0.000000 0.000000 0.033949 0.000000
# 6 0.000000 0.000000 0.000000 0.000000 0.000000 0.094505
#
#
# Mechanical properties :
#
#
# Convention : Reuss Voigt Hill
#
# Bulk Modulus (GPa) = 25.64653 51.96909 38.80781
# Shear Modulus (GPa) = 16.90944 26.30906 21.60925
#
# Velocity S-wave (km/s) = 2.95891 3.69079 3.34493
# Velocity P-wave (km/s) = 4.99524 6.71346 5.91705
#
# Compressibility (1/GPa) = 0.03899164
#
# Stress axis : x y z
#
# Youngs Moduli (GPa) = 28.76640 42.36082 71.89089
#
# Poissons Ratio (x) = -0.00470 1.23007
# Poissons Ratio (y) = -0.00319 -0.02555
# Poissons Ratio (z) = 0.49220 -0.01506
#
# Static dielectric constant tensor:
#      x y z
#    x 1.661030 0.000000 0.000000 
#    y 0.000000 1.756610 0.000000 
#    z 0.000000 0.000000 1.690120 
# 
# From -- ./inp_files/26618.got.cif
#   From: 2010.05.17/outbox.cif.g08.bks.cpg/sg51_14_cif.got.tgz:26618.got - 2010.06.03 11:52:47.
