data_PCOD9400113
_publ_section_title
;
Structure prediction by ZEFSAII (Michael W. Deem and Ramdas Pophale) SiO2 
 PCOD9400113
Probable space group: P M M A
;
_chemical_formula_sum "Si O2"
_cell_formula_units_Z 56
_cell_length_a 9.039445
_cell_length_b 20.400936
_cell_length_c 15.562219
_cell_angle_alpha 90.000000
_cell_angle_beta 90.000000
_cell_angle_gamma 90.000000
_cell_volume 2869.877654
_symmetry_space_group_name_H-M "P M M A"
_symmetry_group_IT_number 51
_symmetry_cell_setting 'orthorhombic'
loop_
_space_group_symop_operation_xyz
x,y,z
1/2-x,-y,z
1/2+x,-y,-z
-x,y,-z
-x,-y,-z
1/2+x,y,-z
1/2-x,y,z
x,-y,z
loop_
_atom_site_type_symbol
_atom_site_label
_atom_site_fract_x
_atom_site_fract_y
_atom_site_fract_z
Si Si1 0.079387 0.763300 0.370927
Si Si2 0.424258 0.894295 0.585564
Si Si3 0.425438 0.424802 0.222977
Si Si4 0.426133 0.672418 0.910621
Si Si5 0.074440 0.612383 0.412939
Si Si6 0.577954 0.205155 0.830644
Si Si7 0.427970 0.073156 0.779495
O O1 0.250000 0.779599 0.394690
O O2 0.045835 0.690279 0.401688
O O3 0.070778 0.767562 0.267436
O O4 0.969702 0.817906 0.406710
O O5 0.500000 0.921114 0.500000
O O6 0.250000 0.902397 0.577604
O O7 0.469863 0.923254 0.678030
O O8 0.250000 0.406906 0.219238
O O9 0.440819 0.500000 0.194760
O O10 0.516300 0.375781 0.163853
O O11 0.472029 0.419196 0.322700
O O12 0.250000 0.671530 0.916295
O O13 0.484919 0.745006 0.887927
O O14 0.500000 0.651614 0.000000
O O15 0.250000 0.602959 0.420591
O O16 0.000000 0.588416 0.500000
O O17 0.750000 0.204500 0.856365
O O18 0.510566 0.132320 0.826468
O O19 0.250000 0.083235 0.783729
O O20 0.461576 0.000000 0.811433
#
# Coordination Sequence:
#
# PCOD9400113 Si02
#       7
#     8   8   8   8   8   8   8
#     4   9  17  31  51  74 106 146 191 245 300 352
#     4  10  19  29  43  67 101 143 194 247 301 353
#     4  10  22  43  66  88 123 167 206 251 306 359
#     4  12  25  42  68  98 127 157 196 244 301 366
#     4  10  20  34  53  82 117 159 206 251 301 352
#     4  10  19  36  61  88 119 152 195 246 298 355
#     4   9  19  35  53  77 112 155 200 244 297 360
#
# _framework density 19.513027000000001
#
# number of rings (size 3 to 8) (size 9 to 14) (size 15 to 20)
#    0.000    2.000    1.429    2.571    0.000    4.857 
#    0.000    0.000    0.000    0.429    0.000    0.000 
#    0.000    0.000    0.000    0.000    0.000    0.000 
#
# Total GULP energy -312820.517605 kJ/mol
# GULP energy per Si atom -5586.080672 kJ/mol
# Density = 1.946861 g / cm^3
# Si number density = 19.513027 Si / 1000 Ang^3
#
#
#
# Elastic Constant Matrix: (Units=GPa)
#
#
# Indices 1 2 3 4 5 6 
#
# 1 86.0521 52.6934 44.3338 0.0000 0.0000 0.0000
# 2 52.6934 84.6077 40.4363 0.0000 0.0000 0.0000
# 3 44.3338 40.4363 77.6212 0.0000 0.0000 0.0000
# 4 0.0000 0.0000 0.0000 -5.0797 0.0000 0.0000
# 5 0.0000 0.0000 0.0000 0.0000 29.6231 0.0000
# 6 0.0000 0.0000 0.0000 0.0000 0.0000 10.8015
#
#
#
# Elastic Compliance Matrix: (Units=1/GPa)
#
#
# Indices 1 2 3 4 5 6 
#
# 1 0.021302 -0.009922 -0.006998 0.000000 0.000000 0.000000
# 2 -0.009922 0.020359 -0.004939 0.000000 0.000000 0.000000
# 3 -0.006998 -0.004939 0.019453 0.000000 0.000000 0.000000
# 4 0.000000 0.000000 0.000000 -0.196862 0.000000 0.000000
# 5 0.000000 0.000000 0.000000 0.000000 0.033757 0.000000
# 6 0.000000 0.000000 0.000000 0.000000 0.000000 0.092579
#
#
# Mechanical properties :
#
#
# Convention : Reuss Voigt Hill
#
# Bulk Modulus (GPa) = 57.48416 58.13421 57.80919
# Shear Modulus (GPa) = 124.67190 14.45682 69.56436
#
# Velocity S-wave (km/s) = 8.00190 2.72487 5.97726
# Velocity P-wave (km/s) = 10.71901 6.30532 8.79358
#
# Compressibility (1/GPa) = 0.01739610
#
# Stress axis : x y z
#
# Youngs Moduli (GPa) = 46.94390 49.11762 51.40661
#
# Poissons Ratio (x) = 0.48736 0.35973
# Poissons Ratio (y) = 0.46580 0.25389
# Poissons Ratio (z) = 0.32850 0.24258
#
# Static dielectric constant tensor:
#      x y z
#    x 1.655260 0.000000 0.000000 
#    y 0.000000 1.686840 0.000000 
#    z 0.000000 0.000000 1.693700 
# 
# From -- ./inp_files/21746.got.cif
#   From: 2010.05.17/outbox.cif.g08.bks.cpg/sg51_11_cif.got.tgz:21746.got - 2010.06.03 11:52:47.
