data_PCOD9400617
_publ_section_title
;
Structure prediction by ZEFSAII (Michael W. Deem and Ramdas Pophale) SiO2 
 PCOD9400617
Probable space group: P M M A
;
_chemical_formula_sum "Si O2"
_cell_formula_units_Z 48
_cell_length_a 18.907237
_cell_length_b 7.497191
_cell_length_c 16.938840
_cell_angle_alpha 90.000000
_cell_angle_beta 90.000000
_cell_angle_gamma 90.000000
_cell_volume 2401.100339
_symmetry_space_group_name_H-M "P M M A"
_symmetry_group_IT_number 51
_symmetry_cell_setting 'orthorhombic'
loop_
_space_group_symop_operation_xyz
x,y,z
1/2-x,-y,z
1/2+x,-y,-z
-x,y,-z
-x,-y,-z
1/2+x,y,-z
1/2-x,y,z
x,-y,z
loop_
_atom_site_type_symbol
_atom_site_label
_atom_site_fract_x
_atom_site_fract_y
_atom_site_fract_z
Si Si1 0.403743 0.284926 0.828506
Si Si2 0.544835 0.285872 0.743777
Si Si3 0.829329 0.717568 0.331686
Si Si4 0.971768 0.717963 0.415501
Si Si5 0.920595 0.790526 0.996409
Si Si6 0.170890 0.211917 0.148163
O O1 0.403513 0.500000 0.829046
O O2 0.482745 0.223798 0.803383
O O3 0.352650 0.228722 0.757026
O O4 0.387395 0.225389 0.916700
O O5 0.540895 0.500000 0.743159
O O6 0.522618 0.225750 0.656535
O O7 0.620980 0.236437 0.776243
O O8 0.750000 0.777236 0.350442
O O9 0.829199 0.500000 0.332337
O O10 0.892331 0.772976 0.390559
O O11 0.971527 0.500000 0.416659
O O12 0.000000 0.778536 0.500000
O O13 0.928872 0.000000 0.978376
O O14 0.871888 0.713718 0.927292
O O15 0.000000 0.712512 0.000000
O O16 0.250000 0.284576 0.156076
O O17 0.177353 0.000000 0.136005
#
# Coordination Sequence:
#
# PCOD9400617 Si02
#       6
#     8   8   8   8   8   8
#     4   9  17  28  45  68  91 119 153 188 229 275
#     4   9  17  30  48  69  93 120 151 189 229 273
#     4   8  14  25  41  63  92 122 151 186 230 276
#     4   8  14  26  45  69  96 124 153 186 226 273
#     4  10  19  31  47  66  88 119 158 194 227 271
#     4  10  21  35  48  64  90 124 159 194 233 274
#
# _framework density 19.990836000000002
#
# number of rings (size 3 to 8) (size 9 to 14) (size 15 to 20)
#    0.000    3.000    1.667    2.000    0.000    2.000 
#    0.000    0.833    0.000    3.500    0.000    0.000 
#    0.000    0.000    0.000    0.000    0.000    0.000 
#
# Total GULP energy -267702.069535 kJ/mol
# GULP energy per Si atom -5577.126449 kJ/mol
# Density = 1.994534 g / cm^3
# Si number density = 19.990836 Si / 1000 Ang^3
#
#
#
# Elastic Constant Matrix: (Units=GPa)
#
#
# Indices 1 2 3 4 5 6 
#
# 1 190.0927 7.2658 100.5407 0.0000 0.0000 0.0000
# 2 7.2658 52.1534 -3.3201 0.0000 0.0000 0.0000
# 3 100.5407 -3.3201 147.3757 0.0000 0.0000 0.0000
# 4 0.0000 0.0000 0.0000 22.6863 0.0000 0.0000
# 5 0.0000 0.0000 0.0000 0.0000 20.1821 0.0000
# 6 0.0000 0.0000 0.0000 0.0000 0.0000 6.4101
#
#
#
# Elastic Compliance Matrix: (Units=1/GPa)
#
#
# Indices 1 2 3 4 5 6 
#
# 1 0.008350 -0.001528 -0.005731 0.000000 0.000000 0.000000
# 2 -0.001528 0.019481 0.001481 0.000000 0.000000 0.000000
# 3 -0.005731 0.001481 0.010728 0.000000 0.000000 0.000000
# 4 0.000000 0.000000 0.000000 0.044079 0.000000 0.000000
# 5 0.000000 0.000000 0.000000 0.000000 0.049549 0.000000
# 6 0.000000 0.000000 0.000000 0.000000 0.000000 0.156003
#
#
# Mechanical properties :
#
#
# Convention : Reuss Voigt Hill
#
# Bulk Modulus (GPa) = 37.03074 66.51051 51.77063
# Shear Modulus (GPa) = 16.19444 28.86473 22.52959
#
# Velocity S-wave (km/s) = 2.84930 3.80399 3.36072
# Velocity P-wave (km/s) = 5.42114 7.25510 6.40411
#
# Compressibility (1/GPa) = 0.02700459
#
# Stress axis : x y z
#
# Youngs Moduli (GPa) = 119.75892 51.33097 93.21029
#
# Poissons Ratio (x) = 0.07844 0.53418
# Poissons Ratio (y) = 0.18301 -0.13808
# Poissons Ratio (z) = 0.68633 -0.07604
#
# Static dielectric constant tensor:
#      x y z
#    x 1.719420 0.000000 0.000000 
#    y 0.000000 1.760200 0.000000 
#    z 0.000000 0.000000 1.685570 
# 
# From -- ./inp_files/24015.got.cif
#   From: 2010.05.17/outbox.cif.g08.bks.cpg/sg51_13_cif.got.tgz:24015.got - 2010.06.03 11:52:47.
