data_PCOD9400947
_publ_section_title
;
Structure prediction by ZEFSAII (Michael W. Deem and Ramdas Pophale) SiO2 
 PCOD9400947
Probable space group: P M M A
;
_chemical_formula_sum "Si O2"
_cell_formula_units_Z 40
_cell_length_a 10.279754
_cell_length_b 9.068488
_cell_length_c 25.082450
_cell_angle_alpha 90.000000
_cell_angle_beta 90.000000
_cell_angle_gamma 90.000000
_cell_volume 2338.231784
_symmetry_space_group_name_H-M "P M M A"
_symmetry_group_IT_number 51
_symmetry_cell_setting 'orthorhombic'
loop_
_space_group_symop_operation_xyz
x,y,z
1/2-x,-y,z
1/2+x,-y,-z
-x,y,-z
-x,-y,-z
1/2+x,y,-z
1/2-x,y,z
x,-y,z
loop_
_atom_site_type_symbol
_atom_site_label
_atom_site_fract_x
_atom_site_fract_y
_atom_site_fract_z
Si Si1 0.407948 0.830341 0.335696
Si Si2 0.981936 0.825494 0.879916
Si Si3 0.750000 0.675615 0.944910
Si Si4 0.593231 0.326489 0.772675
Si Si5 0.900265 0.180025 0.545628
Si Si6 0.250000 0.827528 0.941777
O O1 0.250000 0.832576 0.336414
O O2 0.447405 0.733626 0.285248
O O3 0.444518 0.775856 0.394766
O O4 0.451248 0.000000 0.328746
O O5 0.875161 0.742285 0.915322
O O6 0.972840 0.762058 0.820443
O O7 0.122053 0.803035 0.906563
O O8 0.953450 0.000000 0.879453
O O9 0.750000 0.500000 0.940486
O O10 0.750000 0.727537 0.005966
O O11 0.750000 0.304753 0.777605
O O12 0.567830 0.500000 0.777505
O O13 0.750000 0.226275 0.536674
O O14 0.000000 0.228144 0.500000
O O15 0.899177 0.000000 0.546088
O O16 0.250000 0.000000 0.959034
#
# Coordination Sequence:
#
# PCOD9400947 Si02
#       6
#     8   8   4   8   8   4
#     4   8  14  25  43  67  94 127 166 205 251 302
#     4  11  22  38  60  81 106 139 175 218 263 307
#     4  12  24  38  58  86 112 138 175 212 253 310
#     4  10  19  31  50  77 105 130 169 218 258 306
#     4   8  13  22  39  64  92 121 157 202 248 294
#     4  10  24  42  58  80 108 140 177 214 259 312
#
# _framework density 17.106943999999999
#
# number of rings (size 3 to 8) (size 9 to 14) (size 15 to 20)
#    0.000    2.400    1.000    3.900    0.000    4.800 
#    0.000    0.000    2.200    0.600    0.000    0.000 
#    0.000    0.000    0.000    0.000    0.000    0.000 
#
# Total GULP energy -223093.756445 kJ/mol
# GULP energy per Si atom -5577.343911 kJ/mol
# Density = 1.706801 g / cm^3
# Si number density = 17.106944 Si / 1000 Ang^3
#
#
#
# Elastic Constant Matrix: (Units=GPa)
#
#
# Indices 1 2 3 4 5 6 
#
# 1 77.0157 55.8027 59.9408 0.0000 0.0000 0.0000
# 2 55.8027 86.3688 80.7146 0.0000 0.0000 0.0000
# 3 59.9408 80.7146 173.4753 0.0000 0.0000 0.0000
# 4 0.0000 0.0000 0.0000 -18.2602 0.0000 0.0000
# 5 0.0000 0.0000 0.0000 0.0000 18.5253 0.0000
# 6 0.0000 0.0000 0.0000 0.0000 0.0000 -6.5680
#
#
#
# Elastic Compliance Matrix: (Units=1/GPa)
#
#
# Indices 1 2 3 4 5 6 
#
# 1 0.024788 -0.014174 -0.001970 0.000000 0.000000 0.000000
# 2 -0.014174 0.028591 -0.008405 0.000000 0.000000 0.000000
# 3 -0.001970 -0.008405 0.010356 0.000000 0.000000 0.000000
# 4 0.000000 0.000000 0.000000 -0.054764 0.000000 0.000000
# 5 0.000000 0.000000 0.000000 0.000000 0.053980 0.000000
# 6 0.000000 0.000000 0.000000 0.000000 0.000000 -0.152253
#
#
# Mechanical properties :
#
#
# Convention : Reuss Voigt Hill
#
# Bulk Modulus (GPa) = 68.32493 81.08624 74.70558
# Shear Modulus (GPa) = -141.54837 8.09952 -66.72442
#
# Velocity S-wave (km/s) = -9.10620 2.17828 -6.25212
# Velocity P-wave (km/s) = 8.39864 7.33683 2.89034
#
# Compressibility (1/GPa) = 0.01463595
#
# Stress axis : x y z
#
# Youngs Moduli (GPa) = 40.34256 34.97557 96.56267
#
# Poissons Ratio (x) = 0.49576 0.19021
# Poissons Ratio (y) = 0.57183 0.81164
# Poissons Ratio (z) = 0.07947 0.29398
#
# Static dielectric constant tensor:
#      x y z
#    x 1.558860 0.000000 0.000000 
#    y 0.000000 1.567920 0.000000 
#    z 0.000000 0.000000 1.584760 
# 
# From -- ./inp_files/36020.got.cif
#   From: 2010.05.17/outbox.cif.g08.bks.cpg/sg51_19_cif.got.tgz:36020.got - 2010.06.03 11:52:47.
