data_PCOD9400620
_publ_section_title
;
Structure prediction by ZEFSAII (Michael W. Deem and Ramdas Pophale) SiO2 
 PCOD9400620
Probable space group: P M M A
;
_chemical_formula_sum "Si O2"
_cell_formula_units_Z 64
_cell_length_a 9.674849
_cell_length_b 14.775800
_cell_length_c 21.538486
_cell_angle_alpha 90.000000
_cell_angle_beta 90.000000
_cell_angle_gamma 90.000000
_cell_volume 3079.004841
_symmetry_space_group_name_H-M "P M M A"
_symmetry_group_IT_number 51
_symmetry_cell_setting 'orthorhombic'
loop_
_space_group_symop_operation_xyz
x,y,z
1/2-x,-y,z
1/2+x,-y,-z
-x,y,-z
-x,-y,-z
1/2+x,y,-z
1/2-x,y,z
x,-y,z
loop_
_atom_site_type_symbol
_atom_site_label
_atom_site_fract_x
_atom_site_fract_y
_atom_site_fract_z
Si Si1 0.596760 0.901117 0.412361
Si Si2 0.906971 0.891155 0.055171
Si Si3 0.594111 0.855486 0.191062
Si Si4 0.404679 0.128700 0.299898
Si Si5 0.413556 0.310199 0.559991
Si Si6 0.910457 0.345563 0.683369
Si Si7 0.592132 0.391738 0.058074
Si Si8 0.908473 0.359267 0.200337
O O1 0.750000 0.897688 0.382126
O O2 0.477230 0.902528 0.362259
O O3 0.584172 0.801199 0.442304
O O4 0.594062 0.000000 0.445828
O O5 0.750000 0.857942 0.050854
O O6 0.963934 0.866444 0.122284
O O7 0.903033 0.000000 0.051522
O O8 0.000000 0.856253 0.000000
O O9 0.750000 0.892379 0.191320
O O10 0.498380 0.897951 0.242388
O O11 0.602352 0.749138 0.205019
O O12 0.250000 0.097143 0.293951
O O13 0.400667 0.237978 0.303304
O O14 0.500000 0.341446 0.500000
O O15 0.250000 0.334773 0.559943
O O16 0.493179 0.347067 0.621452
O O17 0.750000 0.377282 0.675251
O O18 0.990281 0.387361 0.743253
O O19 0.750000 0.356331 0.054975
O O20 0.599076 0.500000 0.051169
O O21 0.542592 0.376657 0.129343
O O22 0.500000 0.358493 0.000000
O O23 0.750000 0.394589 0.206408
#
# Coordination Sequence:
#
# PCOD9400620 Si02
#       8
#     8   8   8   8   8   8   8   8
#     4   9  18  31  44  58  80 113 150 186 229 284
#     4   9  18  31  43  54  71  97 129 168 217 270
#     4   9  17  29  44  61  81 107 140 178 223 277
#     4   9  17  28  42  61  82 103 132 176 227 272
#     4  10  19  31  47  66  90 121 156 196 244 295
#     4   9  17  30  47  67  91 118 151 192 236 280
#     4   9  18  32  49  71 102 138 171 201 235 278
#     4   9  17  30  48  69  94 125 159 195 235 277
#
# _framework density 20.785937000000001
#
# number of rings (size 3 to 8) (size 9 to 14) (size 15 to 20)
#    0.000    2.875    0.000    1.125    0.000    6.000 
#    0.000    1.250    0.000    0.000    0.000    0.000 
#    0.000    0.500    0.000    1.375    0.000    2.000 
#
# Total GULP energy -356463.479288 kJ/mol
# GULP energy per Si atom -5569.741864 kJ/mol
# Density = 2.073863 g / cm^3
# Si number density = 20.785937 Si / 1000 Ang^3
#
#
#
# Elastic Constant Matrix: (Units=GPa)
#
#
# Indices 1 2 3 4 5 6 
#
# 1 135.2768 5.7450 99.6952 0.0000 0.0000 0.0000
# 2 5.7450 46.6497 -3.1178 0.0000 0.0000 0.0000
# 3 99.6952 -3.1178 148.0530 0.0000 0.0000 0.0000
# 4 0.0000 0.0000 0.0000 27.9138 0.0000 0.0000
# 5 0.0000 0.0000 0.0000 0.0000 29.9080 0.0000
# 6 0.0000 0.0000 0.0000 0.0000 0.0000 -1.9045
#
#
#
# Elastic Compliance Matrix: (Units=1/GPa)
#
#
# Indices 1 2 3 4 5 6 
#
# 1 0.014965 -0.002520 -0.010130 0.000000 0.000000 0.000000
# 2 -0.002520 0.021891 0.002158 0.000000 0.000000 0.000000
# 3 -0.010130 0.002158 0.013621 0.000000 0.000000 0.000000
# 4 0.000000 0.000000 0.000000 0.035825 0.000000 0.000000
# 5 0.000000 0.000000 0.000000 0.000000 0.033436 0.000000
# 6 0.000000 0.000000 0.000000 0.000000 0.000000 -0.525075
#
#
# Mechanical properties :
#
#
# Convention : Reuss Voigt Hill
#
# Bulk Modulus (GPa) = 33.90680 59.40269 46.65474
# Shear Modulus (GPa) = -13.35032 26.36063 6.50515
#
# Velocity S-wave (km/s) = -2.53707 3.56504 1.77098
# Velocity P-wave (km/s) = 2.78667 6.75176 5.16487
#
# Compressibility (1/GPa) = 0.02949261
#
# Stress axis : x y z
#
# Youngs Moduli (GPa) = 66.82363 45.68106 73.41578
#
# Poissons Ratio (x) = 0.11512 0.74370
# Poissons Ratio (y) = 0.16839 -0.15842
# Poissons Ratio (z) = 0.67692 -0.09857
#
# Static dielectric constant tensor:
#      x y z
#    x 1.735950 0.000000 0.000000 
#    y 0.000000 1.783340 0.000000 
#    z 0.000000 0.000000 1.726800 
# 
# From -- ./inp_files/32380.got.cif
#   From: 2010.05.17/outbox.cif.g08.bks.cpg/sg51_17_cif.got.tgz:32380.got - 2010.06.03 11:52:47.
