data_PCOD9400992
_publ_section_title
;
Structure prediction by ZEFSAII (Michael W. Deem and Ramdas Pophale) SiO2 
 PCOD9400992
Probable space group: P M M A
;
_chemical_formula_sum "Si O2"
_cell_formula_units_Z 64
_cell_length_a 9.093984
_cell_length_b 28.785564
_cell_length_c 14.078545
_cell_angle_alpha 90.000000
_cell_angle_beta 90.000000
_cell_angle_gamma 90.000000
_cell_volume 3685.417572
_symmetry_space_group_name_H-M "P M M A"
_symmetry_group_IT_number 51
_symmetry_cell_setting 'orthorhombic'
loop_
_space_group_symop_operation_xyz
x,y,z
1/2-x,-y,z
1/2+x,-y,-z
-x,y,-z
-x,-y,-z
1/2+x,y,-z
1/2-x,y,z
x,-y,z
loop_
_atom_site_type_symbol
_atom_site_label
_atom_site_fract_x
_atom_site_fract_y
_atom_site_fract_z
Si Si1 0.424552 0.780131 0.730063
Si Si2 0.918794 0.943479 0.095465
Si Si3 0.074401 0.134232 0.597871
Si Si4 0.424745 0.730202 0.102069
Si Si5 0.426023 0.360730 0.228374
Si Si6 0.573265 0.446597 0.898940
Si Si7 0.574908 0.689724 0.397599
Si Si8 0.924126 0.055183 0.707385
O O1 0.250000 0.778738 0.750635
O O2 0.459979 0.828669 0.680312
O O3 0.512833 0.768357 0.824943
O O4 0.455170 0.739239 0.653679
O O5 0.750000 0.927305 0.100606
O O6 0.008181 0.931718 0.190132
O O7 0.915137 0.000000 0.091262
O O8 0.000000 0.927339 0.000000
O O9 0.250000 0.131816 0.587115
O O10 0.000000 0.149510 0.500000
O O11 0.007385 0.085159 0.629094
O O12 0.250000 0.734585 0.092495
O O13 0.456602 0.680608 0.152878
O O14 0.500000 0.732662 0.000000
O O15 0.250000 0.360797 0.245416
O O16 0.469720 0.409254 0.180328
O O17 0.509258 0.348045 0.324846
O O18 0.750000 0.443771 0.909604
O O19 0.535263 0.500000 0.874918
O O20 0.500000 0.435405 0.000000
O O21 0.500000 0.687752 0.500000
O O22 0.750000 0.684669 0.406547
O O23 0.750000 0.064222 0.705398
O O24 0.946708 0.000000 0.694370
#
# Coordination Sequence:
#
# PCOD9400992 Si02
#       8
#     8   8   8   8   8   8   8   8
#     4   9  20  37  55  77 104 133 166 203 246 299
#     4   9  16  28  49  76 104 133 164 199 240 285
#     4  11  23  39  59  80 103 132 166 206 251 300
#     4  10  19  31  51  77 107 141 172 207 250 299
#     4   9  18  31  47  71 102 136 174 213 256 304
#     4   9  17  29  46  69  99 135 173 214 258 304
#     4  10  19  32  52  76 101 129 163 207 256 304
#     4  10  21  37  56  79 107 137 170 208 248 292
#
# _framework density 17.365739999999999
#
# number of rings (size 3 to 8) (size 9 to 14) (size 15 to 20)
#    0.000    2.375    0.000    2.625    0.000    5.000 
#    0.000    0.625    0.000    3.375    0.000    0.000 
#    0.000    0.000    0.000    0.000    0.000    0.000 
#
# Total GULP energy -357165.779056 kJ/mol
# GULP energy per Si atom -5580.715298 kJ/mol
# Density = 1.732621 g / cm^3
# Si number density = 17.365740 Si / 1000 Ang^3
#
#
#
# Elastic Constant Matrix: (Units=GPa)
#
#
# Indices 1 2 3 4 5 6 
#
# 1 73.8076 43.0549 67.3377 0.0000 0.0000 0.0000
# 2 43.0549 55.4513 40.9835 0.0000 0.0000 0.0000
# 3 67.3377 40.9835 128.6082 0.0000 0.0000 0.0000
# 4 0.0000 0.0000 0.0000 19.4319 0.0000 0.0000
# 5 0.0000 0.0000 0.0000 0.0000 37.0401 0.0000
# 6 0.0000 0.0000 0.0000 0.0000 0.0000 18.2360
#
#
#
# Elastic Compliance Matrix: (Units=1/GPa)
#
#
# Indices 1 2 3 4 5 6 
#
# 1 0.036300 -0.018493 -0.013113 0.000000 0.000000 0.000000
# 2 -0.018493 0.033012 -0.000837 0.000000 0.000000 0.000000
# 3 -0.013113 -0.000837 0.014908 0.000000 0.000000 0.000000
# 4 0.000000 0.000000 0.000000 0.051462 0.000000 0.000000
# 5 0.000000 0.000000 0.000000 0.000000 0.026998 0.000000
# 6 0.000000 0.000000 0.000000 0.000000 0.000000 0.054837
#
#
# Mechanical properties :
#
#
# Convention : Reuss Voigt Hill
#
# Bulk Modulus (GPa) = 51.72460 62.29103 57.00782
# Shear Modulus (GPa) = 17.31019 22.04099 19.67559
#
# Velocity S-wave (km/s) = 3.16064 3.56648 3.36968
# Velocity P-wave (km/s) = 6.57036 7.27376 6.93099
#
# Compressibility (1/GPa) = 0.01933316
#
# Stress axis : x y z
#
# Youngs Moduli (GPa) = 27.54797 30.29247 67.07771
#
# Poissons Ratio (x) = 0.56021 0.87960
# Poissons Ratio (y) = 0.50946 0.05613
# Poissons Ratio (z) = 0.36124 0.02535
#
# Static dielectric constant tensor:
#      x y z
#    x 1.573890 0.000000 0.000000 
#    y 0.000000 1.596340 0.000000 
#    z 0.000000 0.000000 1.565100 
# 
# From -- ./inp_files/14846.got.cif
#   From: 2010.05.17/outbox.cif.g08.bks.cpg/sg51_8_cif.got.tgz:14846.got - 2010.06.03 11:52:47.
