data_PCOD9400601
_publ_section_title
;
Structure prediction by ZEFSAII (Michael W. Deem and Ramdas Pophale) SiO2 
 PCOD9400601
Probable space group: P M M A
;
_chemical_formula_sum "Si O2"
_cell_formula_units_Z 64
_cell_length_a 26.214262
_cell_length_b 7.617597
_cell_length_c 17.907703
_cell_angle_alpha 90.000000
_cell_angle_beta 90.000000
_cell_angle_gamma 90.000000
_cell_volume 3575.983546
_symmetry_space_group_name_H-M "P M M A"
_symmetry_group_IT_number 51
_symmetry_cell_setting 'orthorhombic'
loop_
_space_group_symop_operation_xyz
x,y,z
1/2-x,-y,z
1/2+x,-y,-z
-x,y,-z
-x,-y,-z
1/2+x,y,-z
1/2-x,y,z
x,-y,z
loop_
_atom_site_type_symbol
_atom_site_label
_atom_site_fract_x
_atom_site_fract_y
_atom_site_fract_z
Si Si1 0.505595 0.201415 0.917658
Si Si2 0.437628 0.215061 0.340912
Si Si3 0.598894 0.784684 0.816912
Si Si4 0.807688 0.785950 0.917565
Si Si5 0.590771 0.700114 0.172926
Si Si6 0.056014 0.212067 0.664964
Si Si7 0.438012 0.794106 0.503128
Si Si8 0.807620 0.788161 0.088236
O O1 0.549392 0.275528 0.863831
O O2 0.452088 0.197869 0.874051
O O3 0.522441 0.000000 0.930844
O O4 0.500000 0.282673 0.000000
O O5 0.406028 0.271521 0.268933
O O6 0.496727 0.266738 0.327960
O O7 0.420733 0.278503 0.423040
O O8 0.437381 0.000000 0.343504
O O9 0.649417 0.727433 0.860116
O O10 0.598419 0.000000 0.815360
O O11 0.750000 0.731218 0.899180
O O12 0.808224 0.000000 0.917543
O O13 0.818849 0.731530 0.002933
O O14 0.576868 0.500000 0.159687
O O15 0.585648 0.737350 0.260718
O O16 0.647283 0.732002 0.142381
O O17 0.076180 0.278601 0.584588
O O18 0.055621 0.000000 0.661370
O O19 0.500000 0.786896 0.500000
O O20 0.423788 0.000000 0.503767
O O21 0.750000 0.729260 0.107417
O O22 0.807000 0.000000 0.088115
#
# Coordination Sequence:
#
# PCOD9400601 Si02
#       8
#     8   8   8   8   8   8   8   8
#     4  10  19  31  47  64  85 119 160 190 216 263
#     4   8  12  20  37  63  88 110 147 191 224 259
#     4   9  14  21  38  64  89 113 142 181 221 262
#     4   8  14  25  42  65  89 111 141 183 226 263
#     4  12  23  31  43  66  97 123 144 180 233 283
#     4   9  15  27  44  61  85 117 155 188 216 263
#     4   7  11  19  36  60  82 108 146 191 225 251
#     4   9  18  34  53  67  82 112 157 199 226 257
#
# _framework density 17.897176000000002
#
# number of rings (size 3 to 8) (size 9 to 14) (size 15 to 20)
#    0.000    3.000    1.250    4.125    0.000    2.500 
#    0.000    0.000    0.000    3.375    0.000    0.875 
#    0.000    5.000    0.000    0.000    0.000    0.000 
#
# Total GULP energy -356568.226672 kJ/mol
# GULP energy per Si atom -5571.378542 kJ/mol
# Density = 1.785644 g / cm^3
# Si number density = 17.897176 Si / 1000 Ang^3
#
#
#
# Elastic Constant Matrix: (Units=GPa)
#
#
# Indices 1 2 3 4 5 6 
#
# 1 88.8053 -2.2511 83.8295 0.0000 0.0000 0.0000
# 2 -2.2511 36.7828 2.8683 0.0000 0.0000 0.0000
# 3 83.8295 2.8683 190.0594 0.0000 0.0000 0.0000
# 4 0.0000 0.0000 0.0000-1778.3318 0.0000 0.0000
# 5 0.0000 0.0000 0.0000 0.0000 18.2543 0.0000
# 6 0.0000 0.0000 0.0000 0.0000 0.0000 -30.7522
#
#
#
# Elastic Compliance Matrix: (Units=1/GPa)
#
#
# Indices 1 2 3 4 5 6 
#
# 1 0.019420 0.001859 -0.008594 0.000000 0.000000 0.000000
# 2 0.001859 0.027397 -0.001233 0.000000 0.000000 0.000000
# 3 -0.008594 -0.001233 0.009070 0.000000 0.000000 0.000000
# 4 0.000000 0.000000 0.000000 -0.000562 0.000000 0.000000
# 5 0.000000 0.000000 0.000000 0.000000 0.054782 0.000000
# 6 0.000000 0.000000 0.000000 0.000000 0.000000 -0.032518
#
#
# Mechanical properties :
#
#
# Convention : Reuss Voigt Hill
#
# Bulk Modulus (GPa) = 25.03099 53.83786 39.43443
# Shear Modulus (GPa) = 46.79841 -342.75257 -147.97708
#
# Velocity S-wave (km/s) = 5.11911 -13.85380 -9.10282
# Velocity P-wave (km/s) = 6.99691 15.02520 9.40213
#
# Compressibility (1/GPa) = 0.03995047
#
# Stress axis : x y z
#
# Youngs Moduli (GPa) = 51.49405 36.50093 110.24792
#
# Poissons Ratio (x) = -0.06784 0.94742
# Poissons Ratio (y) = -0.09571 0.13596
# Poissons Ratio (z) = 0.44251 0.04501
#
# Static dielectric constant tensor:
#      x y z
#    x 1.576000 0.000000 0.000000 
#    y 0.000000 1.659890 0.000000 
#    z 0.000000 0.000000 1.649920 
# 
# From -- ./inp_files/30889.got.cif
#   From: 2010.05.17/outbox.cif.g08.bks.cpg/sg51_16_cif.got.tgz:30889.got - 2010.06.03 11:52:47.
