data_PCOD9400714
_publ_section_title
;
Structure prediction by ZEFSAII (Michael W. Deem and Ramdas Pophale) SiO2 
 PCOD9400714
Probable space group: P M M A
;
_chemical_formula_sum "Si O2"
_cell_formula_units_Z 44
_cell_length_a 10.199789
_cell_length_b 16.573526
_cell_length_c 15.828553
_cell_angle_alpha 90.000000
_cell_angle_beta 90.000000
_cell_angle_gamma 90.000000
_cell_volume 2675.760981
_symmetry_space_group_name_H-M "P M M A"
_symmetry_group_IT_number 51
_symmetry_cell_setting 'orthorhombic'
loop_
_space_group_symop_operation_xyz
x,y,z
1/2-x,-y,z
1/2+x,-y,-z
-x,y,-z
-x,-y,-z
1/2+x,y,-z
1/2-x,y,z
x,-y,z
loop_
_atom_site_type_symbol
_atom_site_label
_atom_site_fract_x
_atom_site_fract_y
_atom_site_fract_z
Si Si1 0.902607 0.000000 0.688076
Si Si2 0.397035 0.822024 0.872564
Si Si3 0.000000 0.698019 0.000000
Si Si4 0.406286 0.409506 0.155646
Si Si5 0.597826 0.000000 0.153444
Si Si6 0.906239 0.741034 0.742933
Si Si7 0.403185 0.837902 0.421454
O O1 0.922448 0.921008 0.630571
O O2 0.750000 0.000000 0.716591
O O3 0.000453 0.000000 0.766892
O O4 0.250000 0.815795 0.836118
O O5 0.419858 0.915681 0.895503
O O6 0.506710 0.796031 0.804954
O O7 0.406284 0.759739 0.949961
O O8 0.940077 0.639960 0.928949
O O9 0.250000 0.416583 0.158660
O O10 0.462722 0.500000 0.156663
O O11 0.443481 0.350551 0.232822
O O12 0.750000 0.000000 0.182817
O O13 0.750000 0.752389 0.760524
O O14 0.927567 0.767498 0.647005
O O15 0.500000 0.833999 0.500000
O O16 0.250000 0.835068 0.447446
#
# Coordination Sequence:
#
# PCOD9400714 Si02
#       7
#     4   8   4   8   4   8   8
#     4  10  19  33  50  71  99 129 165 207 246 287
#     4  10  20  33  49  70  97 132 171 209 247 290
#     4  10  19  31  48  70 102 130 162 203 249 294
#     4   9  17  30  50  74  97 124 160 201 245 295
#     4  10  20  32  48  69  96 132 173 210 245 286
#     4   9  18  33  52  73  99 130 164 201 245 298
#     4  10  20  32  49  74 101 130 164 201 244 289
#
# _framework density 16.443919999999999
#
# number of rings (size 3 to 8) (size 9 to 14) (size 15 to 20)
#    0.000    2.364    1.818    1.091    0.000    2.545 
#    0.000    0.000    0.000    5.455    0.000    0.000 
#    0.000    0.000    0.000    0.000    0.000    0.000 
#
# Total GULP energy -245010.085226 kJ/mol
# GULP energy per Si atom -5568.411028 kJ/mol
# Density = 1.640649 g / cm^3
# Si number density = 16.443920 Si / 1000 Ang^3
#
#
#
# Elastic Constant Matrix: (Units=GPa)
#
#
# Indices 1 2 3 4 5 6 
#
# 1 48.0981 35.9286 31.7806 0.0000 0.0000 0.0000
# 2 35.9286 148.7767 51.8939 0.0000 0.0000 0.0000
# 3 31.7806 51.8939 67.2269 0.0000 0.0000 0.0000
# 4 0.0000 0.0000 0.0000 16.1994 0.0000 0.0000
# 5 0.0000 0.0000 0.0000 0.0000 23.2697 0.0000
# 6 0.0000 0.0000 0.0000 0.0000 0.0000 -11.5971
#
#
#
# Elastic Compliance Matrix: (Units=1/GPa)
#
#
# Indices 1 2 3 4 5 6 
#
# 1 0.031368 -0.003288 -0.012291 0.000000 0.000000 0.000000
# 2 -0.003288 0.009543 -0.005812 0.000000 0.000000 0.000000
# 3 -0.012291 -0.005812 0.025171 0.000000 0.000000 0.000000
# 4 0.000000 0.000000 0.000000 0.061731 0.000000 0.000000
# 5 0.000000 0.000000 0.000000 0.000000 0.042974 0.000000
# 6 0.000000 0.000000 0.000000 0.000000 0.000000 -0.086228
#
#
# Mechanical properties :
#
#
# Convention : Reuss Voigt Hill
#
# Bulk Modulus (GPa) = 42.91646 55.92310 49.41978
# Shear Modulus (GPa) = 37.00759 15.20762 26.10760
#
# Velocity S-wave (km/s) = 4.74913 3.04438 3.98889
# Velocity P-wave (km/s) = 7.49851 6.81468 7.16476
#
# Compressibility (1/GPa) = 0.02330108
#
# Stress axis : x y z
#
# Youngs Moduli (GPa) = 31.87958 104.79182 39.72750
#
# Poissons Ratio (x) = 0.34457 0.48828
# Poissons Ratio (y) = 0.10483 0.23089
# Poissons Ratio (z) = 0.39182 0.60903
#
# Static dielectric constant tensor:
#      x y z
#    x 1.556710 0.000000 0.000000 
#    y 0.000000 1.592150 0.000000 
#    z 0.000000 0.000000 1.529360 
# 
# From -- ./inp_files/20990.got.cif
#   From: 2010.05.17/outbox.cif.g08.bks.cpg/sg51_11_cif.got.tgz:20990.got - 2010.06.03 11:52:47.
