data_PCOD9400473
_publ_section_title
;
Structure prediction by ZEFSAII (Michael W. Deem and Ramdas Pophale) SiO2 
 PCOD9400473
Probable space group: P M M A
;
_chemical_formula_sum "Si O2"
_cell_formula_units_Z 56
_cell_length_a 16.966649
_cell_length_b 8.256491
_cell_length_c 17.100269
_cell_angle_alpha 90.000000
_cell_angle_beta 90.000000
_cell_angle_gamma 90.000000
_cell_volume 2395.490922
_symmetry_space_group_name_H-M "P M M A"
_symmetry_group_IT_number 51
_symmetry_cell_setting 'orthorhombic'
loop_
_space_group_symop_operation_xyz
x,y,z
1/2-x,-y,z
1/2+x,-y,-z
-x,y,-z
-x,-y,-z
1/2+x,y,-z
1/2-x,y,z
x,-y,z
loop_
_atom_site_type_symbol
_atom_site_label
_atom_site_fract_x
_atom_site_fract_y
_atom_site_fract_z
Si Si1 0.250000 0.197659 0.775982
Si Si2 0.099205 0.807102 0.674157
Si Si3 0.655907 0.820002 0.652225
Si Si4 0.836179 0.312128 0.819175
Si Si5 0.841942 0.308014 0.487891
Si Si6 0.082934 0.694797 0.963451
Si Si7 0.750000 0.807670 0.044061
Si Si8 0.004106 0.303936 0.811802
O O1 0.325893 0.249531 0.725971
O O2 0.250000 0.255735 0.865749
O O3 0.250000 0.000000 0.778621
O O4 0.108091 0.735409 0.588253
O O5 0.024398 0.757003 0.725756
O O6 0.102153 0.000000 0.667913
O O7 0.750000 0.829736 0.639297
O O8 0.650673 0.699327 0.725111
O O9 0.624722 0.767697 0.567905
O O10 0.627963 0.000000 0.674760
O O11 0.750000 0.236845 0.835113
O O12 0.832502 0.500000 0.842989
O O13 0.920107 0.244160 0.845629
O O14 0.750000 0.254259 0.474330
O O15 0.839998 0.500000 0.498803
O O16 0.083814 0.500000 0.968486
O O17 0.167664 0.751927 0.993442
O O18 0.071658 0.746346 0.872834
O O19 0.000000 0.748875 0.000000
O O20 0.750000 0.000000 0.045582
O O21 0.001409 0.500000 0.811135
#
# Coordination Sequence:
#
# PCOD9400473 Si02
#       8
#     4   8   8   8   8   8   4   8
#     4   9  18  31  51  79 111 148 187 228 275 333
#     4  11  20  33  52  78 113 150 188 233 283 337
#     4   9  17  30  50  75 103 140 186 236 288 344
#     4   9  18  35  57  78 103 141 188 238 291 347
#     4  10  19  30  47  75 109 146 188 234 284 340
#     4  10  22  41  63  93 129 165 203 247 297 355
#     4  11  21  39  65  93 123 164 207 244 297 357
#     4  10  21  37  57  84 115 147 187 235 288 345
#
# _framework density 23.377255000000002
#
# number of rings (size 3 to 8) (size 9 to 14) (size 15 to 20)
#    0.000    2.143    2.143    1.500    0.000    3.143 
#    1.286    0.714    0.000    4.286    0.000    0.000 
#    0.000    0.000    0.000    0.000    0.000    0.000 
#
# Total GULP energy -312672.357279 kJ/mol
# GULP energy per Si atom -5583.434951 kJ/mol
# Density = 2.332405 g / cm^3
# Si number density = 23.377255 Si / 1000 Ang^3
#
#
#
# Elastic Constant Matrix: (Units=GPa)
#
#
# Indices 1 2 3 4 5 6 
#
# 1 140.5578 4.3464 16.9101 0.0000 0.0000 0.0000
# 2 4.3464 28.8812 0.1137 0.0000 0.0000 0.0000
# 3 16.9101 0.1137 75.4567 0.0000 0.0000 0.0000
# 4 0.0000 0.0000 0.0000 10.1694 0.0000 0.0000
# 5 0.0000 0.0000 0.0000 0.0000 29.9467 0.0000
# 6 0.0000 0.0000 0.0000 0.0000 0.0000 16.1589
#
#
#
# Elastic Compliance Matrix: (Units=1/GPa)
#
#
# Indices 1 2 3 4 5 6 
#
# 1 0.007346 -0.001099 -0.001645 0.000000 0.000000 0.000000
# 2 -0.001099 0.034789 0.000194 0.000000 0.000000 0.000000
# 3 -0.001645 0.000194 0.013621 0.000000 0.000000 0.000000
# 4 0.000000 0.000000 0.000000 0.098334 0.000000 0.000000
# 5 0.000000 0.000000 0.000000 0.000000 0.033393 0.000000
# 6 0.000000 0.000000 0.000000 0.000000 0.000000 0.061885
#
#
# Mechanical properties :
#
#
# Convention : Reuss Voigt Hill
#
# Bulk Modulus (GPa) = 19.74068 31.95955 25.85011
# Shear Modulus (GPa) = 18.42612 26.15671 22.29142
#
# Velocity S-wave (km/s) = 2.81055 3.34862 3.09131
# Velocity P-wave (km/s) = 4.35832 5.35275 4.88093
#
# Compressibility (1/GPa) = 0.05065682
#
# Stress axis : x y z
#
# Youngs Moduli (GPa) = 136.12177 28.74447 73.41647
#
# Poissons Ratio (x) = 0.03159 0.12075
# Poissons Ratio (y) = 0.14961 -0.01424
# Poissons Ratio (z) = 0.22388 -0.00557
#
# Static dielectric constant tensor:
#      x y z
#    x 1.934210 0.000000 0.000000 
#    y 0.000000 1.813400 0.000000 
#    z 0.000000 0.000000 1.902720 
# 
# From -- ./inp_files/33510.got.cif
#   From: 2010.05.17/outbox.cif.g08.bks.cpg/sg51_17_cif.got.tgz:33510.got - 2010.06.03 11:52:47.
