data_PCOD9400885
_publ_section_title
;
Structure prediction by ZEFSAII (Michael W. Deem and Ramdas Pophale) SiO2 
 PCOD9400885
Probable space group: P M M A
;
_chemical_formula_sum "Si O2"
_cell_formula_units_Z 64
_cell_length_a 7.405919
_cell_length_b 25.757839
_cell_length_c 14.186724
_cell_angle_alpha 90.000000
_cell_angle_beta 90.000000
_cell_angle_gamma 90.000000
_cell_volume 2706.266127
_symmetry_space_group_name_H-M "P M M A"
_symmetry_group_IT_number 51
_symmetry_cell_setting 'orthorhombic'
loop_
_space_group_symop_operation_xyz
x,y,z
1/2-x,-y,z
1/2+x,-y,-z
-x,y,-z
-x,-y,-z
1/2+x,y,-z
1/2-x,y,z
x,-y,z
loop_
_atom_site_type_symbol
_atom_site_label
_atom_site_fract_x
_atom_site_fract_y
_atom_site_fract_z
Si Si1 0.034482 0.666558 0.111142
Si Si2 0.534937 0.940799 0.399098
Si Si3 0.965719 0.443635 0.387398
Si Si4 0.966515 0.329577 0.388720
Si Si5 0.534358 0.445281 0.887571
Si Si6 0.970087 0.059450 0.190224
Si Si7 0.533784 0.837245 0.105630
Si Si8 0.952203 0.244981 0.249177
O O1 0.250000 0.669627 0.126227
O O2 0.965473 0.610163 0.145123
O O3 0.942650 0.712161 0.166918
O O4 0.000000 0.670474 0.000000
O O5 0.500000 0.914294 0.500000
O O6 0.750000 0.943628 0.392733
O O7 0.475155 0.922361 0.296137
O O8 0.462940 0.000000 0.405761
O O9 0.750000 0.443807 0.372143
O O10 0.037354 0.500000 0.353286
O O11 0.036010 0.386788 0.356578
O O12 0.000000 0.443641 0.500000
O O13 0.750000 0.330184 0.373715
O O14 0.037157 0.279178 0.333010
O O15 0.000000 0.325003 0.500000
O O16 0.750000 0.445267 0.873602
O O17 0.459980 0.500000 0.851320
O O18 0.500000 0.445337 0.000000
O O19 0.750000 0.057917 0.187622
O O20 0.030109 0.103500 0.117911
O O21 0.030127 0.000000 0.174883
O O22 0.750000 0.836462 0.116339
O O23 0.462037 0.802962 0.192821
O O24 0.500000 0.817408 0.000000
O O25 0.750000 0.229054 0.280459
#
# Coordination Sequence:
#
# PCOD9400885 Si02
#       8
#     8   8   8   8   8   8   8   8
#     4  10  19  31  50  73  96 126 164 205 247 291
#     4   8  13  23  42  68  98 132 166 197 231 276
#     4   8  13  23  42  67  93 122 157 197 242 292
#     4   9  18  33  52  73  99 131 166 206 251 297
#     4   8  14  25  41  62  89 120 154 194 241 290
#     4   8  15  30  52  76 102 134 170 205 248 306
#     4  10  21  37  56  76 100 131 166 207 255 305
#     4  10  21  36  52  72 100 132 166 204 247 298
#
# _framework density 23.648820000000001
#
# number of rings (size 3 to 8) (size 9 to 14) (size 15 to 20)
#    0.000    3.125    0.000    1.500    0.000    2.750 
#    0.000    1.875    0.000    1.500    0.000    3.500 
#    0.000    0.000    0.000    0.000    0.000    0.000 
#
# Total GULP energy -356710.177740 kJ/mol
# GULP energy per Si atom -5573.596527 kJ/mol
# Density = 2.359499 g / cm^3
# Si number density = 23.648820 Si / 1000 Ang^3
#
#
#
# Elastic Constant Matrix: (Units=GPa)
#
#
# Indices 1 2 3 4 5 6 
#
# 1 95.5109 3.9661 -10.7264 0.0000 0.0000 0.0000
# 2 3.9661 131.8852 42.0403 0.0000 0.0000 0.0000
# 3 -10.7264 42.0403 111.9276 0.0000 0.0000 0.0000
# 4 0.0000 0.0000 0.0000 51.3225 0.0000 0.0000
# 5 0.0000 0.0000 0.0000 0.0000 13.0413 0.0000
# 6 0.0000 0.0000 0.0000 0.0000 0.0000 4.3689
#
#
#
# Elastic Compliance Matrix: (Units=1/GPa)
#
#
# Indices 1 2 3 4 5 6 
#
# 1 0.010646 -0.000733 0.001296 0.000000 0.000000 0.000000
# 2 -0.000733 0.008664 -0.003325 0.000000 0.000000 0.000000
# 3 0.001296 -0.003325 0.010307 0.000000 0.000000 0.000000
# 4 0.000000 0.000000 0.000000 0.019485 0.000000 0.000000
# 5 0.000000 0.000000 0.000000 0.000000 0.076680 0.000000
# 6 0.000000 0.000000 0.000000 0.000000 0.000000 0.228889
#
#
# Mechanical properties :
#
#
# Convention : Reuss Voigt Hill
#
# Bulk Modulus (GPa) = 41.50553 45.54263 43.52408
# Shear Modulus (GPa) = 13.57862 34.01611 23.79736
#
# Velocity S-wave (km/s) = 2.39880 3.79672 3.17564
# Velocity P-wave (km/s) = 5.02605 6.20643 5.64717
#
# Compressibility (1/GPa) = 0.02409318
#
# Stress axis : x y z
#
# Youngs Moduli (GPa) = 93.93236 115.41821 97.01941
#
# Poissons Ratio (x) = 0.08462 -0.12570
# Poissons Ratio (y) = 0.06887 0.32254
# Poissons Ratio (z) = -0.12170 0.38371
#
# Static dielectric constant tensor:
#      x y z
#    x 1.535440 0.000000 0.000000 
#    y 0.000000 1.940300 0.000000 
#    z 0.000000 0.000000 1.886400 
# 
# From -- ./inp_files/22377.got.cif
#   From: 2010.05.17/outbox.cif.g08.bks.cpg/sg51_12_cif.got.tgz:22377.got - 2010.06.03 11:52:47.
