data_PCOD9400519
_publ_section_title
;
Structure prediction by ZEFSAII (Michael W. Deem and Ramdas Pophale) SiO2 
 PCOD9400519
Probable space group: P M M A
;
_chemical_formula_sum "Si O2"
_cell_formula_units_Z 56
_cell_length_a 19.182399
_cell_length_b 15.263768
_cell_length_c 10.189018
_cell_angle_alpha 90.000000
_cell_angle_beta 90.000000
_cell_angle_gamma 90.000000
_cell_volume 2983.300536
_symmetry_space_group_name_H-M "P M M A"
_symmetry_group_IT_number 51
_symmetry_cell_setting 'orthorhombic'
loop_
_space_group_symop_operation_xyz
x,y,z
1/2-x,-y,z
1/2+x,-y,-z
-x,y,-z
-x,-y,-z
1/2+x,y,-z
1/2-x,y,z
x,-y,z
loop_
_atom_site_type_symbol
_atom_site_label
_atom_site_fract_x
_atom_site_fract_y
_atom_site_fract_z
Si Si1 0.426197 0.213417 0.667292
Si Si2 0.432790 0.099332 0.921057
Si Si3 0.669701 0.638567 0.975052
Si Si4 0.072952 0.598570 0.777963
Si Si5 0.830033 0.161766 0.875866
Si Si6 0.911706 0.405425 0.723285
Si Si7 0.091409 0.783520 0.381490
O O1 0.411026 0.157131 0.796506
O O2 0.409524 0.315787 0.692443
O O3 0.392380 0.186679 0.529036
O O4 0.509464 0.203161 0.647022
O O5 0.450002 0.000000 0.879332
O O6 0.500000 0.136830 0.000000
O O7 0.372388 0.099559 0.028479
O O8 0.750000 0.616807 0.007298
O O9 0.615924 0.610823 0.087891
O O10 0.665361 0.742490 0.945524
O O11 0.644639 0.596992 0.838771
O O12 0.087817 0.500000 0.727086
O O13 0.988547 0.603830 0.789866
O O14 0.750000 0.137462 0.862629
O O15 0.865295 0.171576 0.733789
O O16 0.910691 0.500000 0.655352
O O17 0.899323 0.321610 0.632582
#
# Coordination Sequence:
#
# PCOD9400519 Si02
#       7
#     8   8   8   8   8   8   8
#     4  10  19  36  58  83 117 148 186 237 283 330
#     4  11  22  38  63  91 114 143 184 233 286 341
#     4  10  19  30  48  75 106 143 187 235 280 325
#     4  10  19  30  49  77 109 147 187 229 280 330
#     4  10  20  37  59  83 113 150 189 233 284 338
#     4   9  18  30  47  73 107 147 190 230 274 330
#     4   9  19  34  56  81 113 153 188 226 285 337
#
# _framework density 18.771156000000001
#
# number of rings (size 3 to 8) (size 9 to 14) (size 15 to 20)
#    0.000    2.143    2.857    0.857    0.000    3.143 
#    0.000    6.429    0.000    0.000    0.000    2.000 
#    0.000    0.000    0.000    0.000    0.000    0.000 
#
# Total GULP energy -312164.008209 kJ/mol
# GULP energy per Si atom -5574.357289 kJ/mol
# Density = 1.872843 g / cm^3
# Si number density = 18.771156 Si / 1000 Ang^3
#
#
#
# Elastic Constant Matrix: (Units=GPa)
#
#
# Indices 1 2 3 4 5 6 
#
# 1 51.9203 13.6539 40.3220 0.0000 0.0000 0.0000
# 2 13.6539 51.3264 37.3993 0.0000 0.0000 0.0000
# 3 40.3220 37.3993 131.6655 0.0000 0.0000 0.0000
# 4 0.0000 0.0000 0.0000 -0.4676 0.0000 0.0000
# 5 0.0000 0.0000 0.0000 0.0000 13.0992 0.0000
# 6 0.0000 0.0000 0.0000 0.0000 0.0000 -4.5064
#
#
#
# Elastic Compliance Matrix: (Units=1/GPa)
#
#
# Indices 1 2 3 4 5 6 
#
# 1 0.025347 -0.001370 -0.007373 0.000000 0.000000 0.000000
# 2 -0.001370 0.024642 -0.006580 0.000000 0.000000 0.000000
# 3 -0.007373 -0.006580 0.011722 0.000000 0.000000 0.000000
# 4 0.000000 0.000000 0.000000 -2.138539 0.000000 0.000000
# 5 0.000000 0.000000 0.000000 0.000000 0.076341 0.000000
# 6 0.000000 0.000000 0.000000 0.000000 0.000000 -0.221907
#
#
# Mechanical properties :
#
#
# Convention : Reuss Voigt Hill
#
# Bulk Modulus (GPa) = 32.19136 46.40695 39.29915
# Shear Modulus (GPa) = -2.29211 11.19417 4.45103
#
# Velocity S-wave (km/s) = -1.10622 2.44468 1.54154
# Velocity P-wave (km/s) = 3.94398 5.72230 4.91425
#
# Compressibility (1/GPa) = 0.03106424
#
# Stress axis : x y z
#
# Youngs Moduli (GPa) = 39.45294 40.58088 85.30986
#
# Poissons Ratio (x) = 0.05561 0.62899
# Poissons Ratio (y) = 0.05406 0.56133
# Poissons Ratio (z) = 0.29089 0.26702
#
# Static dielectric constant tensor:
#      x y z
#    x 1.633510 0.000000 0.000000 
#    y 0.000000 1.693330 0.000000 
#    z 0.000000 0.000000 1.635480 
# 
# From -- ./inp_files/11117.got.cif
#   From: 2010.05.17/outbox.cif.g08.bks.cpg/sg51_6_cif.got.tgz:11117.got - 2010.06.03 11:52:47.
