data_PCOD9400243
_publ_section_title
;
Structure prediction by ZEFSAII (Michael W. Deem and Ramdas Pophale) SiO2 
 PCOD9400243
Probable space group: P M M A
;
_chemical_formula_sum "Si O2"
_cell_formula_units_Z 64
_cell_length_a 9.104463
_cell_length_b 14.715835
_cell_length_c 31.772767
_cell_angle_alpha 90.000000
_cell_angle_beta 90.000000
_cell_angle_gamma 90.000000
_cell_volume 4256.908182
_symmetry_space_group_name_H-M "P M M A"
_symmetry_group_IT_number 51
_symmetry_cell_setting 'orthorhombic'
loop_
_space_group_symop_operation_xyz
x,y,z
1/2-x,-y,z
1/2+x,-y,-z
-x,y,-z
-x,-y,-z
1/2+x,y,-z
1/2-x,y,z
x,-y,z
loop_
_atom_site_type_symbol
_atom_site_label
_atom_site_fract_x
_atom_site_fract_y
_atom_site_fract_z
Si Si1 0.573955 0.106626 0.207987
Si Si2 0.572730 0.791742 0.713727
Si Si3 0.424948 0.107074 0.044541
Si Si4 0.073970 0.602354 0.839717
Si Si5 0.926498 0.210175 0.121202
Si Si6 0.426651 0.398350 0.251240
Si Si7 0.073633 0.106852 0.371046
Si Si8 0.580826 0.889393 0.457562
O O1 0.750000 0.115116 0.213419
O O2 0.494862 0.153742 0.247165
O O3 0.536350 0.156151 0.164183
O O4 0.537214 0.000000 0.205814
O O5 0.750000 0.798767 0.715923
O O6 0.531574 0.685971 0.719356
O O7 0.526609 0.835721 0.669541
O O8 0.250000 0.119042 0.041678
O O9 0.492173 0.166146 0.081951
O O10 0.454586 0.000000 0.052975
O O11 0.500000 0.129485 0.000000
O O12 0.250000 0.607480 0.833345
O O13 0.038359 0.500000 0.854470
O O14 0.034223 0.684551 0.870501
O O15 0.997460 0.615841 0.794633
O O16 0.750000 0.203260 0.115241
O O17 0.250000 0.396629 0.246787
O O18 0.468719 0.500000 0.265768
O O19 0.250000 0.113506 0.375442
O O20 0.999264 0.137304 0.414461
O O21 0.038656 0.000000 0.364080
O O22 0.500000 0.858443 0.500000
O O23 0.750000 0.861138 0.457601
O O24 0.577371 0.000000 0.458196
#
# Coordination Sequence:
#
# PCOD9400243 Si02
#       8
#     8   8   8   8   8   8   8   8
#     4  10  20  31  43  63  92 124 155 187 223 263
#     4  10  19  30  44  62  88 122 157 190 225 268
#     4  10  21  36  54  75  97 122 152 186 225 269
#     4   9  17  30  49  71  93 119 152 188 227 270
#     4  10  19  32  50  71  96 123 152 188 228 269
#     4   9  17  29  45  65  89 117 151 193 235 270
#     4   9  17  28  40  56  82 117 153 186 221 262
#     4   9  16  26  41  60  81 108 144 185 225 264
#
# _framework density 15.034386
#
# number of rings (size 3 to 8) (size 9 to 14) (size 15 to 20)
#    0.000    2.500    1.250    1.500    0.000    5.000 
#    0.000    1.250    0.000    0.375    0.000    0.000 
#    0.000    0.500    0.000    0.875    0.000    1.250 
#
# Total GULP energy -356742.706988 kJ/mol
# GULP energy per Si atom -5574.104797 kJ/mol
# Density = 1.500017 g / cm^3
# Si number density = 15.034386 Si / 1000 Ang^3
#
#
#
# Elastic Constant Matrix: (Units=GPa)
#
#
# Indices 1 2 3 4 5 6 
#
# 1 30.6654 40.8690 51.2592 0.0000 0.0000 0.0000
# 2 40.8690 108.5168 82.1342 0.0000 0.0000 0.0000
# 3 51.2592 82.1342 143.5353 0.0000 0.0000 0.0000
# 4 0.0000 0.0000 0.0000 8.5947 0.0000 0.0000
# 5 0.0000 0.0000 0.0000 0.0000 28.2876 0.0000
# 6 0.0000 0.0000 0.0000 0.0000 0.0000 16.7987
#
#
#
# Elastic Compliance Matrix: (Units=1/GPa)
#
#
# Indices 1 2 3 4 5 6 
#
# 1 0.098077 -0.018394 -0.024500 0.000000 0.000000 0.000000
# 2 -0.018394 0.019705 -0.004707 0.000000 0.000000 0.000000
# 3 -0.024500 -0.004707 0.018410 0.000000 0.000000 0.000000
# 4 0.000000 0.000000 0.000000 0.116350 0.000000 0.000000
# 5 0.000000 0.000000 0.000000 0.000000 0.035351 0.000000
# 6 0.000000 0.000000 0.000000 0.000000 0.000000 0.059528
#
#
# Mechanical properties :
#
#
# Convention : Reuss Voigt Hill
#
# Bulk Modulus (GPa) = 24.39573 70.13805 47.26689
# Shear Modulus (GPa) = 10.95801 17.96654 14.46227
#
# Velocity S-wave (km/s) = 2.70268 3.46067 3.10489
# Velocity P-wave (km/s) = 5.09913 7.91968 6.66042
#
# Compressibility (1/GPa) = 0.04099078
#
# Stress axis : x y z
#
# Youngs Moduli (GPa) = 10.19603 50.74810 54.31914
#
# Poissons Ratio (x) = 0.93346 1.33081
# Poissons Ratio (y) = 0.18755 0.25568
# Poissons Ratio (z) = 0.24980 0.23887
#
# Static dielectric constant tensor:
#      x y z
#    x 1.502450 0.000000 0.000000 
#    y 0.000000 1.508560 0.000000 
#    z 0.000000 0.000000 1.466010 
# 
# From -- ./inp_files/37626.got.cif
#   From: 2010.05.17/outbox.cif.g08.bks.cpg/sg51_19_cif.got.tgz:37626.got - 2010.06.03 11:52:47.
