data_PCOD9400675
_publ_section_title
;
Structure prediction by ZEFSAII (Michael W. Deem and Ramdas Pophale) SiO2 
 PCOD9400675
Probable space group: P M M A
;
_chemical_formula_sum "Si O2"
_cell_formula_units_Z 64
_cell_length_a 25.421835
_cell_length_b 9.291243
_cell_length_c 18.268358
_cell_angle_alpha 90.000000
_cell_angle_beta 90.000000
_cell_angle_gamma 90.000000
_cell_volume 4314.994316
_symmetry_space_group_name_H-M "P M M A"
_symmetry_group_IT_number 51
_symmetry_cell_setting 'orthorhombic'
loop_
_space_group_symop_operation_xyz
x,y,z
1/2-x,-y,z
1/2+x,-y,-z
-x,y,-z
-x,-y,-z
1/2+x,y,-z
1/2-x,y,z
x,-y,z
loop_
_atom_site_type_symbol
_atom_site_label
_atom_site_fract_x
_atom_site_fract_y
_atom_site_fract_z
Si Si1 0.810905 0.827216 0.211943
Si Si2 0.186215 0.667421 0.641666
Si Si3 0.313071 0.669541 0.187228
Si Si4 0.602248 0.171674 0.093493
Si Si5 0.814020 0.165160 0.664884
Si Si6 0.003680 0.334732 0.088707
Si Si7 0.889805 0.171557 0.920378
Si Si8 0.813981 0.331971 0.520974
O O1 0.750000 0.782845 0.199126
O O2 0.830075 0.758806 0.288215
O O3 0.849152 0.787901 0.145352
O O4 0.811264 0.000000 0.218580
O O5 0.250000 0.673672 0.640566
O O6 0.171662 0.500000 0.650582
O O7 0.168744 0.715267 0.560449
O O8 0.250000 0.685160 0.179699
O O9 0.325396 0.500000 0.185955
O O10 0.328730 0.740032 0.264878
O O11 0.343018 0.753202 0.123377
O O12 0.549784 0.258427 0.114152
O O13 0.592576 0.000000 0.100823
O O14 0.614464 0.197927 0.007781
O O15 0.750000 0.164654 0.662988
O O16 0.832170 0.236295 0.588853
O O17 0.831266 0.000000 0.672373
O O18 0.008009 0.500000 0.113565
O O19 0.055458 0.242534 0.105881
O O20 0.000000 0.336417 0.000000
O O21 0.890074 0.000000 0.908843
O O22 0.750000 0.327202 0.521212
O O23 0.828137 0.500000 0.530961
#
# Coordination Sequence:
#
# PCOD9400675 Si02
#       8
#     8   8   8   8   8   8   8   8
#     4   9  17  28  41  59  86 118 148 178 213 253
#     4   8  14  24  37  54  78 109 143 176 210 250
#     4  10  20  32  44  60  87 120 149 178 214 256
#     4   9  18  31  46  64  86 113 145 181 221 261
#     4   9  16  25  38  57  80 107 141 177 211 250
#     4   9  17  30  48  67  85 105 135 178 224 265
#     4  10  19  31  48  66  85 111 144 182 221 261
#     4   8  13  22  36  53  75 105 139 173 210 250
#
# _framework density 14.832001
#
# number of rings (size 3 to 8) (size 9 to 14) (size 15 to 20)
#    0.000    3.000    0.000    2.250    0.000    5.750 
#    0.000    3.750    0.000    1.500    0.000    0.000 
#    0.000    1.000    0.000   10.500    0.000    8.750 
#
# Total GULP energy -356272.872796 kJ/mol
# GULP energy per Si atom -5566.763637 kJ/mol
# Density = 1.479824 g / cm^3
# Si number density = 14.832001 Si / 1000 Ang^3
#
#
#
# Elastic Constant Matrix: (Units=GPa)
#
#
# Indices 1 2 3 4 5 6 
#
# 1 42.3829 41.4200 40.7908 0.0000 0.0000 0.0000
# 2 41.4200 85.9379 63.3768 0.0000 0.0000 0.0000
# 3 40.7908 63.3768 93.2071 0.0000 0.0000 0.0000
# 4 0.0000 0.0000 0.0000 27.4502 0.0000 0.0000
# 5 0.0000 0.0000 0.0000 0.0000 -1.1221 0.0000
# 6 0.0000 0.0000 0.0000 0.0000 0.0000 19.0768
#
#
#
# Elastic Compliance Matrix: (Units=1/GPa)
#
#
# Indices 1 2 3 4 5 6 
#
# 1 0.049601 -0.015842 -0.010935 0.000000 0.000000 0.000000
# 2 -0.015842 0.028400 -0.012378 0.000000 0.000000 0.000000
# 3 -0.010935 -0.012378 0.023931 0.000000 0.000000 0.000000
# 4 0.000000 0.000000 0.000000 0.036430 0.000000 0.000000
# 5 0.000000 0.000000 0.000000 0.000000 -0.891213 0.000000
# 6 0.000000 0.000000 0.000000 0.000000 0.000000 0.052420
#
#
# Mechanical properties :
#
#
# Convention : Reuss Voigt Hill
#
# Bulk Modulus (GPa) = 42.33390 56.96700 49.65045
# Shear Modulus (GPa) = -8.14004 14.14369 3.00182
#
# Velocity S-wave (km/s) = -2.34522 3.09138 1.42418
# Velocity P-wave (km/s) = 4.61203 7.15777 6.02098
#
# Compressibility (1/GPa) = 0.02362173
#
# Stress axis : x y z
#
# Youngs Moduli (GPa) = 20.16085 35.21126 41.78708
#
# Poissons Ratio (x) = 0.55782 0.45696
# Poissons Ratio (y) = 0.31939 0.51723
# Poissons Ratio (z) = 0.22047 0.43584
#
# Static dielectric constant tensor:
#      x y z
#    x 1.469570 0.000000 0.000000 
#    y 0.000000 1.497230 0.000000 
#    z 0.000000 0.000000 1.493620 
# 
# From -- ./inp_files/30607.got.cif
#   From: 2010.05.17/outbox.cif.g08.bks.cpg/sg51_16_cif.got.tgz:30607.got - 2010.06.03 11:52:47.
