data_PCOD9400643
_publ_section_title
;
Structure prediction by ZEFSAII (Michael W. Deem and Ramdas Pophale) SiO2 
 PCOD9400643
Probable space group: P M M A
;
_chemical_formula_sum "Si O2"
_cell_formula_units_Z 40
_cell_length_a 13.996534
_cell_length_b 8.022744
_cell_length_c 19.072686
_cell_angle_alpha 90.000000
_cell_angle_beta 90.000000
_cell_angle_gamma 90.000000
_cell_volume 2141.683529
_symmetry_space_group_name_H-M "P M M A"
_symmetry_group_IT_number 51
_symmetry_cell_setting 'orthorhombic'
loop_
_space_group_symop_operation_xyz
x,y,z
1/2-x,-y,z
1/2+x,-y,-z
-x,y,-z
-x,-y,-z
1/2+x,y,-z
1/2-x,y,z
x,-y,z
loop_
_atom_site_type_symbol
_atom_site_label
_atom_site_fract_x
_atom_site_fract_y
_atom_site_fract_z
Si Si1 0.554467 0.192126 0.099631
Si Si2 0.642466 0.694437 0.958328
Si Si3 0.856326 0.703459 0.538171
Si Si4 0.860073 0.298304 0.246375
Si Si5 0.049499 0.296561 0.607859
O O1 0.442275 0.218563 0.084382
O O2 0.584532 0.243613 0.177067
O O3 0.578237 0.000000 0.088051
O O4 0.612220 0.291418 0.039932
O O5 0.750000 0.759519 0.948422
O O6 0.641306 0.500000 0.938992
O O7 0.750000 0.761172 0.555588
O O8 0.855879 0.500000 0.539177
O O9 0.886061 0.751876 0.459028
O O10 0.941591 0.756831 0.589541
O O11 0.750000 0.242163 0.243246
O O12 0.859665 0.500000 0.247956
O O13 0.909510 0.239015 0.318168
O O14 0.049906 0.500000 0.609010
#
# Coordination Sequence:
#
# PCOD9400643 Si02
#       5
#     8   8   8   8   8
#     4  11  22  34  51  75 103 132 162 199 241 289
#     4  10  20  36  58  79  99 126 161 201 242 286
#     4   8  12  20  36  59  87 117 151 196 248 296
#     4  10  19  31  47  67  95 130 165 203 247 294
#     4   8  14  23  37  60  89 120 155 196 245 299
#
# _framework density 18.676897
#
# number of rings (size 3 to 8) (size 9 to 14) (size 15 to 20)
#    0.000    2.600    0.000    6.000    0.000    6.800 
#    0.000    1.000    0.000    3.600    0.000    2.800 
#    0.000    1.600    0.000    0.000    0.000    0.000 
#
# Total GULP energy -223132.605976 kJ/mol
# GULP energy per Si atom -5578.315149 kJ/mol
# Density = 1.863439 g / cm^3
# Si number density = 18.676897 Si / 1000 Ang^3
#
#
#
# Elastic Constant Matrix: (Units=GPa)
#
#
# Indices 1 2 3 4 5 6 
#
# 1 148.9943 -0.3842 71.0656 0.0000 0.0000 0.0000
# 2 -0.3842 20.0917 0.7280 0.0000 0.0000 0.0000
# 3 71.0656 0.7280 130.8700 0.0000 0.0000 0.0000
# 4 0.0000 0.0000 0.0000 -23.6179 0.0000 0.0000
# 5 0.0000 0.0000 0.0000 0.0000 14.0538 0.0000
# 6 0.0000 0.0000 0.0000 0.0000 0.0000 -18.9199
#
#
#
# Elastic Compliance Matrix: (Units=1/GPa)
#
#
# Indices 1 2 3 4 5 6 
#
# 1 0.009060 0.000352 -0.004922 0.000000 0.000000 0.000000
# 2 0.000352 0.049796 -0.000468 0.000000 0.000000 0.000000
# 3 -0.004922 -0.000468 0.010316 0.000000 0.000000 0.000000
# 4 0.000000 0.000000 0.000000 -0.042341 0.000000 0.000000
# 5 0.000000 0.000000 0.000000 0.000000 0.071155 0.000000
# 6 0.000000 0.000000 0.000000 0.000000 0.000000 -0.052854
#
#
# Mechanical properties :
#
#
# Convention : Reuss Voigt Hill
#
# Bulk Modulus (GPa) = 16.92168 49.19720 33.05944
# Shear Modulus (GPa) = 66.74941 9.53964 38.14452
#
# Velocity S-wave (km/s) = 5.98470 2.26248 4.52413
# Velocity P-wave (km/s) = 7.53892 5.76398 6.71040
#
# Compressibility (1/GPa) = 0.05909578
#
# Stress axis : x y z
#
# Youngs Moduli (GPa) = 110.37368 20.08212 96.93255
#
# Poissons Ratio (x) = -0.00706 0.47709
# Poissons Ratio (y) = -0.03881 0.04536
# Poissons Ratio (z) = 0.54324 0.00940
#
# Static dielectric constant tensor:
#      x y z
#    x 1.653590 0.000000 0.000000 
#    y 0.000000 1.647900 0.000000 
#    z 0.000000 0.000000 1.611590 
# 
# From -- ./inp_files/29250.got.cif
#   From: 2010.05.17/outbox.cif.g08.bks.cpg/sg51_15_cif.got.tgz:29250.got - 2010.06.03 11:52:47.
