data_PCOD9400180
_publ_section_title
;
Structure prediction by ZEFSAII (Michael W. Deem and Ramdas Pophale) SiO2 
 PCOD9400180
Probable space group: P M M A
;
_chemical_formula_sum "Si O2"
_cell_formula_units_Z 38
_cell_length_a 14.600256
_cell_length_b 24.024929
_cell_length_c 5.240846
_cell_angle_alpha 90.000000
_cell_angle_beta 90.000000
_cell_angle_gamma 90.000000
_cell_volume 1838.332148
_symmetry_space_group_name_H-M "P M M A"
_symmetry_group_IT_number 51
_symmetry_cell_setting 'orthorhombic'
loop_
_space_group_symop_operation_xyz
x,y,z
1/2-x,-y,z
1/2+x,-y,-z
-x,y,-z
-x,-y,-z
1/2+x,y,-z
1/2-x,y,z
x,-y,z
loop_
_atom_site_type_symbol
_atom_site_label
_atom_site_fract_x
_atom_site_fract_y
_atom_site_fract_z
Si Si1 0.642221 0.123835 0.103323
Si Si2 0.750000 0.417624 0.544380
Si Si3 0.137697 0.936028 0.397489
Si Si4 0.110818 0.680676 0.500892
Si Si5 0.109611 0.747232 0.000789
Si Si6 0.750000 0.500000 0.044151
O O1 0.750000 0.110918 0.112498
O O2 0.603877 0.088570 0.868931
O O3 0.634641 0.189091 0.048773
O O4 0.605525 0.103414 0.373623
O O5 0.661348 0.377484 0.540245
O O6 0.750000 0.452317 0.809779
O O7 0.750000 0.452443 0.278640
O O8 0.250000 0.934741 0.390494
O O9 0.111707 0.000000 0.437606
O O10 0.138112 0.722359 0.272146
O O11 0.000000 0.674159 0.500000
O O12 0.139643 0.708176 0.768040
O O13 0.000000 0.745550 0.000000
#
# Coordination Sequence:
#
# PCOD9400180 Si02
#       6
#     8   4   8   8   8   2
#     4  10  19  29  49  75  99 131 181 225 278 340
#     4  11  22  42  66  86 128 156 187 244 264 326
#     4   9  17  30  46  68  97 132 175 231 280 329
#     4  10  22  38  60  88 116 157 194 225 282 337
#     4  10  21  36  53  80 116 145 181 230 283 340
#     4  10  24  42  62  98 120 156 200 226 288 306
#
# _framework density 20.670911
#
# number of rings (size 3 to 8) (size 9 to 14) (size 15 to 20)
#    0.000    2.105    0.000    3.158    2.947    2.526 
#    0.000    3.158    0.000    3.789    0.000    0.000 
#    0.000    0.000    0.000    0.000    0.000    0.000 
#
# Total GULP energy -211723.809342 kJ/mol
# GULP energy per Si atom -5571.679193 kJ/mol
# Density = 2.062386 g / cm^3
# Si number density = 20.670911 Si / 1000 Ang^3
#
#
#
# Elastic Constant Matrix: (Units=GPa)
#
#
# Indices 1 2 3 4 5 6 
#
# 1 67.8441 8.5501 18.7661 0.0000 0.0000 0.0000
# 2 8.5501 118.8698 50.9204 0.0000 0.0000 0.0000
# 3 18.7661 50.9204 160.2963 0.0000 0.0000 0.0000
# 4 0.0000 0.0000 0.0000 49.1286 0.0000 0.0000
# 5 0.0000 0.0000 0.0000 0.0000 1.8377 0.0000
# 6 0.0000 0.0000 0.0000 0.0000 0.0000 -14.5083
#
#
#
# Elastic Compliance Matrix: (Units=1/GPa)
#
#
# Indices 1 2 3 4 5 6 
#
# 1 0.015248 -0.000384 -0.001663 0.000000 0.000000 0.000000
# 2 -0.000384 0.009747 -0.003051 0.000000 0.000000 0.000000
# 3 -0.001663 -0.003051 0.007402 0.000000 0.000000 0.000000
# 4 0.000000 0.000000 0.000000 0.020355 0.000000 0.000000
# 5 0.000000 0.000000 0.000000 0.000000 0.544153 0.000000
# 6 0.000000 0.000000 0.000000 0.000000 0.000000 -0.068926
#
#
# Mechanical properties :
#
#
# Convention : Reuss Voigt Hill
#
# Bulk Modulus (GPa) = 45.04434 55.94260 50.49347
# Shear Modulus (GPa) = 9.16459 25.20983 17.18721
#
# Velocity S-wave (km/s) = 2.10789 3.49604 2.88665
# Velocity P-wave (km/s) = 5.26904 6.58928 5.96579
#
# Compressibility (1/GPa) = 0.02220035
#
# Stress axis : x y z
#
# Youngs Moduli (GPa) = 65.58189 102.59212 135.09035
#
# Poissons Ratio (x) = 0.03944 0.22466
# Poissons Ratio (y) = 0.02521 0.41221
# Poissons Ratio (z) = 0.10906 0.31305
#
# Static dielectric constant tensor:
#      x y z
#    x 1.788350 0.000000 0.000000 
#    y 0.000000 1.692740 0.000000 
#    z 0.000000 0.000000 1.739430 
# 
# From -- ./inp_files/1958.got.cif
#   From: 2010.05.17/outbox.cif.g08.bks.cpg/sg51_1_cif.got.tgz:1958.got - 2010.06.03 11:52:47.
