data_PCOD9400031
_publ_section_title
;
Structure prediction by ZEFSAII (Michael W. Deem and Ramdas Pophale) SiO2 
 PCOD9400031
Probable space group: P M M A
;
_chemical_formula_sum "Si O2"
_cell_formula_units_Z 64
_cell_length_a 21.354740
_cell_length_b 7.463556
_cell_length_c 21.652249
_cell_angle_alpha 90.000000
_cell_angle_beta 90.000000
_cell_angle_gamma 90.000000
_cell_volume 3450.985199
_symmetry_space_group_name_H-M "P M M A"
_symmetry_group_IT_number 51
_symmetry_cell_setting 'orthorhombic'
loop_
_space_group_symop_operation_xyz
x,y,z
1/2-x,-y,z
1/2+x,-y,-z
-x,y,-z
-x,-y,-z
1/2+x,y,-z
1/2-x,y,z
x,-y,z
loop_
_atom_site_type_symbol
_atom_site_label
_atom_site_fract_x
_atom_site_fract_y
_atom_site_fract_z
Si Si1 0.010277 0.708857 0.824978
Si Si2 0.959768 0.280937 0.558952
Si Si3 0.681399 0.712332 0.978371
Si Si4 0.983832 0.282259 0.694387
Si Si5 0.136307 0.215109 0.158571
Si Si6 0.056826 0.280001 0.954873
Si Si7 0.682400 0.294986 0.574306
Si Si8 0.838552 0.206434 0.711494
O O1 0.027432 0.500000 0.822357
O O2 0.044340 0.784087 0.885203
O O3 0.020995 0.780816 0.755379
O O4 0.935641 0.719591 0.839055
O O5 0.957136 0.500000 0.559402
O O6 0.993779 0.228023 0.623301
O O7 0.886707 0.218820 0.558140
O O8 0.000000 0.225126 0.500000
O O9 0.750000 0.787282 0.992695
O O10 0.683337 0.500000 0.990413
O O11 0.667015 0.735176 0.905882
O O12 0.622381 0.782213 0.016740
O O13 0.984270 0.500000 0.695651
O O14 0.913522 0.218014 0.707072
O O15 0.173253 0.278714 0.219802
O O16 0.134157 0.000000 0.162983
O O17 0.056248 0.500000 0.954457
O O18 0.000000 0.226519 0.000000
O O19 0.750000 0.214788 0.554769
O O20 0.681896 0.500000 0.551906
O O21 0.683438 0.297718 0.649068
O O22 0.818921 0.000000 0.707849
#
# Coordination Sequence:
#
# PCOD9400031 Si02
#       8
#     8   8   8   8   8   8   8   8
#     4   9  15  26  45  63  81 104 136 176 208 238
#     4   8  13  23  40  61  83 105 130 163 198 233
#     4  10  20  32  44  58  77 104 138 171 206 250
#     4   8  14  24  40  62  82 104 135 167 197 233
#     4  10  19  29  41  59  84 110 136 166 203 243
#     4   9  15  26  45  64  78  98 133 176 212 240
#     4   9  17  28  41  58  79 105 140 174 197 225
#     4   9  17  27  39  56  80 110 137 163 196 234
#
# _framework density 18.545428999999999
#
# number of rings (size 3 to 8) (size 9 to 14) (size 15 to 20)
#    0.000    3.000    1.250    1.500    0.000    2.500 
#    0.000    3.750    0.000    6.000    0.000    0.875 
#    0.000    7.000    0.000    0.000    0.000   31.375 
#
# Total GULP energy -356321.695130 kJ/mol
# GULP energy per Si atom -5567.526486 kJ/mol
# Density = 1.850322 g / cm^3
# Si number density = 18.545429 Si / 1000 Ang^3
#
#
#
# Elastic Constant Matrix: (Units=GPa)
#
#
# Indices 1 2 3 4 5 6 
#
# 1 105.9812 1.4484 81.1165 0.0000 0.0000 0.0000
# 2 1.4484 55.7389 2.3902 0.0000 0.0000 0.0000
# 3 81.1165 2.3902 157.5444 0.0000 0.0000 0.0000
# 4 0.0000 0.0000 0.0000 8.8454 0.0000 0.0000
# 5 0.0000 0.0000 0.0000 0.0000 -2.6261 0.0000
# 6 0.0000 0.0000 0.0000 0.0000 0.0000 1.1234
#
#
#
# Elastic Compliance Matrix: (Units=1/GPa)
#
#
# Indices 1 2 3 4 5 6 
#
# 1 0.015573 -0.000061 -0.008017 0.000000 0.000000 0.000000
# 2 -0.000061 0.017953 -0.000241 0.000000 0.000000 0.000000
# 3 -0.008017 -0.000241 0.010479 0.000000 0.000000 0.000000
# 4 0.000000 0.000000 0.000000 0.113053 0.000000 0.000000
# 5 0.000000 0.000000 0.000000 0.000000 -0.380797 0.000000
# 6 0.000000 0.000000 0.000000 0.000000 0.000000 0.890134
#
#
# Mechanical properties :
#
#
# Convention : Reuss Voigt Hill
#
# Bulk Modulus (GPa) = 36.54135 54.35274 45.44705
# Shear Modulus (GPa) = 7.22382 17.08919 12.15651
#
# Velocity S-wave (km/s) = 1.97577 3.03888 2.56305
# Velocity P-wave (km/s) = 4.99513 6.45636 5.77217
#
# Compressibility (1/GPa) = 0.02736626
#
# Stress axis : x y z
#
# Youngs Moduli (GPa) = 64.21509 55.70189 95.42954
#
# Poissons Ratio (x) = 0.00339 0.76507
# Poissons Ratio (y) = 0.00391 0.02300
# Poissons Ratio (z) = 0.51482 0.01343
#
# Static dielectric constant tensor:
#      x y z
#    x 1.648320 0.000000 0.000000 
#    y 0.000000 1.697790 0.000000 
#    z 0.000000 0.000000 1.670570 
# 
# From -- ./inp_files/34165.got.cif
#   From: 2010.05.17/outbox.cif.g08.bks.cpg/sg51_18_cif.got.tgz:34165.got - 2010.06.03 11:52:47.
