data_PCOD9400353
_publ_section_title
;
Structure prediction by ZEFSAII (Michael W. Deem and Ramdas Pophale) SiO2 
 PCOD9400353
Probable space group: P M M A
;
_chemical_formula_sum "Si O2"
_cell_formula_units_Z 56
_cell_length_a 9.289905
_cell_length_b 13.889581
_cell_length_c 29.759391
_cell_angle_alpha 90.000000
_cell_angle_beta 90.000000
_cell_angle_gamma 90.000000
_cell_volume 3839.940165
_symmetry_space_group_name_H-M "P M M A"
_symmetry_group_IT_number 51
_symmetry_cell_setting 'orthorhombic'
loop_
_space_group_symop_operation_xyz
x,y,z
1/2-x,-y,z
1/2+x,-y,-z
-x,y,-z
-x,-y,-z
1/2+x,y,-z
1/2-x,y,z
x,-y,z
loop_
_atom_site_type_symbol
_atom_site_label
_atom_site_fract_x
_atom_site_fract_y
_atom_site_fract_z
Si Si1 0.577641 0.890185 0.401919
Si Si2 0.416114 0.117357 0.044872
Si Si3 0.915884 0.882777 0.134252
Si Si4 0.422082 0.611059 0.641073
Si Si5 0.422583 0.791162 0.319549
Si Si6 0.420884 0.886060 0.224404
Si Si7 0.579026 0.700704 0.454537
O O1 0.750000 0.881815 0.393699
O O2 0.493624 0.860700 0.356855
O O3 0.541214 0.809817 0.439099
O O4 0.546146 0.000000 0.414858
O O5 0.250000 0.147730 0.044210
O O6 0.496603 0.148640 0.090217
O O7 0.416827 0.000000 0.044971
O O8 0.500000 0.147748 0.000000
O O9 0.750000 0.852439 0.132153
O O10 0.991323 0.853681 0.180700
O O11 0.917993 0.000000 0.133877
O O12 0.250000 0.627529 0.646589
O O13 0.453270 0.500000 0.650818
O O14 0.510009 0.686720 0.670674
O O15 0.455434 0.635636 0.588901
O O16 0.250000 0.790228 0.324942
O O17 0.456322 0.829338 0.269787
O O18 0.250000 0.876230 0.215585
O O19 0.448970 0.000000 0.231751
O O20 0.500000 0.673468 0.500000
O O21 0.750000 0.696020 0.461671
#
# Coordination Sequence:
#
# PCOD9400353 Si02
#       7
#     8   8   8   8   8   8   8
#     4   9  18  32  47  62  85 117 146 169 197 238
#     4   9  15  22  32  45  64  93 130 173 217 254
#     4   9  16  24  34  50  71  97 134 175 209 243
#     4   9  19  36  53  66  84 110 136 164 202 249
#     4  10  19  30  46  68  89 107 134 173 211 247
#     4   9  17  28  40  56  82 112 136 163 204 248
#     4   9  18  31  46  66  89 111 136 166 201 241
#
# _framework density 14.583562000000001
#
# number of rings (size 3 to 8) (size 9 to 14) (size 15 to 20)
#    0.000    2.857    0.000    2.571    0.000    8.571 
#    0.000    1.429    0.000    0.000    0.000    0.000 
#    0.000    0.000    0.000    0.000    0.000    0.714 
#
# Total GULP energy -312013.159694 kJ/mol
# GULP energy per Si atom -5571.663566 kJ/mol
# Density = 1.455037 g / cm^3
# Si number density = 14.583562 Si / 1000 Ang^3
#
#
#
# Elastic Constant Matrix: (Units=GPa)
#
#
# Indices 1 2 3 4 5 6 
#
# 1 64.4036 15.4209 58.8270 0.0000 0.0000 0.0000
# 2 15.4209 38.7514 11.5517 0.0000 0.0000 0.0000
# 3 58.8270 11.5517 107.8296 0.0000 0.0000 0.0000
# 4 0.0000 0.0000 0.0000 8.4293 0.0000 0.0000
# 5 0.0000 0.0000 0.0000 0.0000 30.1638 0.0000
# 6 0.0000 0.0000 0.0000 0.0000 0.0000 13.0219
#
#
#
# Elastic Compliance Matrix: (Units=1/GPa)
#
#
# Indices 1 2 3 4 5 6 
#
# 1 0.033230 -0.008077 -0.017263 0.000000 0.000000 0.000000
# 2 -0.008077 0.028620 0.001341 0.000000 0.000000 0.000000
# 3 -0.017263 0.001341 0.018548 0.000000 0.000000 0.000000
# 4 0.000000 0.000000 0.000000 0.118634 0.000000 0.000000
# 5 0.000000 0.000000 0.000000 0.000000 0.033152 0.000000
# 6 0.000000 0.000000 0.000000 0.000000 0.000000 0.076793
#
#
# Mechanical properties :
#
#
# Convention : Reuss Voigt Hill
#
# Bulk Modulus (GPa) = 30.86606 42.50932 36.68769
# Shear Modulus (GPa) = 13.59519 18.66868 16.13193
#
# Velocity S-wave (km/s) = 3.05655 3.58175 3.32953
# Velocity P-wave (km/s) = 5.80238 6.80569 6.32396
#
# Compressibility (1/GPa) = 0.03239805
#
# Stress axis : x y z
#
# Youngs Moduli (GPa) = 30.09367 34.94032 53.91329
#
# Poissons Ratio (x) = 0.28223 0.93072
# Poissons Ratio (y) = 0.24308 -0.07228
# Poissons Ratio (z) = 0.51951 -0.04684
#
# Static dielectric constant tensor:
#      x y z
#    x 1.486970 0.000000 0.000000 
#    y 0.000000 1.463310 0.000000 
#    z 0.000000 0.000000 1.467350 
# 
# From -- ./inp_files/37448.got.cif
#   From: 2010.05.17/outbox.cif.g08.bks.cpg/sg51_19_cif.got.tgz:37448.got - 2010.06.03 11:52:47.
