data_PCOD9400591
_publ_section_title
;
Structure prediction by ZEFSAII (Michael W. Deem and Ramdas Pophale) SiO2 
 PCOD9400591
Probable space group: P M M A
;
_chemical_formula_sum "Si O2"
_cell_formula_units_Z 64
_cell_length_a 29.416142
_cell_length_b 8.870817
_cell_length_c 15.884538
_cell_angle_alpha 90.000000
_cell_angle_beta 90.000000
_cell_angle_gamma 90.000000
_cell_volume 4144.994144
_symmetry_space_group_name_H-M "P M M A"
_symmetry_group_IT_number 51
_symmetry_cell_setting 'orthorhombic'
loop_
_space_group_symop_operation_xyz
x,y,z
1/2-x,-y,z
1/2+x,-y,-z
-x,y,-z
-x,-y,-z
1/2+x,y,-z
1/2-x,y,z
x,-y,z
loop_
_atom_site_type_symbol
_atom_site_label
_atom_site_fract_x
_atom_site_fract_y
_atom_site_fract_z
Si Si1 0.395609 0.818848 0.330921
Si Si2 0.300917 0.181607 0.402731
Si Si3 0.053507 0.819753 0.506536
Si Si4 0.199110 0.318636 0.588159
Si Si5 0.944943 0.826750 0.992811
Si Si6 0.105029 0.319482 0.665079
Si Si7 0.952107 0.678603 0.819911
Si Si8 0.552660 0.818601 0.179066
O O1 0.343084 0.773620 0.344484
O O2 0.421833 0.785033 0.418312
O O3 0.419854 0.738307 0.253750
O O4 0.398026 0.000000 0.318580
O O5 0.250000 0.225155 0.374388
O O6 0.307836 0.248286 0.495866
O O7 0.302369 0.000000 0.409567
O O8 0.076648 0.732905 0.583358
O O9 0.000000 0.785588 0.500000
O O10 0.058257 0.000000 0.521419
O O11 0.250000 0.275790 0.616926
O O12 0.197819 0.500000 0.579718
O O13 0.157368 0.274915 0.647516
O O14 0.929815 0.775080 0.085511
O O15 0.930670 0.000000 0.978619
O O16 0.933749 0.728525 0.911631
O O17 0.000000 0.827172 0.000000
O O18 0.102277 0.500000 0.673343
O O19 0.084090 0.242102 0.746946
O O20 0.956916 0.500000 0.816089
O O21 0.001895 0.753445 0.809464
O O22 0.549762 0.000000 0.180891
#
# Coordination Sequence:
#
# PCOD9400591 Si02
#       8
#     8   8   8   8   8   8   8   8
#     4  10  19  31  46  66  95 130 161 194 236 281
#     4   9  17  30  49  70  89 116 160 206 241 275
#     4  10  20  32  45  62  90 131 167 191 225 276
#     4   9  18  32  48  67  94 126 156 192 242 289
#     4   8  16  32  51  69  91 123 158 192 234 280
#     4  11  21  31  47  71  96 124 159 199 236 277
#     4  11  21  31  48  73  99 125 157 197 234 276
#     4  10  20  34  51  69  95 129 161 193 233 282
#
# _framework density 15.440310999999999
#
# number of rings (size 3 to 8) (size 9 to 14) (size 15 to 20)
#    0.000    2.250    1.250    3.375    0.000    5.500 
#    0.000    0.000    0.000    0.000    0.000    0.875 
#    0.000    1.000    0.000    0.000    0.000    0.000 
#
# Total GULP energy -356899.180895 kJ/mol
# GULP energy per Si atom -5576.549701 kJ/mol
# Density = 1.540517 g / cm^3
# Si number density = 15.440311 Si / 1000 Ang^3
#
#
#
# Elastic Constant Matrix: (Units=GPa)
#
#
# Indices 1 2 3 4 5 6 
#
# 1 109.1721 38.8589 65.9686 0.0000 0.0000 0.0000
# 2 38.8589 43.7027 48.0004 0.0000 0.0000 0.0000
# 3 65.9686 48.0004 119.4771 0.0000 0.0000 0.0000
# 4 0.0000 0.0000 0.0000 -0.4464 0.0000 0.0000
# 5 0.0000 0.0000 0.0000 0.0000 6.2646 0.0000
# 6 0.0000 0.0000 0.0000 0.0000 0.0000 12.0170
#
#
#
# Elastic Compliance Matrix: (Units=1/GPa)
#
#
# Indices 1 2 3 4 5 6 
#
# 1 0.015039 -0.007610 -0.005246 0.000000 0.000000 0.000000
# 2 -0.007610 0.044803 -0.013798 0.000000 0.000000 0.000000
# 3 -0.005246 -0.013798 0.016810 0.000000 0.000000 0.000000
# 4 0.000000 0.000000 0.000000 -2.239949 0.000000 0.000000
# 5 0.000000 0.000000 0.000000 0.000000 0.159627 0.000000
# 6 0.000000 0.000000 0.000000 0.000000 0.000000 0.083215
#
#
# Mechanical properties :
#
#
# Convention : Reuss Voigt Hill
#
# Bulk Modulus (GPa) = 42.83840 64.22309 53.53075
# Shear Modulus (GPa) = -2.68909 11.53530 4.42310
#
# Velocity S-wave (km/s) = -1.32113 2.73626 1.69436
# Velocity P-wave (km/s) = 5.04753 7.18801 6.21068
#
# Compressibility (1/GPa) = 0.02334354
#
# Stress axis : x y z
#
# Youngs Moduli (GPa) = 66.49582 22.31982 59.48822
#
# Poissons Ratio (x) = 0.16984 0.31209
# Poissons Ratio (y) = 0.50600 0.82084
# Poissons Ratio (z) = 0.34886 0.30798
#
# Static dielectric constant tensor:
#      x y z
#    x 1.518650 0.000000 0.000000 
#    y 0.000000 1.521360 0.000000 
#    z 0.000000 0.000000 1.500810 
# 
# From -- ./inp_files/26658.got.cif
#   From: 2010.05.17/outbox.cif.g08.bks.cpg/sg51_14_cif.got.tgz:26658.got - 2010.06.03 11:52:47.
