data_PCOD9400795
_publ_section_title
;
Structure prediction by ZEFSAII (Michael W. Deem and Ramdas Pophale) SiO2 
 PCOD9400795
Probable space group: P M M A
;
_chemical_formula_sum "Si O2"
_cell_formula_units_Z 56
_cell_length_a 22.516585
_cell_length_b 7.721176
_cell_length_c 16.995752
_cell_angle_alpha 90.000000
_cell_angle_beta 90.000000
_cell_angle_gamma 90.000000
_cell_volume 2954.788233
_symmetry_space_group_name_H-M "P M M A"
_symmetry_group_IT_number 51
_symmetry_cell_setting 'orthorhombic'
loop_
_space_group_symop_operation_xyz
x,y,z
1/2-x,-y,z
1/2+x,-y,-z
-x,y,-z
-x,-y,-z
1/2+x,y,-z
1/2-x,y,z
x,-y,z
loop_
_atom_site_type_symbol
_atom_site_label
_atom_site_fract_x
_atom_site_fract_y
_atom_site_fract_z
Si Si1 0.124274 0.294707 0.190460
Si Si2 0.024916 0.790864 0.625980
Si Si3 0.816806 0.209583 0.645130
Si Si4 0.489278 0.703890 0.805813
Si Si5 0.938507 0.798454 0.036309
Si Si6 0.316179 0.202498 0.033981
Si Si7 0.090226 0.788994 0.475669
O O1 0.123723 0.500000 0.176512
O O2 0.146316 0.261468 0.278319
O O3 0.168058 0.214011 0.126409
O O4 0.056719 0.228291 0.182384
O O5 0.027975 0.728538 0.714981
O O6 0.075348 0.732781 0.564149
O O7 0.963612 0.738322 0.582775
O O8 0.025077 0.000000 0.628953
O O9 0.750000 0.274326 0.651188
O O10 0.849941 0.268797 0.566226
O O11 0.815652 0.000000 0.643800
O O12 0.489884 0.500000 0.822272
O O13 0.446592 0.787693 0.870106
O O14 0.937430 0.000000 0.011178
O O15 0.875559 0.722055 0.007620
O O16 0.000000 0.722752 0.000000
O O17 0.250000 0.276642 0.019353
O O18 0.313191 0.000000 0.011446
O O19 0.089729 0.000000 0.477254
#
# Coordination Sequence:
#
# PCOD9400795 Si02
#       7
#     8   8   8   8   8   8   8
#     4  11  22  33  47  72 107 141 169 200 246 303
#     4   9  16  30  52  71  93 127 164 205 249 294
#     4  10  19  31  49  72 100 133 167 205 248 298
#     4  11  22  33  49  76 107 135 167 210 253 294
#     4  10  20  35  56  78  99 131 171 209 255 306
#     4  10  21  37  56  77 101 130 169 214 254 299
#     4   8  15  28  48  73  95 122 164 204 242 289
#
# _framework density 18.952287999999999
#
# number of rings (size 3 to 8) (size 9 to 14) (size 15 to 20)
#    0.000    2.143    2.857    2.143    0.000    4.286 
#    0.000    2.143    0.000    0.857    0.000    4.000 
#    0.000    0.000    0.000    0.000    0.000    0.000 
#
# Total GULP energy -312378.589076 kJ/mol
# GULP energy per Si atom -5578.189091 kJ/mol
# Density = 1.890915 g / cm^3
# Si number density = 18.952288 Si / 1000 Ang^3
#
#
#
# Elastic Constant Matrix: (Units=GPa)
#
#
# Indices 1 2 3 4 5 6 
#
# 1 131.1136 8.4000 53.5158 0.0000 0.0000 0.0000
# 2 8.4000 34.3804 -2.9769 0.0000 0.0000 0.0000
# 3 53.5158 -2.9769 97.8181 0.0000 0.0000 0.0000
# 4 0.0000 0.0000 0.0000-1935.9191 0.0000 0.0000
# 5 0.0000 0.0000 0.0000 0.0000 22.0069 0.0000
# 6 0.0000 0.0000 0.0000 0.0000 0.0000 5.1544
#
#
#
# Elastic Compliance Matrix: (Units=1/GPa)
#
#
# Indices 1 2 3 4 5 6 
#
# 1 0.010111 -0.002957 -0.005622 0.000000 0.000000 0.000000
# 2 -0.002957 0.030028 0.002532 0.000000 0.000000 0.000000
# 3 -0.005622 0.002532 0.013376 0.000000 0.000000 0.000000
# 4 0.000000 0.000000 0.000000 -0.000517 0.000000 0.000000
# 5 0.000000 0.000000 0.000000 0.000000 0.045440 0.000000
# 6 0.000000 0.000000 0.000000 0.000000 0.000000 0.194011
#
#
# Mechanical properties :
#
#
# Convention : Reuss Voigt Hill
#
# Bulk Modulus (GPa) = 24.14261 42.35440 33.24851
# Shear Modulus (GPa) = 15.70596 -368.12669 -176.21037
#
# Velocity S-wave (km/s) = 2.88186 -13.95207 -9.65286
# Velocity P-wave (km/s) = 4.88260 15.39970 10.32741
#
# Compressibility (1/GPa) = 0.04142054
#
# Stress axis : x y z
#
# Youngs Moduli (GPa) = 98.90230 33.30217 74.76246
#
# Poissons Ratio (x) = 0.09848 0.42029
# Poissons Ratio (y) = 0.29247 -0.18928
# Poissons Ratio (z) = 0.55600 -0.08431
#
# Static dielectric constant tensor:
#      x y z
#    x 1.685580 0.000000 0.000000 
#    y 0.000000 1.706340 0.000000 
#    z 0.000000 0.000000 1.640880 
# 
# From -- ./inp_files/30447.got.cif
#   From: 2010.05.17/outbox.cif.g08.bks.cpg/sg51_16_cif.got.tgz:30447.got - 2010.06.03 11:52:47.
