data_PCOD9400708
_publ_section_title
;
Structure prediction by ZEFSAII (Michael W. Deem and Ramdas Pophale) SiO2 
 PCOD9400708
Probable space group: P M M A
;
_chemical_formula_sum "Si O2"
_cell_formula_units_Z 40
_cell_length_a 13.728840
_cell_length_b 7.901665
_cell_length_c 15.486518
_cell_angle_alpha 90.000000
_cell_angle_beta 90.000000
_cell_angle_gamma 90.000000
_cell_volume 1679.988228
_symmetry_space_group_name_H-M "P M M A"
_symmetry_group_IT_number 51
_symmetry_cell_setting 'orthorhombic'
loop_
_space_group_symop_operation_xyz
x,y,z
1/2-x,-y,z
1/2+x,-y,-z
-x,y,-z
-x,-y,-z
1/2+x,y,-z
1/2-x,y,z
x,-y,z
loop_
_atom_site_type_symbol
_atom_site_label
_atom_site_fract_x
_atom_site_fract_y
_atom_site_fract_z
Si Si1 0.933854 0.204224 0.874726
Si Si2 0.642763 0.206312 0.062077
Si Si3 0.353042 0.693958 0.672422
Si Si4 0.929604 0.698959 0.690112
Si Si5 0.615890 0.190410 0.509746
O O1 0.890499 0.270402 0.785634
O O2 0.046669 0.262968 0.886339
O O3 0.934035 0.000000 0.871580
O O4 0.877615 0.252253 0.962024
O O5 0.750000 0.266035 0.088940
O O6 0.642712 0.000000 0.066148
O O7 0.250000 0.772839 0.702642
O O8 0.354983 0.500000 0.703279
O O9 0.458982 0.773293 0.691752
O O10 0.348789 0.694474 0.567942
O O11 0.938939 0.500000 0.672709
O O12 0.868337 0.769673 0.610046
O O13 0.500000 0.199563 0.500000
O O14 0.646501 0.000000 0.490519
#
# Coordination Sequence:
#
# PCOD9400708 Si02
#       5
#     8   8   8   8   8
#     4   9  17  30  50  74  96 122 160 201 240 287
#     4   8  15  30  51  72  95 124 157 196 244 293
#     4   9  18  32  48  67  94 127 160 194 237 290
#     4  10  19  31  48  69  96 129 159 191 238 290
#     4   9  17  30  48  68  90 119 157 197 233 272
#
# _framework density 23.809691000000001
#
# number of rings (size 3 to 8) (size 9 to 14) (size 15 to 20)
#    0.000    3.000    0.000    2.400    0.000    4.400 
#    0.000    3.000    0.000    5.400    0.000    0.000 
#    0.000    0.000    0.000    0.000    0.000    0.000 
#
# Total GULP energy -223089.912511 kJ/mol
# GULP energy per Si atom -5577.247813 kJ/mol
# Density = 2.375550 g / cm^3
# Si number density = 23.809691 Si / 1000 Ang^3
#
#
#
# Elastic Constant Matrix: (Units=GPa)
#
#
# Indices 1 2 3 4 5 6 
#
# 1 85.1575 -0.8276 -12.0941 0.0000 0.0000 0.0000
# 2 -0.8276 38.1418 -7.7260 0.0000 0.0000 0.0000
# 3 -12.0941 -7.7260 131.9128 0.0000 0.0000 0.0000
# 4 0.0000 0.0000 0.0000 25.1237 0.0000 0.0000
# 5 0.0000 0.0000 0.0000 0.0000 22.6901 0.0000
# 6 0.0000 0.0000 0.0000 0.0000 0.0000 -15.0173
#
#
#
# Elastic Compliance Matrix: (Units=1/GPa)
#
#
# Indices 1 2 3 4 5 6 
#
# 1 0.011907 0.000485 0.001120 0.000000 0.000000 0.000000
# 2 0.000485 0.026553 0.001600 0.000000 0.000000 0.000000
# 3 0.001120 0.001600 0.007777 0.000000 0.000000 0.000000
# 4 0.000000 0.000000 0.000000 0.039803 0.000000 0.000000
# 5 0.000000 0.000000 0.000000 0.000000 0.044072 0.000000
# 6 0.000000 0.000000 0.000000 0.000000 0.000000 -0.066590
#
#
# Mechanical properties :
#
#
# Convention : Reuss Voigt Hill
#
# Bulk Modulus (GPa) = 18.99470 23.76852 21.38161
# Shear Modulus (GPa) = 66.96966 24.94996 45.95981
#
# Velocity S-wave (km/s) = 5.30925 3.24063 4.39828
# Velocity P-wave (km/s) = 6.75124 4.89965 5.89855
#
# Compressibility (1/GPa) = 0.05264626
#
# Stress axis : x y z
#
# Youngs Moduli (GPa) = 83.98609 37.66122 128.58193
#
# Poissons Ratio (x) = -0.01827 -0.14402
# Poissons Ratio (y) = -0.04075 -0.20568
# Poissons Ratio (z) = -0.09407 -0.06024
#
# Static dielectric constant tensor:
#      x y z
#    x 1.825420 0.000000 0.000000 
#    y 0.000000 1.857640 0.000000 
#    z 0.000000 0.000000 1.895280 
# 
# From -- ./inp_files/23697.got.cif
#   From: 2010.05.17/outbox.cif.g08.bks.cpg/sg51_12_cif.got.tgz:23697.got - 2010.06.03 11:52:47.
