data_PCOD9400173
_publ_section_title
;
Structure prediction by ZEFSAII (Michael W. Deem and Ramdas Pophale) SiO2 
 PCOD9400173
Probable space group: P M M A
;
_chemical_formula_sum "Si O2"
_cell_formula_units_Z 64
_cell_length_a 15.181010
_cell_length_b 18.598836
_cell_length_c 12.967449
_cell_angle_alpha 90.000000
_cell_angle_beta 90.000000
_cell_angle_gamma 90.000000
_cell_volume 3661.347753
_symmetry_space_group_name_H-M "P M M A"
_symmetry_group_IT_number 51
_symmetry_cell_setting 'orthorhombic'
loop_
_space_group_symop_operation_xyz
x,y,z
1/2-x,-y,z
1/2+x,-y,-z
-x,y,-z
-x,-y,-z
1/2+x,y,-z
1/2-x,y,z
x,-y,z
loop_
_atom_site_type_symbol
_atom_site_label
_atom_site_fract_x
_atom_site_fract_y
_atom_site_fract_z
Si Si1 0.412106 0.082701 0.569976
Si Si2 0.146292 0.366892 0.612613
Si Si3 0.853021 0.370958 0.624895
Si Si4 0.650862 0.922365 0.646134
Si Si5 0.507837 0.271206 0.120643
Si Si6 0.006794 0.579484 0.772495
Si Si7 0.855456 0.787618 0.285110
Si Si8 0.146130 0.224612 0.263964
O O1 0.500000 0.094179 0.500000
O O2 0.343311 0.087444 0.476357
O O3 0.391750 0.142141 0.655332
O O4 0.411660 0.000000 0.608404
O O5 0.250000 0.382059 0.626413
O O6 0.123294 0.383058 0.494093
O O7 0.132943 0.282457 0.640805
O O8 0.085858 0.410440 0.690825
O O9 0.750000 0.390133 0.640059
O O10 0.917896 0.408706 0.705250
O O11 0.861844 0.285709 0.648517
O O12 0.750000 0.925792 0.686894
O O13 0.611274 0.851676 0.695610
O O14 0.607814 0.000000 0.666117
O O15 0.516835 0.355986 0.146429
O O16 0.586442 0.231013 0.183503
O O17 0.415668 0.248222 0.171760
O O18 0.500000 0.257313 0.000000
O O19 0.007623 0.500000 0.817661
O O20 0.750000 0.794848 0.265017
O O21 0.250000 0.221133 0.238070
#
# Coordination Sequence:
#
# PCOD9400173 Si02
#       8
#     8   8   8   8   8   8   8   8
#     4  10  19  29  46  77 115 149 176 203 240 291
#     4   9  18  31  48  73 104 138 171 198 232 290
#     4   9  17  29  47  73 104 136 166 193 229 290
#     4   9  16  26  44  73 106 136 164 193 230 282
#     4  10  22  39  57  74  91 120 168 223 274 319
#     4  10  21  35  51  73  99 125 157 202 256 311
#     4  10  20  34  53  76 105 141 180 221 260 304
#     4   9  17  31  52  75 100 131 167 210 257 302
#
# _framework density 17.479903
#
# number of rings (size 3 to 8) (size 9 to 14) (size 15 to 20)
#    0.000    2.500    0.000    2.250    0.000    7.000 
#    0.000    1.250    0.000    1.500    0.000    8.750 
#    0.000    0.000    0.000    0.000    0.000    0.000 
#
# Total GULP energy -356555.440000 kJ/mol
# GULP energy per Si atom -5571.178750 kJ/mol
# Density = 1.744012 g / cm^3
# Si number density = 17.479903 Si / 1000 Ang^3
#
#
#
# Elastic Constant Matrix: (Units=GPa)
#
#
# Indices 1 2 3 4 5 6 
#
# 1 68.0530 27.0816 18.4210 0.0000 0.0000 0.0000
# 2 27.0816 116.8015 27.4246 0.0000 0.0000 0.0000
# 3 18.4210 27.4246 64.5505 0.0000 0.0000 0.0000
# 4 0.0000 0.0000 0.0000 5.5692 0.0000 0.0000
# 5 0.0000 0.0000 0.0000 0.0000 14.0888 0.0000
# 6 0.0000 0.0000 0.0000 0.0000 0.0000 13.1036
#
#
#
# Elastic Compliance Matrix: (Units=1/GPa)
#
#
# Indices 1 2 3 4 5 6 
#
# 1 0.016872 -0.003090 -0.003502 0.000000 0.000000 0.000000
# 2 -0.003090 0.010076 -0.003399 0.000000 0.000000 0.000000
# 3 -0.003502 -0.003399 0.017935 0.000000 0.000000 0.000000
# 4 0.000000 0.000000 0.000000 0.179560 0.000000 0.000000
# 5 0.000000 0.000000 0.000000 0.000000 0.070978 0.000000
# 6 0.000000 0.000000 0.000000 0.000000 0.000000 0.076315
#
#
# Mechanical properties :
#
#
# Convention : Reuss Voigt Hill
#
# Bulk Modulus (GPa) = 40.15842 43.91773 42.03808
# Shear Modulus (GPa) = 12.49942 18.31751 15.40846
#
# Velocity S-wave (km/s) = 2.67699 3.24067 2.97222
# Velocity P-wave (km/s) = 5.70780 6.25954 5.99002
#
# Compressibility (1/GPa) = 0.02490138
#
# Stress axis : x y z
#
# Youngs Moduli (GPa) = 59.27007 99.24570 55.75594
#
# Poissons Ratio (x) = 0.30663 0.19527
# Poissons Ratio (y) = 0.18312 0.18952
# Poissons Ratio (z) = 0.20757 0.33735
#
# Static dielectric constant tensor:
#      x y z
#    x 1.681450 0.000000 0.000000 
#    y 0.000000 1.632560 0.000000 
#    z 0.000000 0.000000 1.545480 
# 
# From -- ./inp_files/16897.got.cif
#   From: 2010.05.17/outbox.cif.g08.bks.cpg/sg51_9_cif.got.tgz:16897.got - 2010.06.03 11:52:47.
