data_PCOD9400592
_publ_section_title
;
Structure prediction by ZEFSAII (Michael W. Deem and Ramdas Pophale) SiO2 
 PCOD9400592
Probable space group: P M M A
;
_chemical_formula_sum "Si O2"
_cell_formula_units_Z 40
_cell_length_a 8.643562
_cell_length_b 19.764230
_cell_length_c 14.627861
_cell_angle_alpha 90.000000
_cell_angle_beta 90.000000
_cell_angle_gamma 90.000000
_cell_volume 2498.926460
_symmetry_space_group_name_H-M "P M M A"
_symmetry_group_IT_number 51
_symmetry_cell_setting 'orthorhombic'
loop_
_space_group_symop_operation_xyz
x,y,z
1/2-x,-y,z
1/2+x,-y,-z
-x,y,-z
-x,-y,-z
1/2+x,y,-z
1/2-x,y,z
x,-y,z
loop_
_atom_site_type_symbol
_atom_site_label
_atom_site_fract_x
_atom_site_fract_y
_atom_site_fract_z
Si Si1 0.436577 0.427511 0.103148
Si Si2 0.936145 0.722629 0.895668
Si Si3 0.925511 0.080363 0.907195
Si Si4 0.570250 0.163542 0.239391
Si Si5 0.935516 0.922880 0.602329
O O1 0.250000 0.427464 0.101126
O O2 0.485399 0.500000 0.146170
O O3 0.483300 0.353255 0.137573
O O4 0.500000 0.428778 0.000000
O O5 0.750000 0.726049 0.901296
O O6 0.995357 0.776221 0.820843
O O7 0.000000 0.732197 0.000000
O O8 0.750000 0.105888 0.892588
O O9 0.038151 0.099888 0.826392
O O10 0.915360 0.000000 0.914614
O O11 0.000000 0.107680 0.000000
O O12 0.750000 0.177360 0.252097
O O13 0.495918 0.137537 0.333556
O O14 0.750000 0.920843 0.601944
O O15 0.000000 0.915537 0.500000
O O16 0.979985 0.000000 0.633495
#
# Coordination Sequence:
#
# PCOD9400592 Si02
#       5
#     8   8   8   8   8
#     4   8  14  25  42  63  87 119 158 196 232 270
#     4  10  19  31  46  66  96 130 163 198 235 277
#     4  10  20  33  47  63  85 115 152 191 229 271
#     4  12  23  33  47  67  93 123 155 190 230 276
#     4  10  21  38  58  77  95 116 147 189 237 286
#
# _framework density 16.006874
#
# number of rings (size 3 to 8) (size 9 to 14) (size 15 to 20)
#    0.000    2.000    0.000    4.800    0.000    5.600 
#    0.000    0.000    0.000    0.000    0.000    0.000 
#    0.000    0.800    0.000    2.200    0.000    3.600 
#
# Total GULP energy -222725.117255 kJ/mol
# GULP energy per Si atom -5568.127931 kJ/mol
# Density = 1.597044 g / cm^3
# Si number density = 16.006874 Si / 1000 Ang^3
#
#
#
# Elastic Constant Matrix: (Units=GPa)
#
#
# Indices 1 2 3 4 5 6 
#
# 1 64.8031 40.1239 26.2806 0.0000 0.0000 0.0000
# 2 40.1239 124.6296 48.1144 0.0000 0.0000 0.0000
# 3 26.2806 48.1144 71.2586 0.0000 0.0000 0.0000
# 4 0.0000 0.0000 0.0000 -15.6905 0.0000 0.0000
# 5 0.0000 0.0000 0.0000 0.0000 21.9228 0.0000
# 6 0.0000 0.0000 0.0000 0.0000 0.0000 9.6687
#
#
#
# Elastic Compliance Matrix: (Units=1/GPa)
#
#
# Indices 1 2 3 4 5 6 
#
# 1 0.020131 -0.004889 -0.004123 0.000000 0.000000 0.000000
# 2 -0.004889 0.012040 -0.006326 0.000000 0.000000 0.000000
# 3 -0.004123 -0.006326 0.019826 0.000000 0.000000 0.000000
# 4 0.000000 0.000000 0.000000 -0.063733 0.000000 0.000000
# 5 0.000000 0.000000 0.000000 0.000000 0.045615 0.000000
# 6 0.000000 0.000000 0.000000 0.000000 0.000000 0.103427
#
#
# Mechanical properties :
#
#
# Convention : Reuss Voigt Hill
#
# Bulk Modulus (GPa) = 46.90640 54.41436 50.66038
# Shear Modulus (GPa) = 28.55689 12.92502 20.74096
#
# Velocity S-wave (km/s) = 4.22837 2.84468 3.60356
# Velocity P-wave (km/s) = 7.29427 6.69759 7.00229
#
# Compressibility (1/GPa) = 0.02131905
#
# Stress axis : x y z
#
# Youngs Moduli (GPa) = 49.67532 83.05473 50.43953
#
# Poissons Ratio (x) = 0.40607 0.20797
# Poissons Ratio (y) = 0.24287 0.31911
# Poissons Ratio (z) = 0.20482 0.52545
#
# Static dielectric constant tensor:
#      x y z
#    x 1.551670 0.000000 0.000000 
#    y 0.000000 1.614750 0.000000 
#    z 0.000000 0.000000 1.403980 
# 
# From -- ./inp_files/21313.got.cif
#   From: 2010.05.17/outbox.cif.g08.bks.cpg/sg51_11_cif.got.tgz:21313.got - 2010.06.03 11:52:47.
