data_PCOD9400061
_publ_section_title
;
Structure prediction by ZEFSAII (Michael W. Deem and Ramdas Pophale) SiO2 
 PCOD9400061
Probable space group: P M M A
;
_chemical_formula_sum "Si O2"
_cell_formula_units_Z 36
_cell_length_a 9.196918
_cell_length_b 12.974969
_cell_length_c 20.075754
_cell_angle_alpha 90.000000
_cell_angle_beta 90.000000
_cell_angle_gamma 90.000000
_cell_volume 2395.634223
_symmetry_space_group_name_H-M "P M M A"
_symmetry_group_IT_number 51
_symmetry_cell_setting 'orthorhombic'
loop_
_space_group_symop_operation_xyz
x,y,z
1/2-x,-y,z
1/2+x,-y,-z
-x,y,-z
-x,-y,-z
1/2+x,y,-z
1/2-x,y,z
x,-y,z
loop_
_atom_site_type_symbol
_atom_site_label
_atom_site_fract_x
_atom_site_fract_y
_atom_site_fract_z
Si Si1 0.424290 0.118937 0.069667
Si Si2 0.577715 0.376317 0.296973
Si Si3 0.075191 0.695056 0.164402
Si Si4 0.082196 0.625441 0.433143
Si Si5 0.076019 0.500000 0.071330
O O1 0.250000 0.125139 0.060791
O O2 0.463855 0.199037 0.127247
O O3 0.461748 0.000000 0.085199
O O4 0.500000 0.146664 0.000000
O O5 0.750000 0.358171 0.300159
O O6 0.555180 0.500000 0.289237
O O7 0.505674 0.322062 0.233710
O O8 0.501281 0.344414 0.365924
O O9 0.250000 0.692327 0.175103
O O10 0.038437 0.600805 0.114659
O O11 0.250000 0.658528 0.432417
O O12 0.081757 0.500000 0.434303
O O13 0.000000 0.659771 0.500000
O O14 0.250000 0.500000 0.061529
O O15 0.000000 0.500000 0.000000
#
# Coordination Sequence:
#
# PCOD9400061 Si02
#       5
#     8   8   8   8   4
#     4   9  18  32  49  67  86 111 145 186 230 272
#     4  10  19  29  42  62  88 118 151 185 221 263
#     4  10  19  31  45  62  87 117 147 181 222 269
#     4   9  16  26  41  60  85 118 153 186 217 255
#     4  10  20  30  42  60  83 112 145 178 216 262
#
# _framework density 15.027336999999999
#
# number of rings (size 3 to 8) (size 9 to 14) (size 15 to 20)
#    0.000    2.444    1.111    2.000    0.000    5.333 
#    0.000    0.000    0.000    0.000    0.000    0.000 
#    0.000    0.889    0.000    2.444    0.000    3.556 
#
# Total GULP energy -200734.463439 kJ/mol
# GULP energy per Si atom -5575.957318 kJ/mol
# Density = 1.499313 g / cm^3
# Si number density = 15.027337 Si / 1000 Ang^3
#
#
#
# Elastic Constant Matrix: (Units=GPa)
#
#
# Indices 1 2 3 4 5 6 
#
# 1 72.3163 38.6271 84.7264 0.0000 0.0000 0.0000
# 2 38.6271 52.9340 61.0109 0.0000 0.0000 0.0000
# 3 84.7264 61.0109 181.6434 0.0000 0.0000 0.0000
# 4 0.0000 0.0000 0.0000 15.9275 0.0000 0.0000
# 5 0.0000 0.0000 0.0000 0.0000 35.2441 0.0000
# 6 0.0000 0.0000 0.0000 0.0000 0.0000 8.7564
#
#
#
# Elastic Compliance Matrix: (Units=1/GPa)
#
#
# Indices 1 2 3 4 5 6 
#
# 1 0.033774 -0.010587 -0.012198 0.000000 0.000000 0.000000
# 2 -0.010587 0.034143 -0.006530 0.000000 0.000000 0.000000
# 3 -0.012198 -0.006530 0.013388 0.000000 0.000000 0.000000
# 4 0.000000 0.000000 0.000000 0.062784 0.000000 0.000000
# 5 0.000000 0.000000 0.000000 0.000000 0.028374 0.000000
# 6 0.000000 0.000000 0.000000 0.000000 0.000000 0.114202
#
#
# Mechanical properties :
#
#
# Convention : Reuss Voigt Hill
#
# Bulk Modulus (GPa) = 44.09871 75.06918 59.58394
# Shear Modulus (GPa) = 14.17022 20.15423 17.16223
#
# Velocity S-wave (km/s) = 3.07410 3.66617 3.38311
# Velocity P-wave (km/s) = 6.48147 8.24528 7.41600
#
# Compressibility (1/GPa) = 0.02267640
#
# Stress axis : x y z
#
# Youngs Moduli (GPa) = 29.60878 29.28843 74.69289
#
# Poissons Ratio (x) = 0.31006 0.91108
# Poissons Ratio (y) = 0.31346 0.48775
# Poissons Ratio (z) = 0.36116 0.19126
#
# Static dielectric constant tensor:
#      x y z
#    x 1.499670 0.000000 0.000000 
#    y 0.000000 1.485230 0.000000 
#    z 0.000000 0.000000 1.474420 
# 
# From -- ./inp_files/20360.got.cif
#   From: 2010.05.17/outbox.cif.g08.bks.cpg/sg51_11_cif.got.tgz:20360.got - 2010.06.03 11:52:47.
