data_PCOD9400884
_publ_section_title
;
Structure prediction by ZEFSAII (Michael W. Deem and Ramdas Pophale) SiO2 
 PCOD9400884
Probable space group: P M M A
;
_chemical_formula_sum "Si O2"
_cell_formula_units_Z 48
_cell_length_a 9.439828
_cell_length_b 14.949173
_cell_length_c 19.276983
_cell_angle_alpha 90.000000
_cell_angle_beta 90.000000
_cell_angle_gamma 90.000000
_cell_volume 2720.321998
_symmetry_space_group_name_H-M "P M M A"
_symmetry_group_IT_number 51
_symmetry_cell_setting 'orthorhombic'
loop_
_space_group_symop_operation_xyz
x,y,z
1/2-x,-y,z
1/2+x,-y,-z
-x,y,-z
-x,-y,-z
1/2+x,y,-z
1/2-x,y,z
x,-y,z
loop_
_atom_site_type_symbol
_atom_site_label
_atom_site_fract_x
_atom_site_fract_y
_atom_site_fract_z
Si Si1 0.586468 0.743298 0.187461
Si Si2 0.918243 0.895857 0.287994
Si Si3 0.590683 0.640132 0.564711
Si Si4 0.904804 0.598143 0.307771
Si Si5 0.414963 0.143459 0.430852
Si Si6 0.421873 0.602424 0.926431
O O1 0.750000 0.764431 0.169087
O O2 0.528322 0.832776 0.224735
O O3 0.584882 0.672849 0.250257
O O4 0.529215 0.683962 0.123525
O O5 0.750000 0.874230 0.300079
O O6 0.004016 0.881530 0.359699
O O7 0.927568 0.000000 0.269322
O O8 0.500000 0.609337 0.500000
O O9 0.750000 0.610592 0.557025
O O10 0.523696 0.607438 0.635545
O O11 0.586687 0.748400 0.566539
O O12 0.750000 0.608391 0.342527
O O13 0.909336 0.500000 0.275276
O O14 0.500000 0.112957 0.500000
O O15 0.250000 0.113677 0.431194
O O16 0.250000 0.608278 0.933087
O O17 0.450980 0.500000 0.900728
O O18 0.500000 0.610608 0.000000
#
# Coordination Sequence:
#
# PCOD9400884 Si02
#       6
#     8   8   8   8   8   8
#     4   9  17  32  53  75 103 134 165 204 248 298
#     4  10  20  34  54  78 101 130 170 214 261 310
#     4  10  20  33  49  68  93 128 167 208 254 301
#     4  10  19  31  50  73  95 126 166 205 249 300
#     4  10  20  34  53  74  98 131 171 217 270 318
#     4   9  17  31  53  81 110 139 170 203 242 290
#
# _framework density 17.644970000000001
#
# number of rings (size 3 to 8) (size 9 to 14) (size 15 to 20)
#    0.000    2.333    1.667    1.500    0.000    4.667 
#    0.000    1.667    0.000    2.500    0.000    0.000 
#    0.000    0.000    0.000    0.000    0.000    0.000 
#
# Total GULP energy -267410.304193 kJ/mol
# GULP energy per Si atom -5571.048004 kJ/mol
# Density = 1.760481 g / cm^3
# Si number density = 17.644970 Si / 1000 Ang^3
#
#
#
# Elastic Constant Matrix: (Units=GPa)
#
#
# Indices 1 2 3 4 5 6 
#
# 1 75.7426 28.3865 39.0598 0.0000 0.0000 0.0000
# 2 28.3865 99.3374 44.2707 0.0000 0.0000 0.0000
# 3 39.0598 44.2707 96.2891 0.0000 0.0000 0.0000
# 4 0.0000 0.0000 0.0000 15.7978 0.0000 0.0000
# 5 0.0000 0.0000 0.0000 0.0000 24.4378 0.0000
# 6 0.0000 0.0000 0.0000 0.0000 0.0000 14.6533
#
#
#
# Elastic Compliance Matrix: (Units=1/GPa)
#
#
# Indices 1 2 3 4 5 6 
#
# 1 0.017088 -0.002256 -0.005894 0.000000 0.000000 0.000000
# 2 -0.002256 0.012959 -0.005043 0.000000 0.000000 0.000000
# 3 -0.005894 -0.005043 0.015095 0.000000 0.000000 0.000000
# 4 0.000000 0.000000 0.000000 0.063300 0.000000 0.000000
# 5 0.000000 0.000000 0.000000 0.000000 0.040920 0.000000
# 6 0.000000 0.000000 0.000000 0.000000 0.000000 0.068244
#
#
# Mechanical properties :
#
#
# Convention : Reuss Voigt Hill
#
# Bulk Modulus (GPa) = 53.31937 54.97812 54.14874
# Shear Modulus (GPa) = 19.98049 21.62126 20.80088
#
# Velocity S-wave (km/s) = 3.36871 3.50430 3.43717
# Velocity P-wave (km/s) = 6.73902 6.89921 6.81959
#
# Compressibility (1/GPa) = 0.01875491
#
# Stress axis : x y z
#
# Youngs Moduli (GPa) = 58.52112 77.16764 66.24699
#
# Poissons Ratio (x) = 0.17410 0.39049
# Poissons Ratio (y) = 0.13203 0.33407
# Poissons Ratio (z) = 0.34495 0.38915
#
# Static dielectric constant tensor:
#      x y z
#    x 1.608530 0.000000 0.000000 
#    y 0.000000 1.644330 0.000000 
#    z 0.000000 0.000000 1.575090 
# 
# From -- ./inp_files/27528.got.cif
#   From: 2010.05.17/outbox.cif.g08.bks.cpg/sg51_14_cif.got.tgz:27528.got - 2010.06.03 11:52:47.
