data_PCOD9400783
_publ_section_title
;
Structure prediction by ZEFSAII (Michael W. Deem and Ramdas Pophale) SiO2 
 PCOD9400783
Probable space group: P M M A
;
_chemical_formula_sum "Si O2"
_cell_formula_units_Z 48
_cell_length_a 14.829929
_cell_length_b 9.406895
_cell_length_c 16.194393
_cell_angle_alpha 90.000000
_cell_angle_beta 90.000000
_cell_angle_gamma 90.000000
_cell_volume 2259.175880
_symmetry_space_group_name_H-M "P M M A"
_symmetry_group_IT_number 51
_symmetry_cell_setting 'orthorhombic'
loop_
_space_group_symop_operation_xyz
x,y,z
1/2-x,-y,z
1/2+x,-y,-z
-x,y,-z
-x,-y,-z
1/2+x,y,-z
1/2-x,y,z
x,-y,z
loop_
_atom_site_type_symbol
_atom_site_label
_atom_site_fract_x
_atom_site_fract_y
_atom_site_fract_z
Si Si1 0.857175 0.840582 0.182048
Si Si2 0.601297 0.662534 0.664328
Si Si3 0.639702 0.665390 0.025662
Si Si4 0.110287 0.163524 0.494164
Si Si5 0.386786 0.661172 0.653191
Si Si6 0.358601 0.334470 0.155240
O O1 0.750000 0.853321 0.168420
O O2 0.893771 0.757385 0.102350
O O3 0.867447 0.747999 0.264074
O O4 0.894522 0.000000 0.191533
O O5 0.638168 0.500000 0.662652
O O6 0.637562 0.759629 0.590765
O O7 0.494954 0.651681 0.648413
O O8 0.612283 0.725600 0.756445
O O9 0.750000 0.665068 0.027174
O O10 0.612566 0.500000 0.034332
O O11 0.612792 0.721243 0.934709
O O12 0.143423 0.253202 0.572557
O O13 0.000000 0.162831 0.500000
O O14 0.139094 0.000000 0.497312
O O15 0.352313 0.500000 0.656663
O O16 0.250000 0.332386 0.155720
O O17 0.388082 0.500000 0.156221
#
# Coordination Sequence:
#
# PCOD9400783 Si02
#       6
#     8   8   8   8   8   8
#     4  10  20  33  49  69  93 121 154 194 238 282
#     4   9  17  30  49  73  97 122 157 197 234 275
#     4   8  14  27  48  70  91 120 157 190 223 271
#     4   9  17  30  48  68  92 125 161 194 232 279
#     4  10  19  31  49  71  94 122 157 196 235 279
#     4   8  14  27  49  74  97 122 154 192 230 268
#
# _framework density 21.246686
#
# number of rings (size 3 to 8) (size 9 to 14) (size 15 to 20)
#    0.000    3.000    0.000    2.500    0.000    3.667 
#    0.000    2.500    0.000    9.500    0.000    0.000 
#    0.000    0.000    0.000    0.000    0.000    0.000 
#
# Total GULP energy -267750.378216 kJ/mol
# GULP energy per Si atom -5578.132880 kJ/mol
# Density = 2.119833 g / cm^3
# Si number density = 21.246686 Si / 1000 Ang^3
#
#
#
# Elastic Constant Matrix: (Units=GPa)
#
#
# Indices 1 2 3 4 5 6 
#
# 1 44.3994 8.6284 1.9681 0.0000 0.0000 0.0000
# 2 8.6284 155.0965 124.0901 0.0000 0.0000 0.0000
# 3 1.9681 124.0901 242.0593 0.0000 0.0000 0.0000
# 4 0.0000 0.0000 0.0000 -97.4216 0.0000 0.0000
# 5 0.0000 0.0000 0.0000 0.0000 22.8614 0.0000
# 6 0.0000 0.0000 0.0000 0.0000 0.0000 1.5711
#
#
#
# Elastic Compliance Matrix: (Units=1/GPa)
#
#
# Indices 1 2 3 4 5 6 
#
# 1 0.022858 -0.001904 0.000790 0.000000 0.000000 0.000000
# 2 -0.001904 0.011090 -0.005670 0.000000 0.000000 0.000000
# 3 0.000790 -0.005670 0.007031 0.000000 0.000000 0.000000
# 4 0.000000 0.000000 0.000000 -0.010265 0.000000 0.000000
# 5 0.000000 0.000000 0.000000 0.000000 0.043742 0.000000
# 6 0.000000 0.000000 0.000000 0.000000 0.000000 0.636514
#
#
# Mechanical properties :
#
#
# Convention : Reuss Voigt Hill
#
# Bulk Modulus (GPa) = 36.48007 78.99205 57.73606
# Shear Modulus (GPa) = 6.81502 5.86008 6.33755
#
# Velocity S-wave (km/s) = 1.79291 1.66256 1.72896
# Velocity P-wave (km/s) = 4.63606 6.39880 5.58739
#
# Compressibility (1/GPa) = 0.02741223
#
# Stress axis : x y z
#
# Youngs Moduli (GPa) = 43.74873 90.17441 142.22230
#
# Poissons Ratio (x) = 0.17168 -0.11237
# Poissons Ratio (y) = 0.08329 0.80634
# Poissons Ratio (z) = -0.03457 0.51125
#
# Static dielectric constant tensor:
#      x y z
#    x 1.829800 0.000000 0.000000 
#    y 0.000000 1.744190 0.000000 
#    z 0.000000 0.000000 1.763190 
# 
# From -- ./inp_files/24801.got.cif
#   From: 2010.05.17/outbox.cif.g08.bks.cpg/sg51_13_cif.got.tgz:24801.got - 2010.06.03 11:52:47.
