data_PCOD9400337
_publ_section_title
;
Structure prediction by ZEFSAII (Michael W. Deem and Ramdas Pophale) SiO2 
 PCOD9400337
Probable space group: P M M A
;
_chemical_formula_sum "Si O2"
_cell_formula_units_Z 56
_cell_length_a 8.851684
_cell_length_b 14.115498
_cell_length_c 30.272138
_cell_angle_alpha 90.000000
_cell_angle_beta 90.000000
_cell_angle_gamma 90.000000
_cell_volume 3782.380369
_symmetry_space_group_name_H-M "P M M A"
_symmetry_group_IT_number 51
_symmetry_cell_setting 'orthorhombic'
loop_
_space_group_symop_operation_xyz
x,y,z
1/2-x,-y,z
1/2+x,-y,-z
-x,y,-z
-x,-y,-z
1/2+x,y,-z
1/2-x,y,z
x,-y,z
loop_
_atom_site_type_symbol
_atom_site_label
_atom_site_fract_x
_atom_site_fract_y
_atom_site_fract_z
Si Si1 0.565407 0.110154 0.858030
Si Si2 0.068044 0.106982 0.683435
Si Si3 0.424802 0.884756 0.045264
Si Si4 0.930562 0.611132 0.547558
Si Si5 0.568043 0.392487 0.717747
Si Si6 0.432211 0.206099 0.231830
Si Si7 0.068952 0.294074 0.632689
O O1 0.750000 0.111328 0.859625
O O2 0.511898 0.143020 0.906593
O O3 0.516925 0.172667 0.816477
O O4 0.522075 0.000000 0.851216
O O5 0.250000 0.109371 0.687391
O O6 0.025893 0.187559 0.647929
O O7 0.998263 0.138749 0.730097
O O8 0.022071 0.000000 0.672102
O O9 0.250000 0.857371 0.043673
O O10 0.431309 0.000000 0.045462
O O11 0.500000 0.851616 0.000000
O O12 0.750000 0.619946 0.546118
O O13 0.967363 0.500000 0.556053
O O14 0.000000 0.635912 0.500000
O O15 0.997603 0.673423 0.586855
O O16 0.750000 0.388335 0.711861
O O17 0.527379 0.500000 0.729452
O O18 0.526786 0.313078 0.753952
O O19 0.491438 0.361253 0.671978
O O20 0.250000 0.198825 0.232967
O O21 0.250000 0.300206 0.630301
#
# Coordination Sequence:
#
# PCOD9400337 Si02
#       7
#     8   8   8   8   8   8   8
#     4   8  13  21  34  52  73  97 126 161 197 231
#     4   9  18  31  44  60  85 113 138 168 204 235
#     4   8  13  21  32  46  66  92 121 153 190 232
#     4  10  20  33  49  69  92 114 135 164 203 243
#     4   9  17  28  41  59  84 110 134 164 201 237
#     4   9  16  26  41  59  78 104 138 169 197 236
#     4  10  19  30  46  66  86 111 141 168 196 235
#
# _framework density 14.805491
#
# number of rings (size 3 to 8) (size 9 to 14) (size 15 to 20)
#    0.000    3.000    0.000    2.571    0.000    4.286 
#    0.000    0.714    0.000    3.000    0.000    0.000 
#    0.000    0.571    0.000    0.429    0.000    0.857 
#
# Total GULP energy -311806.995941 kJ/mol
# GULP energy per Si atom -5567.982070 kJ/mol
# Density = 1.477179 g / cm^3
# Si number density = 14.805491 Si / 1000 Ang^3
#
#
#
# Elastic Constant Matrix: (Units=GPa)
#
#
# Indices 1 2 3 4 5 6 
#
# 1 15.3179 23.5866 35.8945 0.0000 0.0000 0.0000
# 2 23.5866 92.7818 71.5918 0.0000 0.0000 0.0000
# 3 35.8945 71.5918 161.2547 0.0000 0.0000 0.0000
# 4 0.0000 0.0000 0.0000 18.8583 0.0000 0.0000
# 5 0.0000 0.0000 0.0000 0.0000 21.5244 0.0000
# 6 0.0000 0.0000 0.0000 0.0000 0.0000 14.7719
#
#
#
# Elastic Compliance Matrix: (Units=1/GPa)
#
#
# Indices 1 2 3 4 5 6 
#
# 1 0.157026 -0.019695 -0.026209 0.000000 0.000000 0.000000
# 2 -0.019695 0.018864 -0.003991 0.000000 0.000000 0.000000
# 3 -0.026209 -0.003991 0.013807 0.000000 0.000000 0.000000
# 4 0.000000 0.000000 0.000000 0.053027 0.000000 0.000000
# 5 0.000000 0.000000 0.000000 0.000000 0.046459 0.000000
# 6 0.000000 0.000000 0.000000 0.000000 0.000000 0.067696
#
#
# Mechanical properties :
#
#
# Convention : Reuss Voigt Hill
#
# Bulk Modulus (GPa) = 11.12265 59.05559 35.08912
# Shear Modulus (GPa) = 10.27455 20.24969 15.26212
#
# Velocity S-wave (km/s) = 2.63719 3.70227 3.21416
# Velocity P-wave (km/s) = 4.09900 7.63217 6.12584
#
# Compressibility (1/GPa) = 0.08990667
#
# Stress axis : x y z
#
# Youngs Moduli (GPa) = 6.36838 53.00983 72.42524
#
# Poissons Ratio (x) = 1.04404 1.89821
# Poissons Ratio (y) = 0.12543 0.28906
# Poissons Ratio (z) = 0.16691 0.21157
#
# Static dielectric constant tensor:
#      x y z
#    x 1.500120 0.000000 0.000000 
#    y 0.000000 1.487740 0.000000 
#    z 0.000000 0.000000 1.489070 
# 
# From -- ./inp_files/37466.got.cif
#   From: 2010.05.17/outbox.cif.g08.bks.cpg/sg51_19_cif.got.tgz:37466.got - 2010.06.03 11:52:47.
