data_PCOD9400565
_publ_section_title
;
Structure prediction by ZEFSAII (Michael W. Deem and Ramdas Pophale) SiO2 
 PCOD9400565
Probable space group: P M M A
;
_chemical_formula_sum "Si O2"
_cell_formula_units_Z 64
_cell_length_a 7.561954
_cell_length_b 19.691461
_cell_length_c 24.520275
_cell_angle_alpha 90.000000
_cell_angle_beta 90.000000
_cell_angle_gamma 90.000000
_cell_volume 3651.214163
_symmetry_space_group_name_H-M "P M M A"
_symmetry_group_IT_number 51
_symmetry_cell_setting 'orthorhombic'
loop_
_space_group_symop_operation_xyz
x,y,z
1/2-x,-y,z
1/2+x,-y,-z
-x,y,-z
-x,-y,-z
1/2+x,y,-z
1/2-x,y,z
x,-y,z
loop_
_atom_site_type_symbol
_atom_site_label
_atom_site_fract_x
_atom_site_fract_y
_atom_site_fract_z
Si Si1 0.536719 0.076747 0.226884
Si Si2 0.041569 0.209515 0.168818
Si Si3 0.461944 0.922590 0.561956
Si Si4 0.961834 0.718561 0.939985
Si Si5 0.533021 0.159587 0.334081
Si Si6 0.958889 0.574842 0.904461
Si Si7 0.535367 0.576113 0.223463
Si Si8 0.452463 0.289976 0.723791
O O1 0.750000 0.074952 0.227999
O O2 0.483692 0.130003 0.180365
O O3 0.479998 0.109742 0.284540
O O4 0.472254 0.000000 0.220301
O O5 0.250000 0.224727 0.173194
O O6 0.975401 0.236142 0.110688
O O7 0.952248 0.249742 0.218558
O O8 0.500000 0.901444 0.500000
O O9 0.250000 0.925763 0.567824
O O10 0.526224 0.871996 0.608833
O O11 0.529543 0.000000 0.569191
O O12 0.750000 0.714781 0.934692
O O13 0.033279 0.641548 0.933512
O O14 0.000000 0.745348 0.000000
O O15 0.750000 0.161693 0.333669
O O16 0.470116 0.235328 0.318497
O O17 0.750000 0.571854 0.916482
O O18 0.034359 0.500000 0.917387
O O19 0.978347 0.586062 0.839340
O O20 0.750000 0.578749 0.223184
O O21 0.481425 0.500000 0.239725
O O22 0.468313 0.636806 0.261736
O O23 0.250000 0.302082 0.706665
#
# Coordination Sequence:
#
# PCOD9400565 Si02
#       8
#     8   8   8   8   8   8   8   8
#     4   9  17  30  49  70  88 109 138 169 205 253
#     4  10  19  31  45  64  88 109 134 169 212 255
#     4   9  16  26  40  57  81 114 147 176 204 237
#     4  10  21  33  45  62  82 108 140 174 209 248
#     4   8  14  25  42  63  85 112 144 174 202 239
#     4   9  17  30  45  60  82 111 140 169 203 247
#     4   9  16  25  40  63  87 110 137 170 208 249
#     4   9  16  27  44  63  84 112 143 173 208 251
#
# _framework density 17.528414999999999
#
# number of rings (size 3 to 8) (size 9 to 14) (size 15 to 20)
#    0.000    2.875    1.250    1.500    0.000    3.500 
#    0.000    2.500    0.000    3.375    0.000    0.000 
#    0.000    0.500    0.000    0.375    0.000    0.750 
#
# Total GULP energy -356716.028227 kJ/mol
# GULP energy per Si atom -5573.687941 kJ/mol
# Density = 1.748852 g / cm^3
# Si number density = 17.528415 Si / 1000 Ang^3
#
#
#
# Elastic Constant Matrix: (Units=GPa)
#
#
# Indices 1 2 3 4 5 6 
#
# 1 42.8123 -4.4604 -5.8838 0.0000 0.0000 0.0000
# 2 -4.4604 109.0090 55.3735 0.0000 0.0000 0.0000
# 3 -5.8838 55.3735 102.7131 0.0000 0.0000 0.0000
# 4 0.0000 0.0000 0.0000 26.5809 0.0000 0.0000
# 5 0.0000 0.0000 0.0000 0.0000 -11.2339 0.0000
# 6 0.0000 0.0000 0.0000 0.0000 0.0000 4.9954
#
#
#
# Elastic Compliance Matrix: (Units=1/GPa)
#
#
# Indices 1 2 3 4 5 6 
#
# 1 0.023555 0.000383 0.001143 0.000000 0.000000 0.000000
# 2 0.000383 0.012639 -0.006792 0.000000 0.000000 0.000000
# 3 0.001143 -0.006792 0.013463 0.000000 0.000000 0.000000
# 4 0.000000 0.000000 0.000000 0.037621 0.000000 0.000000
# 5 0.000000 0.000000 0.000000 0.000000 -0.089016 0.000000
# 6 0.000000 0.000000 0.000000 0.000000 0.000000 0.200186
#
#
# Mechanical properties :
#
#
# Convention : Reuss Voigt Hill
#
# Bulk Modulus (GPa) = 25.55909 38.28812 31.92361
# Shear Modulus (GPa) = 22.52038 18.03548 20.27793
#
# Velocity S-wave (km/s) = 3.58829 3.21117 3.40495
# Velocity P-wave (km/s) = 5.63746 5.96990 5.80606
#
# Compressibility (1/GPa) = 0.03912502
#
# Stress axis : x y z
#
# Youngs Moduli (GPa) = 42.45427 79.11770 74.27791
#
# Poissons Ratio (x) = -0.03033 -0.08487
# Poissons Ratio (y) = -0.01628 0.50450
# Poissons Ratio (z) = -0.04851 0.53737
#
# Static dielectric constant tensor:
#      x y z
#    x 1.664820 0.000000 0.000000 
#    y 0.000000 1.634420 0.000000 
#    z 0.000000 0.000000 1.571520 
# 
# From -- ./inp_files/35193.got.cif
#   From: 2010.05.17/outbox.cif.g08.bks.cpg/sg51_18_cif.got.tgz:35193.got - 2010.06.03 11:52:47.
