data_PCOD9400555
_publ_section_title
;
Structure prediction by ZEFSAII (Michael W. Deem and Ramdas Pophale) SiO2 
 PCOD9400555
Probable space group: P M M A
;
_chemical_formula_sum "Si O2"
_cell_formula_units_Z 40
_cell_length_a 7.656394
_cell_length_b 22.282489
_cell_length_c 14.451049
_cell_angle_alpha 90.000000
_cell_angle_beta 90.000000
_cell_angle_gamma 90.000000
_cell_volume 2465.399756
_symmetry_space_group_name_H-M "P M M A"
_symmetry_group_IT_number 51
_symmetry_cell_setting 'orthorhombic'
loop_
_space_group_symop_operation_xyz
x,y,z
1/2-x,-y,z
1/2+x,-y,-z
-x,y,-z
-x,-y,-z
1/2+x,y,-z
1/2-x,y,z
x,-y,z
loop_
_atom_site_type_symbol
_atom_site_label
_atom_site_fract_x
_atom_site_fract_y
_atom_site_fract_z
Si Si1 0.539445 0.240082 0.109133
Si Si2 0.540102 0.629156 0.109690
Si Si3 0.539747 0.500000 0.110006
Si Si4 0.955861 0.120517 0.205072
Si Si5 0.460241 0.000000 0.891732
Si Si6 0.957629 0.068404 0.604725
O O1 0.750000 0.241744 0.118010
O O2 0.473993 0.305726 0.142146
O O3 0.471281 0.182628 0.165035
O O4 0.500000 0.232967 0.000000
O O5 0.750000 0.628837 0.120939
O O6 0.474140 0.564620 0.146446
O O7 0.500000 0.629098 0.000000
O O8 0.750000 0.500000 0.120105
O O9 0.500000 0.500000 0.000000
O O10 0.750000 0.121519 0.183000
O O11 0.029377 0.060625 0.156168
O O12 0.974601 0.110797 0.314403
O O13 0.250000 0.000000 0.879641
O O14 0.500000 0.000000 0.000000
O O15 0.750000 0.065949 0.613798
O O16 0.000000 0.086791 0.500000
O O17 0.027287 0.000000 0.617663
#
# Coordination Sequence:
#
# PCOD9400555 Si02
#       6
#     8   8   4   8   4   8
#     4   9  17  27  39  55  78 108 139 169 200 233
#     4   8  13  21  32  48  69  96 130 164 197 229
#     4   8  12  18  30  46  66  92 125 164 197 226
#     4  10  19  31  44  59  80 106 133 165 201 236
#     4  10  20  30  41  56  77 104 135 168 198 226
#     4  10  20  33  50  68  82  98 122 158 201 245
#
# _framework density 16.224549
#
# number of rings (size 3 to 8) (size 9 to 14) (size 15 to 20)
#    0.000    2.800    1.000    1.200    0.000    2.400 
#    0.000    0.000    0.000    0.000    0.000    0.000 
#    0.000    0.000    0.000    0.900    0.000    6.500 
#
# Total GULP energy -222682.188626 kJ/mol
# GULP energy per Si atom -5567.054716 kJ/mol
# Density = 1.618762 g / cm^3
# Si number density = 16.224549 Si / 1000 Ang^3
#
#
#
# Elastic Constant Matrix: (Units=GPa)
#
#
# Indices 1 2 3 4 5 6 
#
# 1 31.0788 9.5938 -10.7909 0.0000 0.0000 0.0000
# 2 9.5938 197.9969 62.5479 0.0000 0.0000 0.0000
# 3 -10.7909 62.5479 60.1265 0.0000 0.0000 0.0000
# 4 0.0000 0.0000 0.0000 4.7664 0.0000 0.0000
# 5 0.0000 0.0000 0.0000 0.0000 16.1362 0.0000
# 6 0.0000 0.0000 0.0000 0.0000 0.0000 -0.6900
#
#
#
# Elastic Compliance Matrix: (Units=1/GPa)
#
#
# Indices 1 2 3 4 5 6 
#
# 1 0.038638 -0.006051 0.013229 0.000000 0.000000 0.000000
# 2 -0.006051 0.008471 -0.009898 0.000000 0.000000 0.000000
# 3 0.013229 -0.009898 0.029302 0.000000 0.000000 0.000000
# 4 0.000000 0.000000 0.000000 0.209804 0.000000 0.000000
# 5 0.000000 0.000000 0.000000 0.000000 0.061972 0.000000
# 6 0.000000 0.000000 0.000000 0.000000 0.000000 -1.449214
#
#
# Mechanical properties :
#
#
# Convention : Reuss Voigt Hill
#
# Bulk Modulus (GPa) = 14.09025 45.76707 29.92866
# Shear Modulus (GPa) = -4.66448 19.23261 7.28406
#
# Velocity S-wave (km/s) = -1.69741 3.44670 2.12115
# Velocity P-wave (km/s) = 2.20495 6.64149 4.94829
#
# Compressibility (1/GPa) = 0.07097105
#
# Stress axis : x y z
#
# Youngs Moduli (GPa) = 25.88149 118.05675 34.12718
#
# Poissons Ratio (x) = 0.71440 -0.45148
# Poissons Ratio (y) = 0.15662 0.33778
# Poissons Ratio (z) = -0.34240 1.16849
#
# Static dielectric constant tensor:
#      x y z
#    x 1.579930 0.000000 0.000000 
#    y 0.000000 1.634160 0.000000 
#    z 0.000000 0.000000 1.497640 
# 
# From -- ./inp_files/14269.got.cif
#   From: 2010.05.17/outbox.cif.g08.bks.cpg/sg51_8_cif.got.tgz:14269.got - 2010.06.03 11:52:47.
