data_PCOD9400309
_publ_section_title
;
Structure prediction by ZEFSAII (Michael W. Deem and Ramdas Pophale) SiO2 
 PCOD9400309
Probable space group: P M M A
;
_chemical_formula_sum "Si O2"
_cell_formula_units_Z 64
_cell_length_a 17.523541
_cell_length_b 9.382320
_cell_length_c 23.170744
_cell_angle_alpha 90.000000
_cell_angle_beta 90.000000
_cell_angle_gamma 90.000000
_cell_volume 3809.536063
_symmetry_space_group_name_H-M "P M M A"
_symmetry_group_IT_number 51
_symmetry_cell_setting 'orthorhombic'
loop_
_space_group_symop_operation_xyz
x,y,z
1/2-x,-y,z
1/2+x,-y,-z
-x,y,-z
-x,-y,-z
1/2+x,y,-z
1/2-x,y,z
x,-y,z
loop_
_atom_site_type_symbol
_atom_site_label
_atom_site_fract_x
_atom_site_fract_y
_atom_site_fract_z
Si Si1 0.665508 0.670711 0.213885
Si Si2 0.410650 0.163526 0.020775
Si Si3 0.628916 0.339593 0.084598
Si Si4 0.976111 0.168528 0.631472
Si Si5 0.546510 0.663017 0.871984
Si Si6 0.489472 0.169800 0.762604
Si Si7 0.663054 0.169923 0.548360
Si Si8 0.572601 0.336847 0.456271
O O1 0.750000 0.700913 0.237857
O O2 0.650458 0.500000 0.219742
O O3 0.666976 0.700254 0.145050
O O4 0.595264 0.761156 0.238027
O O5 0.405897 0.255450 0.079065
O O6 0.389839 0.000000 0.030761
O O7 0.500000 0.164966 0.000000
O O8 0.363634 0.233759 0.968635
O O9 0.652113 0.500000 0.068338
O O10 0.539222 0.344027 0.101627
O O11 0.974479 0.192737 0.699659
O O12 0.896984 0.204825 0.599115
O O13 0.042682 0.257350 0.600469
O O14 0.990175 0.000000 0.621779
O O15 0.571381 0.500000 0.862221
O O16 0.536396 0.751575 0.813137
O O17 0.484920 0.000000 0.774051
O O18 0.750000 0.203945 0.563833
O O19 0.637110 0.252381 0.491033
O O20 0.657340 0.000000 0.538116
O O21 0.500000 0.336292 0.500000
O O22 0.593788 0.500000 0.444777
#
# Coordination Sequence:
#
# PCOD9400309 Si02
#       8
#     8   8   8   8   8   8   8   8
#     4   9  18  32  47  62  84 117 156 196 237 283
#     4   9  15  22  35  57  83 107 133 171 219 267
#     4   8  14  24  38  56  78 105 137 175 223 275
#     4   9  18  32  49  70  97 128 160 193 231 278
#     4   9  16  26  40  58  83 114 146 181 222 270
#     4  10  19  30  45  66  92 121 155 196 237 276
#     4   9  17  31  52  75  98 125 156 190 231 280
#     4   9  17  29  47  71  97 124 153 187 228 271
#
# _framework density 16.799947
#
# number of rings (size 3 to 8) (size 9 to 14) (size 15 to 20)
#    0.000    3.000    0.000    2.250    0.000    7.500 
#    0.000    0.625    0.000    0.750    0.000    0.875 
#    0.000    3.000    0.000    0.000    0.000    0.000 
#
# Total GULP energy -356415.362213 kJ/mol
# GULP energy per Si atom -5568.990035 kJ/mol
# Density = 1.676171 g / cm^3
# Si number density = 16.799947 Si / 1000 Ang^3
#
#
#
# Elastic Constant Matrix: (Units=GPa)
#
#
# Indices 1 2 3 4 5 6 
#
# 1 49.3126 32.5775 26.0314 0.0000 0.0000 0.0000
# 2 32.5775 93.2830 67.9870 0.0000 0.0000 0.0000
# 3 26.0314 67.9870 95.4402 0.0000 0.0000 0.0000
# 4 0.0000 0.0000 0.0000 19.2642 0.0000 0.0000
# 5 0.0000 0.0000 0.0000 0.0000 9.0316 0.0000
# 6 0.0000 0.0000 0.0000 0.0000 0.0000 9.8178
#
#
#
# Elastic Compliance Matrix: (Units=1/GPa)
#
#
# Indices 1 2 3 4 5 6 
#
# 1 0.026440 -0.008273 -0.001318 0.000000 0.000000 0.000000
# 2 -0.008273 0.024884 -0.015470 0.000000 0.000000 0.000000
# 3 -0.001318 -0.015470 0.021857 0.000000 0.000000 0.000000
# 4 0.000000 0.000000 0.000000 0.051910 0.000000 0.000000
# 5 0.000000 0.000000 0.000000 0.000000 0.110722 0.000000
# 6 0.000000 0.000000 0.000000 0.000000 0.000000 0.101856
#
#
# Mechanical properties :
#
#
# Convention : Reuss Voigt Hill
#
# Bulk Modulus (GPa) = 43.36629 54.58082 48.97355
# Shear Modulus (GPa) = 12.64295 15.05205 13.84750
#
# Velocity S-wave (km/s) = 2.74626 2.99650 2.87410
# Velocity P-wave (km/s) = 5.99377 6.67317 6.34258
#
# Compressibility (1/GPa) = 0.02305938
#
# Stress axis : x y z
#
# Youngs Moduli (GPa) = 37.82137 40.18665 45.75165
#
# Poissons Ratio (x) = 0.33246 0.06032
# Poissons Ratio (y) = 0.31289 0.70776
# Poissons Ratio (z) = 0.04986 0.62167
#
# Static dielectric constant tensor:
#      x y z
#    x 1.578400 0.000000 0.000000 
#    y 0.000000 1.570470 0.000000 
#    z 0.000000 0.000000 1.553480 
# 
# From -- ./inp_files/35899.got.cif
#   From: 2010.05.17/outbox.cif.g08.bks.cpg/sg51_18_cif.got.tgz:35899.got - 2010.06.03 11:52:47.
