data_PCOD9400178
_publ_section_title
;
Structure prediction by ZEFSAII (Michael W. Deem and Ramdas Pophale) SiO2 
 PCOD9400178
Probable space group: P M M A
;
_chemical_formula_sum "Si O2"
_cell_formula_units_Z 48
_cell_length_a 19.064659
_cell_length_b 7.447861
_cell_length_c 15.804113
_cell_angle_alpha 90.000000
_cell_angle_beta 90.000000
_cell_angle_gamma 90.000000
_cell_volume 2244.040707
_symmetry_space_group_name_H-M "P M M A"
_symmetry_group_IT_number 51
_symmetry_cell_setting 'orthorhombic'
loop_
_space_group_symop_operation_xyz
x,y,z
1/2-x,-y,z
1/2+x,-y,-z
-x,y,-z
-x,-y,-z
1/2+x,y,-z
1/2-x,y,z
x,-y,z
loop_
_atom_site_type_symbol
_atom_site_label
_atom_site_fract_x
_atom_site_fract_y
_atom_site_fract_z
Si Si1 0.250000 0.719595 0.270093
Si Si2 0.671231 0.281170 0.420004
Si Si3 0.012151 0.782299 0.856187
Si Si4 0.624166 0.718823 0.608821
Si Si5 0.250000 0.287135 0.077880
Si Si6 0.471998 0.706780 0.661351
Si Si7 0.100585 0.789781 0.012493
O O1 0.250000 0.500000 0.270567
O O2 0.320154 0.776233 0.319893
O O3 0.250000 0.784064 0.173702
O O4 0.750000 0.219693 0.396485
O O5 0.673320 0.500000 0.414967
O O6 0.654319 0.233137 0.517166
O O7 0.603627 0.217927 0.366469
O O8 0.020496 0.710678 0.762415
O O9 0.941817 0.721539 0.905487
O O10 0.012410 0.000000 0.847577
O O11 0.071845 0.722337 0.922909
O O12 0.622170 0.500000 0.612299
O O13 0.544617 0.784129 0.623882
O O14 0.250000 0.500000 0.085202
O O15 0.318566 0.233298 0.027646
O O16 0.470834 0.500000 0.631514
O O17 0.083543 0.000000 0.010455
#
# Coordination Sequence:
#
# PCOD9400178 Si02
#       7
#     4   8   8   8   4   8   8
#     4   9  16  25  41  68 103 132 156 199 255 303
#     4   9  16  28  45  67 100 139 171 203 247 302
#     4   9  19  37  57  74  96 135 181 217 253 303
#     4   9  15  26  44  68 100 135 167 200 246 303
#     4  11  21  31  49  84 115 132 158 209 271 315
#     4  10  19  29  48  78 103 126 166 218 261 303
#     4   9  19  37  57  73  98 138 180 213 247 309
#
# _framework density 21.389986
#
# number of rings (size 3 to 8) (size 9 to 14) (size 15 to 20)
#    0.000    2.667    0.833    2.750    0.000    4.667 
#    1.500    1.667    0.000    2.000    0.000    0.000 
#    0.000    0.000    0.000    0.000    0.000    0.000 
#
# Total GULP energy -267883.005470 kJ/mol
# GULP energy per Si atom -5580.895947 kJ/mol
# Density = 2.134130 g / cm^3
# Si number density = 21.389986 Si / 1000 Ang^3
#
#
#
# Elastic Constant Matrix: (Units=GPa)
#
#
# Indices 1 2 3 4 5 6 
#
# 1 209.0324 -1.2347 39.5051 0.0000 0.0000 0.0000
# 2 -1.2347 62.1528 -10.7948 0.0000 0.0000 0.0000
# 3 39.5051 -10.7948 29.2380 0.0000 0.0000 0.0000
# 4 0.0000 0.0000 0.0000 30.9580 0.0000 0.0000
# 5 0.0000 0.0000 0.0000 0.0000 20.4586 0.0000
# 6 0.0000 0.0000 0.0000 0.0000 0.0000 23.8965
#
#
#
# Elastic Compliance Matrix: (Units=1/GPa)
#
#
# Indices 1 2 3 4 5 6 
#
# 1 0.006553 -0.001504 -0.009410 0.000000 0.000000 0.000000
# 2 -0.001504 0.017537 0.008507 0.000000 0.000000 0.000000
# 3 -0.009410 0.008507 0.050058 0.000000 0.000000 0.000000
# 4 0.000000 0.000000 0.000000 0.032302 0.000000 0.000000
# 5 0.000000 0.000000 0.000000 0.000000 0.048879 0.000000
# 6 0.000000 0.000000 0.000000 0.000000 0.000000 0.041847
#
#
# Mechanical properties :
#
#
# Convention : Reuss Voigt Hill
#
# Bulk Modulus (GPa) = 14.42297 39.48604 26.95450
# Shear Modulus (GPa) = 22.21215 33.25912 27.73564
#
# Velocity S-wave (km/s) = 3.22597 3.94749 3.60483
# Velocity P-wave (km/s) = 4.54240 6.26714 5.47314
#
# Compressibility (1/GPa) = 0.06933387
#
# Stress axis : x y z
#
# Youngs Moduli (GPa) = 152.59033 57.02214 19.97696
#
# Poissons Ratio (x) = 0.08577 0.18799
# Poissons Ratio (y) = 0.22952 -0.16995
# Poissons Ratio (z) = 1.43590 -0.48510
#
# Static dielectric constant tensor:
#      x y z
#    x 1.755000 0.000000 0.000000 
#    y 0.000000 1.850350 0.000000 
#    z 0.000000 0.000000 1.725940 
# 
# From -- ./inp_files/24952.got.cif
#   From: 2010.05.17/outbox.cif.g08.bks.cpg/sg51_13_cif.got.tgz:24952.got - 2010.06.03 11:52:47.
