data_PCOD9400629
_publ_section_title
;
Structure prediction by ZEFSAII (Michael W. Deem and Ramdas Pophale) SiO2 
 PCOD9400629
Probable space group: P M M A
;
_chemical_formula_sum "Si O2"
_cell_formula_units_Z 64
_cell_length_a 8.608681
_cell_length_b 24.299596
_cell_length_c 13.823773
_cell_angle_alpha 90.000000
_cell_angle_beta 90.000000
_cell_angle_gamma 90.000000
_cell_volume 2891.760105
_symmetry_space_group_name_H-M "P M M A"
_symmetry_group_IT_number 51
_symmetry_cell_setting 'orthorhombic'
loop_
_space_group_symop_operation_xyz
x,y,z
1/2-x,-y,z
1/2+x,-y,-z
-x,y,-z
-x,-y,-z
1/2+x,y,-z
1/2-x,y,z
x,-y,z
loop_
_atom_site_type_symbol
_atom_site_label
_atom_site_fract_x
_atom_site_fract_y
_atom_site_fract_z
Si Si1 0.934799 0.061383 0.692171
Si Si2 0.575976 0.674202 0.138618
Si Si3 0.562367 0.819975 0.685947
Si Si4 0.924175 0.292136 0.364415
Si Si5 0.935900 0.561072 0.809778
Si Si6 0.923195 0.065544 0.099554
Si Si7 0.070196 0.214240 0.100551
Si Si8 0.561520 0.588224 0.400814
O O1 0.750000 0.058981 0.676938
O O2 0.991995 0.119815 0.648962
O O3 0.969768 0.070309 0.806070
O O4 0.998174 0.000000 0.665605
O O5 0.750000 0.679445 0.097313
O O6 0.587518 0.691484 0.251299
O O7 0.515366 0.612008 0.135208
O O8 0.458661 0.720148 0.101336
O O9 0.750000 0.820369 0.687594
O O10 0.508950 0.766031 0.628201
O O11 0.506311 0.809571 0.797634
O O12 0.750000 0.285982 0.403752
O O13 0.997913 0.348256 0.402559
O O14 0.750000 0.568522 0.809909
O O15 0.972481 0.500000 0.848147
O O16 0.996483 0.563757 0.698749
O O17 0.750000 0.088984 0.114837
O O18 0.905180 0.000000 0.088817
O O19 0.000000 0.083966 0.000000
O O20 0.250000 0.201182 0.100144
O O21 0.000000 0.195109 0.000000
O O22 0.500000 0.562491 0.500000
O O23 0.750000 0.587649 0.397208
#
# Coordination Sequence:
#
# PCOD9400629 Si02
#       8
#     8   8   8   8   8   8   8   8
#     4   9  17  29  42  57  81 111 143 180 221 267
#     4   9  17  31  50  70  92 120 156 196 239 283
#     4   9  18  30  45  65  87 116 152 189 231 279
#     4   8  16  30  47  67  90 118 151 188 229 272
#     4  10  20  33  50  73 101 134 168 196 224 264
#     4   9  16  25  36  49  66  93 130 168 208 255
#     4  10  19  31  47  67  90 115 150 197 247 294
#     4  10  20  33  50  73 101 132 163 193 228 266
#
# _framework density 22.131848999999999
#
# number of rings (size 3 to 8) (size 9 to 14) (size 15 to 20)
#    0.000    2.750    0.000    2.625    0.000    7.750 
#    0.000    1.250    0.000    0.375    0.000    0.000 
#    0.000    0.500    0.000    1.125    0.000    1.750 
#
# Total GULP energy -356677.921815 kJ/mol
# GULP energy per Si atom -5573.092528 kJ/mol
# Density = 2.208148 g / cm^3
# Si number density = 22.131849 Si / 1000 Ang^3
#
#
#
# Elastic Constant Matrix: (Units=GPa)
#
#
# Indices 1 2 3 4 5 6 
#
# 1 27.3077 19.0787 -7.7091 0.0000 0.0000 0.0000
# 2 19.0787 192.0233 -6.8184 0.0000 0.0000 0.0000
# 3 -7.7091 -6.8184 13.7475 0.0000 0.0000 0.0000
# 4 0.0000 0.0000 0.0000 -7.0843 0.0000 0.0000
# 5 0.0000 0.0000 0.0000 0.0000 12.6917 0.0000
# 6 0.0000 0.0000 0.0000 0.0000 0.0000 15.7722
#
#
#
# Elastic Compliance Matrix: (Units=1/GPa)
#
#
# Indices 1 2 3 4 5 6 
#
# 1 0.045975 -0.003718 0.023937 0.000000 0.000000 0.000000
# 2 -0.003718 0.005602 0.000693 0.000000 0.000000 0.000000
# 3 0.023937 0.000693 0.086507 0.000000 0.000000 0.000000
# 4 0.000000 0.000000 0.000000 -0.141157 0.000000 0.000000
# 5 0.000000 0.000000 0.000000 0.000000 0.078792 0.000000
# 6 0.000000 0.000000 0.000000 0.000000 0.000000 0.063403
#
#
# Mechanical properties :
#
#
# Convention : Reuss Voigt Hill
#
# Bulk Modulus (GPa) = 5.55836 26.90898 16.23367
# Shear Modulus (GPa) = 31.79323 19.51108 25.65215
#
# Velocity S-wave (km/s) = 3.79428 2.97237 3.40819
# Velocity P-wave (km/s) = 4.65965 4.89539 4.77897
#
# Compressibility (1/GPa) = 0.17990921
#
# Stress axis : x y z
#
# Youngs Moduli (GPa) = 21.75104 178.51651 11.55970
#
# Poissons Ratio (x) = 0.66371 -0.27671
# Poissons Ratio (y) = 0.08087 -0.00802
# Poissons Ratio (z) = -0.52066 -0.12379
#
# Static dielectric constant tensor:
#      x y z
#    x 1.796150 0.000000 0.000000 
#    y 0.000000 1.883990 0.000000 
#    z 0.000000 0.000000 1.865720 
# 
# From -- ./inp_files/28640.got.cif
#   From: 2010.05.17/outbox.cif.g08.bks.cpg/sg51_15_cif.got.tgz:28640.got - 2010.06.03 11:52:47.
