data_PCOD9400387
_publ_section_title
;
Structure prediction by ZEFSAII (Michael W. Deem and Ramdas Pophale) SiO2 
 PCOD9400387
Probable space group: P M M A
;
_chemical_formula_sum "Si O2"
_cell_formula_units_Z 64
_cell_length_a 7.909527
_cell_length_b 21.800414
_cell_length_c 17.948509
_cell_angle_alpha 90.000000
_cell_angle_beta 90.000000
_cell_angle_gamma 90.000000
_cell_volume 3094.878694
_symmetry_space_group_name_H-M "P M M A"
_symmetry_group_IT_number 51
_symmetry_cell_setting 'orthorhombic'
loop_
_space_group_symop_operation_xyz
x,y,z
1/2-x,-y,z
1/2+x,-y,-z
-x,y,-z
-x,-y,-z
1/2+x,y,-z
1/2-x,y,z
x,-y,z
loop_
_atom_site_type_symbol
_atom_site_label
_atom_site_fract_x
_atom_site_fract_y
_atom_site_fract_z
Si Si1 0.057800 0.587861 0.418149
Si Si2 0.544497 0.702740 0.786854
Si Si3 0.948225 0.150266 0.423605
Si Si4 0.047004 0.066615 0.290028
Si Si5 0.546548 0.205180 0.918613
Si Si6 0.451010 0.720526 0.617291
Si Si7 0.043882 0.931272 0.117445
Si Si8 0.543265 0.433006 0.748406
O O1 0.250000 0.568648 0.413010
O O2 0.979697 0.569279 0.337988
O O3 0.000000 0.568122 0.500000
O O4 0.042158 0.661164 0.414214
O O5 0.750000 0.704149 0.785996
O O6 0.487932 0.749094 0.852464
O O7 0.481024 0.724591 0.706122
O O8 0.492452 0.630342 0.789526
O O9 0.750000 0.158015 0.426282
O O10 0.024143 0.218072 0.418604
O O11 0.000000 0.117951 0.500000
O O12 0.990717 0.116199 0.348192
O O13 0.250000 0.066835 0.288862
O O14 0.995664 0.073919 0.204518
O O15 0.986797 0.000000 0.315914
O O16 0.750000 0.202083 0.911808
O O17 0.483741 0.133973 0.915101
O O18 0.500000 0.229783 0.000000
O O19 0.250000 0.713261 0.604234
O O20 0.250000 0.932282 0.111875
O O21 0.986968 0.000000 0.091442
O O22 0.750000 0.431127 0.746736
O O23 0.494568 0.500000 0.779461
#
# Coordination Sequence:
#
# PCOD9400387 Si02
#       8
#     8   8   8   8   8   8   8   8
#     4  10  19  30  46  69  99 134 168 204 249 296
#     4   9  18  33  54  76  98 129 165 202 246 295
#     4  11  23  34  46  66  92 124 161 204 252 296
#     4   9  18  34  55  73  89 117 158 202 248 296
#     4  10  20  33  51  77 106 134 163 195 236 287
#     4  10  20  33  50  72  96 125 164 207 251 298
#     4   8  15  30  52  75  99 129 163 196 233 284
#     4   8  15  29  49  72  96 125 166 212 254 297
#
# _framework density 20.679324000000001
#
# number of rings (size 3 to 8) (size 9 to 14) (size 15 to 20)
#    0.000    2.625    0.000    3.750    0.000    5.500 
#    0.000    0.625    0.000   10.125    0.000    0.000 
#    0.000    0.000    0.000    0.000    0.000    0.000 
#
# Total GULP energy -356696.845277 kJ/mol
# GULP energy per Si atom -5573.388207 kJ/mol
# Density = 2.063226 g / cm^3
# Si number density = 20.679324 Si / 1000 Ang^3
#
#
#
# Elastic Constant Matrix: (Units=GPa)
#
#
# Indices 1 2 3 4 5 6 
#
# 1 20.3695 6.1734 2.6409 0.0000 0.0000 0.0000
# 2 6.1734 129.3720 59.3993 0.0000 0.0000 0.0000
# 3 2.6409 59.3993 98.0623 0.0000 0.0000 0.0000
# 4 0.0000 0.0000 0.0000 -34.9479 0.0000 0.0000
# 5 0.0000 0.0000 0.0000 0.0000 16.3444 0.0000
# 6 0.0000 0.0000 0.0000 0.0000 0.0000 -10.3442
#
#
#
# Elastic Compliance Matrix: (Units=1/GPa)
#
#
# Indices 1 2 3 4 5 6 
#
# 1 0.049815 -0.002440 0.000136 0.000000 0.000000 0.000000
# 2 -0.002440 0.010827 -0.006493 0.000000 0.000000 0.000000
# 3 0.000136 -0.006493 0.014127 0.000000 0.000000 0.000000
# 4 0.000000 0.000000 0.000000 -0.028614 0.000000 0.000000
# 5 0.000000 0.000000 0.000000 0.000000 0.061183 0.000000
# 6 0.000000 0.000000 0.000000 0.000000 0.000000 -0.096672
#
#
# Mechanical properties :
#
#
# Convention : Reuss Voigt Hill
#
# Bulk Modulus (GPa) = 17.48973 42.69232 30.09102
# Shear Modulus (GPa) = 105.67300 6.18313 55.92807
#
# Velocity S-wave (km/s) = 7.15624 1.73104 5.20616
# Velocity P-wave (km/s) = 8.76118 4.96841 7.12191
#
# Compressibility (1/GPa) = 0.05717643
#
# Stress axis : x y z
#
# Youngs Moduli (GPa) = 20.07442 92.36146 70.78811
#
# Poissons Ratio (x) = 0.22532 -0.00964
# Poissons Ratio (y) = 0.04897 0.45960
# Poissons Ratio (z) = -0.00273 0.59966
#
# Static dielectric constant tensor:
#      x y z
#    x 1.742540 0.000000 0.000000 
#    y 0.000000 1.826290 0.000000 
#    z 0.000000 0.000000 1.687820 
# 
# From -- ./inp_files/28496.got.cif
#   From: 2010.05.17/outbox.cif.g08.bks.cpg/sg51_15_cif.got.tgz:28496.got - 2010.06.03 11:52:47.
