data_PCOD9400264
_publ_section_title
;
Structure prediction by ZEFSAII (Michael W. Deem and Ramdas Pophale) SiO2 
 PCOD9400264
Probable space group: P M M A
;
_chemical_formula_sum "Si O2"
_cell_formula_units_Z 40
_cell_length_a 8.388113
_cell_length_b 27.115492
_cell_length_c 9.786319
_cell_angle_alpha 90.000000
_cell_angle_beta 90.000000
_cell_angle_gamma 90.000000
_cell_volume 2225.876834
_symmetry_space_group_name_H-M "P M M A"
_symmetry_group_IT_number 51
_symmetry_cell_setting 'orthorhombic'
loop_
_space_group_symop_operation_xyz
x,y,z
1/2-x,-y,z
1/2+x,-y,-z
-x,y,-z
-x,-y,-z
1/2+x,y,-z
1/2-x,y,z
x,-y,z
loop_
_atom_site_type_symbol
_atom_site_label
_atom_site_fract_x
_atom_site_fract_y
_atom_site_fract_z
Si Si1 0.442574 0.089187 0.153462
Si Si2 0.558807 0.606457 0.342505
Si Si3 0.557326 0.799090 0.846795
Si Si4 0.557464 0.500000 0.342519
Si Si5 0.557123 0.000000 0.655014
Si Si6 0.440588 0.710568 0.344290
O O1 0.250000 0.088680 0.151999
O O2 0.495065 0.145046 0.188162
O O3 0.497127 0.048323 0.261225
O O4 0.500000 0.077764 0.000000
O O5 0.500000 0.606114 0.500000
O O6 0.750000 0.608565 0.341671
O O7 0.506621 0.553157 0.282801
O O8 0.494221 0.657681 0.284071
O O9 0.750000 0.798766 0.845308
O O10 0.500661 0.756876 0.743855
O O11 0.500000 0.788744 0.000000
O O12 0.750000 0.500000 0.343029
O O13 0.500000 0.500000 0.500000
O O14 0.500000 0.000000 0.500000
O O15 0.750000 0.000000 0.655121
O O16 0.500000 0.714262 0.500000
O O17 0.250000 0.711092 0.346812
#
# Coordination Sequence:
#
# PCOD9400264 Si02
#       6
#     8   8   8   4   4   8
#     4   9  18  34  53  73  95 123 158 197 234 274
#     4   9  15  24  38  58  85 117 150 186 227 273
#     4   9  19  34  51  70  94 122 157 196 234 275
#     4   8  14  22  34  54  81 112 147 184 224 268
#     4  10  21  34  50  74 104 130 157 192 232 276
#     4  10  19  30  44  66  94 123 153 189 231 278
#
# _framework density 17.970445999999999
#
# number of rings (size 3 to 8) (size 9 to 14) (size 15 to 20)
#    0.000    2.800    0.000    2.700    0.000    4.000 
#    0.000    0.000    0.000    0.000    0.000    0.700 
#    0.000    0.000    0.000    0.000    0.000    0.000 
#
# Total GULP energy -222771.506333 kJ/mol
# GULP energy per Si atom -5569.287658 kJ/mol
# Density = 1.792954 g / cm^3
# Si number density = 17.970446 Si / 1000 Ang^3
#
#
#
# Elastic Constant Matrix: (Units=GPa)
#
#
# Indices 1 2 3 4 5 6 
#
# 1 18.3568 25.9161 10.2147 0.0000 0.0000 0.0000
# 2 25.9161 203.6690 99.5839 0.0000 0.0000 0.0000
# 3 10.2147 99.5839 69.8223 0.0000 0.0000 0.0000
# 4 0.0000 0.0000 0.0000 -8.8738 0.0000 0.0000
# 5 0.0000 0.0000 0.0000 0.0000 21.0488 0.0000
# 6 0.0000 0.0000 0.0000 0.0000 0.0000 20.0193
#
#
#
# Elastic Compliance Matrix: (Units=1/GPa)
#
#
# Indices 1 2 3 4 5 6 
#
# 1 0.067689 -0.012461 0.007870 0.000000 0.000000 0.000000
# 2 -0.012461 0.018518 -0.024588 0.000000 0.000000 0.000000
# 3 0.007870 -0.024588 0.048239 0.000000 0.000000 0.000000
# 4 0.000000 0.000000 0.000000 -0.112691 0.000000 0.000000
# 5 0.000000 0.000000 0.000000 0.000000 0.047509 0.000000
# 6 0.000000 0.000000 0.000000 0.000000 0.000000 0.049952
#
#
# Mechanical properties :
#
#
# Convention : Reuss Voigt Hill
#
# Bulk Modulus (GPa) = 13.14265 62.58640 37.86453
# Shear Modulus (GPa) = 24.63827 16.84776 20.74302
#
# Velocity S-wave (km/s) = 3.70678 3.06523 3.40116
# Velocity P-wave (km/s) = 5.06455 6.88698 6.04484
#
# Compressibility (1/GPa) = 0.07608816
#
# Stress axis : x y z
#
# Youngs Moduli (GPa) = 14.77343 54.00175 20.72997
#
# Poissons Ratio (x) = 0.67294 -0.16315
# Poissons Ratio (y) = 0.18410 0.50971
# Poissons Ratio (z) = -0.11627 1.32780
#
# Static dielectric constant tensor:
#      x y z
#    x 1.622240 0.000000 0.000000 
#    y 0.000000 1.689830 0.000000 
#    z 0.000000 0.000000 1.570880 
# 
# From -- ./inp_files/5580.got.cif
#   From: 2010.05.17/outbox.cif.g08.bks.cpg/sg51_3_cif.got.tgz:5580.got - 2010.06.03 11:52:47.
