data_PCOD9400382
_publ_section_title
;
Structure prediction by ZEFSAII (Michael W. Deem and Ramdas Pophale) SiO2 
 PCOD9400382
Probable space group: P M M A
;
_chemical_formula_sum "Si O2"
_cell_formula_units_Z 64
_cell_length_a 8.658325
_cell_length_b 22.876530
_cell_length_c 16.533955
_cell_angle_alpha 90.000000
_cell_angle_beta 90.000000
_cell_angle_gamma 90.000000
_cell_volume 3274.920671
_symmetry_space_group_name_H-M "P M M A"
_symmetry_group_IT_number 51
_symmetry_cell_setting 'orthorhombic'
loop_
_space_group_symop_operation_xyz
x,y,z
1/2-x,-y,z
1/2+x,-y,-z
-x,y,-z
-x,-y,-z
1/2+x,y,-z
1/2-x,y,z
x,-y,z
loop_
_atom_site_type_symbol
_atom_site_label
_atom_site_fract_x
_atom_site_fract_y
_atom_site_fract_z
Si Si1 0.575346 0.685580 0.696340
Si Si2 0.927057 0.283976 0.885212
Si Si3 0.063277 0.565034 0.738012
Si Si4 0.570446 0.773546 0.419422
Si Si5 0.562274 0.065583 0.767341
Si Si6 0.430381 0.594157 0.917932
Si Si7 0.436974 0.150110 0.086753
Si Si8 0.566407 0.901979 0.586920
O O1 0.750000 0.691243 0.664069
O O2 0.578166 0.706624 0.788994
O O3 0.517950 0.618933 0.694156
O O4 0.460084 0.728459 0.651212
O O5 0.750000 0.291253 0.915424
O O6 0.981171 0.218460 0.903857
O O7 0.032665 0.336573 0.915641
O O8 0.250000 0.572961 0.735920
O O9 0.027929 0.500000 0.707606
O O10 0.012239 0.569431 0.832291
O O11 0.500000 0.745758 0.500000
O O12 0.750000 0.787807 0.428935
O O13 0.476592 0.833482 0.407662
O O14 0.750000 0.069973 0.764418
O O15 0.510895 0.112743 0.834638
O O16 0.510101 0.073400 0.673756
O O17 0.521801 0.000000 0.793945
O O18 0.250000 0.583894 0.919961
O O19 0.500000 0.569797 0.000000
O O20 0.250000 0.147961 0.085377
O O21 0.500000 0.128849 0.000000
O O22 0.500000 0.923138 0.500000
O O23 0.750000 0.910411 0.583320
#
# Coordination Sequence:
#
# PCOD9400382 Si02
#       8
#     8   8   8   8   8   8   8   8
#     4  10  19  33  54  79 105 134 172 215 259 309
#     4   9  18  32  50  72  99 131 166 209 262 321
#     4   9  19  35  51  69  97 135 177 216 256 304
#     4  11  21  34  54  81 112 141 168 202 251 308
#     4   9  19  36  56  76 103 143 184 218 261 322
#     4  10  19  30  46  69  97 129 165 209 259 310
#     4  10  20  34  52  74 100 134 178 224 270 317
#     4  10  19  34  57  84 112 141 174 214 263 320
#
# _framework density 19.542456999999999
#
# number of rings (size 3 to 8) (size 9 to 14) (size 15 to 20)
#    0.000    2.250    0.000    4.125    0.000    5.500 
#    0.000    2.500    0.000    3.000    0.000    0.000 
#    0.000    0.000    0.000    0.000    0.000    0.000 
#
# Total GULP energy -356969.161282 kJ/mol
# GULP energy per Si atom -5577.643145 kJ/mol
# Density = 1.949798 g / cm^3
# Si number density = 19.542457 Si / 1000 Ang^3
#
#
#
# Elastic Constant Matrix: (Units=GPa)
#
#
# Indices 1 2 3 4 5 6 
#
# 1 21.3424 0.1296 7.6326 0.0000 0.0000 0.0000
# 2 0.1296 78.2764 28.0599 0.0000 0.0000 0.0000
# 3 7.6326 28.0599 68.1073 0.0000 0.0000 0.0000
# 4 0.0000 0.0000 0.0000 -6.6410 0.0000 0.0000
# 5 0.0000 0.0000 0.0000 0.0000 30.3837 0.0000
# 6 0.0000 0.0000 0.0000 0.0000 0.0000 6.2171
#
#
#
# Elastic Compliance Matrix: (Units=1/GPa)
#
#
# Indices 1 2 3 4 5 6 
#
# 1 0.049138 0.002221 -0.006422 0.000000 0.000000 0.000000
# 2 0.002221 0.015089 -0.006466 0.000000 0.000000 0.000000
# 3 -0.006422 -0.006466 0.018066 0.000000 0.000000 0.000000
# 4 0.000000 0.000000 0.000000 -0.150580 0.000000 0.000000
# 5 0.000000 0.000000 0.000000 0.000000 0.032912 0.000000
# 6 0.000000 0.000000 0.000000 0.000000 0.000000 0.160847
#
#
# Mechanical properties :
#
#
# Convention : Reuss Voigt Hill
#
# Bulk Modulus (GPa) = 16.40407 26.59670 21.50039
# Shear Modulus (GPa) = 29.91745 14.78555 22.35150
#
# Velocity S-wave (km/s) = 3.91691 2.75360 3.38559
# Velocity P-wave (km/s) = 5.37294 4.87329 5.12921
#
# Compressibility (1/GPa) = 0.06096046
#
# Stress axis : x y z
#
# Youngs Moduli (GPa) = 20.35074 66.27213 55.35206
#
# Poissons Ratio (x) = -0.14717 0.35545
# Poissons Ratio (y) = -0.04519 0.35788
# Poissons Ratio (z) = 0.13069 0.42849
#
# Static dielectric constant tensor:
#      x y z
#    x 1.682610 0.000000 0.000000 
#    y 0.000000 1.677970 0.000000 
#    z 0.000000 0.000000 1.725050 
# 
# From -- ./inp_files/28456.got.cif
#   From: 2010.05.17/outbox.cif.g08.bks.cpg/sg51_15_cif.got.tgz:28456.got - 2010.06.03 11:52:47.
