data_PCOD9400741
_publ_section_title
;
Structure prediction by ZEFSAII (Michael W. Deem and Ramdas Pophale) SiO2 
 PCOD9400741
Probable space group: P M M A
;
_chemical_formula_sum "Si O2"
_cell_formula_units_Z 64
_cell_length_a 8.694114
_cell_length_b 20.357204
_cell_length_c 20.430096
_cell_angle_alpha 90.000000
_cell_angle_beta 90.000000
_cell_angle_gamma 90.000000
_cell_volume 3615.878813
_symmetry_space_group_name_H-M "P M M A"
_symmetry_group_IT_number 51
_symmetry_cell_setting 'orthorhombic'
loop_
_space_group_symop_operation_xyz
x,y,z
1/2-x,-y,z
1/2+x,-y,-z
-x,y,-z
-x,-y,-z
1/2+x,y,-z
1/2-x,y,z
x,-y,z
loop_
_atom_site_type_symbol
_atom_site_label
_atom_site_fract_x
_atom_site_fract_y
_atom_site_fract_z
Si Si1 0.935714 0.929398 0.891391
Si Si2 0.433998 0.784992 0.068120
Si Si3 0.430701 0.255448 0.795561
Si Si4 0.435393 0.424253 0.429291
Si Si5 0.567718 0.208580 0.431182
Si Si6 0.931622 0.895380 0.247674
Si Si7 0.567111 0.926099 0.612443
Si Si8 0.565778 0.688417 0.669857
O O1 0.750000 0.927267 0.888704
O O2 0.987590 0.861507 0.924587
O O3 0.002240 0.926611 0.818192
O O4 0.981781 0.000000 0.920779
O O5 0.250000 0.784128 0.066412
O O6 0.490899 0.748359 0.133409
O O7 0.500000 0.758855 0.000000
O O8 0.250000 0.266937 0.803736
O O9 0.449975 0.182799 0.763645
O O10 0.500731 0.305239 0.742888
O O11 0.500000 0.403511 0.500000
O O12 0.250000 0.422282 0.432800
O O13 0.482736 0.500000 0.418230
O O14 0.483656 0.375797 0.371155
O O15 0.500000 0.232321 0.500000
O O16 0.750000 0.216134 0.429469
O O17 0.522664 0.132401 0.422674
O O18 0.493364 0.250095 0.372795
O O19 0.750000 0.909336 0.255489
O O20 0.022641 0.918801 0.311164
O O21 0.750000 0.916674 0.604135
O O22 0.526750 0.000000 0.590914
O O23 0.750000 0.690306 0.672535
#
# Coordination Sequence:
#
# PCOD9400741 Si02
#       8
#     8   8   8   8   8   8   8   8
#     4   9  18  31  46  65  91 125 164 207 258 321
#     4  10  20  34  51  71  99 134 171 216 270 329
#     4  10  20  34  53  77 104 135 174 220 265 314
#     4   9  19  35  55  83 119 157 192 223 260 309
#     4  12  25  40  56  75 100 132 171 219 269 323
#     4  10  19  31  48  71  96 124 160 210 265 319
#     4  11  23  37  53  71  93 124 164 214 272 330
#     4  11  21  35  58  84 111 144 181 223 265 309
#
# _framework density 17.699708000000001
#
# number of rings (size 3 to 8) (size 9 to 14) (size 15 to 20)
#    0.000    1.750    1.250    3.750    0.000    6.750 
#    0.000    0.000    0.000    0.000    0.000    0.000 
#    0.000    0.500    0.000    1.375    0.000    2.000 
#
# Total GULP energy -357467.800183 kJ/mol
# GULP energy per Si atom -5585.434378 kJ/mol
# Density = 1.765942 g / cm^3
# Si number density = 17.699708 Si / 1000 Ang^3
#
#
#
# Elastic Constant Matrix: (Units=GPa)
#
#
# Indices 1 2 3 4 5 6 
#
# 1 45.3741 24.1999 33.2923 0.0000 0.0000 0.0000
# 2 24.1999 67.0392 44.1179 0.0000 0.0000 0.0000
# 3 33.2923 44.1179 131.6290 0.0000 0.0000 0.0000
# 4 0.0000 0.0000 0.0000 -24.3795 0.0000 0.0000
# 5 0.0000 0.0000 0.0000 0.0000 28.4261 0.0000
# 6 0.0000 0.0000 0.0000 0.0000 0.0000 -1.5446
#
#
#
# Elastic Compliance Matrix: (Units=1/GPa)
#
#
# Indices 1 2 3 4 5 6 
#
# 1 0.029675 -0.007406 -0.005023 0.000000 0.000000 0.000000
# 2 -0.007406 0.020986 -0.005161 0.000000 0.000000 0.000000
# 3 -0.005023 -0.005161 0.010597 0.000000 0.000000 0.000000
# 4 0.000000 0.000000 0.000000 -0.041018 0.000000 0.000000
# 5 0.000000 0.000000 0.000000 0.000000 0.035179 0.000000
# 6 0.000000 0.000000 0.000000 0.000000 0.000000 -0.647424
#
#
# Mechanical properties :
#
#
# Convention : Reuss Voigt Hill
#
# Bulk Modulus (GPa) = 38.34644 49.69583 44.02113
# Shear Modulus (GPa) = -9.12190 9.99588 0.43699
#
# Velocity S-wave (km/s) = -2.27264 2.37902 0.49742
# Velocity P-wave (km/s) = 3.85039 5.97365 5.02544
#
# Compressibility (1/GPa) = 0.02607804
#
# Stress axis : x y z
#
# Youngs Moduli (GPa) = 33.69872 47.64979 94.36365
#
# Poissons Ratio (x) = 0.35291 0.47400
# Poissons Ratio (y) = 0.24959 0.48699
# Poissons Ratio (z) = 0.16927 0.24591
#
# Static dielectric constant tensor:
#      x y z
#    x 1.585760 0.000000 0.000000 
#    y 0.000000 1.619200 0.000000 
#    z 0.000000 0.000000 1.604310 
# 
# From -- ./inp_files/32318.got.cif
#   From: 2010.05.17/outbox.cif.g08.bks.cpg/sg51_17_cif.got.tgz:32318.got - 2010.06.03 11:52:47.
