data_PCOD9400845
_publ_section_title
;
Structure prediction by ZEFSAII (Michael W. Deem and Ramdas Pophale) SiO2 
 PCOD9400845
Probable space group: P M M A
;
_chemical_formula_sum "Si O2"
_cell_formula_units_Z 48
_cell_length_a 30.659145
_cell_length_b 10.562111
_cell_length_c 8.388618
_cell_angle_alpha 90.000000
_cell_angle_beta 90.000000
_cell_angle_gamma 90.000000
_cell_volume 2716.446679
_symmetry_space_group_name_H-M "P M M A"
_symmetry_group_IT_number 51
_symmetry_cell_setting 'orthorhombic'
loop_
_space_group_symop_operation_xyz
x,y,z
1/2-x,-y,z
1/2+x,-y,-z
-x,y,-z
-x,-y,-z
1/2+x,y,-z
1/2-x,y,z
x,-y,z
loop_
_atom_site_type_symbol
_atom_site_label
_atom_site_fract_x
_atom_site_fract_y
_atom_site_fract_z
Si Si1 0.356139 0.359323 0.768382
Si Si2 0.698649 0.854918 0.385036
Si Si3 0.510932 0.356649 0.744231
Si Si4 0.372919 0.859179 0.350234
Si Si5 0.902705 0.351463 0.893988
Si Si6 0.565817 0.719756 0.441332
O O1 0.336502 0.500000 0.770362
O O2 0.321883 0.249161 0.731719
O O3 0.393151 0.352568 0.632047
O O4 0.381673 0.338269 0.933201
O O5 0.750000 0.835479 0.407896
O O6 0.671487 0.844311 0.549541
O O7 0.691861 0.000000 0.328128
O O8 0.494161 0.500000 0.766378
O O9 0.545108 0.325256 0.883696
O O10 0.470596 0.268133 0.696149
O O11 0.541880 0.351613 0.586468
O O12 0.379759 0.747165 0.224547
O O13 0.412479 0.842399 0.478003
O O14 0.374452 0.000000 0.279899
O O15 0.897858 0.500000 0.846619
#
# Coordination Sequence:
#
# PCOD9400845 Si02
#       6
#     8   8   8   8   8   8
#     4  10  19  31  49  74 103 130 157 194 241 287
#     4   9  19  36  56  75  93 117 154 197 238 287
#     4   9  15  26  44  67  95 129 169 203 232 274
#     4   9  18  33  52  71  93 123 160 201 244 286
#     4   9  19  32  46  69 101 133 161 192 232 281
#     4   9  16  27  45  69  95 126 163 204 240 273
#
# _framework density 17.670142999999999
#
# number of rings (size 3 to 8) (size 9 to 14) (size 15 to 20)
#    0.000    2.833    0.000    2.000    0.000    6.333 
#    0.000   10.000    0.000    3.000    0.000   15.167 
#    0.000    0.000    0.000    0.000    0.000    0.000 
#
# Total GULP energy -267206.558173 kJ/mol
# GULP energy per Si atom -5566.803295 kJ/mol
# Density = 1.762992 g / cm^3
# Si number density = 17.670143 Si / 1000 Ang^3
#
#
#
# Elastic Constant Matrix: (Units=GPa)
#
#
# Indices 1 2 3 4 5 6 
#
# 1 88.6410 42.2284 12.6295 0.0000 0.0000 0.0000
# 2 42.2284 89.4208 33.1345 0.0000 0.0000 0.0000
# 3 12.6295 33.1345 33.1090 0.0000 0.0000 0.0000
# 4 0.0000 0.0000 0.0000 20.8493 0.0000 0.0000
# 5 0.0000 0.0000 0.0000 0.0000 17.8237 0.0000
# 6 0.0000 0.0000 0.0000 0.0000 0.0000 17.8534
#
#
#
# Elastic Compliance Matrix: (Units=1/GPa)
#
#
# Indices 1 2 3 4 5 6 
#
# 1 0.014650 -0.007705 0.002122 0.000000 0.000000 0.000000
# 2 -0.007705 0.021826 -0.018904 0.000000 0.000000 0.000000
# 3 0.002122 -0.018904 0.048313 0.000000 0.000000 0.000000
# 4 0.000000 0.000000 0.000000 0.047963 0.000000 0.000000
# 5 0.000000 0.000000 0.000000 0.000000 0.056105 0.000000
# 6 0.000000 0.000000 0.000000 0.000000 0.000000 0.056012
#
#
# Mechanical properties :
#
#
# Convention : Reuss Voigt Hill
#
# Bulk Modulus (GPa) = 27.92082 43.01730 35.46906
# Shear Modulus (GPa) = 16.35162 19.51717 17.93440
#
# Velocity S-wave (km/s) = 3.04531 3.32705 3.18929
# Velocity P-wave (km/s) = 5.31043 6.25751 5.80332
#
# Compressibility (1/GPa) = 0.03581557
#
# Stress axis : x y z
#
# Youngs Moduli (GPa) = 68.26165 45.81602 20.69854
#
# Poissons Ratio (x) = 0.35299 -0.04393
# Poissons Ratio (y) = 0.52593 0.39129
# Poissons Ratio (z) = -0.14488 0.86612
#
# Static dielectric constant tensor:
#      x y z
#    x 1.608270 0.000000 0.000000 
#    y 0.000000 1.600300 0.000000 
#    z 0.000000 0.000000 1.642640 
# 
# From -- ./inp_files/12293.got.cif
#   From: 2010.05.17/outbox.cif.g08.bks.cpg/sg51_7_cif.got.tgz:12293.got - 2010.06.03 11:52:47.
