data_PCOD9400789
_publ_section_title
;
Structure prediction by ZEFSAII (Michael W. Deem and Ramdas Pophale) SiO2 
 PCOD9400789
Probable space group: P M M A
;
_chemical_formula_sum "Si O2"
_cell_formula_units_Z 48
_cell_length_a 8.553869
_cell_length_b 14.193315
_cell_length_c 24.576154
_cell_angle_alpha 90.000000
_cell_angle_beta 90.000000
_cell_angle_gamma 90.000000
_cell_volume 2983.735737
_symmetry_space_group_name_H-M "P M M A"
_symmetry_group_IT_number 51
_symmetry_cell_setting 'orthorhombic'
loop_
_space_group_symop_operation_xyz
x,y,z
1/2-x,-y,z
1/2+x,-y,-z
-x,y,-z
-x,-y,-z
1/2+x,y,-z
1/2-x,y,z
x,-y,z
loop_
_atom_site_type_symbol
_atom_site_label
_atom_site_fract_x
_atom_site_fract_y
_atom_site_fract_z
Si Si1 0.061483 0.390703 0.941335
Si Si2 0.062856 0.891183 0.440415
Si Si3 0.062712 0.214849 0.663528
Si Si4 0.562503 0.607643 0.724069
Si Si5 0.059791 0.105993 0.772509
Si Si6 0.439498 0.707964 0.831295
O O1 0.250000 0.389004 0.942493
O O2 0.012544 0.500000 0.933588
O O3 0.008603 0.329127 0.889987
O O4 0.000000 0.358950 0.000000
O O5 0.250000 0.888714 0.441073
O O6 0.000000 0.864890 0.500000
O O7 0.000421 0.824820 0.392885
O O8 0.012723 0.000000 0.429998
O O9 0.250000 0.216536 0.662453
O O10 0.013841 0.145233 0.713073
O O11 0.001753 0.317614 0.680521
O O12 0.750000 0.612009 0.724267
O O13 0.513849 0.500000 0.713758
O O14 0.500644 0.641736 0.782841
O O15 0.250000 0.103651 0.773203
O O16 0.011562 0.185713 0.815750
O O17 0.003140 0.000000 0.781918
O O18 0.250000 0.704664 0.829783
#
# Coordination Sequence:
#
# PCOD9400789 Si02
#       6
#     8   8   8   8   8   8
#     4   9  17  28  42  61  85 113 147 187 230 277
#     4  10  20  33  50  73 101 131 162 197 236 278
#     4  10  19  31  49  71  96 126 159 195 233 276
#     4  10  20  32  47  69  96 124 154 190 233 282
#     4   8  14  25  43  67  91 115 146 183 222 266
#     4   9  17  29  46  67  90 118 151 188 230 275
#
# _framework density 16.087216000000002
#
# number of rings (size 3 to 8) (size 9 to 14) (size 15 to 20)
#    0.000    2.667    0.000    3.500    0.000    4.333 
#    0.000    1.667    0.000    5.500    0.000    0.000 
#    0.000    0.000    0.000    0.000    0.000    0.000 
#
# Total GULP energy -267604.022277 kJ/mol
# GULP energy per Si atom -5575.083797 kJ/mol
# Density = 1.605060 g / cm^3
# Si number density = 16.087216 Si / 1000 Ang^3
#
#
#
# Elastic Constant Matrix: (Units=GPa)
#
#
# Indices 1 2 3 4 5 6 
#
# 1 24.1012 29.4744 30.0149 0.0000 0.0000 0.0000
# 2 29.4744 141.9541 98.3609 0.0000 0.0000 0.0000
# 3 30.0149 98.3609 157.0606 0.0000 0.0000 0.0000
# 4 0.0000 0.0000 0.0000 21.7867 0.0000 0.0000
# 5 0.0000 0.0000 0.0000 0.0000 25.4185 0.0000
# 6 0.0000 0.0000 0.0000 0.0000 0.0000 17.2697
#
#
#
# Elastic Compliance Matrix: (Units=1/GPa)
#
#
# Indices 1 2 3 4 5 6 
#
# 1 0.059009 -0.007841 -0.006366 0.000000 0.000000 0.000000
# 2 -0.007841 0.013487 -0.006948 0.000000 0.000000 0.000000
# 3 -0.006366 -0.006948 0.011935 0.000000 0.000000 0.000000
# 4 0.000000 0.000000 0.000000 0.045900 0.000000 0.000000
# 5 0.000000 0.000000 0.000000 0.000000 0.039341 0.000000
# 6 0.000000 0.000000 0.000000 0.000000 0.000000 0.057905
#
#
# Mechanical properties :
#
#
# Convention : Reuss Voigt Hill
#
# Bulk Modulus (GPa) = 23.74145 70.97960 47.36053
# Shear Modulus (GPa) = 17.61016 23.91270 20.76143
#
# Velocity S-wave (km/s) = 3.31217 3.85962 3.59633
# Velocity P-wave (km/s) = 5.42377 8.00498 6.83729
#
# Compressibility (1/GPa) = 0.04212042
#
# Stress axis : x y z
#
# Youngs Moduli (GPa) = 16.94650 74.14689 83.78907
#
# Poissons Ratio (x) = 0.58139 0.53343
# Poissons Ratio (y) = 0.13288 0.58215
# Poissons Ratio (z) = 0.10789 0.51516
#
# Static dielectric constant tensor:
#      x y z
#    x 1.543200 0.000000 0.000000 
#    y 0.000000 1.541910 0.000000 
#    z 0.000000 0.000000 1.515100 
# 
# From -- ./inp_files/34617.got.cif
#   From: 2010.05.17/outbox.cif.g08.bks.cpg/sg51_18_cif.got.tgz:34617.got - 2010.06.03 11:52:47.
