data_PCOD9400474
_publ_section_title
;
Structure prediction by ZEFSAII (Michael W. Deem and Ramdas Pophale) SiO2 
 PCOD9400474
Probable space group: P M M A
;
_chemical_formula_sum "Si O2"
_cell_formula_units_Z 56
_cell_length_a 21.900854
_cell_length_b 8.251999
_cell_length_c 14.856681
_cell_angle_alpha 90.000000
_cell_angle_beta 90.000000
_cell_angle_gamma 90.000000
_cell_volume 2684.985935
_symmetry_space_group_name_H-M "P M M A"
_symmetry_group_IT_number 51
_symmetry_cell_setting 'orthorhombic'
loop_
_space_group_symop_operation_xyz
x,y,z
1/2-x,-y,z
1/2+x,-y,-z
-x,y,-z
-x,-y,-z
1/2+x,y,-z
1/2-x,y,z
x,-y,z
loop_
_atom_site_type_symbol
_atom_site_label
_atom_site_fract_x
_atom_site_fract_y
_atom_site_fract_z
Si Si1 0.682071 0.190925 0.414688
Si Si2 0.750000 0.807615 0.933067
Si Si3 0.750000 0.195101 0.138136
Si Si4 0.983089 0.814707 0.597762
Si Si5 0.126214 0.694399 0.764352
Si Si6 0.146083 0.309773 0.396182
Si Si7 0.857255 0.306082 0.805485
Si Si8 0.004062 0.312812 0.210373
O O1 0.750000 0.216280 0.375940
O O2 0.634499 0.247794 0.339264
O O3 0.680578 0.279899 0.510759
O O4 0.673796 0.000000 0.430312
O O5 0.689586 0.756057 0.879031
O O6 0.750000 0.000000 0.938029
O O7 0.750000 0.745023 0.035005
O O8 0.687492 0.252774 0.184779
O O9 0.750000 0.000000 0.141495
O O10 0.910430 0.810695 0.596521
O O11 0.999103 0.702600 0.681300
O O12 0.000000 0.751251 0.500000
O O13 0.005694 0.000000 0.608839
O O14 0.122923 0.500000 0.763400
O O15 0.063338 0.756490 0.812071
O O16 0.127672 0.500000 0.394730
O O17 0.169844 0.275679 0.295255
O O18 0.861090 0.500000 0.813851
O O19 0.928146 0.243923 0.812604
O O20 0.005092 0.500000 0.181436
#
# Coordination Sequence:
#
# PCOD9400474 Si02
#       8
#     8   4   4   8   8   8   8   8
#     4  11  23  36  52  81 123 165 204 249 299 352
#     4  11  25  43  66  91 118 151 193 244 298 363
#     4  11  25  45  64  89 122 155 193 242 302 363
#     4  10  19  30  47  75 111 154 200 240 287 345
#     4  11  22  39  65  92 120 157 203 250 295 353
#     4  10  21  35  53  79 115 157 202 248 290 342
#     4   9  20  40  63  89 121 157 196 244 301 353
#     4   9  20  37  58  87 119 152 194 245 298 351
#
# _framework density 20.856721
#
# number of rings (size 3 to 8) (size 9 to 14) (size 15 to 20)
#    0.000    1.857    0.714    3.857    1.000    9.429 
#    0.000    0.714    0.000    4.286    0.000    0.000 
#    0.000    0.000    0.000    0.000    0.000    0.000 
#
# Total GULP energy -312043.001347 kJ/mol
# GULP energy per Si atom -5572.196453 kJ/mol
# Density = 2.080925 g / cm^3
# Si number density = 20.856721 Si / 1000 Ang^3
#
#
#
# Elastic Constant Matrix: (Units=GPa)
#
#
# Indices 1 2 3 4 5 6 
#
# 1 148.3906 13.4381 47.0558 0.0000 0.0000 0.0000
# 2 13.4381 32.9931 9.1540 0.0000 0.0000 0.0000
# 3 47.0558 9.1540 91.8374 0.0000 0.0000 0.0000
# 4 0.0000 0.0000 0.0000 21.0085 0.0000 0.0000
# 5 0.0000 0.0000 0.0000 0.0000 8.0234 0.0000
# 6 0.0000 0.0000 0.0000 0.0000 0.0000 23.9682
#
#
#
# Elastic Compliance Matrix: (Units=1/GPa)
#
#
# Indices 1 2 3 4 5 6 
#
# 1 0.008204 -0.002237 -0.003980 0.000000 0.000000 0.000000
# 2 -0.002237 0.031781 -0.002022 0.000000 0.000000 0.000000
# 3 -0.003980 -0.002022 0.013130 0.000000 0.000000 0.000000
# 4 0.000000 0.000000 0.000000 0.047600 0.000000 0.000000
# 5 0.000000 0.000000 0.000000 0.000000 0.124636 0.000000
# 6 0.000000 0.000000 0.000000 0.000000 0.000000 0.041722
#
#
# Mechanical properties :
#
#
# Convention : Reuss Voigt Hill
#
# Bulk Modulus (GPa) = 27.29498 45.83520 36.56509
# Shear Modulus (GPa) = 16.90542 24.17155 20.53848
#
# Velocity S-wave (km/s) = 2.85010 3.40800 3.14146
# Velocity P-wave (km/s) = 4.89348 6.12453 5.54329
#
# Compressibility (1/GPa) = 0.03663677
#
# Stress axis : x y z
#
# Youngs Moduli (GPa) = 121.89474 31.46489 76.16229
#
# Poissons Ratio (x) = 0.07039 0.30316
# Poissons Ratio (y) = 0.27268 0.15397
# Poissons Ratio (z) = 0.48520 0.06361
#
# Static dielectric constant tensor:
#      x y z
#    x 1.832790 0.000000 0.000000 
#    y 0.000000 1.719530 0.000000 
#    z 0.000000 0.000000 1.845370 
# 
# From -- ./inp_files/25873.got.cif
#   From: 2010.05.17/outbox.cif.g08.bks.cpg/sg51_13_cif.got.tgz:25873.got - 2010.06.03 11:52:47.
