data_PCOD9400750
_publ_section_title
;
Structure prediction by ZEFSAII (Michael W. Deem and Ramdas Pophale) SiO2 
 PCOD9400750
Probable space group: P M M A
;
_chemical_formula_sum "Si O2"
_cell_formula_units_Z 64
_cell_length_a 23.705917
_cell_length_b 13.536887
_cell_length_c 12.201475
_cell_angle_alpha 90.000000
_cell_angle_beta 90.000000
_cell_angle_gamma 90.000000
_cell_volume 3915.506034
_symmetry_space_group_name_H-M "P M M A"
_symmetry_group_IT_number 51
_symmetry_cell_setting 'orthorhombic'
loop_
_space_group_symop_operation_xyz
x,y,z
1/2-x,-y,z
1/2+x,-y,-z
-x,y,-z
-x,-y,-z
1/2+x,y,-z
1/2-x,y,z
x,-y,z
loop_
_atom_site_type_symbol
_atom_site_label
_atom_site_fract_x
_atom_site_fract_y
_atom_site_fract_z
Si Si1 0.124286 0.882102 0.789618
Si Si2 0.489434 0.772597 0.869184
Si Si3 0.992146 0.617250 0.681291
Si Si4 0.311331 0.117199 0.009735
Si Si5 0.093299 0.617528 0.507245
Si Si6 0.311265 0.881816 0.363922
Si Si7 0.398753 0.118793 0.187307
Si Si8 0.184064 0.229003 0.589085
O O1 0.069118 0.827369 0.838694
O O2 0.171375 0.875433 0.884157
O O3 0.149271 0.824074 0.685800
O O4 0.113732 0.000000 0.769098
O O5 0.497195 0.675564 0.793638
O O6 0.538995 0.842891 0.825843
O O7 0.500000 0.757883 0.000000
O O8 0.988080 0.500000 0.700966
O O9 0.937063 0.646205 0.608154
O O10 0.045468 0.633928 0.600429
O O11 0.250000 0.160933 0.031291
O O12 0.308222 0.000000 0.035111
O O13 0.361021 0.155900 0.085741
O O14 0.104380 0.500000 0.502420
O O15 0.148380 0.677951 0.543394
O O16 0.250000 0.849167 0.318125
O O17 0.364299 0.847592 0.293673
O O18 0.314578 0.846193 0.487388
O O19 0.311639 0.000000 0.359710
O O20 0.400648 0.000000 0.186362
O O21 0.250000 0.250590 0.618046
#
# Coordination Sequence:
#
# PCOD9400750 Si02
#       8
#     8   8   8   8   8   8   8   8
#     4  11  22  35  49  72 108 147 185 218 257 310
#     4  12  22  34  53  77 108 139 175 227 276 315
#     4   9  19  37  60  80 102 135 174 218 266 321
#     4   9  17  30  48  67  92 133 182 220 250 298
#     4   9  18  36  60  82 105 134 171 216 263 317
#     4   9  18  32  49  71 102 139 177 215 257 310
#     4  10  19  31  48  72 102 137 176 217 264 307
#     4  11  21  34  54  80 110 139 172 216 266 319
#
# _framework density 16.345268999999998
#
# number of rings (size 3 to 8) (size 9 to 14) (size 15 to 20)
#    0.000    2.000    2.500    3.000    0.000    3.750 
#    0.000    0.000    0.000    3.000    0.000    0.000 
#    0.000    1.000    0.000    0.000    0.000    0.000 
#
# Total GULP energy -356403.876007 kJ/mol
# GULP energy per Si atom -5568.810563 kJ/mol
# Density = 1.630807 g / cm^3
# Si number density = 16.345269 Si / 1000 Ang^3
#
#
#
# Elastic Constant Matrix: (Units=GPa)
#
#
# Indices 1 2 3 4 5 6 
#
# 1 108.0997 32.8587 40.1076 0.0000 0.0000 0.0000
# 2 32.8587 49.0466 31.6941 0.0000 0.0000 0.0000
# 3 40.1076 31.6941 82.7974 0.0000 0.0000 0.0000
# 4 0.0000 0.0000 0.0000 21.8607 0.0000 0.0000
# 5 0.0000 0.0000 0.0000 0.0000 2117.0815 0.0000
# 6 0.0000 0.0000 0.0000 0.0000 0.0000 17.2208
#
#
#
# Elastic Compliance Matrix: (Units=1/GPa)
#
#
# Indices 1 2 3 4 5 6 
#
# 1 0.012443 -0.005901 -0.003769 0.000000 0.000000 0.000000
# 2 -0.005901 0.029888 -0.008583 0.000000 0.000000 0.000000
# 3 -0.003769 -0.008583 0.017189 0.000000 0.000000 0.000000
# 4 0.000000 0.000000 0.000000 0.045744 0.000000 0.000000
# 5 0.000000 0.000000 0.000000 0.000000 0.000472 0.000000
# 6 0.000000 0.000000 0.000000 0.000000 0.000000 0.058069
#
#
# Mechanical properties :
#
#
# Convention : Reuss Voigt Hill
#
# Bulk Modulus (GPa) = 43.44880 49.91828 46.68354
# Shear Modulus (GPa) = 24.04074 440.25147 232.14611
#
# Velocity S-wave (km/s) = 3.83927 16.42954 11.93042
# Velocity P-wave (km/s) = 6.80389 19.76139 14.77845
#
# Compressibility (1/GPa) = 0.02301559
#
# Stress axis : x y z
#
# Youngs Moduli (GPa) = 80.36952 33.45824 58.17836
#
# Poissons Ratio (x) = 0.19742 0.21925
# Poissons Ratio (y) = 0.47423 0.49932
# Poissons Ratio (z) = 0.30288 0.28716
#
# Static dielectric constant tensor:
#      x y z
#    x 1.590180 0.000000 0.000000 
#    y 0.000000 1.535070 0.000000 
#    z 0.000000 0.000000 1.560240 
# 
# From -- ./inp_files/18865.got.cif
#   From: 2010.05.17/outbox.cif.g08.bks.cpg/sg51_10_cif.got.tgz:18865.got - 2010.06.03 11:52:47.
