data_PCOD9400246
_publ_section_title
;
Structure prediction by ZEFSAII (Michael W. Deem and Ramdas Pophale) SiO2 
 PCOD9400246
Probable space group: P M M A
;
_chemical_formula_sum "Si O2"
_cell_formula_units_Z 64
_cell_length_a 24.815259
_cell_length_b 7.591875
_cell_length_c 17.469011
_cell_angle_alpha 90.000000
_cell_angle_beta 90.000000
_cell_angle_gamma 90.000000
_cell_volume 3291.062875
_symmetry_space_group_name_H-M "P M M A"
_symmetry_group_IT_number 51
_symmetry_cell_setting 'orthorhombic'
loop_
_space_group_symop_operation_xyz
x,y,z
1/2-x,-y,z
1/2+x,-y,-z
-x,y,-z
-x,-y,-z
1/2+x,y,-z
1/2-x,y,z
x,-y,z
loop_
_atom_site_type_symbol
_atom_site_label
_atom_site_fract_x
_atom_site_fract_y
_atom_site_fract_z
Si Si1 0.587657 0.715691 0.639452
Si Si2 0.810920 0.290812 0.071231
Si Si3 0.188228 0.283831 0.262080
Si Si4 0.526982 0.712453 0.315063
Si Si5 0.315456 0.702097 0.093349
Si Si6 0.870391 0.206200 0.224400
Si Si7 0.311449 0.214002 0.623021
Si Si8 0.085842 0.294651 0.532498
O O1 0.589091 0.500000 0.637315
O O2 0.643728 0.772419 0.676858
O O3 0.535049 0.767160 0.688053
O O4 0.579391 0.778694 0.552365
O O5 0.750000 0.224107 0.088704
O O6 0.805902 0.500000 0.059021
O O7 0.850212 0.269237 0.142564
O O8 0.830499 0.217654 0.988952
O O9 0.250000 0.230146 0.277995
O O10 0.188637 0.500000 0.260108
O O11 0.171754 0.221471 0.176629
O O12 0.528326 0.500000 0.317663
O O13 0.567683 0.764340 0.247811
O O14 0.552202 0.779675 0.395774
O O15 0.250000 0.697390 0.091469
O O16 0.335512 0.500000 0.095285
O O17 0.835132 0.278992 0.295477
O O18 0.860151 0.000000 0.224005
O O19 0.250000 0.269106 0.612908
O O20 0.352174 0.279338 0.558347
O O21 0.313229 0.000000 0.622430
O O22 0.070325 0.500000 0.527610
#
# Coordination Sequence:
#
# PCOD9400246 Si02
#       8
#     8   8   8   8   8   8   8   8
#     4   9  16  26  43  65  87 113 145 181 219 258
#     4   9  16  26  43  67  91 114 141 172 210 259
#     4   8  13  22  38  63  93 116 134 167 218 266
#     4   9  17  30  45  61  86 118 149 182 221 259
#     4   7  11  21  37  59  88 116 137 164 208 258
#     4  10  19  30  44  63  87 115 149 186 219 251
#     4   9  18  31  43  57  84 119 146 171 211 260
#     4   9  17  28  43  64  87 112 145 185 222 254
#
# _framework density 19.446605000000002
#
# number of rings (size 3 to 8) (size 9 to 14) (size 15 to 20)
#    0.000    3.250    0.000    2.625    0.000    3.500 
#    0.000    1.875    0.000    3.750    0.000    7.000 
#    0.000    2.000    0.000    0.000    0.000    0.000 
#
# Total GULP energy -356513.911059 kJ/mol
# GULP energy per Si atom -5570.529860 kJ/mol
# Density = 1.940234 g / cm^3
# Si number density = 19.446605 Si / 1000 Ang^3
#
#
#
# Elastic Constant Matrix: (Units=GPa)
#
#
# Indices 1 2 3 4 5 6 
#
# 1 85.9415 -4.1511 26.6889 0.0000 0.0000 0.0000
# 2 -4.1511 39.7647 2.0425 0.0000 0.0000 0.0000
# 3 26.6889 2.0425 73.4365 0.0000 0.0000 0.0000
# 4 0.0000 0.0000 0.0000 -25.9599 0.0000 0.0000
# 5 0.0000 0.0000 0.0000 0.0000 17.3336 0.0000
# 6 0.0000 0.0000 0.0000 0.0000 0.0000 -23.0307
#
#
#
# Elastic Compliance Matrix: (Units=1/GPa)
#
#
# Indices 1 2 3 4 5 6 
#
# 1 0.013221 0.001629 -0.004850 0.000000 0.000000 0.000000
# 2 0.001629 0.025385 -0.001298 0.000000 0.000000 0.000000
# 3 -0.004850 -0.001298 0.015416 0.000000 0.000000 0.000000
# 4 0.000000 0.000000 0.000000 -0.038521 0.000000 0.000000
# 5 0.000000 0.000000 0.000000 0.000000 0.057691 0.000000
# 6 0.000000 0.000000 0.000000 0.000000 0.000000 -0.043420
#
#
# Mechanical properties :
#
#
# Convention : Reuss Voigt Hill
#
# Bulk Modulus (GPa) = 22.23042 27.58924 24.90983
# Shear Modulus (GPa) = 92.93021 5.30611 49.11816
#
# Velocity S-wave (km/s) = 6.92034 1.65363 5.03118
# Velocity P-wave (km/s) = 8.67820 4.22658 6.82551
#
# Compressibility (1/GPa) = 0.04498341
#
# Stress axis : x y z
#
# Youngs Moduli (GPa) = 75.63899 39.39387 64.86778
#
# Poissons Ratio (x) = -0.06418 0.31461
# Poissons Ratio (y) = -0.12324 0.08421
# Poissons Ratio (z) = 0.36686 0.05114
#
# Static dielectric constant tensor:
#      x y z
#    x 1.658050 0.000000 0.000000 
#    y 0.000000 1.727260 0.000000 
#    z 0.000000 0.000000 1.715100 
# 
# From -- ./inp_files/30807.got.cif
#   From: 2010.05.17/outbox.cif.g08.bks.cpg/sg51_16_cif.got.tgz:30807.got - 2010.06.03 11:52:47.
