data_PCOD9400888
_publ_section_title
;
Structure prediction by ZEFSAII (Michael W. Deem and Ramdas Pophale) SiO2 
 PCOD9400888
Probable space group: P M M A
;
_chemical_formula_sum "Si O2"
_cell_formula_units_Z 56
_cell_length_a 9.255793
_cell_length_b 22.531284
_cell_length_c 15.398173
_cell_angle_alpha 90.000000
_cell_angle_beta 90.000000
_cell_angle_gamma 90.000000
_cell_volume 3211.210460
_symmetry_space_group_name_H-M "P M M A"
_symmetry_group_IT_number 51
_symmetry_cell_setting 'orthorhombic'
loop_
_space_group_symop_operation_xyz
x,y,z
1/2-x,-y,z
1/2+x,-y,-z
-x,y,-z
-x,-y,-z
1/2+x,y,-z
1/2-x,y,z
x,-y,z
loop_
_atom_site_type_symbol
_atom_site_label
_atom_site_fract_x
_atom_site_fract_y
_atom_site_fract_z
Si Si1 0.581061 0.256874 0.411017
Si Si2 0.579141 0.433169 0.760922
Si Si3 0.422435 0.204098 0.088693
Si Si4 0.577029 0.343803 0.911268
Si Si5 0.423932 0.827341 0.279416
Si Si6 0.918048 0.600035 0.412210
Si Si7 0.422661 0.068644 0.410490
O O1 0.500000 0.239346 0.500000
O O2 0.750000 0.240550 0.415499
O O3 0.503464 0.225322 0.330589
O O4 0.571302 0.328183 0.404160
O O5 0.750000 0.423764 0.743494
O O6 0.561842 0.500000 0.795669
O O7 0.531499 0.384367 0.830775
O O8 0.492905 0.426660 0.672076
O O9 0.250000 0.198513 0.077197
O O10 0.455127 0.274168 0.102935
O O11 0.464236 0.171635 0.177980
O O12 0.500000 0.185118 0.000000
O O13 0.750000 0.349579 0.920627
O O14 0.500000 0.362223 0.000000
O O15 0.250000 0.817714 0.283560
O O16 0.458853 0.887125 0.332280
O O17 0.750000 0.584107 0.417364
O O18 0.000000 0.582484 0.500000
O O19 0.500000 0.086256 0.500000
O O20 0.250000 0.071560 0.423502
O O21 0.461172 0.000000 0.391991
#
# Coordination Sequence:
#
# PCOD9400888 Si02
#       7
#     8   8   8   8   8   8   8
#     4  10  20  32  48  73 102 129 159 198 245 296
#     4  10  21  36  53  73  97 126 161 201 244 290
#     4   9  18  32  50  72  97 126 160 200 246 295
#     4   9  18  33  52  73  98 126 156 194 243 296
#     4  10  19  31  50  74 100 132 168 205 247 292
#     4  10  21  36  53  72  96 128 163 200 244 293
#     4   9  18  32  49  71 101 136 172 207 242 284
#
# _framework density 17.438907
#
# number of rings (size 3 to 8) (size 9 to 14) (size 15 to 20)
#    0.000    2.429    0.000    2.143    0.000    6.571 
#    0.000    2.857    0.000    0.429    0.000    0.000 
#    0.000    0.000    0.000    0.000    0.000    0.000 
#
# Total GULP energy -312520.543602 kJ/mol
# GULP energy per Si atom -5580.723993 kJ/mol
# Density = 1.739922 g / cm^3
# Si number density = 17.438907 Si / 1000 Ang^3
#
#
#
# Elastic Constant Matrix: (Units=GPa)
#
#
# Indices 1 2 3 4 5 6 
#
# 1 37.6571 28.9016 47.6394 0.0000 0.0000 0.0000
# 2 28.9016 45.9823 51.4529 0.0000 0.0000 0.0000
# 3 47.6394 51.4529 156.7171 0.0000 0.0000 0.0000
# 4 0.0000 0.0000 0.0000 339.7995 0.0000 0.0000
# 5 0.0000 0.0000 0.0000 0.0000 34.3930 0.0000
# 6 0.0000 0.0000 0.0000 0.0000 0.0000 17.5070
#
#
#
# Elastic Compliance Matrix: (Units=1/GPa)
#
#
# Indices 1 2 3 4 5 6 
#
# 1 0.058376 -0.026611 -0.009008 0.000000 0.000000 0.000000
# 2 -0.026611 0.046508 -0.007180 0.000000 0.000000 0.000000
# 3 -0.009008 -0.007180 0.011477 0.000000 0.000000 0.000000
# 4 0.000000 0.000000 0.000000 0.002943 0.000000 0.000000
# 5 0.000000 0.000000 0.000000 0.000000 0.029076 0.000000
# 6 0.000000 0.000000 0.000000 0.000000 0.000000 0.057120
#
#
# Mechanical properties :
#
#
# Convention : Reuss Voigt Hill
#
# Bulk Modulus (GPa) = 32.50861 55.14937 43.82899
# Shear Modulus (GPa) = 16.59193 85.83074 51.21134
#
# Velocity S-wave (km/s) = 3.08788 7.02316 5.42493
# Velocity P-wave (km/s) = 5.60314 9.87215 8.02666
#
# Compressibility (1/GPa) = 0.03076108
#
# Stress axis : x y z
#
# Youngs Moduli (GPa) = 17.13044 21.50174 87.13393
#
# Poissons Ratio (x) = 0.57219 0.78493
# Poissons Ratio (y) = 0.45586 0.62562
# Poissons Ratio (z) = 0.15432 0.15438
#
# Static dielectric constant tensor:
#      x y z
#    x 1.583400 0.000000 0.000000 
#    y 0.000000 1.601010 0.000000 
#    z 0.000000 0.000000 1.566600 
# 
# From -- ./inp_files/21705.got.cif
#   From: 2010.05.17/outbox.cif.g08.bks.cpg/sg51_11_cif.got.tgz:21705.got - 2010.06.03 11:52:47.
