data_PCOD9400269
_publ_section_title
;
Structure prediction by ZEFSAII (Michael W. Deem and Ramdas Pophale) SiO2 
 PCOD9400269
Probable space group: P M M A
;
_chemical_formula_sum "Si O2"
_cell_formula_units_Z 52
_cell_length_a 9.069308
_cell_length_b 22.798732
_cell_length_c 15.778575
_cell_angle_alpha 90.000000
_cell_angle_beta 90.000000
_cell_angle_gamma 90.000000
_cell_volume 3262.515796
_symmetry_space_group_name_H-M "P M M A"
_symmetry_group_IT_number 51
_symmetry_cell_setting 'orthorhombic'
loop_
_space_group_symop_operation_xyz
x,y,z
1/2-x,-y,z
1/2+x,-y,-z
-x,y,-z
-x,-y,-z
1/2+x,y,-z
1/2-x,y,z
x,-y,z
loop_
_atom_site_type_symbol
_atom_site_label
_atom_site_fract_x
_atom_site_fract_y
_atom_site_fract_z
Si Si1 0.081230 0.850878 0.415196
Si Si2 0.572794 0.932084 0.089281
Si Si3 0.928083 0.629972 0.905994
Si Si4 0.925589 0.500000 0.908512
Si Si5 0.420854 0.708090 0.413270
Si Si6 0.426776 0.289573 0.763934
Si Si7 0.926263 0.151009 0.241946
O O1 0.250000 0.869624 0.415373
O O2 0.078294 0.779424 0.415964
O O3 0.000000 0.870967 0.500000
O O4 0.000824 0.868407 0.329146
O O5 0.750000 0.928147 0.081489
O O6 0.524915 0.888722 0.163622
O O7 0.535742 0.000000 0.108475
O O8 0.500000 0.916594 0.000000
O O9 0.750000 0.636356 0.912090
O O10 0.962744 0.563850 0.871522
O O11 0.997006 0.675759 0.840422
O O12 0.000000 0.635689 0.000000
O O13 0.750000 0.500000 0.919354
O O14 0.000000 0.500000 0.000000
O O15 0.500000 0.688195 0.500000
O O16 0.250000 0.689467 0.410339
O O17 0.506497 0.691690 0.327254
O O18 0.250000 0.297711 0.764799
O O19 0.457620 0.219864 0.772931
O O20 0.750000 0.145547 0.250956
#
# Coordination Sequence:
#
# PCOD9400269 Si02
#       7
#     8   8   8   4   8   8   8
#     4   9  16  26  43  66  91 119 149 181 220 267
#     4   9  18  33  51  68  86 113 151 192 230 268
#     4  10  19  32  48  67  92 122 155 190 227 268
#     4   8  16  30  48  66  85 114 153 192 226 262
#     4   9  16  27  43  64  90 121 154 188 225 266
#     4  10  19  30  44  67  97 125 152 184 226 274
#     4   9  18  31  46  66  93 121 149 185 228 271
#
# _framework density 15.938618999999999
#
# number of rings (size 3 to 8) (size 9 to 14) (size 15 to 20)
#    0.000    2.769    0.000    1.846    0.000    6.154 
#    0.000    1.538    0.000    0.462    0.000    0.538 
#    0.000    0.000    0.000    0.000    0.000    0.000 
#
# Total GULP energy -289611.261506 kJ/mol
# GULP energy per Si atom -5569.447337 kJ/mol
# Density = 1.590234 g / cm^3
# Si number density = 15.938619 Si / 1000 Ang^3
#
#
#
# Elastic Constant Matrix: (Units=GPa)
#
#
# Indices 1 2 3 4 5 6 
#
# 1 70.1239 44.0747 72.5661 0.0000 0.0000 0.0000
# 2 44.0747 52.3132 73.0206 0.0000 0.0000 0.0000
# 3 72.5661 73.0206 160.4583 0.0000 0.0000 0.0000
# 4 0.0000 0.0000 0.0000 -3.0188 0.0000 0.0000
# 5 0.0000 0.0000 0.0000 0.0000 34.4238 0.0000
# 6 0.0000 0.0000 0.0000 0.0000 0.0000 14.7104
#
#
#
# Elastic Compliance Matrix: (Units=1/GPa)
#
#
# Indices 1 2 3 4 5 6 
#
# 1 0.032356 -0.018738 -0.006106 0.000000 0.000000 0.000000
# 2 -0.018738 0.063253 -0.020311 0.000000 0.000000 0.000000
# 3 -0.006106 -0.020311 0.018236 0.000000 0.000000 0.000000
# 4 0.000000 0.000000 0.000000 -0.331258 0.000000 0.000000
# 5 0.000000 0.000000 0.000000 0.000000 0.029050 0.000000
# 6 0.000000 0.000000 0.000000 0.000000 0.000000 0.067979
#
#
# Mechanical properties :
#
#
# Convention : Reuss Voigt Hill
#
# Bulk Modulus (GPa) = 42.48695 73.57981 58.03338
# Shear Modulus (GPa) = -224.93653 15.43867 -104.74893
#
# Velocity S-wave (km/s) = -11.89257 3.11566 -8.11559
# Velocity P-wave (km/s) = 12.72254 7.69466 7.16433
#
# Compressibility (1/GPa) = 0.02353664
#
# Stress axis : x y z
#
# Youngs Moduli (GPa) = 30.90602 15.80941 54.83583
#
# Poissons Ratio (x) = 0.29624 0.33480
# Poissons Ratio (y) = 0.57913 1.11376
# Poissons Ratio (z) = 0.18870 0.32110
#
# Static dielectric constant tensor:
#      x y z
#    x 1.532920 0.000000 0.000000 
#    y 0.000000 1.535090 0.000000 
#    z 0.000000 0.000000 1.508410 
# 
# From -- ./inp_files/21556.got.cif
#   From: 2010.05.17/outbox.cif.g08.bks.cpg/sg51_11_cif.got.tgz:21556.got - 2010.06.03 11:52:47.
