data_PCOD9400850
_publ_section_title
;
Structure prediction by ZEFSAII (Michael W. Deem and Ramdas Pophale) SiO2 
 PCOD9400850
Probable space group: P M M A
;
_chemical_formula_sum "Si O2"
_cell_formula_units_Z 52
_cell_length_a 7.963169
_cell_length_b 22.440711
_cell_length_c 14.157626
_cell_angle_alpha 90.000000
_cell_angle_beta 90.000000
_cell_angle_gamma 90.000000
_cell_volume 2529.956074
_symmetry_space_group_name_H-M "P M M A"
_symmetry_group_IT_number 51
_symmetry_cell_setting 'orthorhombic'
loop_
_space_group_symop_operation_xyz
x,y,z
1/2-x,-y,z
1/2+x,-y,-z
-x,y,-z
-x,-y,-z
1/2+x,y,-z
1/2-x,y,z
x,-y,z
loop_
_atom_site_type_symbol
_atom_site_label
_atom_site_fract_x
_atom_site_fract_y
_atom_site_fract_z
Si Si1 0.448511 0.683777 0.785743
Si Si2 0.950927 0.194730 0.889657
Si Si3 0.448787 0.435056 0.108583
Si Si4 0.453296 0.000000 0.612017
Si Si5 0.952830 0.255834 0.391753
Si Si6 0.952499 0.873716 0.388699
Si Si7 0.452868 0.935274 0.111751
O O1 0.250000 0.678777 0.779860
O O2 0.485512 0.744847 0.841976
O O3 0.506590 0.623449 0.833614
O O4 0.517081 0.694973 0.680446
O O5 0.750000 0.194503 0.882161
O O6 0.014396 0.129680 0.852031
O O7 0.000000 0.197238 0.000000
O O8 0.250000 0.439220 0.111463
O O9 0.519132 0.500000 0.139695
O O10 0.500000 0.426410 0.000000
O O11 0.500000 0.000000 0.500000
O O12 0.517461 0.936721 0.651212
O O13 0.250000 0.000000 0.618098
O O14 0.750000 0.254056 0.388224
O O15 0.015130 0.190672 0.356297
O O16 0.000000 0.264523 0.500000
O O17 0.750000 0.874222 0.380751
O O18 0.000000 0.874210 0.500000
O O19 0.250000 0.935487 0.119173
O O20 0.515785 0.000000 0.148812
O O21 0.500000 0.935021 0.000000
#
# Coordination Sequence:
#
# PCOD9400850 Si02
#       7
#     8   8   8   4   8   8   8
#     4  11  22  35  53  78 111 145 178 218 262 314
#     4  10  19  31  49  74 104 138 175 218 267 318
#     4  10  21  38  61  89 119 148 177 209 250 306
#     4   8  12  18  34  58  82 110 147 196 253 312
#     4   9  19  34  52  73 100 135 177 225 271 315
#     4   8  13  23  39  61  86 115 154 202 257 311
#     4   8  14  25  42  64  90 125 169 215 262 312
#
# _framework density 20.553716999999999
#
# number of rings (size 3 to 8) (size 9 to 14) (size 15 to 20)
#    0.000    2.769    0.000    1.846    0.000    2.769 
#    0.000    0.000    1.692    0.462    0.000    0.000 
#    0.000    0.000    0.000    0.000    0.000    0.000 
#
# Total GULP energy -289905.796205 kJ/mol
# GULP energy per Si atom -5575.111465 kJ/mol
# Density = 2.050694 g / cm^3
# Si number density = 20.553717 Si / 1000 Ang^3
#
#
#
# Elastic Constant Matrix: (Units=GPa)
#
#
# Indices 1 2 3 4 5 6 
#
# 1 35.5661 23.5667 0.7625 0.0000 0.0000 0.0000
# 2 23.5667 229.7395 92.1440 0.0000 0.0000 0.0000
# 3 0.7625 92.1440 77.2739 0.0000 0.0000 0.0000
# 4 0.0000 0.0000 0.0000 41.1018 0.0000 0.0000
# 5 0.0000 0.0000 0.0000 0.0000 11.9027 0.0000
# 6 0.0000 0.0000 0.0000 0.0000 0.0000 8.4629
#
#
#
# Elastic Compliance Matrix: (Units=1/GPa)
#
#
# Indices 1 2 3 4 5 6 
#
# 1 0.031974 -0.006044 0.006891 0.000000 0.000000 0.000000
# 2 -0.006044 0.009485 -0.011251 0.000000 0.000000 0.000000
# 3 0.006891 -0.011251 0.026289 0.000000 0.000000 0.000000
# 4 0.000000 0.000000 0.000000 0.024330 0.000000 0.000000
# 5 0.000000 0.000000 0.000000 0.000000 0.084015 0.000000
# 6 0.000000 0.000000 0.000000 0.000000 0.000000 0.118162
#
#
# Mechanical properties :
#
#
# Convention : Reuss Voigt Hill
#
# Bulk Modulus (GPa) = 21.30326 63.94731 42.62528
# Shear Modulus (GPa) = 15.11906 27.36724 21.24315
#
# Velocity S-wave (km/s) = 2.71511 3.65293 3.21836
# Velocity P-wave (km/s) = 4.49625 6.99798 5.88167
#
# Compressibility (1/GPa) = 0.04694117
#
# Stress axis : x y z
#
# Youngs Moduli (GPa) = 31.27569 105.42696 38.03890
#
# Poissons Ratio (x) = 0.63719 -0.26214
# Poissons Ratio (y) = 0.18903 0.42797
# Poissons Ratio (z) = -0.21553 1.18615
#
# Static dielectric constant tensor:
#      x y z
#    x 1.744750 0.000000 0.000000 
#    y 0.000000 1.838720 0.000000 
#    z 0.000000 0.000000 1.742210 
# 
# From -- ./inp_files/21530.got.cif
#   From: 2010.05.17/outbox.cif.g08.bks.cpg/sg51_11_cif.got.tgz:21530.got - 2010.06.03 11:52:47.
