data_PCOD9400537
_publ_section_title
;
Structure prediction by ZEFSAII (Michael W. Deem and Ramdas Pophale) SiO2 
 PCOD9400537
Probable space group: P M M A
;
_chemical_formula_sum "Si O2"
_cell_formula_units_Z 64
_cell_length_a 34.270146
_cell_length_b 8.891337
_cell_length_c 11.045499
_cell_angle_alpha 90.000000
_cell_angle_beta 90.000000
_cell_angle_gamma 90.000000
_cell_volume 3365.645471
_symmetry_space_group_name_H-M "P M M A"
_symmetry_group_IT_number 51
_symmetry_cell_setting 'orthorhombic'
loop_
_space_group_symop_operation_xyz
x,y,z
1/2-x,-y,z
1/2+x,-y,-z
-x,y,-z
-x,-y,-z
1/2+x,y,-z
1/2-x,y,z
x,-y,z
loop_
_atom_site_type_symbol
_atom_site_label
_atom_site_fract_x
_atom_site_fract_y
_atom_site_fract_z
Si Si1 0.939455 0.821846 0.567172
Si Si2 0.065107 0.321370 0.686948
Si Si3 0.205170 0.678451 0.936462
Si Si4 0.369251 0.325954 0.306476
Si Si5 0.415589 0.674325 0.050612
Si Si6 0.630638 0.177682 0.166082
Si Si7 0.014735 0.680604 0.208385
Si Si8 0.295043 0.178705 0.203216
O O1 0.949047 0.740684 0.441676
O O2 0.895743 0.772722 0.604991
O O3 0.966116 0.762008 0.676527
O O4 0.943112 0.000000 0.555037
O O5 0.070232 0.500000 0.680752
O O6 0.104959 0.241921 0.724655
O O7 0.031202 0.288797 0.785818
O O8 0.250000 0.703047 0.897338
O O9 0.198964 0.500000 0.951673
O O10 0.172659 0.745314 0.848604
O O11 0.200421 0.757019 0.067198
O O12 0.369093 0.500000 0.345194
O O13 0.390568 0.320940 0.174954
O O14 0.326278 0.261212 0.286982
O O15 0.416046 0.500000 0.007610
O O16 0.459216 0.719687 0.091646
O O17 0.394104 0.775542 0.953060
O O18 0.634712 0.000000 0.173735
O O19 0.019818 0.500000 0.223810
O O20 0.250000 0.204852 0.238830
O O21 0.302309 0.000000 0.201595
#
# Coordination Sequence:
#
# PCOD9400537 Si02
#       8
#     8   8   8   8   8   8   8   8
#     4  11  22  36  57  83 111 140 179 233 285 327
#     4  11  23  40  59  78 106 146 193 233 271 326
#     4  10  20  35  56  81 110 147 187 224 266 323
#     4  10  19  33  55  79 108 146 185 222 267 328
#     4   9  18  34  54  78 108 144 184 222 271 328
#     4  12  24  36  54  81 116 149 183 229 281 330
#     4   9  20  38  60  82 106 143 187 231 276 329
#     4  10  19  30  49  81 116 144 174 220 277 328
#
# _framework density 19.01567
#
# number of rings (size 3 to 8) (size 9 to 14) (size 15 to 20)
#    0.000    1.750    1.250    4.875    0.000    6.500 
#    0.000    2.500    0.000    0.750    0.000    0.000 
#    0.000    0.000    0.000    0.000    0.000    0.000 
#
# Total GULP energy -357612.645904 kJ/mol
# GULP energy per Si atom -5587.697592 kJ/mol
# Density = 1.897239 g / cm^3
# Si number density = 19.015670 Si / 1000 Ang^3
#
#
#
# Elastic Constant Matrix: (Units=GPa)
#
#
# Indices 1 2 3 4 5 6 
#
# 1 103.6064 35.1650 6.0565 0.0000 0.0000 0.0000
# 2 35.1650 63.9978 10.1912 0.0000 0.0000 0.0000
# 3 6.0565 10.1912 30.3851 0.0000 0.0000 0.0000
# 4 0.0000 0.0000 0.0000 26.1434 0.0000 0.0000
# 5 0.0000 0.0000 0.0000 0.0000 24.5432 0.0000
# 6 0.0000 0.0000 0.0000 0.0000 0.0000 222.2542
#
#
#
# Elastic Compliance Matrix: (Units=1/GPa)
#
#
# Indices 1 2 3 4 5 6 
#
# 1 0.011866 -0.006490 -0.000188 0.000000 0.000000 0.000000
# 2 -0.006490 0.020057 -0.005434 0.000000 0.000000 0.000000
# 3 -0.000188 -0.005434 0.034771 0.000000 0.000000 0.000000
# 4 0.000000 0.000000 0.000000 0.038251 0.000000 0.000000
# 5 0.000000 0.000000 0.000000 0.000000 0.040744 0.000000
# 6 0.000000 0.000000 0.000000 0.000000 0.000000 0.004499
#
#
# Mechanical properties :
#
#
# Convention : Reuss Voigt Hill
#
# Bulk Modulus (GPa) = 23.54616 33.42384 28.48500
# Shear Modulus (GPa) = 26.51567 64.35994 45.43781
#
# Velocity S-wave (km/s) = 3.73823 5.82402 4.89355
# Velocity P-wave (km/s) = 5.57153 7.92722 6.85138
#
# Compressibility (1/GPa) = 0.04246977
#
# Stress axis : x y z
#
# Youngs Moduli (GPa) = 84.27697 49.85847 28.75972
#
# Poissons Ratio (x) = 0.32357 0.00542
# Poissons Ratio (y) = 0.54694 0.15627
# Poissons Ratio (z) = 0.01588 0.27091
#
# Static dielectric constant tensor:
#      x y z
#    x 1.688770 0.000000 0.000000 
#    y 0.000000 1.626240 0.000000 
#    z 0.000000 0.000000 1.657490 
# 
# From -- ./inp_files/19565.got.cif
#   From: 2010.05.17/outbox.cif.g08.bks.cpg/sg51_10_cif.got.tgz:19565.got - 2010.06.03 11:52:47.
