data_PCOD9400730
_publ_section_title
;
Structure prediction by ZEFSAII (Michael W. Deem and Ramdas Pophale) SiO2 
 PCOD9400730
Probable space group: P M M A
;
_chemical_formula_sum "Si O2"
_cell_formula_units_Z 52
_cell_length_a 9.052622
_cell_length_b 23.055188
_cell_length_c 15.838239
_cell_angle_alpha 90.000000
_cell_angle_beta 90.000000
_cell_angle_gamma 90.000000
_cell_volume 3305.597311
_symmetry_space_group_name_H-M "P M M A"
_symmetry_group_IT_number 51
_symmetry_cell_setting 'orthorhombic'
loop_
_space_group_symop_operation_xyz
x,y,z
1/2-x,-y,z
1/2+x,-y,-z
-x,y,-z
-x,-y,-z
1/2+x,y,-z
1/2-x,y,z
x,-y,z
loop_
_atom_site_type_symbol
_atom_site_label
_atom_site_fract_x
_atom_site_fract_y
_atom_site_fract_z
Si Si1 0.927215 0.063602 0.407069
Si Si2 0.080542 0.565459 0.884844
Si Si3 0.422030 0.500000 0.411634
Si Si4 0.425365 0.687260 0.084202
Si Si5 0.072808 0.818780 0.406711
Si Si6 0.083345 0.403442 0.689147
Si Si7 0.426232 0.284829 0.274347
O O1 0.750000 0.070809 0.413226
O O2 0.000000 0.060831 0.500000
O O3 0.002594 0.121336 0.371548
O O4 0.955296 0.000000 0.367101
O O5 0.250000 0.572454 0.916310
O O6 0.029407 0.500000 0.905856
O O7 0.087215 0.571062 0.783649
O O8 0.981713 0.620386 0.909786
O O9 0.250000 0.500000 0.421503
O O10 0.500000 0.500000 0.500000
O O11 0.475518 0.556436 0.362640
O O12 0.250000 0.687738 0.074580
O O13 0.461750 0.718716 0.173598
O O14 0.500000 0.712503 0.000000
O O15 0.250000 0.824730 0.418203
O O16 0.046157 0.769049 0.336781
O O17 0.000000 0.807381 0.500000
O O18 0.250000 0.405344 0.655042
O O19 0.021323 0.338840 0.693483
O O20 0.250000 0.297661 0.278632
#
# Coordination Sequence:
#
# PCOD9400730 Si02
#       7
#     8   8   4   8   8   8   8
#     4   9  16  26  42  66  97 131 165 198 232 271
#     4   9  17  31  50  69  90 113 140 177 223 283
#     4  12  24  36  50  66  87 114 149 194 242 290
#     4  10  20  34  50  69  92 119 154 193 238 289
#     4  10  19  31  48  70  99 131 166 201 232 274
#     4  10  19  34  52  69  88 113 148 191 237 285
#     4   9  20  36  51  70  96 128 161 196 239 287
#
# _framework density 15.730893
#
# number of rings (size 3 to 8) (size 9 to 14) (size 15 to 20)
#    0.000    2.308    0.769    3.462    0.000    4.615 
#    0.000    1.538    0.000    0.000    0.000    0.000 
#    0.000    0.615    0.000    1.385    0.000    2.769 
#
# Total GULP energy -289667.419802 kJ/mol
# GULP energy per Si atom -5570.527304 kJ/mol
# Density = 1.569509 g / cm^3
# Si number density = 15.730893 Si / 1000 Ang^3
#
#
#
# Elastic Constant Matrix: (Units=GPa)
#
#
# Indices 1 2 3 4 5 6 
#
# 1 98.2800 51.2835 49.7450 0.0000 0.0000 0.0000
# 2 51.2835 101.9408 45.9259 0.0000 0.0000 0.0000
# 3 49.7450 45.9259 81.3458 0.0000 0.0000 0.0000
# 4 0.0000 0.0000 0.0000 33.1251 0.0000 0.0000
# 5 0.0000 0.0000 0.0000 0.0000 23.9158 0.0000
# 6 0.0000 0.0000 0.0000 0.0000 0.0000 2.5954
#
#
#
# Elastic Compliance Matrix: (Units=1/GPa)
#
#
# Indices 1 2 3 4 5 6 
#
# 1 0.016453 -0.005021 -0.007226 0.000000 0.000000 0.000000
# 2 -0.005021 0.014688 -0.005222 0.000000 0.000000 0.000000
# 3 -0.007226 -0.005222 0.019661 0.000000 0.000000 0.000000
# 4 0.000000 0.000000 0.000000 0.030189 0.000000 0.000000
# 5 0.000000 0.000000 0.000000 0.000000 0.041813 0.000000
# 6 0.000000 0.000000 0.000000 0.000000 0.000000 0.385300
#
#
# Mechanical properties :
#
#
# Convention : Reuss Voigt Hill
#
# Bulk Modulus (GPa) = 63.04288 63.94172 63.49230
# Shear Modulus (GPa) = 9.11859 20.90139 15.00999
#
# Velocity S-wave (km/s) = 2.41023 3.64907 3.09232
# Velocity P-wave (km/s) = 6.92159 7.64786 7.29377
#
# Compressibility (1/GPa) = 0.01586222
#
# Stress axis : x y z
#
# Youngs Moduli (GPa) = 60.77946 68.08134 50.86331
#
# Poissons Ratio (x) = 0.34186 0.36756
# Poissons Ratio (y) = 0.30520 0.26561
# Poissons Ratio (z) = 0.43922 0.35552
#
# Static dielectric constant tensor:
#      x y z
#    x 1.554060 0.000000 0.000000 
#    y 0.000000 1.529580 0.000000 
#    z 0.000000 0.000000 1.524570 
# 
# From -- ./inp_files/22081.got.cif
#   From: 2010.05.17/outbox.cif.g08.bks.cpg/sg51_12_cif.got.tgz:22081.got - 2010.06.03 11:52:47.
