data_PCOD9400165
_publ_section_title
;
Structure prediction by ZEFSAII (Michael W. Deem and Ramdas Pophale) SiO2 
 PCOD9400165
Probable space group: P M M A
;
_chemical_formula_sum "Si O2"
_cell_formula_units_Z 48
_cell_length_a 14.775906
_cell_length_b 14.396574
_cell_length_c 13.889006
_cell_angle_alpha 90.000000
_cell_angle_beta 90.000000
_cell_angle_gamma 90.000000
_cell_volume 2954.503025
_symmetry_space_group_name_H-M "P M M A"
_symmetry_group_IT_number 51
_symmetry_cell_setting 'orthorhombic'
loop_
_space_group_symop_operation_xyz
x,y,z
1/2-x,-y,z
1/2+x,-y,-z
-x,y,-z
-x,-y,-z
1/2+x,y,-z
1/2-x,y,z
x,-y,z
loop_
_atom_site_type_symbol
_atom_site_label
_atom_site_fract_x
_atom_site_fract_y
_atom_site_fract_z
Si Si1 0.094048 0.603988 0.559768
Si Si2 0.998173 0.154111 0.114964
Si Si3 0.646523 0.000000 0.876873
Si Si4 0.642296 0.107554 0.400236
Si Si5 0.976520 0.739899 0.293981
Si Si6 0.648489 0.000000 0.109458
Si Si7 0.850216 0.233115 0.575657
O O1 0.131706 0.500000 0.564368
O O2 0.148986 0.680523 0.499597
O O3 0.000000 0.599522 0.500000
O O4 0.070513 0.647634 0.663782
O O5 0.085225 0.090914 0.145050
O O6 0.989962 0.244380 0.181104
O O7 0.910801 0.089422 0.134697
O O8 0.000000 0.170584 0.000000
O O9 0.750000 0.000000 0.839051
O O10 0.653048 0.000000 0.993217
O O11 0.750000 0.118383 0.381942
O O12 0.583955 0.175084 0.333963
O O13 0.627244 0.144057 0.509418
O O14 0.618281 0.000000 0.388554
O O15 0.073095 0.749023 0.346610
O O16 0.750000 0.000000 0.149283
O O17 0.750000 0.222811 0.616847
#
# Coordination Sequence:
#
# PCOD9400165 Si02
#       7
#     8   8   4   8   8   4   8
#     4   8  15  30  50  69  88 112 145 186 231 273
#     4   9  18  30  43  64  91 121 158 195 233 270
#     4   8  15  29  44  59  83 118 160 198 230 264
#     4   9  18  31  45  63  89 120 154 189 227 277
#     4  10  19  29  46  68  91 122 152 192 230 274
#     4   8  15  29  46  59  79 114 156 204 240 262
#     4   9  18  31  45  66  93 119 149 182 224 280
#
# _framework density 16.246386999999999
#
# number of rings (size 3 to 8) (size 9 to 14) (size 15 to 20)
#    0.000    3.167    0.000    2.500    2.333    3.000 
#    0.000    0.000    0.000    0.500    0.000    0.000 
#    0.000    0.000    0.000   17.667    0.000    0.000 
#
# Total GULP energy -267249.106951 kJ/mol
# GULP energy per Si atom -5567.689728 kJ/mol
# Density = 1.620941 g / cm^3
# Si number density = 16.246387 Si / 1000 Ang^3
#
#
#
# Elastic Constant Matrix: (Units=GPa)
#
#
# Indices 1 2 3 4 5 6 
#
# 1 70.1249 7.0997 12.9932 0.0000 0.0000 0.0000
# 2 7.0997 74.1250 22.4555 0.0000 0.0000 0.0000
# 3 12.9932 22.4555 63.2625 0.0000 0.0000 0.0000
# 4 0.0000 0.0000 0.0000 17.1444 0.0000 0.0000
# 5 0.0000 0.0000 0.0000 0.0000 82.1769 0.0000
# 6 0.0000 0.0000 0.0000 0.0000 0.0000 3.9728
#
#
#
# Elastic Compliance Matrix: (Units=1/GPa)
#
#
# Indices 1 2 3 4 5 6 
#
# 1 0.014845 -0.000558 -0.002851 0.000000 0.000000 0.000000
# 2 -0.000558 0.015137 -0.005258 0.000000 0.000000 0.000000
# 3 -0.002851 -0.005258 0.018259 0.000000 0.000000 0.000000
# 4 0.000000 0.000000 0.000000 0.058328 0.000000 0.000000
# 5 0.000000 0.000000 0.000000 0.000000 0.012169 0.000000
# 6 0.000000 0.000000 0.000000 0.000000 0.000000 0.251708
#
#
# Mechanical properties :
#
#
# Convention : Reuss Voigt Hill
#
# Bulk Modulus (GPa) = 32.35567 32.51214 32.43391
# Shear Modulus (GPa) = 12.56017 31.65643 22.10830
#
# Velocity S-wave (km/s) = 2.78349 4.41899 3.69292
# Velocity P-wave (km/s) = 5.50357 6.78911 6.17986
#
# Compressibility (1/GPa) = 0.03090648
#
# Stress axis : x y z
#
# Youngs Moduli (GPa) = 67.36273 66.06253 54.76698
#
# Poissons Ratio (x) = 0.03688 0.15613
# Poissons Ratio (y) = 0.03760 0.28799
# Poissons Ratio (z) = 0.19204 0.34738
#
# Static dielectric constant tensor:
#      x y z
#    x 1.569030 0.000000 0.000000 
#    y 0.000000 1.543040 0.000000 
#    z 0.000000 0.000000 1.554780 
# 
# From -- ./inp_files/24241.got.cif
#   From: 2010.05.17/outbox.cif.g08.bks.cpg/sg51_13_cif.got.tgz:24241.got - 2010.06.03 11:52:47.
