data_PCOD9400306
_publ_section_title
;
Structure prediction by ZEFSAII (Michael W. Deem and Ramdas Pophale) SiO2 
 PCOD9400306
Probable space group: P M M A
;
_chemical_formula_sum "Si O2"
_cell_formula_units_Z 56
_cell_length_a 8.882435
_cell_length_b 21.936980
_cell_length_c 18.981998
_cell_angle_alpha 90.000000
_cell_angle_beta 90.000000
_cell_angle_gamma 90.000000
_cell_volume 3698.714422
_symmetry_space_group_name_H-M "P M M A"
_symmetry_group_IT_number 51
_symmetry_cell_setting 'orthorhombic'
loop_
_space_group_symop_operation_xyz
x,y,z
1/2-x,-y,z
1/2+x,-y,-z
-x,y,-z
-x,-y,-z
1/2+x,y,-z
1/2-x,y,z
x,-y,z
loop_
_atom_site_type_symbol
_atom_site_label
_atom_site_fract_x
_atom_site_fract_y
_atom_site_fract_z
Si Si1 0.430742 0.361618 0.789854
Si Si2 0.930551 0.755205 0.710383
Si Si3 0.570773 0.928052 0.924098
Si Si4 0.569155 0.315495 0.576757
Si Si5 0.430534 0.825925 0.830005
Si Si6 0.569019 0.431621 0.670362
Si Si7 0.069821 0.707108 0.923237
O O1 0.250000 0.359225 0.783395
O O2 0.504462 0.303993 0.750292
O O3 0.495110 0.418107 0.746284
O O4 0.469468 0.349383 0.871509
O O5 0.750000 0.757050 0.716776
O O6 0.969121 0.740665 0.629152
O O7 0.002770 0.810855 0.753037
O O8 0.750000 0.918161 0.926373
O O9 0.496495 0.886435 0.864711
O O10 0.542803 0.000000 0.912397
O O11 0.500000 0.911894 0.000000
O O12 0.500000 0.310393 0.500000
O O13 0.750000 0.317609 0.571353
O O14 0.521188 0.378484 0.615977
O O15 0.250000 0.827729 0.826530
O O16 0.473650 0.769366 0.881933
O O17 0.750000 0.426750 0.677709
O O18 0.532219 0.500000 0.646345
O O19 0.250000 0.708465 0.929797
O O20 0.000000 0.703978 0.000000
#
# Coordination Sequence:
#
# PCOD9400306 Si02
#       7
#     8   8   8   8   8   8   8
#     4   9  17  29  43  62  85 107 138 179 220 261
#     4   9  17  30  46  64  87 116 147 179 219 263
#     4  10  20  32  45  63  91 128 165 198 232 268
#     4   9  18  30  45  66  92 119 143 173 214 260
#     4  10  19  30  45  66  90 117 152 191 227 264
#     4   9  18  32  47  63  84 112 146 178 211 258
#     4   9  18  28  40  61  85 107 135 175 220 264
#
# _framework density 15.140396000000001
#
# number of rings (size 3 to 8) (size 9 to 14) (size 15 to 20)
#    0.000    2.714    0.000    3.857    0.000    8.857 
#    0.000    0.000    0.000    0.429    0.000    0.000 
#    0.000    0.571    0.000    1.857    0.000    2.286 
#
# Total GULP energy -311819.229495 kJ/mol
# GULP energy per Si atom -5568.200527 kJ/mol
# Density = 1.510594 g / cm^3
# Si number density = 15.140396 Si / 1000 Ang^3
#
#
#
# Elastic Constant Matrix: (Units=GPa)
#
#
# Indices 1 2 3 4 5 6 
#
# 1 37.0224 31.0417 43.2062 0.0000 0.0000 0.0000
# 2 31.0417 60.2939 50.2256 0.0000 0.0000 0.0000
# 3 43.2062 50.2256 126.9193 0.0000 0.0000 0.0000
# 4 0.0000 0.0000 0.0000 21.2510 0.0000 0.0000
# 5 0.0000 0.0000 0.0000 0.0000 29.9361 0.0000
# 6 0.0000 0.0000 0.0000 0.0000 0.0000 20.3661
#
#
#
# Elastic Compliance Matrix: (Units=1/GPa)
#
#
# Indices 1 2 3 4 5 6 
#
# 1 0.057131 -0.019709 -0.011649 0.000000 0.000000 0.000000
# 2 -0.019709 0.031541 -0.005772 0.000000 0.000000 0.000000
# 3 -0.011649 -0.005772 0.014129 0.000000 0.000000 0.000000
# 4 0.000000 0.000000 0.000000 0.047057 0.000000 0.000000
# 5 0.000000 0.000000 0.000000 0.000000 0.033404 0.000000
# 6 0.000000 0.000000 0.000000 0.000000 0.000000 0.049101
#
#
# Mechanical properties :
#
#
# Convention : Reuss Voigt Hill
#
# Bulk Modulus (GPa) = 35.03923 52.57583 43.80753
# Shear Modulus (GPa) = 15.81591 20.96145 18.38868
#
# Velocity S-wave (km/s) = 3.23556 3.72489 3.48881
# Velocity P-wave (km/s) = 6.09521 7.30073 6.72504
#
# Compressibility (1/GPa) = 0.02853944
#
# Stress axis : x y z
#
# Youngs Moduli (GPa) = 17.50363 31.70488 70.77735
#
# Poissons Ratio (x) = 0.62489 0.82449
# Poissons Ratio (y) = 0.34499 0.40853
# Poissons Ratio (z) = 0.20390 0.18300
#
# Static dielectric constant tensor:
#      x y z
#    x 1.503730 0.000000 0.000000 
#    y 0.000000 1.520900 0.000000 
#    z 0.000000 0.000000 1.511650 
# 
# From -- ./inp_files/28245.got.cif
#   From: 2010.05.17/outbox.cif.g08.bks.cpg/sg51_15_cif.got.tgz:28245.got - 2010.06.03 11:52:47.
