data_PCOD9400521
_publ_section_title
;
Structure prediction by ZEFSAII (Michael W. Deem and Ramdas Pophale) SiO2 
 PCOD9400521
Probable space group: P M M A
;
_chemical_formula_sum "Si O2"
_cell_formula_units_Z 64
_cell_length_a 19.063772
_cell_length_b 8.079100
_cell_length_c 21.197241
_cell_angle_alpha 90.000000
_cell_angle_beta 90.000000
_cell_angle_gamma 90.000000
_cell_volume 3264.759216
_symmetry_space_group_name_H-M "P M M A"
_symmetry_group_IT_number 51
_symmetry_cell_setting 'orthorhombic'
loop_
_space_group_symop_operation_xyz
x,y,z
1/2-x,-y,z
1/2+x,-y,-z
-x,y,-z
-x,-y,-z
1/2+x,y,-z
1/2-x,y,z
x,-y,z
loop_
_atom_site_type_symbol
_atom_site_label
_atom_site_fract_x
_atom_site_fract_y
_atom_site_fract_z
Si Si1 0.830893 0.297479 0.000451
Si Si2 0.669611 0.698740 0.756177
Si Si3 0.582465 0.702831 0.876656
Si Si4 0.669437 0.800043 0.237415
Si Si5 0.170266 0.802902 0.382116
Si Si6 0.422042 0.301471 0.880516
Si Si7 0.578965 0.303035 0.498921
Si Si8 0.169802 0.199843 0.619724
O O1 0.750000 0.242978 0.001733
O O2 0.830011 0.500000 0.001269
O O3 0.871174 0.247827 0.936851
O O4 0.874612 0.240115 0.061344
O O5 0.750000 0.761204 0.762710
O O6 0.672475 0.500000 0.761263
O O7 0.619866 0.758900 0.812244
O O8 0.644389 0.741156 0.685924
O O9 0.581460 0.500000 0.876024
O O10 0.502096 0.759910 0.881930
O O11 0.750000 0.747397 0.224032
O O12 0.616536 0.737794 0.184785
O O13 0.651700 0.746426 0.308939
O O14 0.668764 0.000000 0.236634
O O15 0.250000 0.737766 0.390783
O O16 0.122735 0.756030 0.440873
O O17 0.173710 0.000000 0.379106
O O18 0.425599 0.500000 0.887085
O O19 0.500000 0.234513 0.500000
O O20 0.575356 0.500000 0.502902
O O21 0.618233 0.257893 0.434462
O O22 0.250000 0.253730 0.606514
O O23 0.169872 0.000000 0.619542
#
# Coordination Sequence:
#
# PCOD9400521 Si02
#       8
#     8   8   8   8   8   8   8   8
#     4   9  16  27  46  72 100 132 173 216 255 300
#     4   9  17  31  52  75  99 132 174 214 251 298
#     4   9  17  29  46  71 104 137 167 207 260 307
#     4   9  19  36  55  74 100 134 168 203 247 301
#     4  10  21  37  57  79 103 134 172 213 257 306
#     4  10  19  30  48  76 106 132 164 211 259 301
#     4  11  24  38  53  78 110 139 169 209 256 305
#     4   9  19  37  59  80 102 133 175 216 253 301
#
# _framework density 19.603285
#
# number of rings (size 3 to 8) (size 9 to 14) (size 15 to 20)
#    0.000    2.500    0.000    3.000    0.000    8.750 
#    0.000    5.625    0.000    2.250    0.000    1.750 
#    0.000    0.000    0.000    0.000    0.000    0.000 
#
# Total GULP energy -357251.434859 kJ/mol
# GULP energy per Si atom -5582.053670 kJ/mol
# Density = 1.955867 g / cm^3
# Si number density = 19.603285 Si / 1000 Ang^3
#
#
#
# Elastic Constant Matrix: (Units=GPa)
#
#
# Indices 1 2 3 4 5 6 
#
# 1 154.9185 7.1258 118.4741 0.0000 0.0000 0.0000
# 2 7.1258 9.5158 3.7190 0.0000 0.0000 0.0000
# 3 118.4741 3.7190 171.7731 0.0000 0.0000 0.0000
# 4 0.0000 0.0000 0.0000 73.1962 0.0000 0.0000
# 5 0.0000 0.0000 0.0000 0.0000 1.7096 0.0000
# 6 0.0000 0.0000 0.0000 0.0000 0.0000 -63.6352
#
#
#
# Elastic Compliance Matrix: (Units=1/GPa)
#
#
# Indices 1 2 3 4 5 6 
#
# 1 0.014084 -0.006808 -0.009567 0.000000 0.000000 0.000000
# 2 -0.006808 0.109276 0.002330 0.000000 0.000000 0.000000
# 3 -0.009567 0.002330 0.012370 0.000000 0.000000 0.000000
# 4 0.000000 0.000000 0.000000 0.013662 0.000000 0.000000
# 5 0.000000 0.000000 0.000000 0.000000 0.584931 0.000000
# 6 0.000000 0.000000 0.000000 0.000000 0.000000 -0.015715
#
#
# Mechanical properties :
#
#
# Convention : Reuss Voigt Hill
#
# Bulk Modulus (GPa) = 9.29028 66.09390 37.69209
# Shear Modulus (GPa) = 6.38914 16.04668 11.21791
#
# Velocity S-wave (km/s) = 1.80729 2.86417 2.39476
# Velocity P-wave (km/s) = 3.01736 6.68782 5.18803
#
# Compressibility (1/GPa) = 0.10763943
#
# Stress axis : x y z
#
# Youngs Moduli (GPa) = 71.00086 9.15116 80.84397
#
# Poissons Ratio (x) = 0.06230 0.77341
# Poissons Ratio (y) = 0.48337 -0.18833
# Poissons Ratio (z) = 0.67925 -0.02132
#
# Static dielectric constant tensor:
#      x y z
#    x 1.650580 0.000000 0.000000 
#    y 0.000000 1.699660 0.000000 
#    z 0.000000 0.000000 1.662150 
# 
# From -- ./inp_files/33812.got.cif
#   From: 2010.05.17/outbox.cif.g08.bks.cpg/sg51_17_cif.got.tgz:33812.got - 2010.06.03 11:52:47.
