data_PCOD9400656
_publ_section_title
;
Structure prediction by ZEFSAII (Michael W. Deem and Ramdas Pophale) SiO2 
 PCOD9400656
Probable space group: P M M A
;
_chemical_formula_sum "Si O2"
_cell_formula_units_Z 52
_cell_length_a 8.719187
_cell_length_b 18.432944
_cell_length_c 18.802227
_cell_angle_alpha 90.000000
_cell_angle_beta 90.000000
_cell_angle_gamma 90.000000
_cell_volume 3021.899295
_symmetry_space_group_name_H-M "P M M A"
_symmetry_group_IT_number 51
_symmetry_cell_setting 'orthorhombic'
loop_
_space_group_symop_operation_xyz
x,y,z
1/2-x,-y,z
1/2+x,-y,-z
-x,y,-z
-x,-y,-z
1/2+x,y,-z
1/2-x,y,z
x,-y,z
loop_
_atom_site_type_symbol
_atom_site_label
_atom_site_fract_x
_atom_site_fract_y
_atom_site_fract_z
Si Si1 0.074951 0.634839 0.782058
Si Si2 0.564635 0.291714 0.077833
Si Si3 0.925951 0.796509 0.286134
Si Si4 0.566451 0.578597 0.643297
Si Si5 0.065556 0.730856 0.422804
Si Si6 0.432817 0.145178 0.147689
Si Si7 0.433529 0.000000 0.920685
O O1 0.250000 0.607646 0.782893
O O2 0.020245 0.648341 0.862552
O O3 0.076896 0.716161 0.749175
O O4 0.977544 0.589567 0.725964
O O5 0.750000 0.287782 0.077404
O O6 0.499584 0.214250 0.104456
O O7 0.500000 0.307455 0.000000
O O8 0.750000 0.821127 0.292169
O O9 0.003381 0.784871 0.362318
O O10 0.019134 0.844070 0.229855
O O11 0.750000 0.578513 0.637645
O O12 0.507562 0.500000 0.618575
O O13 0.511942 0.649328 0.600211
O O14 0.250000 0.731916 0.423052
O O15 0.000000 0.747684 0.500000
O O16 0.250000 0.144321 0.140255
O O17 0.505413 0.071922 0.117839
O O18 0.250000 0.000000 0.922371
O O19 0.500000 0.000000 0.000000
#
# Coordination Sequence:
#
# PCOD9400656 Si02
#       7
#     8   8   8   8   8   8   4
#     4   8  16  29  45  65  88 115 152 196 239 285
#     4  10  19  31  47  69  94 121 156 199 246 291
#     4   9  17  32  51  71  95 125 162 202 242 286
#     4   9  18  31  46  65  91 124 160 195 236 290
#     4  10  19  31  48  72 101 130 160 199 245 290
#     4  11  21  34  51  73 100 132 167 201 240 288
#     4  12  24  38  52  72 105 142 175 208 246 286
#
# _framework density 17.207720999999999
#
# number of rings (size 3 to 8) (size 9 to 14) (size 15 to 20)
#    0.000    2.308    0.000    4.846    0.000    5.538 
#    0.000    0.000    0.000    0.462    0.000    0.538 
#    0.000    0.000    0.000    0.000    0.000    0.000 
#
# Total GULP energy -289961.147601 kJ/mol
# GULP energy per Si atom -5576.175915 kJ/mol
# Density = 1.716856 g / cm^3
# Si number density = 17.207721 Si / 1000 Ang^3
#
#
#
# Elastic Constant Matrix: (Units=GPa)
#
#
# Indices 1 2 3 4 5 6 
#
# 1 79.8294 10.6392 29.4438 0.0000 0.0000 0.0000
# 2 10.6392 28.9566 12.8900 0.0000 0.0000 0.0000
# 3 29.4438 12.8900 133.0902 0.0000 0.0000 0.0000
# 4 0.0000 0.0000 0.0000 14.6352 0.0000 0.0000
# 5 0.0000 0.0000 0.0000 0.0000 31.7272 0.0000
# 6 0.0000 0.0000 0.0000 0.0000 0.0000 17.6661
#
#
#
# Elastic Compliance Matrix: (Units=1/GPa)
#
#
# Indices 1 2 3 4 5 6 
#
# 1 0.014059 -0.003951 -0.002728 0.000000 0.000000 0.000000
# 2 -0.003951 0.037201 -0.002729 0.000000 0.000000 0.000000
# 3 -0.002728 -0.002729 0.008381 0.000000 0.000000 0.000000
# 4 0.000000 0.000000 0.000000 0.068329 0.000000 0.000000
# 5 0.000000 0.000000 0.000000 0.000000 0.031519 0.000000
# 6 0.000000 0.000000 0.000000 0.000000 0.000000 0.056606
#
#
# Mechanical properties :
#
#
# Convention : Reuss Voigt Hill
#
# Bulk Modulus (GPa) = 24.49422 38.64690 31.57056
# Shear Modulus (GPa) = 20.11917 25.39924 22.75920
#
# Velocity S-wave (km/s) = 3.42306 3.84609 3.64072
# Velocity P-wave (km/s) = 5.46703 6.49854 6.00498
#
# Compressibility (1/GPa) = 0.04082596
#
# Stress axis : x y z
#
# Youngs Moduli (GPa) = 71.12677 26.88102 119.31129
#
# Poissons Ratio (x) = 0.10622 0.32544
# Poissons Ratio (y) = 0.28106 0.32557
# Poissons Ratio (z) = 0.19401 0.07335
#
# Static dielectric constant tensor:
#      x y z
#    x 1.583120 0.000000 0.000000 
#    y 0.000000 1.581040 0.000000 
#    z 0.000000 0.000000 1.588700 
# 
# From -- ./inp_files/27905.got.cif
#   From: 2010.05.17/outbox.cif.g08.bks.cpg/sg51_14_cif.got.tgz:27905.got - 2010.06.03 11:52:47.
