data_PCOD9400940
_publ_section_title
;
Structure prediction by ZEFSAII (Michael W. Deem and Ramdas Pophale) SiO2 
 PCOD9400940
Probable space group: P M M A
;
_chemical_formula_sum "Si O2"
_cell_formula_units_Z 64
_cell_length_a 7.645476
_cell_length_b 16.064862
_cell_length_c 25.401276
_cell_angle_alpha 90.000000
_cell_angle_beta 90.000000
_cell_angle_gamma 90.000000
_cell_volume 3119.874051
_symmetry_space_group_name_H-M "P M M A"
_symmetry_group_IT_number 51
_symmetry_cell_setting 'orthorhombic'
loop_
_space_group_symop_operation_xyz
x,y,z
1/2-x,-y,z
1/2+x,-y,-z
-x,y,-z
-x,-y,-z
1/2+x,y,-z
1/2-x,y,z
x,-y,z
loop_
_atom_site_type_symbol
_atom_site_label
_atom_site_fract_x
_atom_site_fract_y
_atom_site_fract_z
Si Si1 0.959551 0.091230 0.643602
Si Si2 0.461603 0.640590 0.711059
Si Si3 0.463470 0.410032 0.594688
Si Si4 0.456481 0.231702 0.558626
Si Si5 0.452005 0.177818 0.255431
Si Si6 0.546704 0.230906 0.140593
Si Si7 0.460632 0.906482 0.938885
Si Si8 0.963616 0.409860 0.172681
O O1 0.750000 0.087824 0.648991
O O2 0.028010 0.114346 0.701835
O O3 0.992844 0.164187 0.602100
O O4 0.022518 0.000000 0.626527
O O5 0.250000 0.647497 0.711100
O O6 0.510316 0.597939 0.656536
O O7 0.536568 0.733187 0.715248
O O8 0.511298 0.596409 0.765496
O O9 0.250000 0.410363 0.591794
O O10 0.523975 0.500000 0.574105
O O11 0.529581 0.325044 0.568094
O O12 0.500000 0.203075 0.500000
O O13 0.250000 0.239993 0.563168
O O14 0.250000 0.157434 0.244663
O O15 0.539407 0.191120 0.198978
O O16 0.750000 0.241970 0.126304
O O17 0.469580 0.165968 0.099006
O O18 0.471934 0.324591 0.145732
O O19 0.250000 0.908732 0.932769
O O20 0.525956 0.000000 0.926347
O O21 0.500000 0.889958 0.000000
O O22 0.750000 0.407956 0.170910
O O23 0.020100 0.500000 0.151760
#
# Coordination Sequence:
#
# PCOD9400940 Si02
#       8
#     8   8   8   8   8   8   8   8
#     4  10  22  40  59  78 103 135 170 211 260 314
#     4   9  15  27  48  72  99 132 169 205 243 292
#     4   9  17  30  52  80 105 132 169 209 250 303
#     4  11  23  39  59  80 103 133 170 214 261 309
#     4  10  19  31  50  76 107 136 164 203 254 306
#     4   9  18  31  49  74 103 136 172 209 249 298
#     4   9  18  33  52  74 100 131 170 216 260 301
#     4   8  13  22  41  69  97 127 165 204 238 279
#
# _framework density 20.513648
#
# number of rings (size 3 to 8) (size 9 to 14) (size 15 to 20)
#    0.000    2.625    1.250    1.875    0.000    3.750 
#    0.000    0.000    0.000   12.375    0.000    0.000 
#    0.000    0.000    0.000    0.000    0.000    0.000 
#
# Total GULP energy -356883.947918 kJ/mol
# GULP energy per Si atom -5576.311686 kJ/mol
# Density = 2.046696 g / cm^3
# Si number density = 20.513648 Si / 1000 Ang^3
#
#
#
# Elastic Constant Matrix: (Units=GPa)
#
#
# Indices 1 2 3 4 5 6 
#
# 1 37.1179 7.8956 -3.9070 0.0000 0.0000 0.0000
# 2 7.8956 156.2908 75.2051 0.0000 0.0000 0.0000
# 3 -3.9070 75.2051 80.0257 0.0000 0.0000 0.0000
# 4 0.0000 0.0000 0.0000 11.6020 0.0000 0.0000
# 5 0.0000 0.0000 0.0000 0.0000 14.0846 0.0000
# 6 0.0000 0.0000 0.0000 0.0000 0.0000 20.4408
#
#
#
# Elastic Compliance Matrix: (Units=1/GPa)
#
#
# Indices 1 2 3 4 5 6 
#
# 1 0.028277 -0.003820 0.004971 0.000000 0.000000 0.000000
# 2 -0.003820 0.012196 -0.011648 0.000000 0.000000 0.000000
# 3 0.004971 -0.011648 0.023685 0.000000 0.000000 0.000000
# 4 0.000000 0.000000 0.000000 0.086192 0.000000 0.000000
# 5 0.000000 0.000000 0.000000 0.000000 0.071000 0.000000
# 6 0.000000 0.000000 0.000000 0.000000 0.000000 0.048922
#
#
# Mechanical properties :
#
#
# Convention : Reuss Voigt Hill
#
# Bulk Modulus (GPa) = 23.16794 47.98021 35.57407
# Shear Modulus (GPa) = 16.35831 22.17485 19.26658
#
# Velocity S-wave (km/s) = 2.82695 3.29139 3.06797
# Velocity P-wave (km/s) = 4.68764 6.15504 5.47076
#
# Compressibility (1/GPa) = 0.04316310
#
# Stress axis : x y z
#
# Youngs Moduli (GPa) = 35.36429 81.99257 42.22069
#
# Poissons Ratio (x) = 0.31325 -0.20987
# Poissons Ratio (y) = 0.13511 0.49179
# Poissons Ratio (z) = -0.17579 0.95505
#
# Static dielectric constant tensor:
#      x y z
#    x 1.761410 0.000000 0.000000 
#    y 0.000000 1.780110 0.000000 
#    z 0.000000 0.000000 1.678310 
# 
# From -- ./inp_files/34830.got.cif
#   From: 2010.05.17/outbox.cif.g08.bks.cpg/sg51_18_cif.got.tgz:34830.got - 2010.06.03 11:52:47.
