data_PCOD9400029
_publ_section_title
;
Structure prediction by ZEFSAII (Michael W. Deem and Ramdas Pophale) SiO2 
 PCOD9400029
Probable space group: P M M A
;
_chemical_formula_sum "Si O2"
_cell_formula_units_Z 44
_cell_length_a 7.294534
_cell_length_b 14.306409
_cell_length_c 19.270137
_cell_angle_alpha 90.000000
_cell_angle_beta 90.000000
_cell_angle_gamma 90.000000
_cell_volume 2011.004266
_symmetry_space_group_name_H-M "P M M A"
_symmetry_group_IT_number 51
_symmetry_cell_setting 'orthorhombic'
loop_
_space_group_symop_operation_xyz
x,y,z
1/2-x,-y,z
1/2+x,-y,-z
-x,y,-z
-x,-y,-z
1/2+x,y,-z
1/2-x,y,z
x,-y,z
loop_
_atom_site_type_symbol
_atom_site_label
_atom_site_fract_x
_atom_site_fract_y
_atom_site_fract_z
Si Si1 0.468357 0.778084 0.918736
Si Si2 0.472962 0.396002 0.669004
Si Si3 0.972765 0.104076 0.206028
Si Si4 0.972924 0.602858 0.168685
Si Si5 0.532287 0.000000 0.418375
Si Si6 0.472838 0.192928 0.652136
O O1 0.250000 0.776419 0.910862
O O2 0.534197 0.861433 0.869154
O O3 0.537772 0.683436 0.882569
O O4 0.500000 0.786418 0.000000
O O5 0.250000 0.396756 0.666694
O O6 0.532034 0.500000 0.644586
O O7 0.525254 0.387964 0.750490
O O8 0.532438 0.298541 0.633185
O O9 0.750000 0.102030 0.206417
O O10 0.023339 0.173686 0.267680
O O11 0.035343 0.000000 0.222354
O O12 0.750000 0.605991 0.169275
O O13 0.028268 0.500000 0.144630
O O14 0.500000 0.000000 0.500000
O O15 0.463797 0.900476 0.388084
O O16 0.750000 0.000000 0.403053
O O17 0.250000 0.193509 0.647439
#
# Coordination Sequence:
#
# PCOD9400029 Si02
#       6
#     8   8   8   8   4   8
#     4  10  19  29  41  58  83 114 146 183 225 269
#     4   8  12  19  36  64  92 112 140 190 237 260
#     4   9  15  25  42  63  82 105 146 191 224 254
#     4   8  13  22  37  58  83 108 137 180 229 265
#     4  10  20  32  50  76 103 124 146 178 217 264
#     4   9  14  24  44  69  91 115 150 188 220 256
#
# _framework density 21.879615999999999
#
# number of rings (size 3 to 8) (size 9 to 14) (size 15 to 20)
#    0.000    3.091    2.727    1.091    0.000    0.727 
#    0.000    0.000    0.000    1.636    0.000    0.000 
#    0.000    0.000    0.000    0.000    0.000    0.000 
#
# Total GULP energy -245271.508242 kJ/mol
# GULP energy per Si atom -5574.352460 kJ/mol
# Density = 2.182982 g / cm^3
# Si number density = 21.879616 Si / 1000 Ang^3
#
#
#
# Elastic Constant Matrix: (Units=GPa)
#
#
# Indices 1 2 3 4 5 6 
#
# 1 88.4649 5.7165 -4.6763 0.0000 0.0000 0.0000
# 2 5.7165 219.4289 47.4741 0.0000 0.0000 0.0000
# 3 -4.6763 47.4741 57.3597 0.0000 0.0000 0.0000
# 4 0.0000 0.0000 0.0000 21.4957 0.0000 0.0000
# 5 0.0000 0.0000 0.0000 0.0000 9.7863 0.0000
# 6 0.0000 0.0000 0.0000 0.0000 0.0000 -23.2183
#
#
#
# Elastic Compliance Matrix: (Units=1/GPa)
#
#
# Indices 1 2 3 4 5 6 
#
# 1 0.011419 -0.000608 0.001434 0.000000 0.000000 0.000000
# 2 -0.000608 0.005584 -0.004671 0.000000 0.000000 0.000000
# 3 0.001434 -0.004671 0.021417 0.000000 0.000000 0.000000
# 4 0.000000 0.000000 0.000000 0.046521 0.000000 0.000000
# 5 0.000000 0.000000 0.000000 0.000000 0.102184 0.000000
# 6 0.000000 0.000000 0.000000 0.000000 0.000000 -0.043069
#
#
# Mechanical properties :
#
#
# Convention : Reuss Voigt Hill
#
# Bulk Modulus (GPa) = 32.54158 51.36467 41.95313
# Shear Modulus (GPa) = 30.86658 22.72867 26.79763
#
# Velocity S-wave (km/s) = 3.76006 3.22655 3.50348
# Velocity P-wave (km/s) = 5.81000 6.11619 5.96506
#
# Compressibility (1/GPa) = 0.03072991
#
# Stress axis : x y z
#
# Youngs Moduli (GPa) = 87.57340 179.09317 46.69266
#
# Poissons Ratio (x) = 0.10884 -0.06695
# Poissons Ratio (y) = 0.05322 0.21810
# Poissons Ratio (z) = -0.12557 0.83653
#
# Static dielectric constant tensor:
#      x y z
#    x 1.864910 0.000000 0.000000 
#    y 0.000000 1.838140 0.000000 
#    z 0.000000 0.000000 1.743190 
# 
# From -- ./inp_files/23171.got.cif
#   From: 2010.05.17/outbox.cif.g08.bks.cpg/sg51_12_cif.got.tgz:23171.got - 2010.06.03 11:52:47.
