data_PCOD9400527
_publ_section_title
;
Structure prediction by ZEFSAII (Michael W. Deem and Ramdas Pophale) SiO2 
 PCOD9400527
Probable space group: P M M A
;
_chemical_formula_sum "Si O2"
_cell_formula_units_Z 64
_cell_length_a 34.154781
_cell_length_b 9.017769
_cell_length_c 11.204025
_cell_angle_alpha 90.000000
_cell_angle_beta 90.000000
_cell_angle_gamma 90.000000
_cell_volume 3450.838863
_symmetry_space_group_name_H-M "P M M A"
_symmetry_group_IT_number 51
_symmetry_cell_setting 'orthorhombic'
loop_
_space_group_symop_operation_xyz
x,y,z
1/2-x,-y,z
1/2+x,-y,-z
-x,y,-z
-x,-y,-z
1/2+x,y,-z
1/2-x,y,z
x,-y,z
loop_
_atom_site_type_symbol
_atom_site_label
_atom_site_fract_x
_atom_site_fract_y
_atom_site_fract_z
Si Si1 0.376220 0.323258 0.337853
Si Si2 0.556764 0.674127 0.830442
Si Si3 0.704550 0.175404 0.305649
Si Si4 0.630960 0.676410 0.215255
Si Si5 0.584676 0.177514 0.435421
Si Si6 0.990816 0.171579 0.302398
Si Si7 0.066112 0.828099 0.928333
Si Si8 0.794059 0.322400 0.565334
O O1 0.380350 0.500000 0.362447
O O2 0.399168 0.295734 0.215400
O O3 0.398636 0.233187 0.440256
O O4 0.330221 0.286897 0.347823
O O5 0.551928 0.500000 0.852848
O O6 0.527391 0.725649 0.726122
O O7 0.548605 0.765087 0.949968
O O8 0.750000 0.198086 0.273415
O O9 0.674389 0.257366 0.219451
O O10 0.699391 0.241319 0.439042
O O11 0.696404 0.000000 0.307950
O O12 0.631544 0.500000 0.219672
O O13 0.609850 0.741964 0.333196
O O14 0.604232 0.734104 0.107455
O O15 0.539042 0.211651 0.408653
O O16 0.588828 0.000000 0.422416
O O17 0.963822 0.180738 0.182812
O O18 0.003349 0.000000 0.317784
O O19 0.076425 0.000000 0.942594
O O20 0.750000 0.284817 0.607365
O O21 0.795032 0.500000 0.543922
#
# Coordination Sequence:
#
# PCOD9400527 Si02
#       8
#     8   8   8   8   8   8   8   8
#     4  10  21  35  51  76 111 143 174 218 264 315
#     4  11  23  36  52  77 106 139 180 222 268 317
#     4  10  19  30  48  78 112 140 171 213 259 313
#     4  11  20  32  53  79 108 138 171 215 267 321
#     4  10  20  34  53  77 105 140 178 214 264 319
#     4   9  20  37  55  76 102 133 174 224 271 322
#     4  10  21  38  58  77 100 134 178 225 272 318
#     4   9  17  31  52  76 103 139 178 214 256 305
#
# _framework density 18.546215
#
# number of rings (size 3 to 8) (size 9 to 14) (size 15 to 20)
#    0.000    2.000    1.250    3.750    0.000    6.750 
#    0.000    2.500    0.000    0.750    0.000    1.750 
#    0.000    0.000    0.000    0.000    0.000    0.000 
#
# Total GULP energy -357281.251171 kJ/mol
# GULP energy per Si atom -5582.519550 kJ/mol
# Density = 1.850400 g / cm^3
# Si number density = 18.546215 Si / 1000 Ang^3
#
#
#
# Elastic Constant Matrix: (Units=GPa)
#
#
# Indices 1 2 3 4 5 6 
#
# 1 95.7325 42.0046 7.3644 0.0000 0.0000 0.0000
# 2 42.0046 64.5141 12.3892 0.0000 0.0000 0.0000
# 3 7.3644 12.3892 21.6661 0.0000 0.0000 0.0000
# 4 0.0000 0.0000 0.0000 -17.8253 0.0000 0.0000
# 5 0.0000 0.0000 0.0000 0.0000 22.1429 0.0000
# 6 0.0000 0.0000 0.0000 0.0000 0.0000 27.9798
#
#
#
# Elastic Compliance Matrix: (Units=1/GPa)
#
#
# Indices 1 2 3 4 5 6 
#
# 1 0.014629 -0.009627 0.000533 0.000000 0.000000 0.000000
# 2 -0.009627 0.023748 -0.010307 0.000000 0.000000 0.000000
# 3 0.000533 -0.010307 0.051868 0.000000 0.000000 0.000000
# 4 0.000000 0.000000 0.000000 -0.056100 0.000000 0.000000
# 5 0.000000 0.000000 0.000000 0.000000 0.045161 0.000000
# 6 0.000000 0.000000 0.000000 0.000000 0.000000 0.035740
#
#
# Mechanical properties :
#
#
# Convention : Reuss Voigt Hill
#
# Bulk Modulus (GPa) = 19.43971 33.93657 26.68814
# Shear Modulus (GPa) = 29.24029 14.46978 21.85504
#
# Velocity S-wave (km/s) = 3.97497 2.79624 3.43652
# Velocity P-wave (km/s) = 5.61887 5.36315 5.49250
#
# Compressibility (1/GPa) = 0.05144110
#
# Stress axis : x y z
#
# Youngs Moduli (GPa) = 68.35814 42.10883 19.27970
#
# Poissons Ratio (x) = 0.40538 -0.01027
# Poissons Ratio (y) = 0.65808 0.19872
# Poissons Ratio (z) = -0.03641 0.43403
#
# Static dielectric constant tensor:
#      x y z
#    x 1.682270 0.000000 0.000000 
#    y 0.000000 1.613460 0.000000 
#    z 0.000000 0.000000 1.623170 
# 
# From -- ./inp_files/19586.got.cif
#   From: 2010.05.17/outbox.cif.g08.bks.cpg/sg51_10_cif.got.tgz:19586.got - 2010.06.03 11:52:47.
