data_PCOD9400215
_publ_section_title
;
Structure prediction by ZEFSAII (Michael W. Deem and Ramdas Pophale) SiO2 
 PCOD9400215
Probable space group: P M M A
;
_chemical_formula_sum "Si O2"
_cell_formula_units_Z 56
_cell_length_a 9.056994
_cell_length_b 23.277310
_cell_length_c 14.538458
_cell_angle_alpha 90.000000
_cell_angle_beta 90.000000
_cell_angle_gamma 90.000000
_cell_volume 3065.033437
_symmetry_space_group_name_H-M "P M M A"
_symmetry_group_IT_number 51
_symmetry_cell_setting 'orthorhombic'
loop_
_space_group_symop_operation_xyz
x,y,z
1/2-x,-y,z
1/2+x,-y,-z
-x,y,-z
-x,-y,-z
1/2+x,y,-z
1/2-x,y,z
x,-y,z
loop_
_atom_site_type_symbol
_atom_site_label
_atom_site_fract_x
_atom_site_fract_y
_atom_site_fract_z
Si Si1 0.074352 0.897839 0.590423
Si Si2 0.917955 0.782846 0.644656
Si Si3 0.427011 0.669225 0.704341
Si Si4 0.083569 0.176335 0.142881
Si Si5 0.074616 0.567009 0.400430
Si Si6 0.924729 0.709666 0.089985
Si Si7 0.926603 0.935053 0.202202
O O1 0.250000 0.898047 0.579818
O O2 0.038859 0.926975 0.688687
O O3 0.000000 0.924427 0.500000
O O4 0.012797 0.832916 0.598429
O O5 0.750000 0.779105 0.608463
O O6 0.908219 0.803623 0.750631
O O7 0.999181 0.721729 0.647764
O O8 0.250000 0.670446 0.692825
O O9 0.496632 0.610343 0.669161
O O10 0.460221 0.679929 0.812415
O O11 0.250000 0.175981 0.105230
O O12 0.983534 0.225171 0.098231
O O13 0.011194 0.113673 0.145597
O O14 0.250000 0.578355 0.405768
O O15 0.054188 0.500000 0.375169
O O16 0.000000 0.575421 0.500000
O O17 0.750000 0.709543 0.078802
O O18 0.000000 0.683107 0.000000
O O19 0.750000 0.926370 0.193439
O O20 0.963199 0.000000 0.174945
#
# Coordination Sequence:
#
# PCOD9400215 Si02
#       7
#     8   8   8   8   8   8   8
#     4  10  19  30  43  61  88 121 159 205 257 312
#     4   9  17  30  47  67  92 123 160 202 250 304
#     4  10  20  34  54  81 111 142 177 219 266 313
#     4   9  17  30  49  72  97 125 159 201 248 300
#     4  10  21  37  57  81 110 146 187 228 267 308
#     4  10  20  34  55  83 113 143 174 212 260 316
#     4   9  18  32  48  65  88 122 163 206 254 309
#
# _framework density 18.270600000000002
#
# number of rings (size 3 to 8) (size 9 to 14) (size 15 to 20)
#    0.000    2.429    0.000    2.571    0.000    7.714 
#    0.000    2.857    0.000    0.857    0.000    0.000 
#    0.000    0.000    0.000    0.000    0.000    0.000 
#
# Total GULP energy -312461.643667 kJ/mol
# GULP energy per Si atom -5579.672208 kJ/mol
# Density = 1.822902 g / cm^3
# Si number density = 18.270600 Si / 1000 Ang^3
#
#
#
# Elastic Constant Matrix: (Units=GPa)
#
#
# Indices 1 2 3 4 5 6 
#
# 1 76.5787 52.5206 26.4186 0.0000 0.0000 0.0000
# 2 52.5206 107.9817 35.3427 0.0000 0.0000 0.0000
# 3 26.4186 35.3427 44.9336 0.0000 0.0000 0.0000
# 4 0.0000 0.0000 0.0000 12.6354 0.0000 0.0000
# 5 0.0000 0.0000 0.0000 0.0000 25.5436 0.0000
# 6 0.0000 0.0000 0.0000 0.0000 0.0000 27.6029
#
#
#
# Elastic Compliance Matrix: (Units=1/GPa)
#
#
# Indices 1 2 3 4 5 6 
#
# 1 0.020627 -0.008165 -0.005705 0.000000 0.000000 0.000000
# 2 -0.008165 0.015704 -0.007551 0.000000 0.000000 0.000000
# 3 -0.005705 -0.007551 0.031549 0.000000 0.000000 0.000000
# 4 0.000000 0.000000 0.000000 0.079143 0.000000 0.000000
# 5 0.000000 0.000000 0.000000 0.000000 0.039149 0.000000
# 6 0.000000 0.000000 0.000000 0.000000 0.000000 0.036228
#
#
# Mechanical properties :
#
#
# Convention : Reuss Voigt Hill
#
# Bulk Modulus (GPa) = 39.94188 50.89531 45.41860
# Shear Modulus (GPa) = 18.27572 20.83717 19.55645
#
# Velocity S-wave (km/s) = 3.16615 3.38076 3.27521
# Velocity P-wave (km/s) = 5.93926 6.56934 6.26223
#
# Compressibility (1/GPa) = 0.02503638
#
# Stress axis : x y z
#
# Youngs Moduli (GPa) = 48.48106 63.67902 31.69706
#
# Poissons Ratio (x) = 0.51995 0.18083
# Poissons Ratio (y) = 0.39586 0.23935
# Poissons Ratio (z) = 0.27658 0.48085
#
# Static dielectric constant tensor:
#      x y z
#    x 1.618130 0.000000 0.000000 
#    y 0.000000 1.604140 0.000000 
#    z 0.000000 0.000000 1.663810 
# 
# From -- ./inp_files/21712.got.cif
#   From: 2010.05.17/outbox.cif.g08.bks.cpg/sg51_11_cif.got.tgz:21712.got - 2010.06.03 11:52:47.
