data_PCOD9400882
_publ_section_title
;
Structure prediction by ZEFSAII (Michael W. Deem and Ramdas Pophale) SiO2 
 PCOD9400882
Probable space group: P M M A
;
_chemical_formula_sum "Si O2"
_cell_formula_units_Z 64
_cell_length_a 15.130957
_cell_length_b 7.650470
_cell_length_c 28.875996
_cell_angle_alpha 90.000000
_cell_angle_beta 90.000000
_cell_angle_gamma 90.000000
_cell_volume 3342.654475
_symmetry_space_group_name_H-M "P M M A"
_symmetry_group_IT_number 51
_symmetry_cell_setting 'orthorhombic'
loop_
_space_group_symop_operation_xyz
x,y,z
1/2-x,-y,z
1/2+x,-y,-z
-x,y,-z
-x,-y,-z
1/2+x,y,-z
1/2-x,y,z
x,-y,z
loop_
_atom_site_type_symbol
_atom_site_label
_atom_site_fract_x
_atom_site_fract_y
_atom_site_fract_z
Si Si1 0.351163 0.707144 0.461288
Si Si2 0.897926 0.198680 0.983059
Si Si3 0.850249 0.211675 0.432125
Si Si4 0.845324 0.214461 0.081398
Si Si5 0.650406 0.708471 0.799876
Si Si6 0.536947 0.790667 0.888573
Si Si7 0.481495 0.798337 0.381235
Si Si8 0.650361 0.792676 0.694472
O O1 0.250000 0.768795 0.453858
O O2 0.353811 0.500000 0.452600
O O3 0.372828 0.738236 0.515075
O O4 0.418874 0.794375 0.426348
O O5 0.904908 0.279625 0.932005
O O6 0.863551 0.000000 0.978066
O O7 0.850680 0.276246 0.027848
O O8 0.000000 0.188903 0.000000
O O9 0.750000 0.271467 0.422769
O O10 0.924926 0.278998 0.397177
O O11 0.850599 0.000000 0.430544
O O12 0.750000 0.265684 0.101246
O O13 0.935492 0.271783 0.106525
O O14 0.847600 0.000000 0.080378
O O15 0.750000 0.774433 0.810427
O O16 0.653835 0.500000 0.798003
O O17 0.582648 0.757640 0.839920
O O18 0.627194 0.771190 0.748349
O O19 0.533825 0.000000 0.895616
O O20 0.423515 0.718165 0.339872
O O21 0.499550 0.000000 0.368350
O O22 0.750000 0.720524 0.687365
O O23 0.655724 0.000000 0.684730
#
# Coordination Sequence:
#
# PCOD9400882 Si02
#       8
#     8   8   8   8   8   8   8   8
#     4  10  20  31  44  67  99 131 161 192 225 264
#     4   7  11  20  35  60  92 120 147 182 221 258
#     4   9  18  32  48  67  95 129 160 189 222 262
#     4   8  13  22  39  66  98 126 152 186 225 262
#     4  10  21  35  49  66  90 119 149 184 230 280
#     4   9  16  27  46  70  93 119 154 191 225 266
#     4  10  19  31  50  73  94 120 154 190 230 273
#     4   9  18  33  52  72  91 111 142 187 235 282
#
# _framework density 19.146460999999999
#
# number of rings (size 3 to 8) (size 9 to 14) (size 15 to 20)
#    0.000    3.000    0.000    3.000    0.000    5.000 
#    0.000    2.500    0.000    4.500    0.000    3.500 
#    0.000    0.000    0.000    0.000    0.000    0.000 
#
# Total GULP energy -356649.370255 kJ/mol
# GULP energy per Si atom -5572.646410 kJ/mol
# Density = 1.910288 g / cm^3
# Si number density = 19.146461 Si / 1000 Ang^3
#
#
#
# Elastic Constant Matrix: (Units=GPa)
#
#
# Indices 1 2 3 4 5 6 
#
# 1 118.7843 -1.1972 85.8231 0.0000 0.0000 0.0000
# 2 -1.1972 37.2161 -6.3336 0.0000 0.0000 0.0000
# 3 85.8231 -6.3336 110.1773 0.0000 0.0000 0.0000
# 4 0.0000 0.0000 0.0000 203.8889 0.0000 0.0000
# 5 0.0000 0.0000 0.0000 0.0000 22.1914 0.0000
# 6 0.0000 0.0000 0.0000 0.0000 0.0000 -5.8280
#
#
#
# Elastic Compliance Matrix: (Units=1/GPa)
#
#
# Indices 1 2 3 4 5 6 
#
# 1 0.019397 -0.001967 -0.015223 0.000000 0.000000 0.000000
# 2 -0.001967 0.027335 0.003103 0.000000 0.000000 0.000000
# 3 -0.015223 0.003103 0.021113 0.000000 0.000000 0.000000
# 4 0.000000 0.000000 0.000000 0.004905 0.000000 0.000000
# 5 0.000000 0.000000 0.000000 0.000000 0.045063 0.000000
# 6 0.000000 0.000000 0.000000 0.000000 0.000000 -0.171584
#
#
# Mechanical properties :
#
#
# Convention : Reuss Voigt Hill
#
# Bulk Modulus (GPa) = 25.20632 46.97360 36.08996
# Shear Modulus (GPa) = -404.00996 56.57615 -173.71691
#
# Velocity S-wave (km/s) = -14.54195 5.44181 -9.53559
# Velocity P-wave (km/s) = 16.39403 8.00447 10.11664
#
# Compressibility (1/GPa) = 0.03967259
#
# Stress axis : x y z
#
# Youngs Moduli (GPa) = 51.55318 36.58324 47.36524
#
# Poissons Ratio (x) = 0.07195 0.72103
# Poissons Ratio (y) = 0.10139 -0.14699
# Poissons Ratio (z) = 0.78478 -0.11353
#
# Static dielectric constant tensor:
#      x y z
#    x 1.706130 0.000000 0.000000 
#    y 0.000000 1.715250 0.000000 
#    z 0.000000 0.000000 1.654200 
# 
# From -- ./inp_files/37793.got.cif
#   From: 2010.05.17/outbox.cif.g08.bks.cpg/sg51_19_cif.got.tgz:37793.got - 2010.06.03 11:52:47.
