data_PCOD9400805
_publ_section_title
;
Structure prediction by ZEFSAII (Michael W. Deem and Ramdas Pophale) SiO2 
 PCOD9400805
Probable space group: P M M A
;
_chemical_formula_sum "Si O2"
_cell_formula_units_Z 56
_cell_length_a 19.263048
_cell_length_b 7.775999
_cell_length_c 18.937760
_cell_angle_alpha 90.000000
_cell_angle_beta 90.000000
_cell_angle_gamma 90.000000
_cell_volume 2836.676503
_symmetry_space_group_name_H-M "P M M A"
_symmetry_group_IT_number 51
_symmetry_cell_setting 'orthorhombic'
loop_
_space_group_symop_operation_xyz
x,y,z
1/2-x,-y,z
1/2+x,-y,-z
-x,y,-z
-x,-y,-z
1/2+x,y,-z
1/2-x,y,z
x,-y,z
loop_
_atom_site_type_symbol
_atom_site_label
_atom_site_fract_x
_atom_site_fract_y
_atom_site_fract_z
Si Si1 0.559583 0.302211 0.549957
Si Si2 0.041694 0.195382 0.065469
Si Si3 0.545647 0.704300 0.195923
Si Si4 0.329123 0.707931 0.714583
Si Si5 0.828862 0.706112 0.839308
Si Si6 0.830145 0.203324 0.441755
Si Si7 0.585087 0.295257 0.705360
O O1 0.500000 0.221395 0.500000
O O2 0.536844 0.500000 0.564347
O O3 0.626567 0.299098 0.500586
O O4 0.579042 0.224342 0.626021
O O5 0.113770 0.263270 0.099324
O O6 0.986962 0.202937 0.129371
O O7 0.057494 0.000000 0.044529
O O8 0.000000 0.279634 0.000000
O O9 0.549184 0.500000 0.179307
O O10 0.619390 0.766030 0.224200
O O11 0.490099 0.722306 0.258844
O O12 0.250000 0.769306 0.722404
O O13 0.328855 0.500000 0.715545
O O14 0.356078 0.762468 0.637620
O O15 0.750000 0.769209 0.852097
O O16 0.825196 0.500000 0.832723
O O17 0.860922 0.772926 0.764582
O O18 0.750000 0.258407 0.442402
O O19 0.833715 0.000000 0.455599
O O20 0.600779 0.500000 0.698800
#
# Coordination Sequence:
#
# PCOD9400805 Si02
#       7
#     8   8   8   8   8   8   8
#     4  10  19  31  49  72  97 128 170 216 259 304
#     4  10  21  36  54  78 108 140 170 199 240 300
#     4   9  17  32  54  76  99 127 162 206 251 296
#     4   9  17  31  52  75  97 125 165 211 256 301
#     4   9  18  34  56  80 104 133 173 218 261 305
#     4  10  21  34  46  65  97 134 168 204 250 302
#     4   8  15  28  47  71  97 126 162 207 255 299
#
# _framework density 19.741410999999999
#
# number of rings (size 3 to 8) (size 9 to 14) (size 15 to 20)
#    0.000    2.714    0.000    2.571    0.000    6.000 
#    0.000    5.000    0.000    2.571    0.000    0.000 
#    0.000    0.000    0.000    0.000    0.000    0.000 
#
# Total GULP energy -311996.593579 kJ/mol
# GULP energy per Si atom -5571.367742 kJ/mol
# Density = 1.969648 g / cm^3
# Si number density = 19.741411 Si / 1000 Ang^3
#
#
#
# Elastic Constant Matrix: (Units=GPa)
#
#
# Indices 1 2 3 4 5 6 
#
# 1 90.3196 13.6261 72.3405 0.0000 0.0000 0.0000
# 2 13.6261 25.7486 7.2454 0.0000 0.0000 0.0000
# 3 72.3405 7.2454 114.7652 0.0000 0.0000 0.0000
# 4 0.0000 0.0000 0.0000 16.4873 0.0000 0.0000
# 5 0.0000 0.0000 0.0000 0.0000 21.2522 0.0000
# 6 0.0000 0.0000 0.0000 0.0000 0.0000 7.5903
#
#
#
# Elastic Compliance Matrix: (Units=1/GPa)
#
#
# Indices 1 2 3 4 5 6 
#
# 1 0.024110 -0.008636 -0.014652 0.000000 0.000000 0.000000
# 2 -0.008636 0.042633 0.002752 0.000000 0.000000 0.000000
# 3 -0.014652 0.002752 0.017776 0.000000 0.000000 0.000000
# 4 0.000000 0.000000 0.000000 0.060653 0.000000 0.000000
# 5 0.000000 0.000000 0.000000 0.000000 0.047054 0.000000
# 6 0.000000 0.000000 0.000000 0.000000 0.000000 0.131747
#
#
# Mechanical properties :
#
#
# Convention : Reuss Voigt Hill
#
# Bulk Modulus (GPa) = 23.01704 46.36193 34.68948
# Shear Modulus (GPa) = 13.17430 18.24073 15.70752
#
# Velocity S-wave (km/s) = 2.58610 3.04301 2.82381
# Velocity P-wave (km/s) = 4.53892 5.99017 5.31432
#
# Compressibility (1/GPa) = 0.04344607
#
# Stress axis : x y z
#
# Youngs Moduli (GPa) = 41.47604 23.45610 56.25697
#
# Poissons Ratio (x) = 0.20257 0.82430
# Poissons Ratio (y) = 0.35819 -0.15482
# Poissons Ratio (z) = 0.60772 -0.06455
#
# Static dielectric constant tensor:
#      x y z
#    x 1.714590 0.000000 0.000000 
#    y 0.000000 1.737300 0.000000 
#    z 0.000000 0.000000 1.697310 
# 
# From -- ./inp_files/30354.got.cif
#   From: 2010.05.17/outbox.cif.g08.bks.cpg/sg51_16_cif.got.tgz:30354.got - 2010.06.03 11:52:47.
