data_PCOD9400454
_publ_section_title
;
Structure prediction by ZEFSAII (Michael W. Deem and Ramdas Pophale) SiO2 
 PCOD9400454
Probable space group: P M M A
;
_chemical_formula_sum "Si O2"
_cell_formula_units_Z 64
_cell_length_a 24.934156
_cell_length_b 8.833319
_cell_length_c 15.850050
_cell_angle_alpha 90.000000
_cell_angle_beta 90.000000
_cell_angle_gamma 90.000000
_cell_volume 3490.994973
_symmetry_space_group_name_H-M "P M M A"
_symmetry_group_IT_number 51
_symmetry_cell_setting 'orthorhombic'
loop_
_space_group_symop_operation_xyz
x,y,z
1/2-x,-y,z
1/2+x,-y,-z
-x,y,-z
-x,-y,-z
1/2+x,y,-z
1/2-x,y,z
x,-y,z
loop_
_atom_site_type_symbol
_atom_site_label
_atom_site_fract_x
_atom_site_fract_y
_atom_site_fract_z
Si Si1 0.349897 0.823266 0.586528
Si Si2 0.313528 0.679887 0.116145
Si Si3 0.120816 0.182115 0.775972
Si Si4 0.810382 0.319225 0.580801
Si Si5 0.545717 0.667950 0.431835
Si Si6 0.878774 0.819999 0.730181
Si Si7 0.813166 0.817832 0.062705
Si Si8 0.003317 0.819782 0.730680
O O1 0.355962 0.766390 0.684141
O O2 0.315497 0.738885 0.515668
O O3 0.410074 0.794977 0.552777
O O4 0.335592 0.000000 0.588169
O O5 0.250000 0.711057 0.123937
O O6 0.321392 0.500000 0.119302
O O7 0.344061 0.757020 0.192830
O O8 0.330760 0.743766 0.025117
O O9 0.153999 0.237575 0.856045
O O10 0.056795 0.208721 0.786785
O O11 0.127099 0.000000 0.772806
O O12 0.750000 0.280249 0.611688
O O13 0.815891 0.500000 0.581571
O O14 0.855324 0.251406 0.643573
O O15 0.500000 0.667249 0.500000
O O16 0.571009 0.500000 0.428370
O O17 0.516344 0.711537 0.346645
O O18 0.941462 0.789709 0.752233
O O19 0.872790 0.000000 0.722650
O O20 0.750000 0.785799 0.074802
O O21 0.819188 0.000000 0.056021
O O22 0.006315 0.000000 0.708696
#
# Coordination Sequence:
#
# PCOD9400454 Si02
#       8
#     8   8   8   8   8   8   8   8
#     4  10  20  34  53  76 104 139 178 219 261 310
#     4  10  21  37  56  79 108 139 171 214 270 326
#     4   8  16  33  55  79 109 141 173 216 266 311
#     4  11  24  39  53  74 108 145 179 221 275 330
#     4  10  19  30  47  71  99 134 175 217 261 309
#     4  11  22  36  57  81 104 137 182 227 268 316
#     4   9  17  32  57  84 105 131 172 217 259 310
#     4   9  19  34  51  74 104 138 177 219 265 316
#
# _framework density 18.332882000000001
#
# number of rings (size 3 to 8) (size 9 to 14) (size 15 to 20)
#    0.000    2.250    0.000    3.750    0.000    7.750 
#    0.000    5.000    0.000    5.250    0.000    0.000 
#    0.000    0.000    0.000    0.000    0.000    0.000 
#
# Total GULP energy -356484.161560 kJ/mol
# GULP energy per Si atom -5570.065024 kJ/mol
# Density = 1.829116 g / cm^3
# Si number density = 18.332882 Si / 1000 Ang^3
#
#
#
# Elastic Constant Matrix: (Units=GPa)
#
#
# Indices 1 2 3 4 5 6 
#
# 1 72.5972 29.5986 52.8301 0.0000 0.0000 0.0000
# 2 29.5986 20.4207 25.3428 0.0000 0.0000 0.0000
# 3 52.8301 25.3428 93.8712 0.0000 0.0000 0.0000
# 4 0.0000 0.0000 0.0000 37.8523 0.0000 0.0000
# 5 0.0000 0.0000 0.0000 0.0000 24.7600 0.0000
# 6 0.0000 0.0000 0.0000 0.0000 0.0000 15.6185
#
#
#
# Elastic Compliance Matrix: (Units=1/GPa)
#
#
# Indices 1 2 3 4 5 6 
#
# 1 0.039147 -0.044213 -0.010096 0.000000 0.000000 0.000000
# 2 -0.044213 0.123577 -0.008480 0.000000 0.000000 0.000000
# 3 -0.010096 -0.008480 0.018624 0.000000 0.000000 0.000000
# 4 0.000000 0.000000 0.000000 0.026418 0.000000 0.000000
# 5 0.000000 0.000000 0.000000 0.000000 0.040388 0.000000
# 6 0.000000 0.000000 0.000000 0.000000 0.000000 0.064026
#
#
# Mechanical properties :
#
#
# Convention : Reuss Voigt Hill
#
# Bulk Modulus (GPa) = 17.93013 44.71470 31.32242
# Shear Modulus (GPa) = 10.95654 20.92068 15.93861
#
# Velocity S-wave (km/s) = 2.44733 3.38176 2.95176
# Velocity P-wave (km/s) = 4.21751 6.30015 5.36094
#
# Compressibility (1/GPa) = 0.05577204
#
# Stress axis : x y z
#
# Youngs Moduli (GPa) = 25.54463 8.09210 53.69404
#
# Poissons Ratio (x) = 0.35777 0.54207
# Poissons Ratio (y) = 1.12939 0.45534
# Poissons Ratio (z) = 0.25789 0.06862
#
# Static dielectric constant tensor:
#      x y z
#    x 1.501460 0.000000 0.000000 
#    y 0.000000 1.627880 0.000000 
#    z 0.000000 0.000000 1.813920 
# 
# From -- ./inp_files/26277.got.cif
#   From: 2010.05.17/outbox.cif.g08.bks.cpg/sg51_14_cif.got.tgz:26277.got - 2010.06.03 11:52:47.
