data_PCOD9400429
_publ_section_title
;
Structure prediction by ZEFSAII (Michael W. Deem and Ramdas Pophale) SiO2 
 PCOD9400429
Probable space group: P M M A
;
_chemical_formula_sum "Si O2"
_cell_formula_units_Z 40
_cell_length_a 14.058823
_cell_length_b 7.623710
_cell_length_c 18.990407
_cell_angle_alpha 90.000000
_cell_angle_beta 90.000000
_cell_angle_gamma 90.000000
_cell_volume 2035.399219
_symmetry_space_group_name_H-M "P M M A"
_symmetry_group_IT_number 51
_symmetry_cell_setting 'orthorhombic'
loop_
_space_group_symop_operation_xyz
x,y,z
1/2-x,-y,z
1/2+x,-y,-z
-x,y,-z
-x,-y,-z
1/2+x,y,-z
1/2-x,y,z
x,-y,z
loop_
_atom_site_type_symbol
_atom_site_label
_atom_site_fract_x
_atom_site_fract_y
_atom_site_fract_z
Si Si1 0.143515 0.214028 0.542275
Si Si2 0.947081 0.786219 0.605806
Si Si3 0.359422 0.215282 0.245909
Si Si4 0.979524 0.199668 0.885512
Si Si5 0.143232 0.296638 0.983538
O O1 0.250000 0.273620 0.559771
O O2 0.113863 0.265735 0.462800
O O3 0.056134 0.269389 0.592064
O O4 0.144328 0.000000 0.543364
O O5 0.901395 0.728951 0.678910
O O6 0.946737 0.000000 0.606394
O O7 0.250000 0.270320 0.237239
O O8 0.426069 0.276150 0.181931
O O9 0.359123 0.000000 0.244437
O O10 0.074796 0.284162 0.916176
O O11 0.004644 0.000000 0.868419
O O12 0.906333 0.201436 0.951090
O O13 0.250000 0.234014 0.970362
O O14 0.146226 0.500000 0.004396
#
# Coordination Sequence:
#
# PCOD9400429 Si02
#       5
#     8   8   8   8   8
#     4   8  12  18  29  44  64  96 139 181 213 245
#     4   8  13  20  30  46  69 100 140 179 214 254
#     4   9  16  25  37  55  81 111 141 176 220 265
#     4  10  19  30  47  70  93 116 146 185 225 267
#     4  10  20  34  51  68  88 117 150 183 220 264
#
# _framework density 19.652165
#
# number of rings (size 3 to 8) (size 9 to 14) (size 15 to 20)
#    0.000    3.000    0.000    4.800    0.000    4.800 
#    0.000    1.000    0.000    3.600    0.000    0.000 
#    0.000    0.000    0.000   14.400    0.000   80.000 
#
# Total GULP energy -223049.237480 kJ/mol
# GULP energy per Si atom -5576.230937 kJ/mol
# Density = 1.960744 g / cm^3
# Si number density = 19.652165 Si / 1000 Ang^3
#
#
#
# Elastic Constant Matrix: (Units=GPa)
#
#
# Indices 1 2 3 4 5 6 
#
# 1 130.2848 -5.8557 28.9662 0.0000 0.0000 0.0000
# 2 -5.8557 37.6120 -8.4012 0.0000 0.0000 0.0000
# 3 28.9662 -8.4012 81.6639 0.0000 0.0000 0.0000
# 4 0.0000 0.0000 0.0000 -49.9623 0.0000 0.0000
# 5 0.0000 0.0000 0.0000 0.0000 19.2666 0.0000
# 6 0.0000 0.0000 0.0000 0.0000 0.0000 9.2475
#
#
#
# Elastic Compliance Matrix: (Units=1/GPa)
#
#
# Indices 1 2 3 4 5 6 
#
# 1 0.008348 0.000653 -0.002894 0.000000 0.000000 0.000000
# 2 0.000653 0.027264 0.002573 0.000000 0.000000 0.000000
# 3 -0.002894 0.002573 0.013536 0.000000 0.000000 0.000000
# 4 0.000000 0.000000 0.000000 -0.020015 0.000000 0.000000
# 5 0.000000 0.000000 0.000000 0.000000 0.051903 0.000000
# 6 0.000000 0.000000 0.000000 0.000000 0.000000 0.108138
#
#
# Mechanical properties :
#
#
# Convention : Reuss Voigt Hill
#
# Bulk Modulus (GPa) = 20.07497 30.99771 25.53634
# Shear Modulus (GPa) = 24.37668 11.36710 17.87189
#
# Velocity S-wave (km/s) = 3.52576 2.40763 3.01892
# Velocity P-wave (km/s) = 5.17803 4.85143 5.01739
#
# Compressibility (1/GPa) = 0.04981328
#
# Stress axis : x y z
#
# Youngs Moduli (GPa) = 119.78544 36.67882 73.87443
#
# Poissons Ratio (x) = -0.02396 0.21379
# Poissons Ratio (y) = -0.07826 -0.19008
# Poissons Ratio (z) = 0.34665 -0.09438
#
# Static dielectric constant tensor:
#      x y z
#    x 1.689030 0.000000 0.000000 
#    y 0.000000 1.753010 0.000000 
#    z 0.000000 0.000000 1.656270 
# 
# From -- ./inp_files/29255.got.cif
#   From: 2010.05.17/outbox.cif.g08.bks.cpg/sg51_15_cif.got.tgz:29255.got - 2010.06.03 11:52:47.
