data_PCOD9400630
_publ_section_title
;
Structure prediction by ZEFSAII (Michael W. Deem and Ramdas Pophale) SiO2 
 PCOD9400630
Probable space group: P M M A
;
_chemical_formula_sum "Si O2"
_cell_formula_units_Z 40
_cell_length_a 8.266644
_cell_length_b 27.561802
_cell_length_c 9.423449
_cell_angle_alpha 90.000000
_cell_angle_beta 90.000000
_cell_angle_gamma 90.000000
_cell_volume 2147.072593
_symmetry_space_group_name_H-M "P M M A"
_symmetry_group_IT_number 51
_symmetry_cell_setting 'orthorhombic'
loop_
_space_group_symop_operation_xyz
x,y,z
1/2-x,-y,z
1/2+x,-y,-z
-x,y,-z
-x,-y,-z
1/2+x,y,-z
1/2-x,y,z
x,-y,z
loop_
_atom_site_type_symbol
_atom_site_label
_atom_site_fract_x
_atom_site_fract_y
_atom_site_fract_z
Si Si1 0.943672 0.843239 0.664453
Si Si2 0.945784 0.646889 0.161472
Si Si3 0.945622 0.947820 0.664863
Si Si4 0.942879 0.260010 0.337016
Si Si5 0.945409 0.445631 0.338656
O O1 0.750000 0.841995 0.667210
O O2 0.999466 0.895529 0.725508
O O3 0.000000 0.843207 0.500000
O O4 0.005766 0.792376 0.724394
O O5 0.750000 0.646992 0.166220
O O6 0.003694 0.694342 0.246905
O O7 0.002989 0.597662 0.238296
O O8 0.000000 0.648468 0.000000
O O9 0.750000 0.947747 0.668047
O O10 0.000000 0.947850 0.500000
O O11 0.001103 0.000000 0.725887
O O12 0.750000 0.261239 0.338940
O O13 0.000000 0.263809 0.500000
O O14 0.750000 0.445591 0.336261
O O15 0.000440 0.500000 0.297454
O O16 0.000000 0.436879 0.500000
#
# Coordination Sequence:
#
# PCOD9400630 Si02
#       5
#     8   8   8   8   8
#     4   9  15  23  37  57  81 112 149 186 226 271
#     4  10  22  36  50  71  98 127 158 194 235 278
#     4   8  13  20  30  47  74 107 141 177 218 266
#     4  10  19  31  47  67  91 120 156 195 233 275
#     4   9  18  34  55  78 102 127 158 194 230 272
#
# _framework density 18.630016999999999
#
# number of rings (size 3 to 8) (size 9 to 14) (size 15 to 20)
#    0.000    2.800    0.000    3.000    0.000    3.600 
#    0.000    0.000    0.000    0.000    0.000    0.000 
#    0.000    0.800    0.000    1.800    0.000    9.400 
#
# Total GULP energy -222725.468452 kJ/mol
# GULP energy per Si atom -5568.136711 kJ/mol
# Density = 1.858761 g / cm^3
# Si number density = 18.630017 Si / 1000 Ang^3
#
#
#
# Elastic Constant Matrix: (Units=GPa)
#
#
# Indices 1 2 3 4 5 6 
#
# 1 17.6296 23.6764 5.2666 0.0000 0.0000 0.0000
# 2 23.6764 241.7009 83.3422 0.0000 0.0000 0.0000
# 3 5.2666 83.3422 52.3838 0.0000 0.0000 0.0000
# 4 0.0000 0.0000 0.0000 -2.7332 0.0000 0.0000
# 5 0.0000 0.0000 0.0000 0.0000 18.5460 0.0000
# 6 0.0000 0.0000 0.0000 0.0000 0.0000 34.4595
#
#
#
# Elastic Compliance Matrix: (Units=1/GPa)
#
#
# Indices 1 2 3 4 5 6 
#
# 1 0.066866 -0.009375 0.008193 0.000000 0.000000 0.000000
# 2 -0.009375 0.010480 -0.015731 0.000000 0.000000 0.000000
# 3 0.008193 -0.015731 0.043294 0.000000 0.000000 0.000000
# 4 0.000000 0.000000 0.000000 -0.365876 0.000000 0.000000
# 5 0.000000 0.000000 0.000000 0.000000 0.053920 0.000000
# 6 0.000000 0.000000 0.000000 0.000000 0.000000 0.029020
#
#
# Mechanical properties :
#
#
# Convention : Reuss Voigt Hill
#
# Bulk Modulus (GPa) = 11.51893 59.58720 35.55306
# Shear Modulus (GPa) = -50.23477 23.34974 -13.44251
#
# Velocity S-wave (km/s) = -5.19836 3.54409 -2.68908
# Velocity P-wave (km/s) = 5.46207 6.98580 3.07955
#
# Compressibility (1/GPa) = 0.08681364
#
# Stress axis : x y z
#
# Youngs Moduli (GPa) = 14.95532 95.41991 23.09790
#
# Poissons Ratio (x) = 0.89457 -0.18924
# Poissons Ratio (y) = 0.14021 0.36335
# Poissons Ratio (z) = -0.12253 1.50105
#
# Static dielectric constant tensor:
#      x y z
#    x 1.660570 0.000000 0.000000 
#    y 0.000000 1.740260 0.000000 
#    z 0.000000 0.000000 1.581930 
# 
# From -- ./inp_files/5468.got.cif
#   From: 2010.05.17/outbox.cif.g08.bks.cpg/sg51_3_cif.got.tgz:5468.got - 2010.06.03 11:52:47.
