data_PCOD9400757
_publ_section_title
;
Structure prediction by ZEFSAII (Michael W. Deem and Ramdas Pophale) SiO2 
 PCOD9400757
Probable space group: P M M A
;
_chemical_formula_sum "Si O2"
_cell_formula_units_Z 64
_cell_length_a 8.919763
_cell_length_b 24.123084
_cell_length_c 19.567702
_cell_angle_alpha 90.000000
_cell_angle_beta 90.000000
_cell_angle_gamma 90.000000
_cell_volume 4210.425334
_symmetry_space_group_name_H-M "P M M A"
_symmetry_group_IT_number 51
_symmetry_cell_setting 'orthorhombic'
loop_
_space_group_symop_operation_xyz
x,y,z
1/2-x,-y,z
1/2+x,-y,-z
-x,y,-z
-x,-y,-z
1/2+x,y,-z
1/2-x,y,z
x,-y,z
loop_
_atom_site_type_symbol
_atom_site_label
_atom_site_fract_x
_atom_site_fract_y
_atom_site_fract_z
Si Si1 0.929347 0.105873 0.427855
Si Si2 0.570048 0.221190 0.925181
Si Si3 0.929422 0.237691 0.428904
Si Si4 0.570084 0.668413 0.840294
Si Si5 0.929265 0.271699 0.282647
Si Si6 0.071918 0.935789 0.288532
Si Si7 0.570949 0.159201 0.198540
Si Si8 0.069132 0.436902 0.074458
O O1 0.750000 0.098520 0.428630
O O2 0.961492 0.171902 0.420727
O O3 0.000000 0.087616 0.500000
O O4 0.000591 0.076210 0.362706
O O5 0.750000 0.217152 0.928200
O O6 0.530504 0.281020 0.891648
O O7 0.503994 0.175669 0.873192
O O8 0.500000 0.216685 0.000000
O O9 0.750000 0.242778 0.432759
O O10 0.982416 0.268987 0.360827
O O11 0.000000 0.256484 0.500000
O O12 0.750000 0.667864 0.834609
O O13 0.502173 0.683493 0.767062
O O14 0.520185 0.610362 0.872763
O O15 0.750000 0.279017 0.282485
O O16 0.959315 0.211519 0.248745
O O17 0.250000 0.925317 0.291702
O O18 0.997053 0.894719 0.234076
O O19 0.047550 0.000000 0.270700
O O20 0.750000 0.154162 0.191288
O O21 0.250000 0.434101 0.068987
O O22 0.028824 0.500000 0.094295
O O23 0.000000 0.426022 0.000000
#
# Coordination Sequence:
#
# PCOD9400757 Si02
#       8
#     8   8   8   8   8   8   8   8
#     4  10  19  33  50  69  92 120 154 190 227 271
#     4  10  19  31  48  72  97 121 150 187 229 275
#     4   9  17  29  44  66  91 118 150 183 222 272
#     4   9  18  29  43  67  95 124 160 194 228 268
#     4   9  17  30  46  66  92 119 150 188 230 272
#     4  11  23  36  50  69  92 119 152 189 228 274
#     4  10  19  34  52  69  91 118 149 186 229 277
#     4   9  17  29  44  63  92 129 166 200 229 263
#
# _framework density 15.200364
#
# number of rings (size 3 to 8) (size 9 to 14) (size 15 to 20)
#    0.000    2.375    1.250    1.875    0.000    3.750 
#    0.000    0.000    0.000    0.375    0.000    0.000 
#    0.000    0.500    0.000    1.125    0.000    1.750 
#
# Total GULP energy -356940.334605 kJ/mol
# GULP energy per Si atom -5577.192728 kJ/mol
# Density = 1.516577 g / cm^3
# Si number density = 15.200364 Si / 1000 Ang^3
#
#
#
# Elastic Constant Matrix: (Units=GPa)
#
#
# Indices 1 2 3 4 5 6 
#
# 1 36.8572 40.3658 46.4206 0.0000 0.0000 0.0000
# 2 40.3658 85.8189 61.9810 0.0000 0.0000 0.0000
# 3 46.4206 61.9810 134.0976 0.0000 0.0000 0.0000
# 4 0.0000 0.0000 0.0000 26.2257 0.0000 0.0000
# 5 0.0000 0.0000 0.0000 0.0000 31.0647 0.0000
# 6 0.0000 0.0000 0.0000 0.0000 0.0000 16.6233
#
#
#
# Elastic Compliance Matrix: (Units=1/GPa)
#
#
# Indices 1 2 3 4 5 6 
#
# 1 0.068808 -0.022759 -0.013300 0.000000 0.000000 0.000000
# 2 -0.022759 0.025019 -0.003686 0.000000 0.000000 0.000000
# 3 -0.013300 -0.003686 0.013765 0.000000 0.000000 0.000000
# 4 0.000000 0.000000 0.000000 0.038131 0.000000 0.000000
# 5 0.000000 0.000000 0.000000 0.000000 0.032191 0.000000
# 6 0.000000 0.000000 0.000000 0.000000 0.000000 0.060156
#
#
# Mechanical properties :
#
#
# Convention : Reuss Voigt Hill
#
# Bulk Modulus (GPa) = 35.58318 61.58981 48.58650
# Shear Modulus (GPa) = 15.29393 21.98318 18.63855
#
# Velocity S-wave (km/s) = 3.17544 3.80705 3.50550
# Velocity P-wave (km/s) = 6.07493 7.74154 6.95831
#
# Compressibility (1/GPa) = 0.02810316
#
# Stress axis : x y z
#
# Youngs Moduli (GPa) = 14.53312 39.96922 72.64905
#
# Poissons Ratio (x) = 0.90966 0.96623
# Poissons Ratio (y) = 0.33076 0.26775
# Poissons Ratio (z) = 0.19329 0.14731
#
# Static dielectric constant tensor:
#      x y z
#    x 1.507120 0.000000 0.000000 
#    y 0.000000 1.494340 0.000000 
#    z 0.000000 0.000000 1.493150 
# 
# From -- ./inp_files/28491.got.cif
#   From: 2010.05.17/outbox.cif.g08.bks.cpg/sg51_15_cif.got.tgz:28491.got - 2010.06.03 11:52:47.
