data_PCOD9400148
_publ_section_title
;
Structure prediction by ZEFSAII (Michael W. Deem and Ramdas Pophale) SiO2 
 PCOD9400148
Probable space group: P M M A
;
_chemical_formula_sum "Si O2"
_cell_formula_units_Z 52
_cell_length_a 8.906421
_cell_length_b 18.450973
_cell_length_c 18.646501
_cell_angle_alpha 90.000000
_cell_angle_beta 90.000000
_cell_angle_gamma 90.000000
_cell_volume 3064.219290
_symmetry_space_group_name_H-M "P M M A"
_symmetry_group_IT_number 51
_symmetry_cell_setting 'orthorhombic'
loop_
_space_group_symop_operation_xyz
x,y,z
1/2-x,-y,z
1/2+x,-y,-z
-x,y,-z
-x,-y,-z
1/2+x,y,-z
1/2-x,y,z
x,-y,z
loop_
_atom_site_type_symbol
_atom_site_label
_atom_site_fract_x
_atom_site_fract_y
_atom_site_fract_z
Si Si1 0.571802 0.793480 0.422472
Si Si2 0.079134 0.861283 0.290913
Si Si3 0.570137 0.640007 0.346783
Si Si4 0.431361 0.918912 0.141829
Si Si5 0.077201 0.704770 0.211627
Si Si6 0.570392 0.225300 0.076883
Si Si7 0.929743 0.500000 0.578998
O O1 0.500000 0.804549 0.500000
O O2 0.750000 0.797399 0.428137
O O3 0.515324 0.850142 0.362545
O O4 0.533440 0.712777 0.392549
O O5 0.250000 0.880830 0.309919
O O6 0.026210 0.912460 0.226201
O O7 0.080880 0.782700 0.251954
O O8 0.750000 0.631093 0.347490
O O9 0.510797 0.653356 0.266326
O O10 0.489231 0.571330 0.380919
O O11 0.250000 0.906795 0.138272
O O12 0.513651 0.855140 0.099571
O O13 0.463288 0.000000 0.115623
O O14 0.250000 0.682178 0.200877
O O15 0.993348 0.720522 0.137423
O O16 0.750000 0.226857 0.075111
O O17 0.500000 0.242437 0.000000
O O18 0.250000 0.500000 0.424676
O O19 0.000000 0.500000 0.500000
#
# Coordination Sequence:
#
# PCOD9400148 Si02
#       7
#     8   8   8   8   8   8   4
#     4  10  19  29  45  67  91 119 154 198 245 289
#     4   8  15  28  46  66  89 117 151 193 239 287
#     4  10  20  34  51  73 100 132 168 205 246 296
#     4   9  18  33  51  70  94 126 161 196 240 297
#     4   9  17  32  52  73  97 127 163 202 244 291
#     4  11  21  33  50  74 103 132 163 202 246 290
#     4  12  24  36  50  72 105 144 179 214 254 296
#
# _framework density 16.970065999999999
#
# number of rings (size 3 to 8) (size 9 to 14) (size 15 to 20)
#    0.000    2.308    0.000    4.846    0.000    7.385 
#    0.000    0.000    0.000    0.462    0.000    0.538 
#    0.000    0.000    0.000    0.000    0.000    0.000 
#
# Total GULP energy -290026.714824 kJ/mol
# GULP energy per Si atom -5577.436824 kJ/mol
# Density = 1.693144 g / cm^3
# Si number density = 16.970066 Si / 1000 Ang^3
#
#
#
# Elastic Constant Matrix: (Units=GPa)
#
#
# Indices 1 2 3 4 5 6 
#
# 1 85.2112 17.4772 55.4671 0.0000 0.0000 0.0000
# 2 17.4772 35.0633 23.2209 0.0000 0.0000 0.0000
# 3 55.4671 23.2209 137.7712 0.0000 0.0000 0.0000
# 4 0.0000 0.0000 0.0000 16.7934 0.0000 0.0000
# 5 0.0000 0.0000 0.0000 0.0000 31.4984 0.0000
# 6 0.0000 0.0000 0.0000 0.0000 0.0000 17.3280
#
#
#
# Elastic Compliance Matrix: (Units=1/GPa)
#
#
# Indices 1 2 3 4 5 6 
#
# 1 0.016459 -0.004295 -0.005902 0.000000 0.000000 0.000000
# 2 -0.004295 0.033224 -0.003871 0.000000 0.000000 0.000000
# 3 -0.005902 -0.003871 0.010287 0.000000 0.000000 0.000000
# 4 0.000000 0.000000 0.000000 0.059547 0.000000 0.000000
# 5 0.000000 0.000000 0.000000 0.000000 0.031748 0.000000
# 6 0.000000 0.000000 0.000000 0.000000 0.000000 0.057710
#
#
# Mechanical properties :
#
#
# Convention : Reuss Voigt Hill
#
# Bulk Modulus (GPa) = 31.41310 50.04180 40.72745
# Shear Modulus (GPa) = 20.18395 23.91599 22.04997
#
# Velocity S-wave (km/s) = 3.45249 3.75814 3.60855
# Velocity P-wave (km/s) = 5.86890 6.95585 6.43536
#
# Compressibility (1/GPa) = 0.03183385
#
# Stress axis : x y z
#
# Youngs Moduli (GPa) = 60.75887 30.09875 97.20897
#
# Poissons Ratio (x) = 0.12927 0.57376
# Poissons Ratio (y) = 0.26095 0.37627
# Poissons Ratio (z) = 0.35862 0.11650
#
# Static dielectric constant tensor:
#      x y z
#    x 1.568060 0.000000 0.000000 
#    y 0.000000 1.573580 0.000000 
#    z 0.000000 0.000000 1.574720 
# 
# From -- ./inp_files/27983.got.cif
#   From: 2010.05.17/outbox.cif.g08.bks.cpg/sg51_14_cif.got.tgz:27983.got - 2010.06.03 11:52:47.
