data_PCOD9400440
_publ_section_title
;
Structure prediction by ZEFSAII (Michael W. Deem and Ramdas Pophale) SiO2 
 PCOD9400440
Probable space group: P M M A
;
_chemical_formula_sum "Si O2"
_cell_formula_units_Z 56
_cell_length_a 14.970379
_cell_length_b 16.260120
_cell_length_c 10.264458
_cell_angle_alpha 90.000000
_cell_angle_beta 90.000000
_cell_angle_gamma 90.000000
_cell_volume 2498.575998
_symmetry_space_group_name_H-M "P M M A"
_symmetry_group_IT_number 51
_symmetry_cell_setting 'orthorhombic'
loop_
_space_group_symop_operation_xyz
x,y,z
1/2-x,-y,z
1/2+x,-y,-z
-x,y,-z
-x,-y,-z
1/2+x,y,-z
1/2-x,y,z
x,-y,z
loop_
_atom_site_type_symbol
_atom_site_label
_atom_site_fract_x
_atom_site_fract_y
_atom_site_fract_z
Si Si1 0.859208 0.268666 0.396173
Si Si2 0.647320 0.912638 0.736924
Si Si3 0.143887 0.910638 0.685614
Si Si4 0.146388 0.589679 0.792298
Si Si5 0.141997 0.730405 0.316079
Si Si6 0.896659 0.680983 0.964753
Si Si7 0.893064 0.134483 0.019618
O O1 0.750000 0.264965 0.388280
O O2 0.890983 0.175007 0.373630
O O3 0.892212 0.333038 0.287922
O O4 0.883465 0.298587 0.540603
O O5 0.750000 0.912499 0.690201
O O6 0.607405 0.824716 0.698159
O O7 0.646772 0.909625 0.893881
O O8 0.606358 0.000000 0.696027
O O9 0.250000 0.911633 0.659418
O O10 0.108457 0.000000 0.642743
O O11 0.130562 0.902192 0.841254
O O12 0.250000 0.585063 0.752083
O O13 0.104890 0.500000 0.768912
O O14 0.145133 0.611732 0.944897
O O15 0.250000 0.734450 0.310512
O O16 0.114414 0.678934 0.190043
O O17 0.861666 0.770646 0.010645
O O18 0.000000 0.679220 0.000000
O O19 0.000000 0.132488 0.000000
#
# Coordination Sequence:
#
# PCOD9400440 Si02
#       7
#     8   8   8   8   8   8   8
#     4   9  18  34  54  78 109 141 175 222 271 321
#     4   9  17  28  44  68  98 132 174 222 268 311
#     4  10  19  30  49  77 107 143 185 227 275 328
#     4  10  20  36  61  87 109 139 178 221 274 332
#     4   9  18  33  55  79 106 143 181 221 271 322
#     4  10  20  35  56  81 109 143 181 225 273 322
#     4  10  19  30  47  71 103 143 183 223 268 314
#
# _framework density 22.412766000000001
#
# number of rings (size 3 to 8) (size 9 to 14) (size 15 to 20)
#    0.000    2.429    1.429    1.286    0.000    4.286 
#    0.000    4.286    0.000    3.429    0.000    4.000 
#    0.000    0.000    0.000    0.000    0.000    0.000 
#
# Total GULP energy -312582.675828 kJ/mol
# GULP energy per Si atom -5581.833497 kJ/mol
# Density = 2.236175 g / cm^3
# Si number density = 22.412766 Si / 1000 Ang^3
#
#
#
# Elastic Constant Matrix: (Units=GPa)
#
#
# Indices 1 2 3 4 5 6 
#
# 1 52.0812 4.1413 6.1596 0.0000 0.0000 0.0000
# 2 4.1413 120.6181 52.2902 0.0000 0.0000 0.0000
# 3 6.1596 52.2902 127.6046 0.0000 0.0000 0.0000
# 4 0.0000 0.0000 0.0000 13.7517 0.0000 0.0000
# 5 0.0000 0.0000 0.0000 0.0000 0.8431 0.0000
# 6 0.0000 0.0000 0.0000 0.0000 0.0000 -8.1912
#
#
#
# Elastic Compliance Matrix: (Units=1/GPa)
#
#
# Indices 1 2 3 4 5 6 
#
# 1 0.019321 -0.000315 -0.000804 0.000000 0.000000 0.000000
# 2 -0.000315 0.010087 -0.004118 0.000000 0.000000 0.000000
# 3 -0.000804 -0.004118 0.009563 0.000000 0.000000 0.000000
# 4 0.000000 0.000000 0.000000 0.072718 0.000000 0.000000
# 5 0.000000 0.000000 0.000000 0.000000 1.186031 0.000000
# 6 0.000000 0.000000 0.000000 0.000000 0.000000 -0.122082
#
#
# Mechanical properties :
#
#
# Convention : Reuss Voigt Hill
#
# Bulk Modulus (GPa) = 35.09116 47.27623 41.18369
# Shear Modulus (GPa) = 4.18197 17.12825 10.65511
#
# Velocity S-wave (km/s) = 1.36746 2.76745 2.18274
# Velocity P-wave (km/s) = 4.26427 5.59919 4.97669
#
# Compressibility (1/GPa) = 0.02849721
#
# Stress axis : x y z
#
# Youngs Moduli (GPa) = 51.75753 99.13989 104.56907
#
# Poissons Ratio (x) = 0.03123 0.08403
# Poissons Ratio (y) = 0.01630 0.43063
# Poissons Ratio (z) = 0.04159 0.40828
#
# Static dielectric constant tensor:
#      x y z
#    x 1.886280 0.000000 0.000000 
#    y 0.000000 1.856880 0.000000 
#    z 0.000000 0.000000 1.808590 
# 
# From -- ./inp_files/10957.got.cif
#   From: 2010.05.17/outbox.cif.g08.bks.cpg/sg51_6_cif.got.tgz:10957.got - 2010.06.03 11:52:47.
