data_PCOD9400655
_publ_section_title
;
Structure prediction by ZEFSAII (Michael W. Deem and Ramdas Pophale) SiO2 
 PCOD9400655
Probable space group: P M M A
;
_chemical_formula_sum "Si O2"
_cell_formula_units_Z 40
_cell_length_a 27.437146
_cell_length_b 7.572248
_cell_length_c 9.674208
_cell_angle_alpha 90.000000
_cell_angle_beta 90.000000
_cell_angle_gamma 90.000000
_cell_volume 2009.921909
_symmetry_space_group_name_H-M "P M M A"
_symmetry_group_IT_number 51
_symmetry_cell_setting 'orthorhombic'
loop_
_space_group_symop_operation_xyz
x,y,z
1/2-x,-y,z
1/2+x,-y,-z
-x,y,-z
-x,-y,-z
1/2+x,y,-z
1/2-x,y,z
x,-y,z
loop_
_atom_site_type_symbol
_atom_site_label
_atom_site_fract_x
_atom_site_fract_y
_atom_site_fract_z
Si Si1 0.946400 0.216084 0.837832
Si Si2 0.250000 0.216676 0.364734
Si Si3 0.855500 0.794621 0.665887
Si Si4 0.555009 0.212808 0.157294
Si Si5 0.353628 0.291995 0.652804
Si Si6 0.250000 0.702345 0.689260
O O1 0.902380 0.281904 0.742813
O O2 0.001029 0.272774 0.796348
O O3 0.947016 0.000000 0.833026
O O4 0.938544 0.267263 0.997592
O O5 0.301336 0.275899 0.300581
O O6 0.250000 0.286589 0.521754
O O7 0.250000 0.000000 0.371960
O O8 0.861144 0.785468 0.500064
O O9 0.854013 0.000000 0.705878
O O10 0.599318 0.269129 0.253004
O O11 0.554565 0.000000 0.158306
O O12 0.345443 0.500000 0.631052
O O13 0.303426 0.219900 0.721868
O O14 0.250000 0.500000 0.739722
#
# Coordination Sequence:
#
# PCOD9400655 Si02
#       6
#     8   4   8   8   8   4
#     4   8  16  31  50  67  89 122 156 185 223 272
#     4   8  14  24  43  68  90 110 142 186 227 262
#     4   9  16  29  48  69  90 116 149 187 226 267
#     4   9  17  32  50  67  89 122 157 187 221 269
#     4  10  19  31  47  69  93 119 150 187 226 268
#     4   8  16  30  45  60  88 124 150 174 219 274
#
# _framework density 19.901271999999999
#
# number of rings (size 3 to 8) (size 9 to 14) (size 15 to 20)
#    0.000    3.200    0.000    1.800    0.000    1.600 
#    0.000    9.000    0.000    2.400    0.000    4.200 
#    0.000    0.000    0.000    0.000    0.000    0.000 
#
# Total GULP energy -222732.058894 kJ/mol
# GULP energy per Si atom -5568.301472 kJ/mol
# Density = 1.985598 g / cm^3
# Si number density = 19.901272 Si / 1000 Ang^3
#
#
#
# Elastic Constant Matrix: (Units=GPa)
#
#
# Indices 1 2 3 4 5 6 
#
# 1 248.4275 1.5801 84.3120 0.0000 0.0000 0.0000
# 2 1.5801 45.8766 -5.2754 0.0000 0.0000 0.0000
# 3 84.3120 -5.2754 43.1238 0.0000 0.0000 0.0000
# 4 0.0000 0.0000 0.0000 -529.0719 0.0000 0.0000
# 5 0.0000 0.0000 0.0000 0.0000 -55.7467 0.0000
# 6 0.0000 0.0000 0.0000 0.0000 0.0000 8.9001
#
#
#
# Elastic Compliance Matrix: (Units=1/GPa)
#
#
# Indices 1 2 3 4 5 6 
#
# 1 0.012428 -0.003268 -0.024699 0.000000 0.000000 0.000000
# 2 -0.003268 0.022968 0.009199 0.000000 0.000000 0.000000
# 3 -0.024699 0.009199 0.072604 0.000000 0.000000 0.000000
# 4 0.000000 0.000000 0.000000 -0.001890 0.000000 0.000000
# 5 0.000000 0.000000 0.000000 0.000000 -0.017938 0.000000
# 6 0.000000 0.000000 0.000000 0.000000 0.000000 0.112358
#
#
# Mechanical properties :
#
#
# Convention : Reuss Voigt Hill
#
# Bulk Modulus (GPa) = 14.19150 55.40682 34.79916
# Shear Modulus (GPa) = 19.11657 -98.06296 -39.47319
#
# Velocity S-wave (km/s) = 3.10267 -7.02721 -4.45843
# Velocity P-wave (km/s) = 4.47011 6.15962 2.99659
#
# Compressibility (1/GPa) = 0.07046471
#
# Stress axis : x y z
#
# Youngs Moduli (GPa) = 80.46031 43.53877 13.77342
#
# Poissons Ratio (x) = 0.14229 0.34019
# Poissons Ratio (y) = 0.26296 -0.12671
# Poissons Ratio (z) = 1.98728 -0.40053
#
# Static dielectric constant tensor:
#      x y z
#    x 1.776910 0.000000 0.000000 
#    y 0.000000 1.763340 0.000000 
#    z 0.000000 0.000000 1.640630 
# 
# From -- ./inp_files/12186.got.cif
#   From: 2010.05.17/outbox.cif.g08.bks.cpg/sg51_7_cif.got.tgz:12186.got - 2010.06.03 11:52:47.
