data_PCOD9400284
_publ_section_title
;
Structure prediction by ZEFSAII (Michael W. Deem and Ramdas Pophale) SiO2 
 PCOD9400284
Probable space group: P M M A
;
_chemical_formula_sum "Si O2"
_cell_formula_units_Z 56
_cell_length_a 25.218007
_cell_length_b 9.062844
_cell_length_c 16.379965
_cell_angle_alpha 90.000000
_cell_angle_beta 90.000000
_cell_angle_gamma 90.000000
_cell_volume 3743.589624
_symmetry_space_group_name_H-M "P M M A"
_symmetry_group_IT_number 51
_symmetry_cell_setting 'orthorhombic'
loop_
_space_group_symop_operation_xyz
x,y,z
1/2-x,-y,z
1/2+x,-y,-z
-x,y,-z
-x,-y,-z
1/2+x,y,-z
1/2-x,y,z
x,-y,z
loop_
_atom_site_type_symbol
_atom_site_label
_atom_site_fract_x
_atom_site_fract_y
_atom_site_fract_z
Si Si1 0.810294 0.322618 0.915457
Si Si2 0.086244 0.176853 0.019659
Si Si3 0.987858 0.822394 0.132702
Si Si4 0.402020 0.176683 0.377964
Si Si5 0.008067 0.675624 0.693603
Si Si6 0.056879 0.169646 0.546725
Si Si7 0.812104 0.325619 0.724116
O O1 0.750000 0.275839 0.936525
O O2 0.812203 0.500000 0.922444
O O3 0.857358 0.251562 0.966779
O O4 0.819486 0.287109 0.819675
O O5 0.044382 0.217653 0.091237
O O6 0.092017 0.000000 0.022582
O O7 0.056955 0.213099 0.934628
O O8 0.979837 0.740544 0.217512
O O9 0.987848 0.000000 0.144729
O O10 0.451891 0.255547 0.335029
O O11 0.403172 0.214279 0.474557
O O12 0.349697 0.230245 0.332726
O O13 0.409101 0.000000 0.371919
O O14 0.004727 0.500000 0.695158
O O15 0.050215 0.729504 0.625586
O O16 0.000000 0.171877 0.500000
O O17 0.066733 0.000000 0.571361
O O18 0.750000 0.305465 0.705534
O O19 0.824494 0.500000 0.714942
#
# Coordination Sequence:
#
# PCOD9400284 Si02
#       7
#     8   8   8   8   8   8   8
#     4   9  18  31  45  63  90 121 149 181 221 261
#     4   9  18  31  47  66  87 116 152 185 219 263
#     4   9  18  32  46  63  91 120 146 182 226 267
#     4  10  19  30  45  64  88 119 150 180 217 257
#     4  11  20  28  43  67  90 115 148 180 215 261
#     4   8  16  30  44  60  85 115 144 175 212 252
#     4   9  18  31  45  64  91 120 149 180 215 256
#
# _framework density 14.958905
#
# number of rings (size 3 to 8) (size 9 to 14) (size 15 to 20)
#    0.000    2.714    0.000    5.143    0.000    7.714 
#    0.000    2.857    0.000    0.000    0.000    1.000 
#    0.000    8.000    0.000    0.000    0.000    0.000 
#
# Total GULP energy -312095.170260 kJ/mol
# GULP energy per Si atom -5573.128040 kJ/mol
# Density = 1.492486 g / cm^3
# Si number density = 14.958905 Si / 1000 Ang^3
#
#
#
# Elastic Constant Matrix: (Units=GPa)
#
#
# Indices 1 2 3 4 5 6 
#
# 1 82.6925 38.8056 52.2015 0.0000 0.0000 0.0000
# 2 38.8056 57.8082 57.1793 0.0000 0.0000 0.0000
# 3 52.2015 57.1793 105.4466 0.0000 0.0000 0.0000
# 4 0.0000 0.0000 0.0000 15.5597 0.0000 0.0000
# 5 0.0000 0.0000 0.0000 0.0000 21.8636 0.0000
# 6 0.0000 0.0000 0.0000 0.0000 0.0000 25.9115
#
#
#
# Elastic Compliance Matrix: (Units=1/GPa)
#
#
# Indices 1 2 3 4 5 6 
#
# 1 0.018962 -0.007428 -0.005359 0.000000 0.000000 0.000000
# 2 -0.007428 0.040220 -0.018132 0.000000 0.000000 0.000000
# 3 -0.005359 -0.018132 0.021969 0.000000 0.000000 0.000000
# 4 0.000000 0.000000 0.000000 0.064268 0.000000 0.000000
# 5 0.000000 0.000000 0.000000 0.000000 0.045738 0.000000
# 6 0.000000 0.000000 0.000000 0.000000 0.000000 0.038593
#
#
# Mechanical properties :
#
#
# Convention : Reuss Voigt Hill
#
# Bulk Modulus (GPa) = 51.78187 60.25779 56.01983
# Shear Modulus (GPa) = 16.77702 19.18435 17.98069
#
# Velocity S-wave (km/s) = 3.35257 3.58504 3.47076
# Velocity P-wave (km/s) = 7.04823 7.58330 7.32065
#
# Compressibility (1/GPa) = 0.01931178
#
# Stress axis : x y z
#
# Youngs Moduli (GPa) = 52.73747 24.86336 45.51845
#
# Poissons Ratio (x) = 0.18468 0.24395
# Poissons Ratio (y) = 0.39172 0.82536
# Poissons Ratio (z) = 0.28264 0.45083
#
# Static dielectric constant tensor:
#      x y z
#    x 1.488050 0.000000 0.000000 
#    y 0.000000 1.495430 0.000000 
#    z 0.000000 0.000000 1.496390 
# 
# From -- ./inp_files/30772.got.cif
#   From: 2010.05.17/outbox.cif.g08.bks.cpg/sg51_16_cif.got.tgz:30772.got - 2010.06.03 11:52:47.
