data_PCOD9400766
_publ_section_title
;
Structure prediction by ZEFSAII (Michael W. Deem and Ramdas Pophale) SiO2 
 PCOD9400766
Probable space group: P M M A
;
_chemical_formula_sum "Si O2"
_cell_formula_units_Z 56
_cell_length_a 18.279731
_cell_length_b 8.831544
_cell_length_c 20.137413
_cell_angle_alpha 90.000000
_cell_angle_beta 90.000000
_cell_angle_gamma 90.000000
_cell_volume 3250.948687
_symmetry_space_group_name_H-M "P M M A"
_symmetry_group_IT_number 51
_symmetry_cell_setting 'orthorhombic'
loop_
_space_group_symop_operation_xyz
x,y,z
1/2-x,-y,z
1/2+x,-y,-z
-x,y,-z
-x,-y,-z
1/2+x,y,-z
1/2-x,y,z
x,-y,z
loop_
_atom_site_type_symbol
_atom_site_label
_atom_site_fract_x
_atom_site_fract_y
_atom_site_fract_z
Si Si1 0.166142 0.316985 0.160993
Si Si2 0.538253 0.816505 0.345343
Si Si3 0.043779 0.181063 0.935020
Si Si4 0.428077 0.173335 0.452854
Si Si5 0.836713 0.673803 0.990650
Si Si6 0.021177 0.817053 0.204779
Si Si7 0.834816 0.318830 0.436291
O O1 0.250000 0.272928 0.176638
O O2 0.163342 0.500000 0.161898
O O3 0.149657 0.268548 0.084567
O O4 0.103175 0.248034 0.206299
O O5 0.464136 0.768929 0.384744
O O6 0.526625 0.774597 0.268810
O O7 0.609642 0.749505 0.381386
O O8 0.542286 0.000000 0.351270
O O9 0.014787 0.236864 0.864405
O O10 0.037226 0.000000 0.933927
O O11 0.125336 0.229413 0.952824
O O12 0.000000 0.238338 0.000000
O O13 0.500000 0.170302 0.500000
O O14 0.367362 0.266235 0.492503
O O15 0.402755 0.000000 0.444514
O O16 0.750000 0.673092 0.998202
O O17 0.862802 0.500000 0.994526
O O18 0.025473 0.000000 0.203895
O O19 0.750000 0.271073 0.428238
O O20 0.837925 0.500000 0.432306
#
# Coordination Sequence:
#
# PCOD9400766 Si02
#       7
#     8   8   8   8   8   8   8
#     4   9  18  32  49  70  95 124 162 206 253 307
#     4   9  19  35  53  74 102 137 173 207 245 295
#     4  10  19  31  48  73  99 125 164 213 260 304
#     4   8  15  30  52  75  97 125 164 202 237 284
#     4   9  18  32  49  69  93 123 162 208 256 306
#     4  10  20  34  51  73 102 134 170 211 254 302
#     4  10  20  33  52  80 108 133 165 204 245 292
#
# _framework density 17.225742
#
# number of rings (size 3 to 8) (size 9 to 14) (size 15 to 20)
#    0.000    2.714    1.429    2.143    0.000    5.714 
#    0.000    2.857    0.000    8.571    0.000    0.000 
#    0.000    0.000    0.000    0.000    0.000    0.000 
#
# Total GULP energy -311826.649713 kJ/mol
# GULP energy per Si atom -5568.333031 kJ/mol
# Density = 1.718654 g / cm^3
# Si number density = 17.225742 Si / 1000 Ang^3
#
#
#
# Elastic Constant Matrix: (Units=GPa)
#
#
# Indices 1 2 3 4 5 6 
#
# 1 105.2718 28.5920 57.2393 0.0000 0.0000 0.0000
# 2 28.5920 12.8188 27.6778 0.0000 0.0000 0.0000
# 3 57.2393 27.6778 107.0775 0.0000 0.0000 0.0000
# 4 0.0000 0.0000 0.0000 13.0241 0.0000 0.0000
# 5 0.0000 0.0000 0.0000 0.0000 22.3817 0.0000
# 6 0.0000 0.0000 0.0000 0.0000 0.0000 30.7041
#
#
#
# Elastic Compliance Matrix: (Units=1/GPa)
#
#
# Indices 1 2 3 4 5 6 
#
# 1 0.024348 -0.059301 0.002313 0.000000 0.000000 0.000000
# 2 -0.059301 0.320968 -0.051265 0.000000 0.000000 0.000000
# 3 0.002313 -0.051265 0.021354 0.000000 0.000000 0.000000
# 4 0.000000 0.000000 0.000000 0.076781 0.000000 0.000000
# 5 0.000000 0.000000 0.000000 0.000000 0.044679 0.000000
# 6 0.000000 0.000000 0.000000 0.000000 0.000000 0.032569
#
#
# Mechanical properties :
#
#
# Convention : Reuss Voigt Hill
#
# Bulk Modulus (GPa) = 6.65941 50.24291 28.45116
# Shear Modulus (GPa) = 6.35114 20.66591 13.50852
#
# Velocity S-wave (km/s) = 1.92224 3.46744 2.80341
# Velocity P-wave (km/s) = 2.96665 6.72767 5.19916
#
# Compressibility (1/GPa) = 0.15016348
#
# Stress axis : x y z
#
# Youngs Moduli (GPa) = 41.07123 3.11557 46.83023
#
# Poissons Ratio (x) = 0.18476 -0.10832
# Poissons Ratio (y) = 2.43558 2.40075
# Poissons Ratio (z) = -0.09500 0.15972
#
# Static dielectric constant tensor:
#      x y z
#    x 1.598900 0.000000 0.000000 
#    y 0.000000 1.585040 0.000000 
#    z 0.000000 0.000000 1.610690 
# 
# From -- ./inp_files/33716.got.cif
#   From: 2010.05.17/outbox.cif.g08.bks.cpg/sg51_17_cif.got.tgz:33716.got - 2010.06.03 11:52:47.
