data_PCOD9400360
_publ_section_title
;
Structure prediction by ZEFSAII (Michael W. Deem and Ramdas Pophale) SiO2 
 PCOD9400360
Probable space group: P M M A
;
_chemical_formula_sum "Si O2"
_cell_formula_units_Z 64
_cell_length_a 15.546757
_cell_length_b 14.837551
_cell_length_c 16.510130
_cell_angle_alpha 90.000000
_cell_angle_beta 90.000000
_cell_angle_gamma 90.000000
_cell_volume 3808.487444
_symmetry_space_group_name_H-M "P M M A"
_symmetry_group_IT_number 51
_symmetry_cell_setting 'orthorhombic'
loop_
_space_group_symop_operation_xyz
x,y,z
1/2-x,-y,z
1/2+x,-y,-z
-x,y,-z
-x,-y,-z
1/2+x,y,-z
1/2-x,y,z
x,-y,z
loop_
_atom_site_type_symbol
_atom_site_label
_atom_site_fract_x
_atom_site_fract_y
_atom_site_fract_z
Si Si1 0.652332 0.322355 0.137595
Si Si2 0.652449 0.903841 0.471593
Si Si3 0.464210 0.253513 0.589038
Si Si4 0.154667 0.894372 0.170632
Si Si5 0.907925 0.103095 0.651146
Si Si6 0.150049 0.395069 0.043746
Si Si7 0.478607 0.760018 0.092390
Si Si8 0.650843 0.394833 0.316612
O O1 0.750000 0.282567 0.136730
O O2 0.569865 0.256828 0.135901
O O3 0.645908 0.379594 0.219680
O O4 0.644188 0.377396 0.053329
O O5 0.750000 0.905450 0.445713
O O6 0.606963 0.820006 0.433258
O O7 0.646100 0.897216 0.568476
O O8 0.610514 0.000000 0.450163
O O9 0.500000 0.282743 0.500000
O O10 0.531054 0.190573 0.639102
O O11 0.419485 0.333036 0.638898
O O12 0.250000 0.864273 0.144470
O O13 0.146016 0.886323 0.267480
O O14 0.079644 0.835718 0.132448
O O15 0.145713 0.000000 0.150234
O O16 0.946060 0.000000 0.656642
O O17 0.250000 0.375279 0.066386
O O18 0.133002 0.500000 0.060136
O O19 0.080644 0.330273 0.086206
O O20 0.500000 0.784783 0.000000
O O21 0.750000 0.370924 0.340212
O O22 0.637711 0.500000 0.334775
#
# Coordination Sequence:
#
# PCOD9400360 Si02
#       8
#     8   8   8   8   8   8   8   8
#     4   9  18  32  50  71  95 124 158 197 240 283
#     4   9  16  27  45  69  95 121 149 184 229 279
#     4  10  19  30  46  68  94 121 150 188 234 280
#     4  10  20  34  52  72  95 126 163 199 232 272
#     4   9  17  30  48  70  94 119 150 189 233 278
#     4   9  17  30  49  74 102 128 155 192 240 290
#     4  10  20  32  50  73  99 127 157 195 240 287
#     4  10  20  33  48  65  88 121 159 195 228 268
#
# _framework density 16.804570999999999
#
# number of rings (size 3 to 8) (size 9 to 14) (size 15 to 20)
#    0.000    2.500    0.000    2.625    0.000    8.250 
#    0.000    0.000    0.000    0.375    0.000    3.500 
#    0.000    8.000    0.000    0.000    0.000    0.000 
#
# Total GULP energy -356290.248206 kJ/mol
# GULP energy per Si atom -5567.035128 kJ/mol
# Density = 1.676632 g / cm^3
# Si number density = 16.804571 Si / 1000 Ang^3
#
#
#
# Elastic Constant Matrix: (Units=GPa)
#
#
# Indices 1 2 3 4 5 6 
#
# 1 107.2034 52.1436 24.8849 0.0000 0.0000 0.0000
# 2 52.1436 75.6240 24.4352 0.0000 0.0000 0.0000
# 3 24.8849 24.4352 26.7473 0.0000 0.0000 0.0000
# 4 0.0000 0.0000 0.0000 9.8230 0.0000 0.0000
# 5 0.0000 0.0000 0.0000 0.0000 16.1222 0.0000
# 6 0.0000 0.0000 0.0000 0.0000 0.0000 25.2561
#
#
#
# Elastic Compliance Matrix: (Units=1/GPa)
#
#
# Indices 1 2 3 4 5 6 
#
# 1 0.014744 -0.008135 -0.006285 0.000000 0.000000 0.000000
# 2 -0.008135 0.023250 -0.013671 0.000000 0.000000 0.000000
# 3 -0.006285 -0.013671 0.055724 0.000000 0.000000 0.000000
# 4 0.000000 0.000000 0.000000 0.101802 0.000000 0.000000
# 5 0.000000 0.000000 0.000000 0.000000 0.062026 0.000000
# 6 0.000000 0.000000 0.000000 0.000000 0.000000 0.039594
#
#
# Mechanical properties :
#
#
# Convention : Reuss Voigt Hill
#
# Bulk Modulus (GPa) = 26.64238 45.83359 36.23798
# Shear Modulus (GPa) = 13.66728 17.44765 15.55747
#
# Velocity S-wave (km/s) = 2.85495 3.22571 3.04598
# Velocity P-wave (km/s) = 5.17265 6.41929 5.82939
#
# Compressibility (1/GPa) = 0.03753419
#
# Stress axis : x y z
#
# Youngs Moduli (GPa) = 67.82376 43.01045 17.94550
#
# Poissons Ratio (x) = 0.34990 0.11279
# Poissons Ratio (y) = 0.55177 0.24534
# Poissons Ratio (z) = 0.42630 0.58802
#
# Static dielectric constant tensor:
#      x y z
#    x 1.597960 0.000000 0.000000 
#    y 0.000000 1.555220 0.000000 
#    z 0.000000 0.000000 1.554250 
# 
# From -- ./inp_files/29886.got.cif
#   From: 2010.05.17/outbox.cif.g08.bks.cpg/sg51_15_cif.got.tgz:29886.got - 2010.06.03 11:52:47.
