data_PCOD9400646
_publ_section_title
;
Structure prediction by ZEFSAII (Michael W. Deem and Ramdas Pophale) SiO2 
 PCOD9400646
Probable space group: P M M A
;
_chemical_formula_sum "Si O2"
_cell_formula_units_Z 36
_cell_length_a 8.851380
_cell_length_b 12.698798
_cell_length_c 20.078706
_cell_angle_alpha 90.000000
_cell_angle_beta 90.000000
_cell_angle_gamma 90.000000
_cell_volume 2256.884436
_symmetry_space_group_name_H-M "P M M A"
_symmetry_group_IT_number 51
_symmetry_cell_setting 'orthorhombic'
loop_
_space_group_symop_operation_xyz
x,y,z
1/2-x,-y,z
1/2+x,-y,-z
-x,y,-z
-x,-y,-z
1/2+x,y,-z
1/2-x,y,z
x,-y,z
loop_
_atom_site_type_symbol
_atom_site_label
_atom_site_fract_x
_atom_site_fract_y
_atom_site_fract_z
Si Si1 0.072401 0.873114 0.291820
Si Si2 0.929794 0.194355 0.156099
Si Si3 0.075650 0.128138 0.568909
Si Si4 0.570729 0.375374 0.927788
Si Si5 0.568528 0.000000 0.926020
O O1 0.250000 0.850719 0.284639
O O2 0.979812 0.821082 0.232273
O O3 0.013578 0.840667 0.364638
O O4 0.053018 0.000000 0.286315
O O5 0.750000 0.185364 0.149478
O O6 0.989034 0.303834 0.126417
O O7 0.009390 0.101995 0.113559
O O8 0.250000 0.160733 0.572530
O O9 0.000000 0.163844 0.500000
O O10 0.073166 0.000000 0.567708
O O11 0.750000 0.353640 0.928701
O O12 0.549082 0.500000 0.915994
O O13 0.500000 0.350442 0.000000
O O14 0.750000 0.000000 0.928354
O O15 0.500000 0.000000 0.000000
#
# Coordination Sequence:
#
# PCOD9400646 Si02
#       5
#     8   8   8   8   4
#     4  10  19  31  47  67  96 132 167 204 246 294
#     4  12  23  35  52  74 101 131 165 205 250 300
#     4   9  16  26  41  62  90 125 166 205 241 286
#     4  10  21  38  58  77  98 126 163 207 254 301
#     4  12  24  38  52  70  97 130 167 204 244 296
#
# _framework density 15.951193
#
# number of rings (size 3 to 8) (size 9 to 14) (size 15 to 20)
#    0.000    1.556    1.111    5.667    0.000    4.889 
#    0.000    0.000    0.000    0.000    0.000    0.000 
#    0.000    0.889    0.000    3.333    0.000    5.111 
#
# Total GULP energy -201067.841270 kJ/mol
# GULP energy per Si atom -5585.217813 kJ/mol
# Density = 1.591489 g / cm^3
# Si number density = 15.951193 Si / 1000 Ang^3
#
#
#
# Elastic Constant Matrix: (Units=GPa)
#
#
# Indices 1 2 3 4 5 6 
#
# 1 148.2333 40.4973 68.1959 0.0000 0.0000 0.0000
# 2 40.4973 31.9695 36.9929 0.0000 0.0000 0.0000
# 3 68.1959 36.9929 133.9773 0.0000 0.0000 0.0000
# 4 0.0000 0.0000 0.0000 6.7508 0.0000 0.0000
# 5 0.0000 0.0000 0.0000 0.0000 34.6795 0.0000
# 6 0.0000 0.0000 0.0000 0.0000 0.0000 20.2344
#
#
#
# Elastic Compliance Matrix: (Units=1/GPa)
#
#
# Indices 1 2 3 4 5 6 
#
# 1 0.010877 -0.010833 -0.002545 0.000000 0.000000 0.000000
# 2 -0.010833 0.056755 -0.010157 0.000000 0.000000 0.000000
# 3 -0.002545 -0.010157 0.011564 0.000000 0.000000 0.000000
# 4 0.000000 0.000000 0.000000 0.148131 0.000000 0.000000
# 5 0.000000 0.000000 0.000000 0.000000 0.028835 0.000000
# 6 0.000000 0.000000 0.000000 0.000000 0.000000 0.049421
#
#
# Mechanical properties :
#
#
# Convention : Reuss Voigt Hill
#
# Bulk Modulus (GPa) = 31.12749 67.28358 49.20554
# Shear Modulus (GPa) = 13.76040 23.56586 18.66313
#
# Velocity S-wave (km/s) = 2.94029 3.84783 3.42426
# Velocity P-wave (km/s) = 5.57527 7.87487 6.82265
#
# Compressibility (1/GPa) = 0.03212594
#
# Stress axis : x y z
#
# Youngs Moduli (GPa) = 91.94066 17.61959 86.47566
#
# Poissons Ratio (x) = 0.19087 0.22010
# Poissons Ratio (y) = 0.99597 0.87832
# Poissons Ratio (z) = 0.23401 0.17896
#
# Static dielectric constant tensor:
#      x y z
#    x 1.531630 0.000000 0.000000 
#    y 0.000000 1.511910 0.000000 
#    z 0.000000 0.000000 1.523720 
# 
# From -- ./inp_files/26998.got.cif
#   From: 2010.05.17/outbox.cif.g08.bks.cpg/sg51_14_cif.got.tgz:26998.got - 2010.06.03 11:52:47.
