data_PCOD9400719
_publ_section_title
;
Structure prediction by ZEFSAII (Michael W. Deem and Ramdas Pophale) SiO2 
 PCOD9400719
Probable space group: P M M A
;
_chemical_formula_sum "Si O2"
_cell_formula_units_Z 64
_cell_length_a 8.863937
_cell_length_b 24.115597
_cell_length_c 19.506430
_cell_angle_alpha 90.000000
_cell_angle_beta 90.000000
_cell_angle_gamma 90.000000
_cell_volume 4169.677555
_symmetry_space_group_name_H-M "P M M A"
_symmetry_group_IT_number 51
_symmetry_cell_setting 'orthorhombic'
loop_
_space_group_symop_operation_xyz
x,y,z
1/2-x,-y,z
1/2+x,-y,-z
-x,y,-z
-x,-y,-z
1/2+x,y,-z
1/2-x,y,z
x,-y,z
loop_
_atom_site_type_symbol
_atom_site_label
_atom_site_fract_x
_atom_site_fract_y
_atom_site_fract_z
Si Si1 0.432198 0.833330 0.835541
Si Si2 0.070851 0.743287 0.572950
Si Si3 0.429926 0.564246 0.288823
Si Si4 0.068287 0.063561 0.925958
Si Si5 0.429196 0.389588 0.572894
Si Si6 0.930106 0.769339 0.713774
Si Si7 0.069775 0.273633 0.925656
Si Si8 0.568781 0.663642 0.208397
O O1 0.250000 0.831368 0.826673
O O2 0.475848 0.891879 0.868672
O O3 0.510073 0.817218 0.764375
O O4 0.473015 0.784752 0.889838
O O5 0.250000 0.752550 0.573362
O O6 0.045865 0.676751 0.580996
O O7 0.000000 0.759200 0.500000
O O8 0.992936 0.773026 0.636948
O O9 0.250000 0.572698 0.288565
O O10 0.461869 0.500000 0.274111
O O11 0.493922 0.579992 0.363568
O O12 0.506421 0.605669 0.234952
O O13 0.250000 0.065547 0.931518
O O14 0.024137 0.000000 0.910245
O O15 0.000000 0.078232 0.000000
O O16 0.500000 0.406135 0.500000
O O17 0.250000 0.399397 0.572973
O O18 0.750000 0.766999 0.714041
O O19 0.997642 0.712441 0.745458
O O20 0.250000 0.273344 0.932471
O O21 0.029783 0.320715 0.869930
O O22 0.000000 0.280379 0.000000
O O23 0.750000 0.665966 0.216057
#
# Coordination Sequence:
#
# PCOD9400719 Si02
#       8
#     8   8   8   8   8   8   8   8
#     4   9  18  31  45  66  99 132 164 202 238 280
#     4  10  19  31  48  70  96 126 157 190 230 282
#     4  11  23  36  51  71  93 118 152 193 232 276
#     4   9  17  29  46  68  97 136 176 211 246 283
#     4  10  20  33  51  70  93 124 155 189 228 274
#     4  11  20  30  48  71  95 124 158 197 239 282
#     4   9  18  30  47  70  94 119 149 187 234 280
#     4  10  20  35  51  69  93 121 151 186 232 286
#
# _framework density 15.348909000000001
#
# number of rings (size 3 to 8) (size 9 to 14) (size 15 to 20)
#    0.000    2.125    1.250    3.750    0.000    5.250 
#    0.000    0.000    0.000    0.375    0.000    0.000 
#    0.000    0.500    0.000    1.375    0.000    2.000 
#
# Total GULP energy -357123.677060 kJ/mol
# GULP energy per Si atom -5580.057454 kJ/mol
# Density = 1.531397 g / cm^3
# Si number density = 15.348909 Si / 1000 Ang^3
#
#
#
# Elastic Constant Matrix: (Units=GPa)
#
#
# Indices 1 2 3 4 5 6 
#
# 1 59.1232 45.4207 56.2727 0.0000 0.0000 0.0000
# 2 45.4207 82.6093 63.7428 0.0000 0.0000 0.0000
# 3 56.2727 63.7428 141.1486 0.0000 0.0000 0.0000
# 4 0.0000 0.0000 0.0000 25.4435 0.0000 0.0000
# 5 0.0000 0.0000 0.0000 0.0000 31.6949 0.0000
# 6 0.0000 0.0000 0.0000 0.0000 0.0000 16.7953
#
#
#
# Elastic Compliance Matrix: (Units=1/GPa)
#
#
# Indices 1 2 3 4 5 6 
#
# 1 0.034187 -0.012708 -0.007890 0.000000 0.000000 0.000000
# 2 -0.012708 0.023304 -0.005457 0.000000 0.000000 0.000000
# 3 -0.007890 -0.005457 0.012695 0.000000 0.000000 0.000000
# 4 0.000000 0.000000 0.000000 0.039303 0.000000 0.000000
# 5 0.000000 0.000000 0.000000 0.000000 0.031551 0.000000
# 6 0.000000 0.000000 0.000000 0.000000 0.000000 0.059541
#
#
# Mechanical properties :
#
#
# Convention : Reuss Voigt Hill
#
# Bulk Modulus (GPa) = 55.33081 68.19480 61.76280
# Shear Modulus (GPa) = 19.32618 22.61640 20.97129
#
# Velocity S-wave (km/s) = 3.55226 3.84277 3.70037
# Velocity P-wave (km/s) = 7.27679 8.01345 7.65399
#
# Compressibility (1/GPa) = 0.01807311
#
# Stress axis : x y z
#
# Youngs Moduli (GPa) = 29.25093 42.91185 78.77125
#
# Poissons Ratio (x) = 0.54534 0.62154
# Poissons Ratio (y) = 0.37173 0.42988
# Poissons Ratio (z) = 0.23080 0.23418
#
# Static dielectric constant tensor:
#      x y z
#    x 1.509340 0.000000 0.000000 
#    y 0.000000 1.502670 0.000000 
#    z 0.000000 0.000000 1.500270 
# 
# From -- ./inp_files/28616.got.cif
#   From: 2010.05.17/outbox.cif.g08.bks.cpg/sg51_15_cif.got.tgz:28616.got - 2010.06.03 11:52:47.
