data_PCOD9400932
_publ_section_title
;
Structure prediction by ZEFSAII (Michael W. Deem and Ramdas Pophale) SiO2 
 PCOD9400932
Probable space group: P M M A
;
_chemical_formula_sum "Si O2"
_cell_formula_units_Z 44
_cell_length_a 8.643211
_cell_length_b 29.623751
_cell_length_c 9.933278
_cell_angle_alpha 90.000000
_cell_angle_beta 90.000000
_cell_angle_gamma 90.000000
_cell_volume 2543.359515
_symmetry_space_group_name_H-M "P M M A"
_symmetry_group_IT_number 51
_symmetry_cell_setting 'orthorhombic'
loop_
_space_group_symop_operation_xyz
x,y,z
1/2-x,-y,z
1/2+x,-y,-z
-x,y,-z
-x,-y,-z
1/2+x,y,-z
1/2-x,y,z
x,-y,z
loop_
_atom_site_type_symbol
_atom_site_label
_atom_site_fract_x
_atom_site_fract_y
_atom_site_fract_z
Si Si1 0.436124 0.000000 0.151634
Si Si2 0.563307 0.548445 0.847515
Si Si3 0.064015 0.352489 0.151962
Si Si4 0.435344 0.826150 0.648859
Si Si5 0.435999 0.901136 0.152045
Si Si6 0.435349 0.722476 0.648857
O O1 0.483025 0.048950 0.208103
O O2 0.250000 0.000000 0.147651
O O3 0.500000 0.000000 0.000000
O O4 0.750000 0.548375 0.851518
O O5 0.514064 0.500000 0.785533
O O6 0.516825 0.597565 0.792479
O O7 0.500000 0.548200 0.000000
O O8 0.250000 0.350442 0.147496
O O9 0.000513 0.312942 0.244902
O O10 0.000000 0.348479 0.000000
O O11 0.500000 0.835754 0.500000
O O12 0.250000 0.828744 0.646146
O O13 0.500436 0.861553 0.755185
O O14 0.479463 0.774313 0.682733
O O15 0.250000 0.899042 0.147517
O O16 0.500000 0.897218 0.000000
O O17 0.500000 0.712887 0.500000
O O18 0.250000 0.719880 0.646197
#
# Coordination Sequence:
#
# PCOD9400932 Si02
#       6
#     4   8   8   8   8   8
#     4   8  16  30  49  74 103 134 166 200 242 290
#     4   8  14  25  42  66  96 128 160 196 240 288
#     4  10  19  31  50  76 104 132 165 206 248 291
#     4  10  21  37  55  75  99 130 167 207 252 300
#     4  10  19  33  54  79 106 135 168 206 246 291
#     4  10  21  37  55  73  97 130 167 206 251 303
#
# _framework density 17.299952999999999
#
# number of rings (size 3 to 8) (size 9 to 14) (size 15 to 20)
#    0.000    2.545    0.000    2.182    0.000    4.364 
#    0.000    0.455    0.000    0.545    0.000    0.000 
#    0.000    0.000    0.000    0.000    0.000    0.000 
#
# Total GULP energy -245072.665571 kJ/mol
# GULP energy per Si atom -5569.833308 kJ/mol
# Density = 1.726058 g / cm^3
# Si number density = 17.299953 Si / 1000 Ang^3
#
#
#
# Elastic Constant Matrix: (Units=GPa)
#
#
# Indices 1 2 3 4 5 6 
#
# 1 43.3683 51.0007 30.0626 0.0000 0.0000 0.0000
# 2 51.0007 192.3541 98.1020 0.0000 0.0000 0.0000
# 3 30.0626 98.1020 70.6678 0.0000 0.0000 0.0000
# 4 0.0000 0.0000 0.0000 -9.1226 0.0000 0.0000
# 5 0.0000 0.0000 0.0000 0.0000 29.3555 0.0000
# 6 0.0000 0.0000 0.0000 0.0000 0.0000 -47.1509
#
#
#
# Elastic Compliance Matrix: (Units=1/GPa)
#
#
# Indices 1 2 3 4 5 6 
#
# 1 0.034423 -0.005680 -0.006759 0.000000 0.000000 0.000000
# 2 -0.005680 0.018741 -0.023600 0.000000 0.000000 0.000000
# 3 -0.006759 -0.023600 0.049789 0.000000 0.000000 0.000000
# 4 0.000000 0.000000 0.000000 -0.109618 0.000000 0.000000
# 5 0.000000 0.000000 0.000000 0.000000 0.034065 0.000000
# 6 0.000000 0.000000 0.000000 0.000000 0.000000 -0.021209
#
#
# Mechanical properties :
#
#
# Convention : Reuss Voigt Hill
#
# Bulk Modulus (GPa) = 32.38962 73.85786 53.12374
# Shear Modulus (GPa) = 56.45810 3.09806 29.77808
#
# Velocity S-wave (km/s) = 5.71889 1.33966 4.15333
# Velocity P-wave (km/s) = 7.89750 6.72147 7.33310
#
# Compressibility (1/GPa) = 0.03087409
#
# Stress axis : x y z
#
# Youngs Moduli (GPa) = 29.05034 53.35877 20.08492
#
# Poissons Ratio (x) = 0.30306 0.13576
# Poissons Ratio (y) = 0.16500 0.47401
# Poissons Ratio (z) = 0.19636 1.25929
#
# Static dielectric constant tensor:
#      x y z
#    x 1.580830 0.000000 0.000000 
#    y 0.000000 1.646230 0.000000 
#    z 0.000000 0.000000 1.524720 
# 
# From -- ./inp_files/5782.got.cif
#   From: 2010.05.17/outbox.cif.g08.bks.cpg/sg51_3_cif.got.tgz:5782.got - 2010.06.03 11:52:47.
