data_PCOD9400832
_publ_section_title
;
Structure prediction by ZEFSAII (Michael W. Deem and Ramdas Pophale) SiO2 
 PCOD9400832
Probable space group: P M M A
;
_chemical_formula_sum "Si O2"
_cell_formula_units_Z 48
_cell_length_a 18.419109
_cell_length_b 7.488257
_cell_length_c 17.225893
_cell_angle_alpha 90.000000
_cell_angle_beta 90.000000
_cell_angle_gamma 90.000000
_cell_volume 2375.916121
_symmetry_space_group_name_H-M "P M M A"
_symmetry_group_IT_number 51
_symmetry_cell_setting 'orthorhombic'
loop_
_space_group_symop_operation_xyz
x,y,z
1/2-x,-y,z
1/2+x,-y,-z
-x,y,-z
-x,-y,-z
1/2+x,y,-z
1/2-x,y,z
x,-y,z
loop_
_atom_site_type_symbol
_atom_site_label
_atom_site_fract_x
_atom_site_fract_y
_atom_site_fract_z
Si Si1 0.582706 0.714655 0.511062
Si Si2 0.481736 0.790698 0.084140
Si Si3 0.669656 0.716536 0.840872
Si Si4 0.113475 0.293511 0.322529
Si Si5 0.831710 0.786364 0.353292
Si Si6 0.461050 0.782191 0.752640
O O1 0.500000 0.781226 0.500000
O O2 0.577603 0.500000 0.519654
O O3 0.617749 0.784367 0.591229
O O4 0.630616 0.751962 0.435928
O O5 0.396858 0.775320 0.105569
O O6 0.524346 0.719223 0.159535
O O7 0.500825 0.000000 0.080898
O O8 0.500000 0.712759 0.000000
O O9 0.750000 0.771235 0.866002
O O10 0.667057 0.500000 0.839176
O O11 0.654293 0.782356 0.752754
O O12 0.137003 0.500000 0.327355
O O13 0.028634 0.283718 0.298884
O O14 0.750000 0.714991 0.349917
O O15 0.886500 0.722198 0.286482
O O16 0.827700 0.000000 0.344373
O O17 0.464165 0.000000 0.751533
#
# Coordination Sequence:
#
# PCOD9400832 Si02
#       6
#     8   8   8   8   8   8
#     4  10  19  31  49  73  98 127 166 207 244 285
#     4   9  18  33  53  77 100 124 161 202 242 292
#     4   9  18  32  50  73 101 131 161 196 242 293
#     4   9  17  30  49  71  95 125 162 199 236 286
#     4  10  21  34  47  67  96 130 167 203 241 286
#     4   9  17  31  50  69  93 126 159 196 239 286
#
# _framework density 20.202732000000001
#
# number of rings (size 3 to 8) (size 9 to 14) (size 15 to 20)
#    0.000    2.667    1.667    0.000    0.000    2.667 
#    0.000    2.500    0.000    3.000    0.000    0.000 
#    0.000    0.000    0.000    0.000    0.000    0.000 
#
# Total GULP energy -267742.723188 kJ/mol
# GULP energy per Si atom -5577.973400 kJ/mol
# Density = 2.015675 g / cm^3
# Si number density = 20.202732 Si / 1000 Ang^3
#
#
#
# Elastic Constant Matrix: (Units=GPa)
#
#
# Indices 1 2 3 4 5 6 
#
# 1 108.5790 -17.7424 72.2089 0.0000 0.0000 0.0000
# 2 -17.7424 54.8995 -4.4867 0.0000 0.0000 0.0000
# 3 72.2089 -4.4867 172.1418 0.0000 0.0000 0.0000
# 4 0.0000 0.0000 0.0000 115.9671 0.0000 0.0000
# 5 0.0000 0.0000 0.0000 0.0000 15.7756 0.0000
# 6 0.0000 0.0000 0.0000 0.0000 0.0000 17.1581
#
#
#
# Elastic Compliance Matrix: (Units=1/GPa)
#
#
# Indices 1 2 3 4 5 6 
#
# 1 0.013569 0.003928 -0.005589 0.000000 0.000000 0.000000
# 2 0.003928 0.019391 -0.001142 0.000000 0.000000 0.000000
# 3 -0.005589 -0.001142 0.008124 0.000000 0.000000 0.000000
# 4 0.000000 0.000000 0.000000 0.008623 0.000000 0.000000
# 5 0.000000 0.000000 0.000000 0.000000 0.063389 0.000000
# 6 0.000000 0.000000 0.000000 0.000000 0.000000 0.058281
#
#
# Mechanical properties :
#
#
# Convention : Reuss Voigt Hill
#
# Bulk Modulus (GPa) = 28.18699 48.39777 38.29238
# Shear Modulus (GPa) = 26.48159 48.82289 37.65224
#
# Velocity S-wave (km/s) = 3.62441 4.92127 4.32177
# Velocity P-wave (km/s) = 5.61227 7.50333 6.62561
#
# Compressibility (1/GPa) = 0.03547736
#
# Stress axis : x y z
#
# Youngs Moduli (GPa) = 73.69755 51.56950 123.09206
#
# Poissons Ratio (x) = -0.20259 0.68801
# Poissons Ratio (y) = -0.28951 0.14063
# Poissons Ratio (z) = 0.41193 0.05892
#
# Static dielectric constant tensor:
#      x y z
#    x 1.693500 0.000000 0.000000 
#    y 0.000000 1.763460 0.000000 
#    z 0.000000 0.000000 1.725530 
# 
# From -- ./inp_files/30021.got.cif
#   From: 2010.05.17/outbox.cif.g08.bks.cpg/sg51_16_cif.got.tgz:30021.got - 2010.06.03 11:52:47.
