data_PCOD9400033
_publ_section_title
;
Structure prediction by ZEFSAII (Michael W. Deem and Ramdas Pophale) SiO2 
 PCOD9400033
Probable space group: P M M A
;
_chemical_formula_sum "Si O2"
_cell_formula_units_Z 40
_cell_length_a 14.176344
_cell_length_b 7.392784
_cell_length_c 19.140541
_cell_angle_alpha 90.000000
_cell_angle_beta 90.000000
_cell_angle_gamma 90.000000
_cell_volume 2005.979402
_symmetry_space_group_name_H-M "P M M A"
_symmetry_group_IT_number 51
_symmetry_cell_setting 'orthorhombic'
loop_
_space_group_symop_operation_xyz
x,y,z
1/2-x,-y,z
1/2+x,-y,-z
-x,y,-z
-x,-y,-z
1/2+x,y,-z
1/2-x,y,z
x,-y,z
loop_
_atom_site_type_symbol
_atom_site_label
_atom_site_fract_x
_atom_site_fract_y
_atom_site_fract_z
Si Si1 0.143276 0.785409 0.252288
Si Si2 0.455635 0.779417 0.392277
Si Si3 0.453280 0.283161 0.105008
Si Si4 0.144312 0.279201 0.962310
Si Si5 0.644148 0.779705 0.464287
O O1 0.250000 0.712778 0.247925
O O2 0.086048 0.714567 0.319123
O O3 0.088795 0.762161 0.179749
O O4 0.151210 0.000000 0.263590
O O5 0.561908 0.721705 0.411284
O O6 0.389885 0.727770 0.457893
O O7 0.456975 0.000000 0.391400
O O8 0.455345 0.500000 0.100574
O O9 0.559943 0.220663 0.088955
O O10 0.387614 0.222907 0.040346
O O11 0.250000 0.218270 0.945990
O O12 0.145560 0.500000 0.961596
O O13 0.750000 0.717914 0.449477
O O14 0.645110 0.000000 0.463313
#
# Coordination Sequence:
#
# PCOD9400033 Si02
#       5
#     8   8   8   8   8
#     4  10  19  29  41  60  89 118 137 164 214 263
#     4   8  14  23  35  54  80 107 135 167 205 249
#     4   9  17  29  47  68  85 106 141 178 206 241
#     4   8  14  27  47  67  85 107 138 176 212 242
#     4   8  12  20  36  55  74 101 139 177 205 233
#
# _framework density 19.940384000000002
#
# number of rings (size 3 to 8) (size 9 to 14) (size 15 to 20)
#    0.000    3.400    0.000    3.600    0.000    3.600 
#    0.000    3.000    0.000    3.000    0.000    2.800 
#    0.000    1.600    0.000    0.000    0.000    0.000 
#
# Total GULP energy -223070.592018 kJ/mol
# GULP energy per Si atom -5576.764800 kJ/mol
# Density = 1.989500 g / cm^3
# Si number density = 19.940384 Si / 1000 Ang^3
#
#
#
# Elastic Constant Matrix: (Units=GPa)
#
#
# Indices 1 2 3 4 5 6 
#
# 1 227.7652 6.7287 118.6148 0.0000 0.0000 0.0000
# 2 6.7287 65.4294 0.4542 0.0000 0.0000 0.0000
# 3 118.6148 0.4542 165.5217 0.0000 0.0000 0.0000
# 4 0.0000 0.0000 0.0000 24.4904 0.0000 0.0000
# 5 0.0000 0.0000 0.0000 0.0000 16.2966 0.0000
# 6 0.0000 0.0000 0.0000 0.0000 0.0000 -2.5956
#
#
#
# Elastic Compliance Matrix: (Units=1/GPa)
#
#
# Indices 1 2 3 4 5 6 
#
# 1 0.007035 -0.000689 -0.005040 0.000000 0.000000 0.000000
# 2 -0.000689 0.015351 0.000451 0.000000 0.000000 0.000000
# 3 -0.005040 0.000451 0.009652 0.000000 0.000000 0.000000
# 4 0.000000 0.000000 0.000000 0.040832 0.000000 0.000000
# 5 0.000000 0.000000 0.000000 0.000000 0.061362 0.000000
# 6 0.000000 0.000000 0.000000 0.000000 0.000000 -0.385272
#
#
# Mechanical properties :
#
#
# Convention : Reuss Voigt Hill
#
# Bulk Modulus (GPa) = 46.54511 78.92352 62.73431
# Shear Modulus (GPa) = -21.42948 29.83286 4.20169
#
# Velocity S-wave (km/s) = -3.28178 3.87214 1.45317
# Velocity P-wave (km/s) = 3.00544 7.72379 5.86045
#
# Compressibility (1/GPa) = 0.02148454
#
# Stress axis : x y z
#
# Youngs Moduli (GPa) = 142.13770 65.14092 103.60722
#
# Poissons Ratio (x) = 0.04485 0.52216
# Poissons Ratio (y) = 0.09787 -0.04676
# Poissons Ratio (z) = 0.71634 -0.02940
#
# Static dielectric constant tensor:
#      x y z
#    x 1.705010 0.000000 0.000000 
#    y 0.000000 1.786560 0.000000 
#    z 0.000000 0.000000 1.661680 
# 
# From -- ./inp_files/23689.got.cif
#   From: 2010.05.17/outbox.cif.g08.bks.cpg/sg51_12_cif.got.tgz:23689.got - 2010.06.03 11:52:47.
