data_PCOD9400663
_publ_section_title
;
Structure prediction by ZEFSAII (Michael W. Deem and Ramdas Pophale) SiO2 
 PCOD9400663
Probable space group: P M M A
;
_chemical_formula_sum "Si O2"
_cell_formula_units_Z 44
_cell_length_a 8.227742
_cell_length_b 29.610433
_cell_length_c 10.184313
_cell_angle_alpha 90.000000
_cell_angle_beta 90.000000
_cell_angle_gamma 90.000000
_cell_volume 2481.173656
_symmetry_space_group_name_H-M "P M M A"
_symmetry_group_IT_number 51
_symmetry_cell_setting 'orthorhombic'
loop_
_space_group_symop_operation_xyz
x,y,z
1/2-x,-y,z
1/2+x,-y,-z
-x,y,-z
-x,-y,-z
1/2+x,y,-z
1/2-x,y,z
x,-y,z
loop_
_atom_site_type_symbol
_atom_site_label
_atom_site_fract_x
_atom_site_fract_y
_atom_site_fract_z
Si Si1 0.446315 0.902925 0.652203
Si Si2 0.946710 0.000000 0.347056
Si Si3 0.946369 0.551088 0.648345
Si Si4 0.443973 0.271481 0.147132
Si Si5 0.444387 0.804135 0.650917
Si Si6 0.053504 0.373974 0.147293
O O1 0.500000 0.903274 0.500000
O O2 0.250000 0.903062 0.658214
O O3 0.502796 0.853798 0.701182
O O4 0.502835 0.951413 0.709211
O O5 0.000000 0.000000 0.500000
O O6 0.750000 0.000000 0.343177
O O7 0.750000 0.551096 0.651897
O O8 0.001417 0.500000 0.681391
O O9 0.005648 0.589037 0.748982
O O10 0.000000 0.560878 0.500000
O O11 0.250000 0.272606 0.147447
O O12 0.499547 0.235681 0.254661
O O13 0.503543 0.322692 0.175339
O O14 0.500000 0.259406 0.000000
O O15 0.500000 0.798146 0.500000
O O16 0.250000 0.804802 0.650124
O O17 0.250000 0.373737 0.151425
O O18 0.000000 0.385433 0.000000
#
# Coordination Sequence:
#
# PCOD9400663 Si02
#       6
#     8   4   8   8   8   8
#     4   8  14  23  37  58  86 117 149 185 226 272
#     4   8  12  20  34  54  81 114 147 180 222 270
#     4   9  18  33  51  72  99 128 157 190 228 272
#     4  10  20  35  52  70  94 125 160 198 240 286
#     4  10  19  31  47  70  98 127 159 196 237 281
#     4   9  19  34  51  72  96 122 155 194 234 277
#
# _framework density 17.733543000000001
#
# number of rings (size 3 to 8) (size 9 to 14) (size 15 to 20)
#    0.000    2.909    0.000    1.091    0.000    3.273 
#    0.000    1.818    0.000    0.000    0.000    0.636 
#    0.000    0.000    0.000    0.000    0.000    0.000 
#
# Total GULP energy -244937.961054 kJ/mol
# GULP energy per Si atom -5566.771842 kJ/mol
# Density = 1.769318 g / cm^3
# Si number density = 17.733543 Si / 1000 Ang^3
#
#
#
# Elastic Constant Matrix: (Units=GPa)
#
#
# Indices 1 2 3 4 5 6 
#
# 1 15.2075 20.2446 12.1289 0.0000 0.0000 0.0000
# 2 20.2446 188.9629 112.3068 0.0000 0.0000 0.0000
# 3 12.1289 112.3068 84.6269 0.0000 0.0000 0.0000
# 4 0.0000 0.0000 0.0000 -8.7331 0.0000 0.0000
# 5 0.0000 0.0000 0.0000 0.0000 24.7524 0.0000
# 6 0.0000 0.0000 0.0000 0.0000 0.0000 16.8812
#
#
#
# Elastic Compliance Matrix: (Units=1/GPa)
#
#
# Indices 1 2 3 4 5 6 
#
# 1 0.076698 -0.007970 -0.000416 0.000000 0.000000 0.000000
# 2 -0.007970 0.025877 -0.033198 0.000000 0.000000 0.000000
# 3 -0.000416 -0.033198 0.055933 0.000000 0.000000 0.000000
# 4 0.000000 0.000000 0.000000 -0.114506 0.000000 0.000000
# 5 0.000000 0.000000 0.000000 0.000000 0.040400 0.000000
# 6 0.000000 0.000000 0.000000 0.000000 0.000000 0.059238
#
#
# Mechanical properties :
#
#
# Convention : Reuss Voigt Hill
#
# Bulk Modulus (GPa) = 13.27316 64.23976 38.75646
# Shear Modulus (GPa) = 19.84758 16.18789 18.01774
#
# Velocity S-wave (km/s) = 3.34909 3.02460 3.19097
# Velocity P-wave (km/s) = 4.73880 6.96429 5.95640
#
# Compressibility (1/GPa) = 0.07533999
#
# Stress axis : x y z
#
# Youngs Moduli (GPa) = 13.03808 38.64504 17.87866
#
# Poissons Ratio (x) = 0.30800 0.00744
# Poissons Ratio (y) = 0.10391 0.59354
# Poissons Ratio (z) = 0.00542 1.28294
#
# Static dielectric constant tensor:
#      x y z
#    x 1.636390 0.000000 0.000000 
#    y 0.000000 1.684020 0.000000 
#    z 0.000000 0.000000 1.539330 
# 
# From -- ./inp_files/5690.got.cif
#   From: 2010.05.17/outbox.cif.g08.bks.cpg/sg51_3_cif.got.tgz:5690.got - 2010.06.03 11:52:47.
