data_PCOD9400056
_publ_section_title
;
Structure prediction by ZEFSAII (Michael W. Deem and Ramdas Pophale) SiO2 
 PCOD9400056
Probable space group: P M M A
;
_chemical_formula_sum "Si O2"
_cell_formula_units_Z 48
_cell_length_a 13.816304
_cell_length_b 13.703895
_cell_length_c 16.590193
_cell_angle_alpha 90.000000
_cell_angle_beta 90.000000
_cell_angle_gamma 90.000000
_cell_volume 3141.140347
_symmetry_space_group_name_H-M "P M M A"
_symmetry_group_IT_number 51
_symmetry_cell_setting 'orthorhombic'
loop_
_space_group_symop_operation_xyz
x,y,z
1/2-x,-y,z
1/2+x,-y,-z
-x,y,-z
-x,-y,-z
1/2+x,y,-z
1/2-x,y,z
x,-y,z
loop_
_atom_site_type_symbol
_atom_site_label
_atom_site_fract_x
_atom_site_fract_y
_atom_site_fract_z
Si Si1 0.445027 0.882209 0.374527
Si Si2 0.366397 0.211411 0.212219
Si Si3 0.454344 0.385881 0.126366
Si Si4 0.635538 0.692236 0.037829
Si Si5 0.857040 0.881656 0.452973
Si Si6 0.133076 0.110053 0.045156
O O1 0.404277 0.834548 0.294401
O O2 0.384271 0.856290 0.454883
O O3 0.555302 0.852085 0.394938
O O4 0.441482 0.000000 0.366617
O O5 0.250000 0.215658 0.213005
O O6 0.410404 0.317660 0.195163
O O7 0.396551 0.146583 0.134162
O O8 0.451904 0.500000 0.143472
O O9 0.562975 0.351482 0.103513
O O10 0.390796 0.362812 0.045863
O O11 0.750000 0.684040 0.054511
O O12 0.609243 0.805602 0.019216
O O13 0.750000 0.846539 0.431588
O O14 0.856437 0.000000 0.450860
O O15 0.250000 0.108844 0.046714
O O16 0.101037 0.000000 0.028373
#
# Coordination Sequence:
#
# PCOD9400056 Si02
#       6
#     8   8   8   8   8   8
#     4   9  16  26  43  67  93 120 148 176 209 254
#     4  10  19  29  42  62  87 114 145 178 219 269
#     4  10  20  32  45  63  85 107 141 190 235 268
#     4   9  17  30  48  66  83 109 146 182 220 268
#     4   8  14  25  42  65  92 121 150 177 206 244
#     4   8  14  25  41  61  86 114 140 170 210 255
#
# _framework density 15.281074
#
# number of rings (size 3 to 8) (size 9 to 14) (size 15 to 20)
#    0.000    3.000    0.000    4.500    0.000    4.000 
#    0.000    8.333    0.000    0.000    0.000    2.333 
#    0.000    1.333    0.000    0.000    0.000    0.000 
#
# Total GULP energy -267361.365425 kJ/mol
# GULP energy per Si atom -5570.028446 kJ/mol
# Density = 1.524629 g / cm^3
# Si number density = 15.281074 Si / 1000 Ang^3
#
#
#
# Elastic Constant Matrix: (Units=GPa)
#
#
# Indices 1 2 3 4 5 6 
#
# 1 109.4832 28.5153 30.3067 0.0000 0.0000 0.0000
# 2 28.5153 96.6042 24.8548 0.0000 0.0000 0.0000
# 3 30.3067 24.8548 47.1996 0.0000 0.0000 0.0000
# 4 0.0000 0.0000 0.0000 15.0383 0.0000 0.0000
# 5 0.0000 0.0000 0.0000 0.0000 16.5383 0.0000
# 6 0.0000 0.0000 0.0000 0.0000 0.0000 15.4392
#
#
#
# Elastic Compliance Matrix: (Units=1/GPa)
#
#
# Indices 1 2 3 4 5 6 
#
# 1 0.011346 -0.001706 -0.006387 0.000000 0.000000 0.000000
# 2 -0.001706 0.012230 -0.005345 0.000000 0.000000 0.000000
# 3 -0.006387 -0.005345 0.028102 0.000000 0.000000 0.000000
# 4 0.000000 0.000000 0.000000 0.066497 0.000000 0.000000
# 5 0.000000 0.000000 0.000000 0.000000 0.060466 0.000000
# 6 0.000000 0.000000 0.000000 0.000000 0.000000 0.064770
#
#
# Mechanical properties :
#
#
# Convention : Reuss Voigt Hill
#
# Bulk Modulus (GPa) = 40.31778 46.73785 43.52782
# Shear Modulus (GPa) = 17.94977 20.71050 19.33014
#
# Velocity S-wave (km/s) = 3.43102 3.68544 3.56050
# Velocity P-wave (km/s) = 6.49132 6.98296 6.74163
#
# Compressibility (1/GPa) = 0.02480295
#
# Stress axis : x y z
#
# Youngs Moduli (GPa) = 88.13565 81.76461 35.58420
#
# Poissons Ratio (x) = 0.13948 0.22728
# Poissons Ratio (y) = 0.15034 0.19020
# Poissons Ratio (z) = 0.56293 0.43703
#
# Static dielectric constant tensor:
#      x y z
#    x 1.546050 0.000000 0.000000 
#    y 0.000000 1.510060 0.000000 
#    z 0.000000 0.000000 1.483310 
# 
# From -- ./inp_files/24230.got.cif
#   From: 2010.05.17/outbox.cif.g08.bks.cpg/sg51_13_cif.got.tgz:24230.got - 2010.06.03 11:52:47.
