data_PCOD9400545
_publ_section_title
;
Structure prediction by ZEFSAII (Michael W. Deem and Ramdas Pophale) SiO2 
 PCOD9400545
Probable space group: P M M A
;
_chemical_formula_sum "Si O2"
_cell_formula_units_Z 64
_cell_length_a 19.582533
_cell_length_b 7.375485
_cell_length_c 20.342620
_cell_angle_alpha 90.000000
_cell_angle_beta 90.000000
_cell_angle_gamma 90.000000
_cell_volume 2938.098407
_symmetry_space_group_name_H-M "P M M A"
_symmetry_group_IT_number 51
_symmetry_cell_setting 'orthorhombic'
loop_
_space_group_symop_operation_xyz
x,y,z
1/2-x,-y,z
1/2+x,-y,-z
-x,y,-z
-x,-y,-z
1/2+x,y,-z
1/2-x,y,z
x,-y,z
loop_
_atom_site_type_symbol
_atom_site_label
_atom_site_fract_x
_atom_site_fract_y
_atom_site_fract_z
Si Si1 0.825866 0.291943 0.248832
Si Si2 0.423025 0.221375 0.483563
Si Si3 0.829795 0.778542 0.640370
Si Si4 0.542215 0.793963 0.172418
Si Si5 0.602461 0.220945 0.778021
Si Si6 0.174255 0.218511 0.599386
Si Si7 0.574952 0.210389 0.031159
Si Si8 0.828427 0.778765 0.915193
O O1 0.750000 0.216021 0.234538
O O2 0.826267 0.500000 0.226677
O O3 0.890779 0.200889 0.216625
O O4 0.834745 0.287809 0.327181
O O5 0.500000 0.279438 0.500000
O O6 0.381996 0.277864 0.417832
O O7 0.379328 0.279105 0.546286
O O8 0.424120 0.000000 0.480849
O O9 0.750000 0.723080 0.631895
O O10 0.860701 0.719917 0.710907
O O11 0.828873 0.000000 0.639532
O O12 0.476348 0.720008 0.210968
O O13 0.564998 0.707637 0.103410
O O14 0.520715 0.000000 0.154808
O O15 0.641412 0.276196 0.844596
O O16 0.603769 0.000000 0.774425
O O17 0.250000 0.267746 0.576613
O O18 0.170733 0.000000 0.603624
O O19 0.597046 0.000000 0.040741
O O20 0.500000 0.211639 0.000000
O O21 0.626616 0.286080 0.976856
O O22 0.750000 0.725299 0.921581
O O23 0.831556 0.000000 0.915174
#
# Coordination Sequence:
#
# PCOD9400545 Si02
#       8
#     8   8   8   8   8   8   8   8
#     4  10  22  38  53  71  98 131 165 204 251 300
#     4   9  17  26  40  67 100 129 157 196 245 293
#     4   9  16  25  37  58  95 135 163 192 240 298
#     4  10  19  30  51  76 101 130 164 206 250 296
#     4   9  16  25  40  66  96 128 161 198 243 290
#     4   9  17  31  52  74  96 126 164 202 240 288
#     4   9  15  26  41  64  99 135 164 198 246 292
#     4   9  15  23  37  60  94 133 167 198 239 291
#
# _framework density 21.782796000000001
#
# number of rings (size 3 to 8) (size 9 to 14) (size 15 to 20)
#    0.000    2.750    1.250    1.125    1.750    4.250 
#    0.000    1.250    0.000    0.750    0.000    0.000 
#    0.000    2.000    0.000    0.000    0.000    0.250 
#
# Total GULP energy -357072.520630 kJ/mol
# GULP energy per Si atom -5579.258135 kJ/mol
# Density = 2.173322 g / cm^3
# Si number density = 21.782796 Si / 1000 Ang^3
#
#
#
# Elastic Constant Matrix: (Units=GPa)
#
#
# Indices 1 2 3 4 5 6 
#
# 1 191.6331 6.9974 111.3833 0.0000 0.0000 0.0000
# 2 6.9974 73.2129 3.0562 0.0000 0.0000 0.0000
# 3 111.3833 3.0562 105.4030 0.0000 0.0000 0.0000
# 4 0.0000 0.0000 0.0000 -17.6663 0.0000 0.0000
# 5 0.0000 0.0000 0.0000 0.0000 42.9615 0.0000
# 6 0.0000 0.0000 0.0000 0.0000 0.0000 -28.6331
#
#
#
# Elastic Compliance Matrix: (Units=1/GPa)
#
#
# Indices 1 2 3 4 5 6 
#
# 1 0.013562 -0.000699 -0.014311 0.000000 0.000000 0.000000
# 2 -0.000699 0.013711 0.000341 0.000000 0.000000 0.000000
# 3 -0.014311 0.000341 0.024601 0.000000 0.000000 0.000000
# 4 0.000000 0.000000 0.000000 -0.056605 0.000000 0.000000
# 5 0.000000 0.000000 0.000000 0.000000 0.023277 0.000000
# 6 0.000000 0.000000 0.000000 0.000000 0.000000 -0.034925
#
#
# Mechanical properties :
#
#
# Convention : Reuss Voigt Hill
#
# Bulk Modulus (GPa) = 44.37382 68.12474 56.24928
# Shear Modulus (GPa) = 244.24804 15.91989 130.08397
#
# Velocity S-wave (km/s) = 10.60058 2.70635 7.73617
# Velocity P-wave (km/s) = 13.04780 6.41157 10.27991
#
# Compressibility (1/GPa) = 0.02253581
#
# Stress axis : x y z
#
# Youngs Moduli (GPa) = 73.73601 72.93225 40.64943
#
# Poissons Ratio (x) = 0.05096 0.58174
# Poissons Ratio (y) = 0.05153 -0.01386
# Poissons Ratio (z) = 1.05524 -0.02486
#
# Static dielectric constant tensor:
#      x y z
#    x 2.260580 0.000000 0.000000 
#    y 0.000000 1.925750 0.000000 
#    z 0.000000 0.000000 1.760420 
# 
# From -- ./inp_files/30622.got.cif
#   From: 2010.05.17/outbox.cif.g08.bks.cpg/sg51_16_cif.got.tgz:30622.got - 2010.06.03 11:52:47.
