data_PCOD9400181
_publ_section_title
;
Structure prediction by ZEFSAII (Michael W. Deem and Ramdas Pophale) SiO2 
 PCOD9400181
Probable space group: P M M A
;
_chemical_formula_sum "Si O2"
_cell_formula_units_Z 64
_cell_length_a 19.585099
_cell_length_b 7.333329
_cell_length_c 20.296027
_cell_angle_alpha 90.000000
_cell_angle_beta 90.000000
_cell_angle_gamma 90.000000
_cell_volume 2914.996064
_symmetry_space_group_name_H-M "P M M A"
_symmetry_group_IT_number 51
_symmetry_cell_setting 'orthorhombic'
loop_
_space_group_symop_operation_xyz
x,y,z
1/2-x,-y,z
1/2+x,-y,-z
-x,y,-z
-x,-y,-z
1/2+x,y,-z
1/2-x,y,z
x,-y,z
loop_
_atom_site_type_symbol
_atom_site_label
_atom_site_fract_x
_atom_site_fract_y
_atom_site_fract_z
Si Si1 0.825880 0.280122 0.270343
Si Si2 0.431779 0.205235 0.468262
Si Si3 0.829269 0.777174 0.645465
Si Si4 0.546774 0.788600 0.179221
Si Si5 0.601560 0.222055 0.782486
Si Si6 0.173359 0.279751 0.578187
Si Si7 0.572044 0.220927 0.033525
Si Si8 0.828187 0.777562 0.919585
O O1 0.750000 0.219592 0.248788
O O2 0.825334 0.500000 0.269587
O O3 0.888333 0.219797 0.226208
O O4 0.835913 0.224182 0.346094
O O5 0.500000 0.291664 0.500000
O O6 0.385385 0.283631 0.408927
O O7 0.380431 0.198372 0.529186
O O8 0.451923 0.000000 0.446358
O O9 0.750000 0.720136 0.634505
O O10 0.857196 0.720801 0.717420
O O11 0.828410 0.000000 0.642634
O O12 0.477495 0.716418 0.212687
O O13 0.568011 0.710393 0.108265
O O14 0.530060 0.000000 0.165751
O O15 0.636522 0.277590 0.851138
O O16 0.603053 0.000000 0.779733
O O17 0.250000 0.230469 0.557798
O O18 0.167892 0.500000 0.575649
O O19 0.579090 0.000000 0.035916
O O20 0.500000 0.262093 0.000000
O O21 0.630753 0.284742 0.984023
O O22 0.750000 0.720491 0.921181
O O23 0.829767 0.000000 0.919662
#
# Coordination Sequence:
#
# PCOD9400181 Si02
#       8
#     8   8   8   8   8   8   8   8
#     4   9  20  38  55  72  99 134 169 206 251 304
#     4  10  21  33  49  77 108 134 163 205 256 308
#     4   9  17  29  44  64  97 136 167 198 243 299
#     4  10  19  29  50  77 103 131 163 208 257 301
#     4   9  16  26  42  67  96 129 165 202 244 292
#     4   9  19  37  58  75  95 130 173 211 249 300
#     4   9  15  26  40  63 100 136 162 196 251 300
#     4   9  15  23  38  61  92 131 169 200 237 291
#
# _framework density 21.955431999999998
#
# number of rings (size 3 to 8) (size 9 to 14) (size 15 to 20)
#    0.000    2.750    1.250    1.500    1.750    3.750 
#    0.000    2.500    0.000    0.375    0.000    0.000 
#    0.000    1.500    0.000    0.250    0.000    0.000 
#
# Total GULP energy -357228.302921 kJ/mol
# GULP energy per Si atom -5581.692233 kJ/mol
# Density = 2.190546 g / cm^3
# Si number density = 21.955432 Si / 1000 Ang^3
#
#
#
# Elastic Constant Matrix: (Units=GPa)
#
#
# Indices 1 2 3 4 5 6 
#
# 1 177.9085 2.8207 107.3366 0.0000 0.0000 0.0000
# 2 2.8207 80.3958 3.6388 0.0000 0.0000 0.0000
# 3 107.3366 3.6388 115.1566 0.0000 0.0000 0.0000
# 4 0.0000 0.0000 0.0000 -6.6233 0.0000 0.0000
# 5 0.0000 0.0000 0.0000 0.0000 40.9582 0.0000
# 6 0.0000 0.0000 0.0000 0.0000 0.0000 -6.4476
#
#
#
# Elastic Compliance Matrix: (Units=1/GPa)
#
#
# Indices 1 2 3 4 5 6 
#
# 1 0.012844 0.000091 -0.011975 0.000000 0.000000 0.000000
# 2 0.000091 0.012457 -0.000479 0.000000 0.000000 0.000000
# 3 -0.011975 -0.000479 0.019861 0.000000 0.000000 0.000000
# 4 0.000000 0.000000 0.000000 -0.150981 0.000000 0.000000
# 5 0.000000 0.000000 0.000000 0.000000 0.024415 0.000000
# 6 0.000000 0.000000 0.000000 0.000000 0.000000 -0.155098
#
#
# Mechanical properties :
#
#
# Convention : Reuss Voigt Hill
#
# Bulk Modulus (GPa) = 48.93039 66.78367 57.85703
# Shear Modulus (GPa) = -24.39439 22.88844 -0.75298
#
# Velocity S-wave (km/s) = -3.33691 3.23227 -0.58626
# Velocity P-wave (km/s) = 2.73641 6.66438 5.09421
#
# Compressibility (1/GPa) = 0.02043720
#
# Stress axis : x y z
#
# Youngs Moduli (GPa) = 77.85679 80.27660 50.35108
#
# Poissons Ratio (x) = -0.00733 0.60294
# Poissons Ratio (y) = -0.00711 0.02411
# Poissons Ratio (z) = 0.93232 0.03843
#
# Static dielectric constant tensor:
#      x y z
#    x 1.814340 0.000000 0.000000 
#    y 0.000000 1.890030 0.000000 
#    z 0.000000 0.000000 1.762020 
# 
# From -- ./inp_files/30620.got.cif
#   From: 2010.05.17/outbox.cif.g08.bks.cpg/sg51_16_cif.got.tgz:30620.got - 2010.06.03 11:52:47.
