data_PCOD9400448
_publ_section_title
;
Structure prediction by ZEFSAII (Michael W. Deem and Ramdas Pophale) SiO2 
 PCOD9400448
Probable space group: P M M A
;
_chemical_formula_sum "Si O2"
_cell_formula_units_Z 40
_cell_length_a 14.020560
_cell_length_b 7.464576
_cell_length_c 16.001167
_cell_angle_alpha 90.000000
_cell_angle_beta 90.000000
_cell_angle_gamma 90.000000
_cell_volume 1674.642706
_symmetry_space_group_name_H-M "P M M A"
_symmetry_group_IT_number 51
_symmetry_cell_setting 'orthorhombic'
loop_
_space_group_symop_operation_xyz
x,y,z
1/2-x,-y,z
1/2+x,-y,-z
-x,y,-z
-x,-y,-z
1/2+x,y,-z
1/2-x,y,z
x,-y,z
loop_
_atom_site_type_symbol
_atom_site_label
_atom_site_fract_x
_atom_site_fract_y
_atom_site_fract_z
Si Si1 0.940963 0.219214 0.878178
Si Si2 0.644623 0.218048 0.053905
Si Si3 0.356501 0.705146 0.661497
Si Si4 0.939985 0.797024 0.699538
Si Si5 0.638132 0.207994 0.529576
O O1 0.907632 0.282791 0.787367
O O2 0.050222 0.276407 0.896424
O O3 0.941482 0.000000 0.875380
O O4 0.876876 0.268641 0.957470
O O5 0.750000 0.278644 0.080838
O O6 0.644768 0.000000 0.057189
O O7 0.250000 0.779699 0.675764
O O8 0.357790 0.500000 0.689655
O O9 0.445245 0.802418 0.702514
O O10 0.373452 0.707753 0.561319
O O11 0.912879 0.712760 0.610766
O O12 0.901571 0.000000 0.694941
O O13 0.750000 0.213098 0.548336
O O14 0.608549 0.000000 0.518745
#
# Coordination Sequence:
#
# PCOD9400448 Si02
#       5
#     8   8   8   8   8
#     4   8  15  25  37  61  92 117 147 183 220 268
#     4   8  13  23  39  58  86 122 151 179 219 264
#     4  10  21  35  49  66  90 122 159 195 232 276
#     4  10  19  30  47  71  97 123 152 191 236 275
#     4   9  18  32  48  67  93 124 157 192 231 275
#
# _framework density 23.885691000000001
#
# number of rings (size 3 to 8) (size 9 to 14) (size 15 to 20)
#    0.000    3.000    0.000    2.400    0.000    6.000 
#    0.000    6.000    0.000    0.000    0.000    2.800 
#    0.000    1.600    0.000    0.000    0.000    0.000 
#
# Total GULP energy -223271.785891 kJ/mol
# GULP energy per Si atom -5581.794647 kJ/mol
# Density = 2.383133 g / cm^3
# Si number density = 23.885691 Si / 1000 Ang^3
#
#
#
# Elastic Constant Matrix: (Units=GPa)
#
#
# Indices 1 2 3 4 5 6 
#
# 1 57.1903 -3.9217 1.5300 0.0000 0.0000 0.0000
# 2 -3.9217 72.7071 -6.5619 0.0000 0.0000 0.0000
# 3 1.5300 -6.5619 24.6994 0.0000 0.0000 0.0000
# 4 0.0000 0.0000 0.0000 14.5435 0.0000 0.0000
# 5 0.0000 0.0000 0.0000 0.0000 4.0452 0.0000
# 6 0.0000 0.0000 0.0000 0.0000 0.0000 -19.2795
#
#
#
# Elastic Compliance Matrix: (Units=1/GPa)
#
#
# Indices 1 2 3 4 5 6 
#
# 1 0.017568 0.000870 -0.000857 0.000000 0.000000 0.000000
# 2 0.000870 0.014135 0.003701 0.000000 0.000000 0.000000
# 3 -0.000857 0.003701 0.041523 0.000000 0.000000 0.000000
# 4 0.000000 0.000000 0.000000 0.068759 0.000000 0.000000
# 5 0.000000 0.000000 0.000000 0.000000 0.247207 0.000000
# 6 0.000000 0.000000 0.000000 0.000000 0.000000 -0.051868
#
#
# Mechanical properties :
#
#
# Convention : Reuss Voigt Hill
#
# Bulk Modulus (GPa) = 12.39848 15.18772 13.79310
# Shear Modulus (GPa) = 14.01424 10.76518 12.38971
#
# Velocity S-wave (km/s) = 2.42486 2.12526 2.27999
# Velocity P-wave (km/s) = 3.61136 3.52060 3.56627
#
# Compressibility (1/GPa) = 0.08065507
#
# Stress axis : x y z
#
# Youngs Moduli (GPa) = 56.92137 70.74735 24.08294
#
# Poissons Ratio (x) = -0.06157 0.02064
# Poissons Ratio (y) = -0.04954 -0.08914
# Poissons Ratio (z) = 0.04878 -0.26185
#
# Static dielectric constant tensor:
#      x y z
#    x 1.898030 0.000000 0.000000 
#    y 0.000000 2.061040 0.000000 
#    z 0.000000 0.000000 1.917480 
# 
# From -- ./inp_files/23686.got.cif
#   From: 2010.05.17/outbox.cif.g08.bks.cpg/sg51_12_cif.got.tgz:23686.got - 2010.06.03 11:52:47.
