data_PCOD9400312
_publ_section_title
;
Structure prediction by ZEFSAII (Michael W. Deem and Ramdas Pophale) SiO2 
 PCOD9400312
Probable space group: P M M A
;
_chemical_formula_sum "Si O2"
_cell_formula_units_Z 52
_cell_length_a 8.651838
_cell_length_b 23.498374
_cell_length_c 15.642421
_cell_angle_alpha 90.000000
_cell_angle_beta 90.000000
_cell_angle_gamma 90.000000
_cell_volume 3180.168716
_symmetry_space_group_name_H-M "P M M A"
_symmetry_group_IT_number 51
_symmetry_cell_setting 'orthorhombic'
loop_
_space_group_symop_operation_xyz
x,y,z
1/2-x,-y,z
1/2+x,-y,-z
-x,y,-z
-x,-y,-z
1/2+x,y,-z
1/2-x,y,z
x,-y,z
loop_
_atom_site_type_symbol
_atom_site_label
_atom_site_fract_x
_atom_site_fract_y
_atom_site_fract_z
Si Si1 0.566168 0.589165 0.088066
Si Si2 0.564085 0.813813 0.403526
Si Si3 0.065727 0.717237 0.085139
Si Si4 0.563543 0.938891 0.403301
Si Si5 0.565979 0.500000 0.595520
Si Si6 0.065556 0.720491 0.275644
Si Si7 0.435964 0.407359 0.722743
O O1 0.750000 0.584552 0.083834
O O2 0.515038 0.655347 0.087955
O O3 0.516488 0.569500 0.182670
O O4 0.500000 0.564347 0.000000
O O5 0.500000 0.808644 0.500000
O O6 0.750000 0.810659 0.406163
O O7 0.517487 0.876858 0.368623
O O8 0.498959 0.764214 0.344428
O O9 0.250000 0.709635 0.076254
O O10 0.034195 0.742411 0.178734
O O11 0.000000 0.746675 0.000000
O O12 0.500000 0.939242 0.500000
O O13 0.750000 0.938892 0.406065
O O14 0.514741 0.000000 0.363946
O O15 0.750000 0.500000 0.592328
O O16 0.500000 0.500000 0.500000
O O17 0.506681 0.445583 0.648623
O O18 0.250000 0.714461 0.284535
O O19 0.990849 0.657946 0.284540
O O20 0.250000 0.409558 0.718667
#
# Coordination Sequence:
#
# PCOD9400312 Si02
#       7
#     8   8   8   8   4   8   8
#     4   9  16  27  48  75 102 127 150 180 221 273
#     4  10  19  30  45  66  94 128 162 197 236 278
#     4   9  16  26  43  66  93 123 154 188 227 274
#     4   8  14  25  41  61  86 118 156 194 231 273
#     4  12  26  44  63  78  93 118 155 200 244 286
#     4  10  20  33  49  72 100 128 158 194 236 281
#     4  10  21  38  57  77  99 124 157 196 236 280
#
# _framework density 16.351333
#
# number of rings (size 3 to 8) (size 9 to 14) (size 15 to 20)
#    0.000    2.462    0.000    3.923    0.000    4.923 
#    0.000    3.462    0.000    0.000    0.000    0.000 
#    0.000    0.615    0.000    1.385    0.000    2.769 
#
# Total GULP energy -289613.625629 kJ/mol
# GULP energy per Si atom -5569.492801 kJ/mol
# Density = 1.631412 g / cm^3
# Si number density = 16.351333 Si / 1000 Ang^3
#
#
#
# Elastic Constant Matrix: (Units=GPa)
#
#
# Indices 1 2 3 4 5 6 
#
# 1 59.4302 30.7673 48.8346 0.0000 0.0000 0.0000
# 2 30.7673 100.4081 64.1799 0.0000 0.0000 0.0000
# 3 48.8346 64.1799 138.3160 0.0000 0.0000 0.0000
# 4 0.0000 0.0000 0.0000 9.3146 0.0000 0.0000
# 5 0.0000 0.0000 0.0000 0.0000 26.5240 0.0000
# 6 0.0000 0.0000 0.0000 0.0000 0.0000 21.2481
#
#
#
# Elastic Compliance Matrix: (Units=1/GPa)
#
#
# Indices 1 2 3 4 5 6 
#
# 1 0.024238 -0.002782 -0.007267 0.000000 0.000000 0.000000
# 2 -0.002782 0.014478 -0.005736 0.000000 0.000000 0.000000
# 3 -0.007267 -0.005736 0.012457 0.000000 0.000000 0.000000
# 4 0.000000 0.000000 0.000000 0.107358 0.000000 0.000000
# 5 0.000000 0.000000 0.000000 0.000000 0.037702 0.000000
# 6 0.000000 0.000000 0.000000 0.000000 0.000000 0.047063
#
#
# Mechanical properties :
#
#
# Convention : Reuss Voigt Hill
#
# Bulk Modulus (GPa) = 51.01061 65.07977 58.04519
# Shear Modulus (GPa) = 17.76837 21.70886 19.73861
#
# Velocity S-wave (km/s) = 3.30003 3.64765 3.47818
# Velocity P-wave (km/s) = 6.76643 7.59129 7.19070
#
# Compressibility (1/GPa) = 0.01960376
#
# Stress axis : x y z
#
# Youngs Moduli (GPa) = 41.25777 69.06996 80.27773
#
# Poissons Ratio (x) = 0.19217 0.58334
# Poissons Ratio (y) = 0.11479 0.46044
# Poissons Ratio (z) = 0.29980 0.39616
#
# Static dielectric constant tensor:
#      x y z
#    x 1.548950 0.000000 0.000000 
#    y 0.000000 1.567310 0.000000 
#    z 0.000000 0.000000 1.571840 
# 
# From -- ./inp_files/22044.got.cif
#   From: 2010.05.17/outbox.cif.g08.bks.cpg/sg51_12_cif.got.tgz:22044.got - 2010.06.03 11:52:47.
