data_PCOD9400138
_publ_section_title
;
Structure prediction by ZEFSAII (Michael W. Deem and Ramdas Pophale) SiO2 
 PCOD9400138
Probable space group: P M M A
;
_chemical_formula_sum "Si O2"
_cell_formula_units_Z 64
_cell_length_a 8.879816
_cell_length_b 19.506729
_cell_length_c 24.131202
_cell_angle_alpha 90.000000
_cell_angle_beta 90.000000
_cell_angle_gamma 90.000000
_cell_volume 4179.914250
_symmetry_space_group_name_H-M "P M M A"
_symmetry_group_IT_number 51
_symmetry_cell_setting 'orthorhombic'
loop_
_space_group_symop_operation_xyz
x,y,z
1/2-x,-y,z
1/2+x,-y,-z
-x,y,-z
-x,-y,-z
1/2+x,y,-z
1/2-x,y,z
x,-y,z
loop_
_atom_site_type_symbol
_atom_site_label
_atom_site_fract_x
_atom_site_fract_y
_atom_site_fract_z
Si Si1 0.430096 0.579858 0.940103
Si Si2 0.070671 0.921346 0.389039
Si Si3 0.071081 0.210751 0.558427
Si Si4 0.066696 0.577545 0.275294
Si Si5 0.928948 0.791089 0.774062
Si Si6 0.567960 0.343776 0.836720
Si Si7 0.071724 0.077860 0.732888
Si Si8 0.570101 0.291374 0.659446
O O1 0.250000 0.585209 0.942685
O O2 0.469085 0.500000 0.927658
O O3 0.495107 0.627897 0.892233
O O4 0.500000 0.596115 0.000000
O O5 0.250000 0.909755 0.390513
O O6 0.988826 0.864967 0.425832
O O7 0.013406 0.913971 0.325828
O O8 0.040022 0.000000 0.406008
O O9 0.250000 0.210235 0.555059
O O10 0.000000 0.231499 0.500000
O O11 0.015599 0.260072 0.607667
O O12 0.250000 0.577235 0.275596
O O13 0.013753 0.500000 0.283095
O O14 0.023334 0.607990 0.215355
O O15 0.021998 0.632389 0.321996
O O16 0.750000 0.802933 0.779003
O O17 0.973278 0.733807 0.819124
O O18 0.954147 0.755388 0.714063
O O19 0.014989 0.862693 0.773293
O O20 0.750000 0.346445 0.840904
O O21 0.250000 0.085020 0.723004
O O22 0.042804 0.000000 0.752460
O O23 0.750000 0.290953 0.648555
#
# Coordination Sequence:
#
# PCOD9400138 Si02
#       8
#     8   8   8   8   8   8   8   8
#     4  10  20  32  46  66  95 134 174 208 241 277
#     4  10  20  34  51  69  91 119 150 186 226 270
#     4  12  24  36  51  68  88 116 150 189 231 277
#     4   8  14  26  48  75  98 122 150 184 230 279
#     4   9  17  29  47  69  95 126 157 191 234 279
#     4   9  17  29  47  72  99 128 162 199 234 276
#     4  10  19  29  44  68  96 126 158 191 229 274
#     4   9  17  31  49  69  93 118 149 186 225 277
#
# _framework density 15.311318999999999
#
# number of rings (size 3 to 8) (size 9 to 14) (size 15 to 20)
#    0.000    2.375    1.250    4.125    0.000    3.500 
#    0.000    1.875    0.000    1.500    0.000    0.000 
#    0.000    0.500    0.000    1.625    0.000    2.375 
#
# Total GULP energy -356944.407280 kJ/mol
# GULP energy per Si atom -5577.256364 kJ/mol
# Density = 1.527647 g / cm^3
# Si number density = 15.311319 Si / 1000 Ang^3
#
#
#
# Elastic Constant Matrix: (Units=GPa)
#
#
# Indices 1 2 3 4 5 6 
#
# 1 55.1190 44.0148 44.4242 0.0000 0.0000 0.0000
# 2 44.0148 96.5024 49.5931 0.0000 0.0000 0.0000
# 3 44.4242 49.5931 93.6904 0.0000 0.0000 0.0000
# 4 0.0000 0.0000 0.0000 23.9454 0.0000 0.0000
# 5 0.0000 0.0000 0.0000 0.0000 23.8671 0.0000
# 6 0.0000 0.0000 0.0000 0.0000 0.0000 18.5161
#
#
#
# Elastic Compliance Matrix: (Units=1/GPa)
#
#
# Indices 1 2 3 4 5 6 
#
# 1 0.035622 -0.010395 -0.011388 0.000000 0.000000 0.000000
# 2 -0.010395 0.017268 -0.004212 0.000000 0.000000 0.000000
# 3 -0.011388 -0.004212 0.018303 0.000000 0.000000 0.000000
# 4 0.000000 0.000000 0.000000 0.041762 0.000000 0.000000
# 5 0.000000 0.000000 0.000000 0.000000 0.041899 0.000000
# 6 0.000000 0.000000 0.000000 0.000000 0.000000 0.054007
#
#
# Mechanical properties :
#
#
# Convention : Reuss Voigt Hill
#
# Bulk Modulus (GPa) = 52.07470 57.93066 55.00268
# Shear Modulus (GPa) = 18.70915 20.41772 19.56343
#
# Velocity S-wave (km/s) = 3.49938 3.65568 3.57839
# Velocity P-wave (km/s) = 7.10014 7.46565 7.28519
#
# Compressibility (1/GPa) = 0.01920318
#
# Stress axis : x y z
#
# Youngs Moduli (GPa) = 28.07291 57.91125 54.63710
#
# Poissons Ratio (x) = 0.60196 0.62221
# Poissons Ratio (y) = 0.29181 0.23011
# Poissons Ratio (z) = 0.31970 0.24390
#
# Static dielectric constant tensor:
#      x y z
#    x 1.509370 0.000000 0.000000 
#    y 0.000000 1.527670 0.000000 
#    z 0.000000 0.000000 1.479620 
# 
# From -- ./inp_files/32547.got.cif
#   From: 2010.05.17/outbox.cif.g08.bks.cpg/sg51_17_cif.got.tgz:32547.got - 2010.06.03 11:52:47.
