data_PCOD9400665
_publ_section_title
;
Structure prediction by ZEFSAII (Michael W. Deem and Ramdas Pophale) SiO2 
 PCOD9400665
Probable space group: P M M A
;
_chemical_formula_sum "Si O2"
_cell_formula_units_Z 56
_cell_length_a 18.135611
_cell_length_b 9.500254
_cell_length_c 19.790566
_cell_angle_alpha 90.000000
_cell_angle_beta 90.000000
_cell_angle_gamma 90.000000
_cell_volume 3409.774225
_symmetry_space_group_name_H-M "P M M A"
_symmetry_group_IT_number 51
_symmetry_cell_setting 'orthorhombic'
loop_
_space_group_symop_operation_xyz
x,y,z
1/2-x,-y,z
1/2+x,-y,-z
-x,y,-z
-x,-y,-z
1/2+x,y,-z
1/2-x,y,z
x,-y,z
loop_
_atom_site_type_symbol
_atom_site_label
_atom_site_fract_x
_atom_site_fract_y
_atom_site_fract_z
Si Si1 0.335311 0.169292 0.664938
Si Si2 0.973622 0.331928 0.295630
Si Si3 0.837329 0.840934 0.491632
Si Si4 0.430011 0.838797 0.949064
Si Si5 0.449390 0.332205 0.435074
Si Si6 0.664082 0.331690 0.947116
Si Si7 0.028237 0.666934 0.149761
O O1 0.250000 0.204408 0.680714
O O2 0.396375 0.249964 0.707712
O O3 0.349234 0.207177 0.585913
O O4 0.342652 0.000000 0.670393
O O5 0.959664 0.500000 0.299848
O O6 0.014615 0.287852 0.364532
O O7 0.023056 0.306326 0.229533
O O8 0.750000 0.845434 0.500237
O O9 0.873871 0.743272 0.546921
O O10 0.866874 0.000000 0.497321
O O11 0.463112 0.754099 0.885986
O O12 0.409327 0.000000 0.933401
O O13 0.500000 0.842777 0.000000
O O14 0.366345 0.754935 0.988701
O O15 0.500000 0.297825 0.500000
O O16 0.440359 0.500000 0.432969
O O17 0.750000 0.299873 0.932744
O O18 0.658511 0.500000 0.960007
O O19 0.606676 0.299660 0.885942
O O20 0.015638 0.500000 0.138450
#
# Coordination Sequence:
#
# PCOD9400665 Si02
#       7
#     8   8   8   8   8   8   8
#     4   9  18  32  49  69  92 120 159 207 256 304
#     4  10  20  33  49  72 101 134 169 206 249 298
#     4   9  18  32  49  69  92 120 160 209 257 304
#     4   9  17  30  50  75 100 125 157 196 238 284
#     4  10  19  31  47  71 100 127 163 210 255 302
#     4   9  17  31  53  78 101 130 167 203 240 285
#     4   9  18  33  51  72 102 136 169 204 242 289
#
# _framework density 16.423373999999999
#
# number of rings (size 3 to 8) (size 9 to 14) (size 15 to 20)
#    0.000    2.714    1.429    1.286    0.000    4.000 
#    0.000    2.857    0.000    3.429    0.000    0.000 
#    0.000    0.000    0.000    0.000    0.000    0.000 
#
# Total GULP energy -311852.803730 kJ/mol
# GULP energy per Si atom -5568.800067 kJ/mol
# Density = 1.638599 g / cm^3
# Si number density = 16.423374 Si / 1000 Ang^3
#
#
#
# Elastic Constant Matrix: (Units=GPa)
#
#
# Indices 1 2 3 4 5 6 
#
# 1 94.9814 40.2428 46.3002 0.0000 0.0000 0.0000
# 2 40.2428 28.9397 39.8182 0.0000 0.0000 0.0000
# 3 46.3002 39.8182 89.2120 0.0000 0.0000 0.0000
# 4 0.0000 0.0000 0.0000 14.0705 0.0000 0.0000
# 5 0.0000 0.0000 0.0000 0.0000 21.1706 0.0000
# 6 0.0000 0.0000 0.0000 0.0000 0.0000 28.7894
#
#
#
# Elastic Compliance Matrix: (Units=1/GPa)
#
#
# Indices 1 2 3 4 5 6 
#
# 1 0.027299 -0.047857 0.007192 0.000000 0.000000 0.000000
# 2 -0.047857 0.173442 -0.052575 0.000000 0.000000 0.000000
# 3 0.007192 -0.052575 0.030943 0.000000 0.000000 0.000000
# 4 0.000000 0.000000 0.000000 0.071071 0.000000 0.000000
# 5 0.000000 0.000000 0.000000 0.000000 0.047235 0.000000
# 6 0.000000 0.000000 0.000000 0.000000 0.000000 0.034735
#
#
# Mechanical properties :
#
#
# Convention : Reuss Voigt Hill
#
# Bulk Modulus (GPa) = 22.12231 51.76171 36.94201
# Shear Modulus (GPa) = 8.52845 18.59089 13.55967
#
# Velocity S-wave (km/s) = 2.28126 3.36814 2.87650
# Velocity P-wave (km/s) = 4.52085 6.83457 5.79437
#
# Compressibility (1/GPa) = 0.04520324
#
# Stress axis : x y z
#
# Youngs Moduli (GPa) = 36.63133 5.76561 32.31790
#
# Poissons Ratio (x) = 0.27593 -0.23244
# Poissons Ratio (y) = 1.75307 1.69912
# Poissons Ratio (z) = -0.26346 0.30313
#
# Static dielectric constant tensor:
#      x y z
#    x 1.553160 0.000000 0.000000 
#    y 0.000000 1.553270 0.000000 
#    z 0.000000 0.000000 1.552390 
# 
# From -- ./inp_files/33676.got.cif
#   From: 2010.05.17/outbox.cif.g08.bks.cpg/sg51_17_cif.got.tgz:33676.got - 2010.06.03 11:52:47.
