data_PCOD9400162
_publ_section_title
;
Structure prediction by ZEFSAII (Michael W. Deem and Ramdas Pophale) SiO2 
 PCOD9400162
Probable space group: P M M A
;
_chemical_formula_sum "Si O2"
_cell_formula_units_Z 64
_cell_length_a 15.399679
_cell_length_b 13.728612
_cell_length_c 18.407805
_cell_angle_alpha 90.000000
_cell_angle_beta 90.000000
_cell_angle_gamma 90.000000
_cell_volume 3891.708513
_symmetry_space_group_name_H-M "P M M A"
_symmetry_group_IT_number 51
_symmetry_cell_setting 'orthorhombic'
loop_
_space_group_symop_operation_xyz
x,y,z
1/2-x,-y,z
1/2+x,-y,-z
-x,y,-z
-x,-y,-z
1/2+x,y,-z
1/2-x,y,z
x,-y,z
loop_
_atom_site_type_symbol
_atom_site_label
_atom_site_fract_x
_atom_site_fract_y
_atom_site_fract_z
Si Si1 0.854749 0.110733 0.082982
Si Si2 0.355182 0.891373 0.496037
Si Si3 0.996674 0.615232 0.587599
Si Si4 0.149681 0.239688 0.361117
Si Si5 0.108770 0.886954 0.756004
Si Si6 0.094393 0.111831 0.231627
Si Si7 0.349785 0.748958 0.624718
Si Si8 0.649339 0.117972 0.927343
O O1 0.750000 0.105675 0.077114
O O2 0.874867 0.151380 0.162199
O O3 0.890542 0.000000 0.086667
O O4 0.883981 0.154749 0.005802
O O5 0.250000 0.896457 0.500223
O O6 0.375982 0.844018 0.419015
O O7 0.381973 0.820269 0.560368
O O8 0.389729 0.000000 0.504232
O O9 0.990127 0.500000 0.599330
O O10 0.915608 0.672397 0.622799
O O11 0.000000 0.631596 0.500000
O O12 0.083732 0.659870 0.623093
O O13 0.250000 0.267196 0.374610
O O14 0.141370 0.189119 0.282822
O O15 0.147434 0.814547 0.696924
O O16 0.005637 0.889781 0.745126
O O17 0.141128 0.000000 0.750268
O O18 0.100040 0.140456 0.146766
O O19 0.128942 0.000000 0.238324
O O20 0.250000 0.719661 0.610360
O O21 0.750000 0.147196 0.917608
O O22 0.648361 0.000000 0.933983
#
# Coordination Sequence:
#
# PCOD9400162 Si02
#       8
#     8   8   8   8   8   8   8   8
#     4   8  14  25  40  60  92 137 182 215 245 285
#     4   9  18  31  49  74 103 137 170 200 236 286
#     4  11  24  42  60  78  99 124 165 219 270 315
#     4  11  21  36  55  76 103 134 171 209 252 305
#     4  10  19  29  45  72 106 142 177 212 250 295
#     4  10  19  29  45  72 106 142 177 212 250 295
#     4  11  21  36  55  76 103 134 171 209 252 305
#     4   8  14  25  40  60  92 137 182 215 245 285
#
# _framework density 16.445219000000002
#
# number of rings (size 3 to 8) (size 9 to 14) (size 15 to 20)
#    0.000    2.250    2.500    2.250    0.000    3.500 
#    0.000    4.375    0.000    0.000    0.000    0.000 
#    0.000    2.000    0.000    5.250    0.000    0.250 
#
# Total GULP energy -356694.359039 kJ/mol
# GULP energy per Si atom -5573.349360 kJ/mol
# Density = 1.640779 g / cm^3
# Si number density = 16.445219 Si / 1000 Ang^3
#
#
#
# Elastic Constant Matrix: (Units=GPa)
#
#
# Indices 1 2 3 4 5 6 
#
# 1 65.5830 26.9987 3.8780 0.0000 0.0000 0.0000
# 2 26.9987 68.5133 21.6924 0.0000 0.0000 0.0000
# 3 3.8780 21.6924 89.1293 0.0000 0.0000 0.0000
# 4 0.0000 0.0000 0.0000 3.6202 0.0000 0.0000
# 5 0.0000 0.0000 0.0000 0.0000 17.5602 0.0000
# 6 0.0000 0.0000 0.0000 0.0000 0.0000 10.7790
#
#
#
# Elastic Compliance Matrix: (Units=1/GPa)
#
#
# Indices 1 2 3 4 5 6 
#
# 1 0.018289 -0.007536 0.001038 0.000000 0.000000 0.000000
# 2 -0.007536 0.018919 -0.004277 0.000000 0.000000 0.000000
# 3 0.001038 -0.004277 0.012215 0.000000 0.000000 0.000000
# 4 0.000000 0.000000 0.000000 0.276226 0.000000 0.000000
# 5 0.000000 0.000000 0.000000 0.000000 0.056947 0.000000
# 6 0.000000 0.000000 0.000000 0.000000 0.000000 0.092773
#
#
# Mechanical properties :
#
#
# Convention : Reuss Voigt Hill
#
# Bulk Modulus (GPa) = 35.87422 36.48486 36.17954
# Shear Modulus (GPa) = 9.87733 17.76898 13.82316
#
# Velocity S-wave (km/s) = 2.45341 3.29065 2.90238
# Velocity P-wave (km/s) = 5.46694 6.05572 5.76884
#
# Compressibility (1/GPa) = 0.02787517
#
# Stress axis : x y z
#
# Youngs Moduli (GPa) = 54.67862 52.85602 81.86413
#
# Poissons Ratio (x) = 0.39831 -0.08500
# Poissons Ratio (y) = 0.41204 0.35011
# Poissons Ratio (z) = -0.05677 0.22605
#
# Static dielectric constant tensor:
#      x y z
#    x 1.593700 0.000000 0.000000 
#    y 0.000000 1.515770 0.000000 
#    z 0.000000 0.000000 1.589430 
# 
# From -- ./inp_files/29940.got.cif
#   From: 2010.05.17/outbox.cif.g08.bks.cpg/sg51_15_cif.got.tgz:29940.got - 2010.06.03 11:52:47.
