data_PCOD9400520
_publ_section_title
;
Structure prediction by ZEFSAII (Michael W. Deem and Ramdas Pophale) SiO2 
 PCOD9400520
Probable space group: P M M A
;
_chemical_formula_sum "Si O2"
_cell_formula_units_Z 48
_cell_length_a 20.035795
_cell_length_b 7.467666
_cell_length_c 15.469842
_cell_angle_alpha 90.000000
_cell_angle_beta 90.000000
_cell_angle_gamma 90.000000
_cell_volume 2314.607430
_symmetry_space_group_name_H-M "P M M A"
_symmetry_group_IT_number 51
_symmetry_cell_setting 'orthorhombic'
loop_
_space_group_symop_operation_xyz
x,y,z
1/2-x,-y,z
1/2+x,-y,-z
-x,y,-z
-x,-y,-z
1/2+x,y,-z
1/2-x,y,z
x,-y,z
loop_
_atom_site_type_symbol
_atom_site_label
_atom_site_fract_x
_atom_site_fract_y
_atom_site_fract_z
Si Si1 0.062560 0.785481 0.235087
Si Si2 0.085778 0.786009 0.723810
Si Si3 0.825603 0.715183 0.107626
Si Si4 0.173739 0.781594 0.565658
Si Si5 0.928519 0.285498 0.965870
Si Si6 0.674005 0.218557 0.631566
O O1 0.078814 0.750845 0.135210
O O2 0.119467 0.718260 0.300006
O O3 0.988479 0.715721 0.257371
O O4 0.060484 0.000000 0.245482
O O5 0.133288 0.754154 0.805662
O O6 0.121924 0.717612 0.637457
O O7 0.079768 0.000000 0.713689
O O8 0.750000 0.784248 0.110964
O O9 0.821673 0.500000 0.100461
O O10 0.868782 0.782333 0.026279
O O11 0.250000 0.727600 0.586283
O O12 0.158592 0.727574 0.467201
O O13 0.173179 0.000000 0.566851
O O14 0.929919 0.500000 0.976508
O O15 0.000000 0.216458 0.000000
O O16 0.750000 0.273934 0.651769
O O17 0.673839 0.000000 0.632517
#
# Coordination Sequence:
#
# PCOD9400520 Si02
#       6
#     8   8   8   8   8   8
#     4  10  20  31  49  77 102 127 162 206 249 288
#     4  10  19  30  48  76 105 129 159 201 246 291
#     4  10  21  36  53  73  96 126 166 205 242 292
#     4   8  14  26  45  68  97 133 165 195 238 290
#     4  10  20  36  54  69  92 131 167 196 242 299
#     4   8  15  29  47  69 100 134 166 201 243 290
#
# _framework density 20.737857999999999
#
# number of rings (size 3 to 8) (size 9 to 14) (size 15 to 20)
#    0.000    2.667    1.667    1.500    0.000    3.333 
#    0.000    3.333    0.000    1.000    0.000    4.667 
#    0.000    0.000    0.000    0.000    0.000    0.000 
#
# Total GULP energy -268002.985484 kJ/mol
# GULP energy per Si atom -5583.395531 kJ/mol
# Density = 2.069066 g / cm^3
# Si number density = 20.737858 Si / 1000 Ang^3
#
#
#
# Elastic Constant Matrix: (Units=GPa)
#
#
# Indices 1 2 3 4 5 6 
#
# 1 207.4705 5.7921 147.7341 0.0000 0.0000 0.0000
# 2 5.7921 60.1670 -3.8678 0.0000 0.0000 0.0000
# 3 147.7341 -3.8678 197.5415 0.0000 0.0000 0.0000
# 4 0.0000 0.0000 0.0000 41.8129 0.0000 0.0000
# 5 0.0000 0.0000 0.0000 0.0000 45.5326 0.0000
# 6 0.0000 0.0000 0.0000 0.0000 0.0000 3.3078
#
#
#
# Elastic Compliance Matrix: (Units=1/GPa)
#
#
# Indices 1 2 3 4 5 6 
#
# 1 0.010446 -0.001510 -0.007842 0.000000 0.000000 0.000000
# 2 -0.001510 0.016860 0.001459 0.000000 0.000000 0.000000
# 3 -0.007842 0.001459 0.010955 0.000000 0.000000 0.000000
# 4 0.000000 0.000000 0.000000 0.023916 0.000000 0.000000
# 5 0.000000 0.000000 0.000000 0.000000 0.021962 0.000000
# 6 0.000000 0.000000 0.000000 0.000000 0.000000 0.302319
#
#
# Mechanical properties :
#
#
# Convention : Reuss Voigt Hill
#
# Bulk Modulus (GPa) = 44.49131 84.94399 64.71765
# Shear Modulus (GPa) = 12.20302 39.16535 25.68419
#
# Velocity S-wave (km/s) = 2.42841 4.35051 3.52307
# Velocity P-wave (km/s) = 5.41882 8.14160 6.91554
#
# Compressibility (1/GPa) = 0.02247630
#
# Stress axis : x y z
#
# Youngs Moduli (GPa) = 95.73042 59.31363 91.27964
#
# Poissons Ratio (x) = 0.08955 0.71579
# Poissons Ratio (y) = 0.14452 -0.13319
# Poissons Ratio (z) = 0.75069 -0.08655
#
# Static dielectric constant tensor:
#      x y z
#    x 1.736330 0.000000 0.000000 
#    y 0.000000 1.803660 0.000000 
#    z 0.000000 0.000000 1.694950 
# 
# From -- ./inp_files/17316.got.cif
#   From: 2010.05.17/outbox.cif.g08.bks.cpg/sg51_9_cif.got.tgz:17316.got - 2010.06.03 11:52:47.
