data_PCOD9400462
_publ_section_title
;
Structure prediction by ZEFSAII (Michael W. Deem and Ramdas Pophale) SiO2 
 PCOD9400462
Probable space group: P M M A
;
_chemical_formula_sum "Si O2"
_cell_formula_units_Z 48
_cell_length_a 14.815665
_cell_length_b 9.633070
_cell_length_c 15.992161
_cell_angle_alpha 90.000000
_cell_angle_beta 90.000000
_cell_angle_gamma 90.000000
_cell_volume 2282.406624
_symmetry_space_group_name_H-M "P M M A"
_symmetry_group_IT_number 51
_symmetry_cell_setting 'orthorhombic'
loop_
_space_group_symop_operation_xyz
x,y,z
1/2-x,-y,z
1/2+x,-y,-z
-x,y,-z
-x,-y,-z
1/2+x,y,-z
1/2-x,y,z
x,-y,z
loop_
_atom_site_type_symbol
_atom_site_label
_atom_site_fract_x
_atom_site_fract_y
_atom_site_fract_z
Si Si1 0.610516 0.339176 0.407112
Si Si2 0.390437 0.340351 0.405471
Si Si3 0.892373 0.157402 0.748771
Si Si4 0.857918 0.343174 0.088299
Si Si5 0.891091 0.158241 0.251518
Si Si6 0.642141 0.841746 0.935684
O O1 0.637410 0.500000 0.393011
O O2 0.500520 0.338141 0.405460
O O3 0.637651 0.296813 0.501043
O O4 0.642360 0.237783 0.334176
O O5 0.363396 0.500000 0.393966
O O6 0.358765 0.247516 0.328665
O O7 0.873279 0.212353 0.841789
O O8 0.000523 0.151026 0.741080
O O9 0.857097 0.000000 0.745361
O O10 0.750000 0.355340 0.077878
O O11 0.894724 0.500000 0.096122
O O12 0.872168 0.251072 0.170567
O O13 0.892985 0.258731 0.007962
O O14 0.857874 0.000000 0.243396
O O15 0.750000 0.851839 0.946978
O O16 0.605281 0.000000 0.941204
#
# Coordination Sequence:
#
# PCOD9400462 Si02
#       6
#     8   8   8   8   8   8
#     4   8  14  26  43  65  94 125 158 193 229 272
#     4   8  14  25  43  66  93 126 158 190 230 274
#     4   9  18  30  46  72 100 123 153 195 237 275
#     4  10  21  36  52  69  90 119 156 195 233 278
#     4  10  19  30  47  72  99 124 152 191 237 281
#     4   9  18  34  53  69  90 124 160 191 228 276
#
# _framework density 21.030435000000001
#
# number of rings (size 3 to 8) (size 9 to 14) (size 15 to 20)
#    0.000    3.000    0.000    2.000    0.000    3.667 
#    0.000    6.667    0.000    1.000    0.000    4.667 
#    0.000    0.000    0.000    0.000    0.000    0.000 
#
# Total GULP energy -267868.547236 kJ/mol
# GULP energy per Si atom -5580.594734 kJ/mol
# Density = 2.098257 g / cm^3
# Si number density = 21.030435 Si / 1000 Ang^3
#
#
#
# Elastic Constant Matrix: (Units=GPa)
#
#
# Indices 1 2 3 4 5 6 
#
# 1 57.5251 3.5263 -1.1846 0.0000 0.0000 0.0000
# 2 3.5263 149.7961 142.9180 0.0000 0.0000 0.0000
# 3 -1.1846 142.9180 240.6306 0.0000 0.0000 0.0000
# 4 0.0000 0.0000 0.0000 41.5702 0.0000 0.0000
# 5 0.0000 0.0000 0.0000 0.0000 38.6422 0.0000
# 6 0.0000 0.0000 0.0000 0.0000 0.0000 14.5847
#
#
#
# Elastic Compliance Matrix: (Units=1/GPa)
#
#
# Indices 1 2 3 4 5 6 
#
# 1 0.017469 -0.001138 0.000762 0.000000 0.000000 0.000000
# 2 -0.001138 0.015480 -0.009199 0.000000 0.000000 0.000000
# 3 0.000762 -0.009199 0.009623 0.000000 0.000000 0.000000
# 4 0.000000 0.000000 0.000000 0.024056 0.000000 0.000000
# 5 0.000000 0.000000 0.000000 0.000000 0.025878 0.000000
# 6 0.000000 0.000000 0.000000 0.000000 0.000000 0.068565
#
#
# Mechanical properties :
#
#
# Convention : Reuss Voigt Hill
#
# Bulk Modulus (GPa) = 42.69717 82.05238 62.37478
# Shear Modulus (GPa) = 26.59163 39.13890 32.86526
#
# Velocity S-wave (km/s) = 3.55975 4.31868 3.95745
# Velocity P-wave (km/s) = 6.10265 7.99804 7.11376
#
# Compressibility (1/GPa) = 0.02342075
#
# Stress axis : x y z
#
# Youngs Moduli (GPa) = 57.24366 64.60156 103.91457
#
# Poissons Ratio (x) = 0.07354 -0.07919
# Poissons Ratio (y) = 0.06516 0.95595
# Poissons Ratio (z) = -0.04363 0.59429
#
# Static dielectric constant tensor:
#      x y z
#    x 1.809230 0.000000 0.000000 
#    y 0.000000 1.745580 0.000000 
#    z 0.000000 0.000000 1.730910 
# 
# From -- ./inp_files/18137.got.cif
#   From: 2010.05.17/outbox.cif.g08.bks.cpg/sg51_10_cif.got.tgz:18137.got - 2010.06.03 11:52:47.
