data_PCOD9400407
_publ_section_title
;
Structure prediction by ZEFSAII (Michael W. Deem and Ramdas Pophale) SiO2 
 PCOD9400407
Probable space group: P M M A
;
_chemical_formula_sum "Si O2"
_cell_formula_units_Z 48
_cell_length_a 21.138823
_cell_length_b 8.926903
_cell_length_c 15.525608
_cell_angle_alpha 90.000000
_cell_angle_beta 90.000000
_cell_angle_gamma 90.000000
_cell_volume 2929.747786
_symmetry_space_group_name_H-M "P M M A"
_symmetry_group_IT_number 51
_symmetry_cell_setting 'orthorhombic'
loop_
_space_group_symop_operation_xyz
x,y,z
1/2-x,-y,z
1/2+x,-y,-z
-x,y,-z
-x,-y,-z
1/2+x,y,-z
1/2-x,y,z
x,-y,z
loop_
_atom_site_type_symbol
_atom_site_label
_atom_site_fract_x
_atom_site_fract_y
_atom_site_fract_z
Si Si1 0.453282 0.318824 0.421663
Si Si2 0.447957 0.180399 0.928949
Si Si3 0.155198 0.326274 0.198245
Si Si4 0.992729 0.673316 0.766744
Si Si5 0.679526 0.820504 0.618511
Si Si6 0.681187 0.179860 0.983601
O O1 0.500000 0.281809 0.500000
O O2 0.446182 0.500000 0.417323
O O3 0.485787 0.270530 0.331386
O O4 0.382726 0.250103 0.426015
O O5 0.465144 0.238893 0.834666
O O6 0.449704 0.000000 0.927516
O O7 0.500000 0.230304 0.000000
O O8 0.378878 0.229528 0.960935
O O9 0.174034 0.500000 0.205064
O O10 0.079024 0.320921 0.198226
O O11 0.176693 0.238054 0.283023
O O12 0.177939 0.253362 0.110277
O O13 0.013003 0.500000 0.763962
O O14 0.750000 0.780371 0.584239
O O15 0.673989 0.000000 0.617246
O O16 0.750000 0.213510 0.022487
O O17 0.676282 0.000000 0.972951
#
# Coordination Sequence:
#
# PCOD9400407 Si02
#       6
#     8   8   8   8   8   8
#     4   9  19  36  56  78 103 130 165 208 256 308
#     4  10  19  31  48  69  93 127 169 202 233 286
#     4  10  19  30  46  70  99 130 164 199 242 296
#     4   9  18  31  49  73  97 125 159 201 246 287
#     4  10  20  32  48  73 105 136 165 200 245 300
#     4  10  20  32  45  64  94 129 164 205 249 288
#
# _framework density 16.383662999999999
#
# number of rings (size 3 to 8) (size 9 to 14) (size 15 to 20)
#    0.000    2.333    1.667    2.500    0.000    7.667 
#    0.000    0.000    0.000    1.000    0.000    4.667 
#    0.000    0.000    0.000    0.000    0.000    0.000 
#
# Total GULP energy -267548.944270 kJ/mol
# GULP energy per Si atom -5573.936339 kJ/mol
# Density = 1.634637 g / cm^3
# Si number density = 16.383663 Si / 1000 Ang^3
#
#
#
# Elastic Constant Matrix: (Units=GPa)
#
#
# Indices 1 2 3 4 5 6 
#
# 1 145.8822 41.3899 75.9729 0.0000 0.0000 0.0000
# 2 41.3899 25.0009 24.4472 0.0000 0.0000 0.0000
# 3 75.9729 24.4472 88.2700 0.0000 0.0000 0.0000
# 4 0.0000 0.0000 0.0000 19.9591 0.0000 0.0000
# 5 0.0000 0.0000 0.0000 0.0000 16.6704 0.0000
# 6 0.0000 0.0000 0.0000 0.0000 0.0000 12.0997
#
#
#
# Elastic Compliance Matrix: (Units=1/GPa)
#
#
# Indices 1 2 3 4 5 6 
#
# 1 0.017307 -0.019318 -0.009546 0.000000 0.000000 0.000000
# 2 -0.019318 0.076418 -0.004538 0.000000 0.000000 0.000000
# 3 -0.009546 -0.004538 0.020801 0.000000 0.000000 0.000000
# 4 0.000000 0.000000 0.000000 0.050102 0.000000 0.000000
# 5 0.000000 0.000000 0.000000 0.000000 0.059986 0.000000
# 6 0.000000 0.000000 0.000000 0.000000 0.000000 0.082647
#
#
# Mechanical properties :
#
#
# Convention : Reuss Voigt Hill
#
# Bulk Modulus (GPa) = 20.95415 60.30810 40.63113
# Shear Modulus (GPa) = 12.82143 17.56873 15.19508
#
# Velocity S-wave (km/s) = 2.80049 3.27820 3.04872
# Velocity P-wave (km/s) = 4.82435 7.15672 6.10299
#
# Compressibility (1/GPa) = 0.04772323
#
# Stress axis : x y z
#
# Youngs Moduli (GPa) = 57.78018 13.08599 48.07382
#
# Poissons Ratio (x) = 0.25280 0.45889
# Poissons Ratio (y) = 1.11621 0.21814
# Poissons Ratio (z) = 0.55154 0.05938
#
# Static dielectric constant tensor:
#      x y z
#    x 1.580100 0.000000 0.000000 
#    y 0.000000 1.554360 0.000000 
#    z 0.000000 0.000000 1.523600 
# 
# From -- ./inp_files/25448.got.cif
#   From: 2010.05.17/outbox.cif.g08.bks.cpg/sg51_13_cif.got.tgz:25448.got - 2010.06.03 11:52:47.
