data_PCOD9400002
_publ_section_title
;
Structure prediction by ZEFSAII (Michael W. Deem and Ramdas Pophale) SiO2 
 PCOD9400002
Probable space group: P M M A
;
_chemical_formula_sum "Si O2"
_cell_formula_units_Z 48
_cell_length_a 14.019099
_cell_length_b 7.322700
_cell_length_c 19.218690
_cell_angle_alpha 90.000000
_cell_angle_beta 90.000000
_cell_angle_gamma 90.000000
_cell_volume 1972.945672
_symmetry_space_group_name_H-M "P M M A"
_symmetry_group_IT_number 51
_symmetry_cell_setting 'orthorhombic'
loop_
_space_group_symop_operation_xyz
x,y,z
1/2-x,-y,z
1/2+x,-y,-z
-x,y,-z
-x,-y,-z
1/2+x,y,-z
1/2-x,y,z
x,-y,z
loop_
_atom_site_type_symbol
_atom_site_label
_atom_site_fract_x
_atom_site_fract_y
_atom_site_fract_z
Si Si1 0.633506 0.213081 0.039790
Si Si2 0.142397 0.776794 0.805744
Si Si3 0.645203 0.277289 0.451144
Si Si4 0.046751 0.218382 0.253178
Si Si5 0.439925 0.285119 0.405060
Si Si6 0.638772 0.222638 0.889788
O O1 0.750000 0.219325 0.037463
O O2 0.610687 0.284738 0.116560
O O3 0.605442 0.000000 0.041451
O O4 0.600025 0.286397 0.965009
O O5 0.250000 0.716423 0.791935
O O6 0.063255 0.719442 0.750775
O O7 0.144462 0.000000 0.807924
O O8 0.750000 0.214920 0.427529
O O9 0.647310 0.500000 0.447512
O O10 0.548776 0.213799 0.412545
O O11 0.625806 0.220498 0.531619
O O12 0.094089 0.261307 0.326490
O O13 0.093879 0.286142 0.182121
O O14 0.047126 0.000000 0.248427
O O15 0.447181 0.500000 0.417269
O O16 0.750000 0.268688 0.887657
O O17 0.631694 0.000000 0.891461
#
# Coordination Sequence:
#
# PCOD9400002 Si02
#       6
#     8   8   8   8   8   8
#     4   7  10  19  35  53  76 108 146 186 218 242
#     4   8  14  24  37  56  84 115 146 181 218 251
#     4   8  15  31  54  72  84 106 142 178 208 240
#     4  10  19  28  41  64  93 120 140 166 212 262
#     4   9  18  32  49  69  90 110 138 175 208 246
#     4   8  14  24  37  56  84 115 146 181 218 251
#
# _framework density 24.329103
#
# number of rings (size 3 to 8) (size 9 to 14) (size 15 to 20)
#    0.000    3.667    0.000    3.000    0.000    2.000 
#    0.000    5.000    0.000    1.000    0.000    2.333 
#    0.000    4.000    0.000    0.000    0.000    0.000 
#
# Total GULP energy -267760.176512 kJ/mol
# GULP energy per Si atom -5578.337011 kJ/mol
# Density = 2.427373 g / cm^3
# Si number density = 24.329103 Si / 1000 Ang^3
#
#
#
# Elastic Constant Matrix: (Units=GPa)
#
#
# Indices 1 2 3 4 5 6 
#
# 1 43.5266 -3.3661 -7.0330 0.0000 0.0000 0.0000
# 2 -3.3661 91.4587 -9.0814 0.0000 0.0000 0.0000
# 3 -7.0330 -9.0814 80.4325 0.0000 0.0000 0.0000
# 4 0.0000 0.0000 0.0000 4.0715 0.0000 0.0000
# 5 0.0000 0.0000 0.0000 0.0000 16.5404 0.0000
# 6 0.0000 0.0000 0.0000 0.0000 0.0000 -86.8380
#
#
#
# Elastic Compliance Matrix: (Units=1/GPa)
#
#
# Indices 1 2 3 4 5 6 
#
# 1 0.023408 0.001077 0.002168 0.000000 0.000000 0.000000
# 2 0.001077 0.011107 0.001348 0.000000 0.000000 0.000000
# 3 0.002168 0.001348 0.012775 0.000000 0.000000 0.000000
# 4 0.000000 0.000000 0.000000 0.245612 0.000000 0.000000
# 5 0.000000 0.000000 0.000000 0.000000 0.060458 0.000000
# 6 0.000000 0.000000 0.000000 0.000000 0.000000 -0.011516
#
#
# Mechanical properties :
#
#
# Convention : Reuss Voigt Hill
#
# Bulk Modulus (GPa) = 17.70630 19.60631 18.65631
# Shear Modulus (GPa) = 14.22543 2.41466 8.32004
#
# Velocity S-wave (km/s) = 2.42070 0.99732 1.85127
# Velocity P-wave (km/s) = 3.88673 3.06635 3.50065
#
# Compressibility (1/GPa) = 0.05647707
#
# Stress axis : x y z
#
# Youngs Moduli (GPa) = 42.72030 90.03003 78.28023
#
# Poissons Ratio (x) = -0.09695 -0.16974
# Poissons Ratio (y) = -0.04600 -0.10554
# Poissons Ratio (z) = -0.09263 -0.12138
#
# Static dielectric constant tensor:
#      x y z
#    x 1.944380 0.000000 0.000000 
#    y 0.000000 1.973650 0.000000 
#    z 0.000000 0.000000 1.925700 
# 
# From -- ./inp_files/24022.got.cif
#   From: 2010.05.17/outbox.cif.g08.bks.cpg/sg51_13_cif.got.tgz:24022.got - 2010.06.03 11:52:47.
