data_PCOD9400633
_publ_section_title
;
Structure prediction by ZEFSAII (Michael W. Deem and Ramdas Pophale) SiO2 
 PCOD9400633
Probable space group: P M M A
;
_chemical_formula_sum "Si O2"
_cell_formula_units_Z 48
_cell_length_a 8.597964
_cell_length_b 24.855516
_cell_length_c 13.864425
_cell_angle_alpha 90.000000
_cell_angle_beta 90.000000
_cell_angle_gamma 90.000000
_cell_volume 2962.922341
_symmetry_space_group_name_H-M "P M M A"
_symmetry_group_IT_number 51
_symmetry_cell_setting 'orthorhombic'
loop_
_space_group_symop_operation_xyz
x,y,z
1/2-x,-y,z
1/2+x,-y,-z
-x,y,-z
-x,-y,-z
1/2+x,y,-z
1/2-x,y,z
x,-y,z
loop_
_atom_site_type_symbol
_atom_site_label
_atom_site_fract_x
_atom_site_fract_y
_atom_site_fract_z
Si Si1 0.938847 0.559611 0.300727
Si Si2 0.437122 0.330086 0.604482
Si Si3 0.435759 0.277993 0.203537
Si Si4 0.063436 0.383633 0.896185
Si Si5 0.936550 0.058795 0.890374
Si Si6 0.564537 0.170742 0.109440
O O1 0.750000 0.558508 0.303810
O O2 0.996380 0.500000 0.325096
O O3 0.987963 0.608617 0.369267
O O4 0.981468 0.576737 0.191547
O O5 0.500000 0.315088 0.500000
O O6 0.250000 0.328078 0.606598
O O7 0.502690 0.293561 0.690515
O O8 0.250000 0.278071 0.201845
O O9 0.497972 0.325126 0.133092
O O10 0.499925 0.220971 0.168626
O O11 0.250000 0.380670 0.898810
O O12 0.000000 0.400146 0.000000
O O13 0.750000 0.063679 0.892867
O O14 0.008343 0.113276 0.848495
O O15 0.975888 0.000000 0.847083
O O16 0.000000 0.057362 0.000000
O O17 0.750000 0.172047 0.105848
O O18 0.500000 0.174860 0.000000
#
# Coordination Sequence:
#
# PCOD9400633 Si02
#       6
#     8   8   8   8   8   8
#     4   8  16  31  49  69  94 122 152 187 225 270
#     4  10  20  35  54  74  95 119 148 184 232 284
#     4  11  21  34  50  68  92 120 155 196 237 280
#     4  10  19  31  47  67  93 124 157 191 230 275
#     4   9  16  26  40  60  89 126 166 202 234 269
#     4  11  20  30  45  67  96 129 165 200 236 277
#
# _framework density 16.200222
#
# number of rings (size 3 to 8) (size 9 to 14) (size 15 to 20)
#    0.000    2.167    0.000    7.000    0.000    1.667 
#    0.000    0.000    0.000   17.000    0.000    0.000 
#    0.000    0.667    0.000    2.500    0.000    4.167 
#
# Total GULP energy -267724.615310 kJ/mol
# GULP energy per Si atom -5577.596152 kJ/mol
# Density = 1.616335 g / cm^3
# Si number density = 16.200222 Si / 1000 Ang^3
#
#
#
# Elastic Constant Matrix: (Units=GPa)
#
#
# Indices 1 2 3 4 5 6 
#
# 1 92.8014 30.8369 18.3823 0.0000 0.0000 0.0000
# 2 30.8369 115.3432 18.3127 0.0000 0.0000 0.0000
# 3 18.3823 18.3127 58.4621 0.0000 0.0000 0.0000
# 4 0.0000 0.0000 0.0000 7.9851 0.0000 0.0000
# 5 0.0000 0.0000 0.0000 0.0000 21.8417 0.0000
# 6 0.0000 0.0000 0.0000 0.0000 0.0000 29.7763
#
#
#
# Elastic Compliance Matrix: (Units=1/GPa)
#
#
# Indices 1 2 3 4 5 6 
#
# 1 0.012303 -0.002815 -0.002987 0.000000 0.000000 0.000000
# 2 -0.002815 0.009768 -0.002175 0.000000 0.000000 0.000000
# 3 -0.002987 -0.002175 0.018725 0.000000 0.000000 0.000000
# 4 0.000000 0.000000 0.000000 0.125233 0.000000 0.000000
# 5 0.000000 0.000000 0.000000 0.000000 0.045784 0.000000
# 6 0.000000 0.000000 0.000000 0.000000 0.000000 0.033584
#
#
# Mechanical properties :
#
#
# Convention : Reuss Voigt Hill
#
# Bulk Modulus (GPa) = 40.25194 44.63005 42.44100
# Shear Modulus (GPa) = 18.54395 25.19227 21.86811
#
# Velocity S-wave (km/s) = 3.38697 3.94770 3.67804
# Velocity P-wave (km/s) = 6.34002 6.95614 6.65522
#
# Compressibility (1/GPa) = 0.02484352
#
# Stress axis : x y z
#
# Youngs Moduli (GPa) = 81.28329 102.37940 53.40364
#
# Poissons Ratio (x) = 0.28819 0.15949
# Poissons Ratio (y) = 0.22881 0.11613
# Poissons Ratio (z) = 0.24276 0.22263
#
# Static dielectric constant tensor:
#      x y z
#    x 1.538020 0.000000 0.000000 
#    y 0.000000 1.572490 0.000000 
#    z 0.000000 0.000000 1.516150 
# 
# From -- ./inp_files/14434.got.cif
#   From: 2010.05.17/outbox.cif.g08.bks.cpg/sg51_8_cif.got.tgz:14434.got - 2010.06.03 11:52:47.
