data_PCOD9400990
_publ_section_title
;
Structure prediction by ZEFSAII (Michael W. Deem and Ramdas Pophale) SiO2 
 PCOD9400990
Probable space group: P M M A
;
_chemical_formula_sum "Si O2"
_cell_formula_units_Z 56
_cell_length_a 8.854533
_cell_length_b 14.726457
_cell_length_c 23.992220
_cell_angle_alpha 90.000000
_cell_angle_beta 90.000000
_cell_angle_gamma 90.000000
_cell_volume 3128.487107
_symmetry_space_group_name_H-M "P M M A"
_symmetry_group_IT_number 51
_symmetry_cell_setting 'orthorhombic'
loop_
_space_group_symop_operation_xyz
x,y,z
1/2-x,-y,z
1/2+x,-y,-z
-x,y,-z
-x,-y,-z
1/2+x,y,-z
1/2-x,y,z
x,-y,z
loop_
_atom_site_type_symbol
_atom_site_label
_atom_site_fract_x
_atom_site_fract_y
_atom_site_fract_z
Si Si1 0.569640 0.394299 0.718661
Si Si2 0.568226 0.102307 0.889364
Si Si3 0.929947 0.893997 0.230756
Si Si4 0.567887 0.104486 0.439593
Si Si5 0.567479 0.228010 0.336175
Si Si6 0.074098 0.609032 0.838325
Si Si7 0.069099 0.286985 0.058136
O O1 0.750000 0.386518 0.721544
O O2 0.530905 0.500000 0.708332
O O3 0.503409 0.326457 0.672915
O O4 0.499541 0.368498 0.778743
O O5 0.750000 0.100745 0.888711
O O6 0.511427 0.126037 0.827355
O O7 0.520764 0.182476 0.930458
O O8 0.514079 0.000000 0.902811
O O9 0.750000 0.882923 0.222624
O O10 0.976839 0.831863 0.282237
O O11 0.957637 0.000000 0.244207
O O12 0.500000 0.125544 0.500000
O O13 0.750000 0.107254 0.442849
O O14 0.520251 0.174184 0.391581
O O15 0.525707 0.000000 0.425312
O O16 0.750000 0.234473 0.336384
O O17 0.250000 0.635873 0.837770
O O18 0.065121 0.500000 0.844595
O O19 0.990252 0.656079 0.889449
O O20 0.250000 0.291462 0.055885
O O21 0.000000 0.319224 0.000000
#
# Coordination Sequence:
#
# PCOD9400990 Si02
#       7
#     8   8   8   8   8   8   8
#     4  10  21  36  54  78 107 136 167 208 258 309
#     4   9  19  35  51  69  97 131 165 203 248 297
#     4   9  17  29  47  73 102 130 161 199 247 302
#     4   9  18  33  52  76 109 147 184 220 258 302
#     4  10  19  31  51  77 105 138 175 215 256 301
#     4  10  21  38  59  80 103 132 165 204 254 311
#     4  11  23  37  54  75 100 131 168 211 255 302
#
# _framework density 17.900024999999999
#
# number of rings (size 3 to 8) (size 9 to 14) (size 15 to 20)
#    0.000    2.286    0.000    2.571    0.000    8.571 
#    0.000    0.000    0.000    4.714    0.000    0.000 
#    0.000    0.000    0.000    0.000    0.000    0.000 
#
# Total GULP energy -312629.796823 kJ/mol
# GULP energy per Si atom -5582.674943 kJ/mol
# Density = 1.785928 g / cm^3
# Si number density = 17.900025 Si / 1000 Ang^3
#
#
#
# Elastic Constant Matrix: (Units=GPa)
#
#
# Indices 1 2 3 4 5 6 
#
# 1 30.8601 33.7206 29.4499 0.0000 0.0000 0.0000
# 2 33.7206 79.6567 68.8767 0.0000 0.0000 0.0000
# 3 29.4499 68.8767 97.9865 0.0000 0.0000 0.0000
# 4 0.0000 0.0000 0.0000 24.8743 0.0000 0.0000
# 5 0.0000 0.0000 0.0000 0.0000 29.4719 0.0000
# 6 0.0000 0.0000 0.0000 0.0000 0.0000 24.5629
#
#
#
# Elastic Compliance Matrix: (Units=1/GPa)
#
#
# Indices 1 2 3 4 5 6 
#
# 1 0.060302 -0.025130 -0.000459 0.000000 0.000000 0.000000
# 2 -0.025130 0.042481 -0.022308 0.000000 0.000000 0.000000
# 3 -0.000459 -0.022308 0.026024 0.000000 0.000000 0.000000
# 4 0.000000 0.000000 0.000000 0.040202 0.000000 0.000000
# 5 0.000000 0.000000 0.000000 0.000000 0.033931 0.000000
# 6 0.000000 0.000000 0.000000 0.000000 0.000000 0.040712
#
#
# Mechanical properties :
#
#
# Convention : Reuss Voigt Hill
#
# Bulk Modulus (GPa) = 30.29141 52.51084 41.40112
# Shear Modulus (GPa) = 14.26733 20.87889 17.57311
#
# Velocity S-wave (km/s) = 2.82628 3.41899 3.13667
# Velocity P-wave (km/s) = 5.25450 6.70711 6.02474
#
# Compressibility (1/GPa) = 0.03301266
#
# Stress axis : x y z
#
# Youngs Moduli (GPa) = 16.58311 23.53993 38.42583
#
# Poissons Ratio (x) = 0.59156 0.01765
# Poissons Ratio (y) = 0.41674 0.85720
# Poissons Ratio (z) = 0.00762 0.52513
#
# Static dielectric constant tensor:
#      x y z
#    x 1.598680 0.000000 0.000000 
#    y 0.000000 1.640010 0.000000 
#    z 0.000000 0.000000 1.572860 
# 
# From -- ./inp_files/31963.got.cif
#   From: 2010.05.17/outbox.cif.g08.bks.cpg/sg51_16_cif.got.tgz:31963.got - 2010.06.03 11:52:47.
