data_PCOD9400598
_publ_section_title
;
Structure prediction by ZEFSAII (Michael W. Deem and Ramdas Pophale) SiO2 
 PCOD9400598
Probable space group: P M M A
;
_chemical_formula_sum "Si O2"
_cell_formula_units_Z 48
_cell_length_a 7.766926
_cell_length_b 19.868564
_cell_length_c 15.234413
_cell_angle_alpha 90.000000
_cell_angle_beta 90.000000
_cell_angle_gamma 90.000000
_cell_volume 2350.939062
_symmetry_space_group_name_H-M "P M M A"
_symmetry_group_IT_number 51
_symmetry_cell_setting 'orthorhombic'
loop_
_space_group_symop_operation_xyz
x,y,z
1/2-x,-y,z
1/2+x,-y,-z
-x,y,-z
-x,-y,-z
1/2+x,y,-z
1/2-x,y,z
x,-y,z
loop_
_atom_site_type_symbol
_atom_site_label
_atom_site_fract_x
_atom_site_fract_y
_atom_site_fract_z
Si Si1 0.960333 0.311755 0.260121
Si Si2 0.542489 0.577063 0.399449
Si Si3 0.454671 0.925452 0.168705
Si Si4 0.455970 0.787722 0.590907
Si Si5 0.454536 0.777034 0.899964
Si Si6 0.951543 0.071122 0.370334
O O1 0.750000 0.316574 0.256248
O O2 0.017430 0.377225 0.316728
O O3 0.014504 0.252042 0.325181
O O4 0.019174 0.282207 0.165953
O O5 0.500000 0.598693 0.500000
O O6 0.750000 0.577468 0.395189
O O7 0.480741 0.500000 0.390510
O O8 0.250000 0.927887 0.180647
O O9 0.490958 0.854468 0.121250
O O10 0.538878 0.922321 0.264953
O O11 0.505682 0.000000 0.130169
O O12 0.500000 0.753241 0.500000
O O13 0.250000 0.791660 0.597907
O O14 0.533632 0.862128 0.591617
O O15 0.250000 0.777879 0.889375
O O16 0.500000 0.761953 0.000000
O O17 0.750000 0.069563 0.394288
O O18 0.032183 0.000000 0.395279
#
# Coordination Sequence:
#
# PCOD9400598 Si02
#       6
#     8   8   8   8   8   8
#     4   9  18  34  53  74 105 139 171 210 260 311
#     4   9  17  31  54  84 115 146 178 210 248 300
#     4  10  20  34  53  77 102 129 169 221 273 322
#     4  10  19  31  46  69  97 131 169 208 252 303
#     4  11  22  38  57  77 102 135 175 221 267 318
#     4   9  17  31  49  66  91 132 173 209 257 310
#
# _framework density 20.417373000000001
#
# number of rings (size 3 to 8) (size 9 to 14) (size 15 to 20)
#    0.000    2.333    1.667    1.500    0.000    2.333 
#    0.000    1.667    0.000    0.500    0.000    0.000 
#    0.000    0.000    0.000    0.000    0.000    0.167 
#
# Total GULP energy -267360.277272 kJ/mol
# GULP energy per Si atom -5570.005776 kJ/mol
# Density = 2.037090 g / cm^3
# Si number density = 20.417373 Si / 1000 Ang^3
#
#
#
# Elastic Constant Matrix: (Units=GPa)
#
#
# Indices 1 2 3 4 5 6 
#
# 1 39.0457 9.0881 -4.4068 0.0000 0.0000 0.0000
# 2 9.0881 154.4296 75.2542 0.0000 0.0000 0.0000
# 3 -4.4068 75.2542 144.6375 0.0000 0.0000 0.0000
# 4 0.0000 0.0000 0.0000 111.1840 0.0000 0.0000
# 5 0.0000 0.0000 0.0000 0.0000 17.6746 0.0000
# 6 0.0000 0.0000 0.0000 0.0000 0.0000 14.4875
#
#
#
# Elastic Compliance Matrix: (Units=1/GPa)
#
#
# Indices 1 2 3 4 5 6 
#
# 1 0.026464 -0.002613 0.002166 0.000000 0.000000 0.000000
# 2 -0.002613 0.008933 -0.004727 0.000000 0.000000 0.000000
# 3 0.002166 -0.004727 0.009439 0.000000 0.000000 0.000000
# 4 0.000000 0.000000 0.000000 0.008994 0.000000 0.000000
# 5 0.000000 0.000000 0.000000 0.000000 0.056578 0.000000
# 6 0.000000 0.000000 0.000000 0.000000 0.000000 0.069025
#
#
# Mechanical properties :
#
#
# Convention : Reuss Voigt Hill
#
# Bulk Modulus (GPa) = 28.99635 55.33153 42.16394
# Shear Modulus (GPa) = 24.84131 45.88105 35.36118
#
# Velocity S-wave (km/s) = 3.49187 4.74556 4.16614
# Velocity P-wave (km/s) = 5.52179 7.56216 6.62104
#
# Compressibility (1/GPa) = 0.03448710
#
# Stress axis : x y z
#
# Youngs Moduli (GPa) = 37.78784 111.94646 105.93867
#
# Poissons Ratio (x) = 0.29248 -0.22943
# Poissons Ratio (y) = 0.09873 0.50081
# Poissons Ratio (z) = -0.08184 0.52921
#
# Static dielectric constant tensor:
#      x y z
#    x 1.737320 0.000000 0.000000 
#    y 0.000000 1.798420 0.000000 
#    z 0.000000 0.000000 1.703610 
# 
# From -- ./inp_files/21378.got.cif
#   From: 2010.05.17/outbox.cif.g08.bks.cpg/sg51_11_cif.got.tgz:21378.got - 2010.06.03 11:52:47.
