data_PCOD9400866
_publ_section_title
;
Structure prediction by ZEFSAII (Michael W. Deem and Ramdas Pophale) SiO2 
 PCOD9400866
Probable space group: P M M A
;
_chemical_formula_sum "Si O2"
_cell_formula_units_Z 48
_cell_length_a 19.974286
_cell_length_b 7.591595
_cell_length_c 15.547892
_cell_angle_alpha 90.000000
_cell_angle_beta 90.000000
_cell_angle_gamma 90.000000
_cell_volume 2357.630875
_symmetry_space_group_name_H-M "P M M A"
_symmetry_group_IT_number 51
_symmetry_cell_setting 'orthorhombic'
loop_
_space_group_symop_operation_xyz
x,y,z
1/2-x,-y,z
1/2+x,-y,-z
-x,y,-z
-x,-y,-z
1/2+x,y,-z
1/2-x,y,z
x,-y,z
loop_
_atom_site_type_symbol
_atom_site_label
_atom_site_fract_x
_atom_site_fract_y
_atom_site_fract_z
Si Si1 0.826792 0.284266 0.109131
Si Si2 0.572096 0.284936 0.961767
Si Si3 0.825353 0.788288 0.628680
Si Si4 0.561830 0.710675 0.767626
Si Si5 0.825731 0.787998 0.434521
Si Si6 0.086440 0.290237 0.728825
O O1 0.750000 0.226253 0.108335
O O2 0.826240 0.500000 0.109921
O O3 0.866089 0.223690 0.194361
O O4 0.869003 0.228862 0.025690
O O5 0.572781 0.500000 0.961873
O O6 0.578451 0.223815 0.863549
O O7 0.500000 0.232527 0.000000
O O8 0.750000 0.725778 0.650243
O O9 0.880570 0.743303 0.698585
O O10 0.841619 0.726435 0.531529
O O11 0.822661 0.000000 0.624928
O O12 0.555916 0.500000 0.775288
O O13 0.489151 0.779183 0.737534
O O14 0.750000 0.726930 0.412597
O O15 0.878882 0.738699 0.362581
O O16 0.823774 0.000000 0.436624
O O17 0.082522 0.500000 0.741369
#
# Coordination Sequence:
#
# PCOD9400866 Si02
#       6
#     8   8   8   8   8   8
#     4   9  16  26  44  71 100 133 172 207 244 297
#     4   9  15  28  47  68 102 140 166 199 250 299
#     4   9  20  39  57  72  97 135 175 214 258 307
#     4  10  20  32  52  80 107 135 168 210 258 305
#     4   9  19  36  55  73  97 134 176 214 255 304
#     4  10  19  31  49  77 109 136 163 205 261 310
#
# _framework density 20.359421999999999
#
# number of rings (size 3 to 8) (size 9 to 14) (size 15 to 20)
#    0.000    2.667    1.667    1.500    0.000    4.000 
#    0.000    6.667    0.000    1.500    0.000    2.333 
#    0.000    0.000    0.000    0.000    0.000    0.000 
#
# Total GULP energy -267903.970792 kJ/mol
# GULP energy per Si atom -5581.332725 kJ/mol
# Density = 2.031308 g / cm^3
# Si number density = 20.359422 Si / 1000 Ang^3
#
#
#
# Elastic Constant Matrix: (Units=GPa)
#
#
# Indices 1 2 3 4 5 6 
#
# 1 208.2251 5.9141 150.2418 0.0000 0.0000 0.0000
# 2 5.9141 41.0499 2.3116 0.0000 0.0000 0.0000
# 3 150.2418 2.3116 201.3517 0.0000 0.0000 0.0000
# 4 0.0000 0.0000 0.0000 42.5733 0.0000 0.0000
# 5 0.0000 0.0000 0.0000 0.0000 40.5252 0.0000
# 6 0.0000 0.0000 0.0000 0.0000 0.0000 22.9848
#
#
#
# Elastic Compliance Matrix: (Units=1/GPa)
#
#
# Indices 1 2 3 4 5 6 
#
# 1 0.010450 -0.001067 -0.007785 0.000000 0.000000 0.000000
# 2 -0.001067 0.024485 0.000515 0.000000 0.000000 0.000000
# 3 -0.007785 0.000515 0.010770 0.000000 0.000000 0.000000
# 4 0.000000 0.000000 0.000000 0.023489 0.000000 0.000000
# 5 0.000000 0.000000 0.000000 0.000000 0.024676 0.000000
# 6 0.000000 0.000000 0.000000 0.000000 0.000000 0.043507
#
#
# Mechanical properties :
#
#
# Convention : Reuss Voigt Hill
#
# Bulk Modulus (GPa) = 34.44644 85.28463 59.86553
# Shear Modulus (GPa) = 30.53835 40.69395 35.61615
#
# Velocity S-wave (km/s) = 3.87714 4.47562 4.18708
# Velocity P-wave (km/s) = 6.08266 8.28786 7.26937
#
# Compressibility (1/GPa) = 0.02903057
#
# Stress axis : x y z
#
# Youngs Moduli (GPa) = 95.69193 40.84077 92.85335
#
# Poissons Ratio (x) = 0.04358 0.72289
# Poissons Ratio (y) = 0.10212 -0.04784
# Poissons Ratio (z) = 0.74499 -0.02104
#
# Static dielectric constant tensor:
#      x y z
#    x 1.699590 0.000000 0.000000 
#    y 0.000000 1.778350 0.000000 
#    z 0.000000 0.000000 1.699330 
# 
# From -- ./inp_files/24689.got.cif
#   From: 2010.05.17/outbox.cif.g08.bks.cpg/sg51_13_cif.got.tgz:24689.got - 2010.06.03 11:52:47.
