data_PCOD9400911
_publ_section_title
;
Structure prediction by ZEFSAII (Michael W. Deem and Ramdas Pophale) SiO2 
 PCOD9400911
Probable space group: P M M A
;
_chemical_formula_sum "Si O2"
_cell_formula_units_Z 48
_cell_length_a 18.552415
_cell_length_b 7.542815
_cell_length_c 17.125911
_cell_angle_alpha 90.000000
_cell_angle_beta 90.000000
_cell_angle_gamma 90.000000
_cell_volume 2396.556043
_symmetry_space_group_name_H-M "P M M A"
_symmetry_group_IT_number 51
_symmetry_cell_setting 'orthorhombic'
loop_
_space_group_symop_operation_xyz
x,y,z
1/2-x,-y,z
1/2+x,-y,-z
-x,y,-z
-x,-y,-z
1/2+x,y,-z
1/2-x,y,z
x,-y,z
loop_
_atom_site_type_symbol
_atom_site_label
_atom_site_fract_x
_atom_site_fract_y
_atom_site_fract_z
Si Si1 0.386146 0.296558 0.822210
Si Si2 0.537972 0.209885 0.749486
Si Si3 0.828891 0.717154 0.339508
Si Si4 0.976583 0.713969 0.415186
Si Si5 0.917362 0.714144 0.009640
Si Si6 0.168650 0.211533 0.148191
O O1 0.361525 0.500000 0.829607
O O2 0.469238 0.294837 0.792853
O O3 0.342517 0.219621 0.749307
O O4 0.385267 0.217344 0.908494
O O5 0.528178 0.238419 0.657229
O O6 0.612240 0.277647 0.786592
O O7 0.532614 0.000000 0.764906
O O8 0.750000 0.770268 0.367176
O O9 0.831200 0.500000 0.337944
O O10 0.896615 0.775506 0.390818
O O11 0.974855 0.500000 0.418168
O O12 0.000000 0.779388 0.500000
O O13 0.920918 0.500000 0.015474
O O14 0.868877 0.757785 0.935348
O O15 0.000000 0.777104 0.000000
O O16 0.250000 0.283385 0.151502
O O17 0.173666 0.000000 0.159086
#
# Coordination Sequence:
#
# PCOD9400911 Si02
#       6
#     8   8   8   8   8   8
#     4   9  17  30  49  72  98 128 163 202 247 300
#     4  10  19  32  52  73  95 128 167 205 244 295
#     4   8  14  26  46  70  95 123 154 191 237 291
#     4   9  18  33  53  75  99 127 159 200 250 304
#     4  10  19  31  50  75 101 131 170 217 259 300
#     4  10  22  37  50  69 101 140 178 214 253 297
#
# _framework density 20.028742000000001
#
# number of rings (size 3 to 8) (size 9 to 14) (size 15 to 20)
#    0.000    2.667    1.667    1.500    0.000    3.000 
#    0.000    2.500    0.000    9.000    0.000    0.000 
#    0.000    0.000    0.000    0.000    0.000    0.000 
#
# Total GULP energy -267745.614054 kJ/mol
# GULP energy per Si atom -5578.033626 kJ/mol
# Density = 1.998316 g / cm^3
# Si number density = 20.028742 Si / 1000 Ang^3
#
#
#
# Elastic Constant Matrix: (Units=GPa)
#
#
# Indices 1 2 3 4 5 6 
#
# 1 136.2176 -5.1343 78.2191 0.0000 0.0000 0.0000
# 2 -5.1343 51.6357 -5.8170 0.0000 0.0000 0.0000
# 3 78.2191 -5.8170 163.6003 0.0000 0.0000 0.0000
# 4 0.0000 0.0000 0.0000 13.3754 0.0000 0.0000
# 5 0.0000 0.0000 0.0000 0.0000 15.7321 0.0000
# 6 0.0000 0.0000 0.0000 0.0000 0.0000 13.2117
#
#
#
# Elastic Compliance Matrix: (Units=1/GPa)
#
#
# Indices 1 2 3 4 5 6 
#
# 1 0.010130 0.000464 -0.004827 0.000000 0.000000 0.000000
# 2 0.000464 0.019466 0.000471 0.000000 0.000000 0.000000
# 3 -0.004827 0.000471 0.008437 0.000000 0.000000 0.000000
# 4 0.000000 0.000000 0.000000 0.074764 0.000000 0.000000
# 5 0.000000 0.000000 0.000000 0.000000 0.063564 0.000000
# 6 0.000000 0.000000 0.000000 0.000000 0.000000 0.075691
#
#
# Mechanical properties :
#
#
# Convention : Reuss Voigt Hill
#
# Bulk Modulus (GPa) = 33.06107 53.99880 43.52993
# Shear Modulus (GPa) = 18.52399 27.40955 22.96677
#
# Velocity S-wave (km/s) = 3.04447 3.70335 3.38996
# Velocity P-wave (km/s) = 5.37597 6.73094 6.09125
#
# Compressibility (1/GPa) = 0.03024706
#
# Stress axis : x y z
#
# Youngs Moduli (GPa) = 98.71245 51.37285 118.52514
#
# Poissons Ratio (x) = -0.02381 0.57212
# Poissons Ratio (y) = -0.04576 -0.05577
# Poissons Ratio (z) = 0.47648 -0.02417
#
# Static dielectric constant tensor:
#      x y z
#    x 1.704790 0.000000 0.000000 
#    y 0.000000 1.745180 0.000000 
#    z 0.000000 0.000000 1.694570 
# 
# From -- ./inp_files/30071.got.cif
#   From: 2010.05.17/outbox.cif.g08.bks.cpg/sg51_16_cif.got.tgz:30071.got - 2010.06.03 11:52:47.
