data_PCOD9400701
_publ_section_title
;
Structure prediction by ZEFSAII (Michael W. Deem and Ramdas Pophale) SiO2 
 PCOD9400701
Probable space group: P M M A
;
_chemical_formula_sum "Si O2"
_cell_formula_units_Z 48
_cell_length_a 7.754646
_cell_length_b 17.019810
_cell_length_c 19.150063
_cell_angle_alpha 90.000000
_cell_angle_beta 90.000000
_cell_angle_gamma 90.000000
_cell_volume 2527.475134
_symmetry_space_group_name_H-M "P M M A"
_symmetry_group_IT_number 51
_symmetry_cell_setting 'orthorhombic'
loop_
_space_group_symop_operation_xyz
x,y,z
1/2-x,-y,z
1/2+x,-y,-z
-x,y,-z
-x,-y,-z
1/2+x,y,-z
1/2-x,y,z
x,-y,z
loop_
_atom_site_type_symbol
_atom_site_label
_atom_site_fract_x
_atom_site_fract_y
_atom_site_fract_z
Si Si1 0.457125 0.163823 0.148009
Si Si2 0.541834 0.255604 0.284487
Si Si3 0.953535 0.413450 0.214229
Si Si4 0.456556 0.000000 0.581999
Si Si5 0.457897 0.828941 0.581327
Si Si6 0.044550 0.674823 0.079415
Si Si7 0.958120 0.000000 0.917576
O O1 0.250000 0.161571 0.141938
O O2 0.499349 0.188757 0.227269
O O3 0.520097 0.238103 0.101848
O O4 0.522215 0.080004 0.119909
O O5 0.750000 0.260437 0.286033
O O6 0.473383 0.339199 0.256913
O O7 0.480014 0.232925 0.361557
O O8 0.750000 0.417161 0.230164
O O9 0.027731 0.500000 0.226925
O O10 0.971729 0.388053 0.133711
O O11 0.500000 0.000000 0.500000
O O12 0.522423 0.084656 0.605820
O O13 0.250000 0.000000 0.591723
O O14 0.500000 0.815552 0.500000
O O15 0.250000 0.830759 0.584510
O O16 0.250000 0.674657 0.087847
O O17 0.000000 0.658452 0.000000
O O18 0.750000 0.000000 0.911789
O O19 0.000000 0.000000 0.000000
#
# Coordination Sequence:
#
# PCOD9400701 Si02
#       7
#     8   8   8   4   8   8   4
#     4   9  19  33  47  66  93 125 159 194 232 273
#     4   9  18  32  50  71  93 119 154 193 232 278
#     4   9  18  33  51  69  90 118 151 187 230 279
#     4   8  14  25  40  60  88 117 143 174 211 251
#     4   9  17  29  46  69  95 122 153 187 224 268
#     4  10  19  31  48  69  93 120 151 189 232 276
#     4  10  20  33  48  68  95 127 165 202 233 269
#
# _framework density 18.991285000000001
#
# number of rings (size 3 to 8) (size 9 to 14) (size 15 to 20)
#    0.000    2.833    0.000    1.000    0.000    3.333 
#    0.000    0.833    0.000    3.500    0.000    0.000 
#    0.000    0.000    0.000    0.000    0.000    0.000 
#
# Total GULP energy -267468.593906 kJ/mol
# GULP energy per Si atom -5572.262373 kJ/mol
# Density = 1.894806 g / cm^3
# Si number density = 18.991285 Si / 1000 Ang^3
#
#
#
# Elastic Constant Matrix: (Units=GPa)
#
#
# Indices 1 2 3 4 5 6 
#
# 1 27.2775 7.9255 -5.5720 0.0000 0.0000 0.0000
# 2 7.9255 151.4394 80.6033 0.0000 0.0000 0.0000
# 3 -5.5720 80.6033 126.7339 0.0000 0.0000 0.0000
# 4 0.0000 0.0000 0.0000 15.4510 0.0000 0.0000
# 5 0.0000 0.0000 0.0000 0.0000 18.2650 0.0000
# 6 0.0000 0.0000 0.0000 0.0000 0.0000 10.8466
#
#
#
# Elastic Compliance Matrix: (Units=1/GPa)
#
#
# Indices 1 2 3 4 5 6 
#
# 1 0.038881 -0.004452 0.004541 0.000000 0.000000 0.000000
# 2 -0.004452 0.010492 -0.006869 0.000000 0.000000 0.000000
# 3 0.004541 -0.006869 0.012459 0.000000 0.000000 0.000000
# 4 0.000000 0.000000 0.000000 0.064721 0.000000 0.000000
# 5 0.000000 0.000000 0.000000 0.000000 0.054749 0.000000
# 6 0.000000 0.000000 0.000000 0.000000 0.000000 0.092195
#
#
# Mechanical properties :
#
#
# Convention : Reuss Voigt Hill
#
# Bulk Modulus (GPa) = 20.71567 52.37385 36.54476
# Shear Modulus (GPa) = 16.49362 23.74545 20.11954
#
# Velocity S-wave (km/s) = 2.95020 3.53984 3.25839
# Velocity P-wave (km/s) = 4.74727 6.65921 5.78280
#
# Compressibility (1/GPa) = 0.04827264
#
# Stress axis : x y z
#
# Youngs Moduli (GPa) = 25.71942 95.30916 80.26480
#
# Poissons Ratio (x) = 0.42428 -0.36446
# Poissons Ratio (y) = 0.11449 0.55132
# Poissons Ratio (z) = -0.11678 0.65466
#
# Static dielectric constant tensor:
#      x y z
#    x 1.690270 0.000000 0.000000 
#    y 0.000000 1.703480 0.000000 
#    z 0.000000 0.000000 1.632150 
# 
# From -- ./inp_files/27627.got.cif
#   From: 2010.05.17/outbox.cif.g08.bks.cpg/sg51_14_cif.got.tgz:27627.got - 2010.06.03 11:52:47.
