data_PCOD9400631
_publ_section_title
;
Structure prediction by ZEFSAII (Michael W. Deem and Ramdas Pophale) SiO2 
 PCOD9400631
Probable space group: P M M A
;
_chemical_formula_sum "Si O2"
_cell_formula_units_Z 48
_cell_length_a 8.845365
_cell_length_b 24.455836
_cell_length_c 14.018192
_cell_angle_alpha 90.000000
_cell_angle_beta 90.000000
_cell_angle_gamma 90.000000
_cell_volume 3032.426449
_symmetry_space_group_name_H-M "P M M A"
_symmetry_group_IT_number 51
_symmetry_cell_setting 'orthorhombic'
loop_
_space_group_symop_operation_xyz
x,y,z
1/2-x,-y,z
1/2+x,-y,-z
-x,y,-z
-x,-y,-z
1/2+x,y,-z
1/2-x,y,z
x,-y,z
loop_
_atom_site_type_symbol
_atom_site_label
_atom_site_fract_x
_atom_site_fract_y
_atom_site_fract_z
Si Si1 0.069695 0.726059 0.398514
Si Si2 0.068840 0.231813 0.898115
Si Si3 0.069477 0.563468 0.895504
Si Si4 0.069059 0.664288 0.205942
Si Si5 0.567617 0.938352 0.395226
Si Si6 0.432015 0.171003 0.706396
O O1 0.250000 0.729704 0.406303
O O2 0.032628 0.683707 0.313466
O O3 0.000000 0.711173 0.500000
O O4 0.005142 0.784344 0.363547
O O5 0.250000 0.235677 0.904453
O O6 0.029086 0.189009 0.814020
O O7 0.002254 0.289846 0.863287
O O8 0.000000 0.217212 0.000000
O O9 0.250000 0.570449 0.899596
O O10 0.036749 0.500000 0.872141
O O11 0.997943 0.605998 0.822188
O O12 0.000000 0.574472 0.000000
O O13 0.250000 0.664462 0.194697
O O14 0.500000 0.928081 0.500000
O O15 0.750000 0.937342 0.402198
O O16 0.521656 0.889777 0.324436
O O17 0.522632 0.000000 0.365988
O O18 0.250000 0.175161 0.697512
#
# Coordination Sequence:
#
# PCOD9400631 Si02
#       6
#     8   8   8   8   8   8
#     4  10  20  32  48  70  95 123 153 188 229 272
#     4  10  19  31  47  67  92 121 153 189 229 273
#     4  10  20  33  50  72  97 125 155 188 227 270
#     4  10  20  33  49  70  95 123 154 188 228 271
#     4   9  17  29  45  66  91 118 149 185 226 272
#     4   9  18  31  47  67  91 121 154 188 228 273
#
# _framework density 15.828906999999999
#
# number of rings (size 3 to 8) (size 9 to 14) (size 15 to 20)
#    0.000    2.333    0.000    3.000    0.000    5.667 
#    0.000    0.000    0.000    1.000    0.000    0.000 
#    0.000    0.000    0.000    0.000    0.000    0.500 
#
# Total GULP energy -267764.567737 kJ/mol
# GULP energy per Si atom -5578.428495 kJ/mol
# Density = 1.579288 g / cm^3
# Si number density = 15.828907 Si / 1000 Ang^3
#
#
#
# Elastic Constant Matrix: (Units=GPa)
#
#
# Indices 1 2 3 4 5 6 
#
# 1 40.4465 44.9515 43.2277 0.0000 0.0000 0.0000
# 2 44.9515 123.6253 75.3757 0.0000 0.0000 0.0000
# 3 43.2277 75.3757 108.2161 0.0000 0.0000 0.0000
# 4 0.0000 0.0000 0.0000 19.9366 0.0000 0.0000
# 5 0.0000 0.0000 0.0000 0.0000 28.5214 0.0000
# 6 0.0000 0.0000 0.0000 0.0000 0.0000 20.8032
#
#
#
# Elastic Compliance Matrix: (Units=1/GPa)
#
#
# Indices 1 2 3 4 5 6 
#
# 1 0.049797 -0.010392 -0.012654 0.000000 0.000000 0.000000
# 2 -0.010392 0.016229 -0.007153 0.000000 0.000000 0.000000
# 3 -0.012654 -0.007153 0.019277 0.000000 0.000000 0.000000
# 4 0.000000 0.000000 0.000000 0.050159 0.000000 0.000000
# 5 0.000000 0.000000 0.000000 0.000000 0.035061 0.000000
# 6 0.000000 0.000000 0.000000 0.000000 0.000000 0.048069
#
#
# Mechanical properties :
#
#
# Convention : Reuss Voigt Hill
#
# Bulk Modulus (GPa) = 40.14942 66.59976 53.37459
# Shear Modulus (GPa) = 17.40397 21.10111 19.25254
#
# Velocity S-wave (km/s) = 3.31948 3.65509 3.49132
# Velocity P-wave (km/s) = 6.33337 7.74461 7.07427
#
# Compressibility (1/GPa) = 0.02490696
#
# Stress axis : x y z
#
# Youngs Moduli (GPa) = 20.08157 61.61998 51.87419
#
# Poissons Ratio (x) = 0.64033 0.65640
# Poissons Ratio (y) = 0.20868 0.37104
# Poissons Ratio (z) = 0.25411 0.44075
#
# Static dielectric constant tensor:
#      x y z
#    x 1.527230 0.000000 0.000000 
#    y 0.000000 1.524830 0.000000 
#    z 0.000000 0.000000 1.513100 
# 
# From -- ./inp_files/14429.got.cif
#   From: 2010.05.17/outbox.cif.g08.bks.cpg/sg51_8_cif.got.tgz:14429.got - 2010.06.03 11:52:47.
