data_PCOD9400463
_publ_section_title
;
Structure prediction by ZEFSAII (Michael W. Deem and Ramdas Pophale) SiO2 
 PCOD9400463
Probable space group: P M M A
;
_chemical_formula_sum "Si O2"
_cell_formula_units_Z 48
_cell_length_a 16.917468
_cell_length_b 9.283480
_cell_length_c 18.641699
_cell_angle_alpha 90.000000
_cell_angle_beta 90.000000
_cell_angle_gamma 90.000000
_cell_volume 2927.734302
_symmetry_space_group_name_H-M "P M M A"
_symmetry_group_IT_number 51
_symmetry_cell_setting 'orthorhombic'
loop_
_space_group_symop_operation_xyz
x,y,z
1/2-x,-y,z
1/2+x,-y,-z
-x,y,-z
-x,-y,-z
1/2+x,y,-z
1/2-x,y,z
x,-y,z
loop_
_atom_site_type_symbol
_atom_site_label
_atom_site_fract_x
_atom_site_fract_y
_atom_site_fract_z
Si Si1 0.338649 0.672171 0.578485
Si Si2 0.339934 0.826710 0.090624
Si Si3 0.494009 0.327735 0.667368
Si Si4 0.578520 0.164255 0.050197
Si Si5 0.513831 0.328011 0.834539
Si Si6 0.418735 0.164986 0.453531
O O1 0.250000 0.707039 0.603217
O O2 0.343526 0.500000 0.567131
O O3 0.407691 0.710082 0.634884
O O4 0.357535 0.751322 0.503881
O O5 0.250000 0.794069 0.111261
O O6 0.405461 0.744888 0.137025
O O7 0.352539 0.000000 0.096577
O O8 0.354626 0.790766 0.006492
O O9 0.504195 0.500000 0.658434
O O10 0.500560 0.293720 0.751117
O O11 0.558770 0.246057 0.619474
O O12 0.556646 0.265271 0.116237
O O13 0.592693 0.000000 0.074307
O O14 0.500000 0.162709 0.000000
O O15 0.518426 0.500000 0.843030
O O16 0.500000 0.165125 0.500000
O O17 0.395338 0.000000 0.441100
#
# Coordination Sequence:
#
# PCOD9400463 Si02
#       6
#     8   8   8   8   8   8
#     4   9  17  31  51  70  90 122 160 194 231 277
#     4   9  18  33  51  69  91 122 160 199 237 279
#     4   9  18  32  48  68  96 128 159 189 226 279
#     4   8  15  29  48  67  88 119 156 189 225 275
#     4  10  19  30  47  72  99 125 155 193 234 276
#     4   9  17  29  47  70  92 116 150 191 231 271
#
# _framework density 16.394929999999999
#
# number of rings (size 3 to 8) (size 9 to 14) (size 15 to 20)
#    0.000    3.000    0.000    2.000    0.000    7.000 
#    0.000    1.667    0.000    2.000    0.000    0.000 
#    0.000    0.000    0.000    0.000    0.000    0.000 
#
# Total GULP energy -267286.167831 kJ/mol
# GULP energy per Si atom -5568.461830 kJ/mol
# Density = 1.635761 g / cm^3
# Si number density = 16.394930 Si / 1000 Ang^3
#
#
#
# Elastic Constant Matrix: (Units=GPa)
#
#
# Indices 1 2 3 4 5 6 
#
# 1 75.1691 35.2741 44.8635 0.0000 0.0000 0.0000
# 2 35.2741 51.9566 63.8308 0.0000 0.0000 0.0000
# 3 44.8635 63.8308 131.4928 0.0000 0.0000 0.0000
# 4 0.0000 0.0000 0.0000 9.6672 0.0000 0.0000
# 5 0.0000 0.0000 0.0000 0.0000 15.7563 0.0000
# 6 0.0000 0.0000 0.0000 0.0000 0.0000 17.0615
#
#
#
# Elastic Compliance Matrix: (Units=1/GPa)
#
#
# Indices 1 2 3 4 5 6 
#
# 1 0.019540 -0.012575 -0.000562 0.000000 0.000000 0.000000
# 2 -0.012575 0.055777 -0.022786 0.000000 0.000000 0.000000
# 3 -0.000562 -0.022786 0.018858 0.000000 0.000000 0.000000
# 4 0.000000 0.000000 0.000000 0.103442 0.000000 0.000000
# 5 0.000000 0.000000 0.000000 0.000000 0.063467 0.000000
# 6 0.000000 0.000000 0.000000 0.000000 0.000000 0.058611
#
#
# Mechanical properties :
#
#
# Convention : Reuss Voigt Hill
#
# Bulk Modulus (GPa) = 44.78518 60.72838 52.75678
# Shear Modulus (GPa) = 12.53181 16.14035 14.33608
#
# Velocity S-wave (km/s) = 2.76773 3.14103 2.96027
# Velocity P-wave (km/s) = 6.13103 7.09057 6.62819
#
# Compressibility (1/GPa) = 0.02232882
#
# Stress axis : x y z
#
# Youngs Moduli (GPa) = 51.17698 17.92844 53.02850
#
# Poissons Ratio (x) = 0.22545 0.02983
# Poissons Ratio (y) = 0.64355 1.20829
# Poissons Ratio (z) = 0.02879 0.40851
#
# Static dielectric constant tensor:
#      x y z
#    x 1.565830 0.000000 0.000000 
#    y 0.000000 1.551250 0.000000 
#    z 0.000000 0.000000 1.536750 
# 
# From -- ./inp_files/30031.got.cif
#   From: 2010.05.17/outbox.cif.g08.bks.cpg/sg51_16_cif.got.tgz:30031.got - 2010.06.03 11:52:47.
