data_PCOD9400846
_publ_section_title
;
Structure prediction by ZEFSAII (Michael W. Deem and Ramdas Pophale) SiO2 
 PCOD9400846
Probable space group: P M M A
;
_chemical_formula_sum "Si O2"
_cell_formula_units_Z 60
_cell_length_a 8.814943
_cell_length_b 21.417583
_cell_length_c 19.453920
_cell_angle_alpha 90.000000
_cell_angle_beta 90.000000
_cell_angle_gamma 90.000000
_cell_volume 3672.798417
_symmetry_space_group_name_H-M "P M M A"
_symmetry_group_IT_number 51
_symmetry_cell_setting 'orthorhombic'
loop_
_space_group_symop_operation_xyz
x,y,z
1/2-x,-y,z
1/2+x,-y,-z
-x,y,-z
-x,-y,-z
1/2+x,y,-z
1/2-x,y,z
x,-y,z
loop_
_atom_site_type_symbol
_atom_site_label
_atom_site_fract_x
_atom_site_fract_y
_atom_site_fract_z
Si Si1 0.431096 0.750065 0.573948
Si Si2 0.430784 0.130675 0.926702
Si Si3 0.568059 0.185110 0.288494
Si Si4 0.933037 0.500000 0.423250
Si Si5 0.566530 0.373921 0.343778
Si Si6 0.568555 0.927935 0.791108
Si Si7 0.430836 0.720350 0.926134
Si Si8 0.931314 0.307592 0.783904
O O1 0.500000 0.761316 0.500000
O O2 0.250000 0.748625 0.567576
O O3 0.469861 0.800550 0.632273
O O4 0.477964 0.683146 0.605775
O O5 0.250000 0.121594 0.925906
O O6 0.507712 0.093077 0.865453
O O7 0.460202 0.205004 0.917492
O O8 0.500000 0.112468 0.000000
O O9 0.750000 0.188815 0.279643
O O10 0.506682 0.119673 0.262188
O O11 0.494703 0.241468 0.244870
O O12 0.750000 0.500000 0.429274
O O13 0.976789 0.561517 0.380068
O O14 0.000000 0.500000 0.500000
O O15 0.750000 0.372185 0.335889
O O16 0.492794 0.358846 0.270141
O O17 0.750000 0.921097 0.789360
O O18 0.529864 0.000000 0.778048
O O19 0.250000 0.711494 0.926202
O O20 0.505234 0.686322 0.861039
O O21 0.500000 0.702379 0.000000
O O22 0.750000 0.306767 0.784156
#
# Coordination Sequence:
#
# PCOD9400846 Si02
#       8
#     8   8   8   4   8   8   8   8
#     4   9  18  31  50  75 102 128 161 203 248 297
#     4  10  20  33  51  71  97 132 167 205 251 301
#     4  10  20  35  52  72  98 129 163 205 254 305
#     4  10  20  34  54  78 111 152 185 218 256 298
#     4   9  19  34  50  74 108 144 179 212 249 296
#     4  11  23  36  51  72  97 127 166 209 252 304
#     4  10  19  31  49  74 103 134 167 209 257 308
#     4  11  20  31  51  76 102 134 172 215 258 300
#
# _framework density 16.336317999999999
#
# number of rings (size 3 to 8) (size 9 to 14) (size 15 to 20)
#    0.000    2.000    1.333    4.000    0.000    5.600 
#    0.000    0.000    0.000    0.400    0.000    0.467 
#    0.000    0.000    0.000    0.000    0.000    0.000 
#
# Total GULP energy -334894.986789 kJ/mol
# GULP energy per Si atom -5581.583113 kJ/mol
# Density = 1.629914 g / cm^3
# Si number density = 16.336318 Si / 1000 Ang^3
#
#
#
# Elastic Constant Matrix: (Units=GPa)
#
#
# Indices 1 2 3 4 5 6 
#
# 1 60.6339 45.7824 62.4421 0.0000 0.0000 0.0000
# 2 45.7824 100.6368 80.0756 0.0000 0.0000 0.0000
# 3 62.4421 80.0756 171.6329 0.0000 0.0000 0.0000
# 4 0.0000 0.0000 0.0000 21.8749 0.0000 0.0000
# 5 0.0000 0.0000 0.0000 0.0000 34.6594 0.0000
# 6 0.0000 0.0000 0.0000 0.0000 0.0000 20.2040
#
#
#
# Elastic Compliance Matrix: (Units=1/GPa)
#
#
# Indices 1 2 3 4 5 6 
#
# 1 0.029819 -0.007846 -0.007188 0.000000 0.000000 0.000000
# 2 -0.007846 0.017868 -0.005482 0.000000 0.000000 0.000000
# 3 -0.007188 -0.005482 0.010999 0.000000 0.000000 0.000000
# 4 0.000000 0.000000 0.000000 0.045714 0.000000 0.000000
# 5 0.000000 0.000000 0.000000 0.000000 0.028852 0.000000
# 6 0.000000 0.000000 0.000000 0.000000 0.000000 0.049495
#
#
# Mechanical properties :
#
#
# Convention : Reuss Voigt Hill
#
# Bulk Modulus (GPa) = 56.64353 78.83376 67.73865
# Shear Modulus (GPa) = 21.77092 24.98789 23.37940
#
# Velocity S-wave (km/s) = 3.65454 3.91524 3.78713
# Velocity P-wave (km/s) = 7.24956 8.29460 7.78962
#
# Compressibility (1/GPa) = 0.01765427
#
# Stress axis : x y z
#
# Youngs Moduli (GPa) = 33.53572 55.96609 90.91756
#
# Poissons Ratio (x) = 0.43912 0.65350
# Poissons Ratio (y) = 0.26313 0.49839
# Poissons Ratio (z) = 0.24105 0.30680
#
# Static dielectric constant tensor:
#      x y z
#    x 1.544260 0.000000 0.000000 
#    y 0.000000 1.535110 0.000000 
#    z 0.000000 0.000000 1.544740 
# 
# From -- ./inp_files/28364.got.cif
#   From: 2010.05.17/outbox.cif.g08.bks.cpg/sg51_15_cif.got.tgz:28364.got - 2010.06.03 11:52:47.
