data_PCOD9400972
_publ_section_title
;
Structure prediction by ZEFSAII (Michael W. Deem and Ramdas Pophale) SiO2 
 PCOD9400972
Probable space group: P M M A
;
_chemical_formula_sum "Si O2"
_cell_formula_units_Z 48
_cell_length_a 20.006721
_cell_length_b 7.465796
_cell_length_c 15.444772
_cell_angle_alpha 90.000000
_cell_angle_beta 90.000000
_cell_angle_gamma 90.000000
_cell_volume 2306.925322
_symmetry_space_group_name_H-M "P M M A"
_symmetry_group_IT_number 51
_symmetry_cell_setting 'orthorhombic'
loop_
_space_group_symop_operation_xyz
x,y,z
1/2-x,-y,z
1/2+x,-y,-z
-x,y,-z
-x,-y,-z
1/2+x,y,-z
1/2-x,y,z
x,-y,z
loop_
_atom_site_type_symbol
_atom_site_label
_atom_site_fract_x
_atom_site_fract_y
_atom_site_fract_z
Si Si1 0.173721 0.215928 0.900549
Si Si2 0.173833 0.781010 0.371429
Si Si3 0.933077 0.289564 0.953272
Si Si4 0.326475 0.217902 0.568183
Si Si5 0.590013 0.780297 0.266991
Si Si6 0.439655 0.792368 0.243658
O O1 0.250000 0.280852 0.904227
O O2 0.134539 0.277664 0.814789
O O3 0.176139 0.000000 0.896329
O O4 0.129511 0.263146 0.983772
O O5 0.250000 0.724087 0.352629
O O6 0.156895 0.727707 0.470082
O O7 0.119341 0.716107 0.302839
O O8 0.174875 0.000000 0.369767
O O9 0.944014 0.500000 0.940404
O O10 0.923173 0.213226 0.857855
O O11 0.000000 0.215975 0.000000
O O12 0.250000 0.272397 0.586878
O O13 0.376160 0.276691 0.643325
O O14 0.327018 0.000000 0.568900
O O15 0.513946 0.716826 0.257054
O O16 0.589905 0.000000 0.265191
O O17 0.444922 0.000000 0.269832
#
# Coordination Sequence:
#
# PCOD9400972 Si02
#       6
#     8   8   8   8   8   8
#     4  10  20  34  54  79 104 131 167 212 260 309
#     4   8  15  27  43  68 102 135 165 200 247 300
#     4  11  23  38  54  72  99 137 175 212 258 311
#     4   8  13  23  40  65 102 138 161 194 248 302
#     4   9  16  26  44  72 102 132 164 201 248 304
#     4  10  19  31  51  75 100 131 168 213 257 301
#
# _framework density 20.806916999999999
#
# number of rings (size 3 to 8) (size 9 to 14) (size 15 to 20)
#    0.000    2.667    1.667    2.000    0.000    4.333 
#    0.000    5.000    0.000    0.000    0.000    3.500 
#    0.000    2.667    0.000    0.000    0.000    0.000 
#
# Total GULP energy -267987.852622 kJ/mol
# GULP energy per Si atom -5583.080263 kJ/mol
# Density = 2.075956 g / cm^3
# Si number density = 20.806917 Si / 1000 Ang^3
#
#
#
# Elastic Constant Matrix: (Units=GPa)
#
#
# Indices 1 2 3 4 5 6 
#
# 1 189.9946 -2.0804 134.0614 0.0000 0.0000 0.0000
# 2 -2.0804 57.3961 -9.7031 0.0000 0.0000 0.0000
# 3 134.0614 -9.7031 179.6866 0.0000 0.0000 0.0000
# 4 0.0000 0.0000 0.0000 -211.9227 0.0000 0.0000
# 5 0.0000 0.0000 0.0000 0.0000 45.2690 0.0000
# 6 0.0000 0.0000 0.0000 0.0000 0.0000 -4.4004
#
#
#
# Elastic Compliance Matrix: (Units=1/GPa)
#
#
# Indices 1 2 3 4 5 6 
#
# 1 0.011172 -0.001013 -0.008390 0.000000 0.000000 0.000000
# 2 -0.001013 0.017675 0.001711 0.000000 0.000000 0.000000
# 3 -0.008390 0.001711 0.011918 0.000000 0.000000 0.000000
# 4 0.000000 0.000000 0.000000 -0.004719 0.000000 0.000000
# 5 0.000000 0.000000 0.000000 0.000000 0.022090 0.000000
# 6 0.000000 0.000000 0.000000 0.000000 0.000000 -0.227254
#
#
# Mechanical properties :
#
#
# Convention : Reuss Voigt Hill
#
# Bulk Modulus (GPa) = 39.40295 74.62592 57.01443
# Shear Modulus (GPa) = -34.41848 -13.89086 -24.15467
#
# Velocity S-wave (km/s) = -4.07158 -2.58661 -3.41089
# Velocity P-wave (km/s) = 1.76780 5.19837 3.45672
#
# Compressibility (1/GPa) = 0.02537881
#
# Stress axis : x y z
#
# Youngs Moduli (GPa) = 89.50552 56.57632 83.91003
#
# Poissons Ratio (x) = 0.05734 0.70403
# Poissons Ratio (y) = 0.09071 -0.14354
# Poissons Ratio (z) = 0.75098 -0.09678
#
# Static dielectric constant tensor:
#      x y z
#    x 1.722600 0.000000 0.000000 
#    y 0.000000 1.786000 0.000000 
#    z 0.000000 0.000000 1.696190 
# 
# From -- ./inp_files/24685.got.cif
#   From: 2010.05.17/outbox.cif.g08.bks.cpg/sg51_13_cif.got.tgz:24685.got - 2010.06.03 11:52:47.
