data_PCOD9400445
_publ_section_title
;
Structure prediction by ZEFSAII (Michael W. Deem and Ramdas Pophale) SiO2 
 PCOD9400445
Probable space group: P M M A
;
_chemical_formula_sum "Si O2"
_cell_formula_units_Z 48
_cell_length_a 27.278457
_cell_length_b 8.898069
_cell_length_c 11.813110
_cell_angle_alpha 90.000000
_cell_angle_beta 90.000000
_cell_angle_gamma 90.000000
_cell_volume 2867.344125
_symmetry_space_group_name_H-M "P M M A"
_symmetry_group_IT_number 51
_symmetry_cell_setting 'orthorhombic'
loop_
_space_group_symop_operation_xyz
x,y,z
1/2-x,-y,z
1/2+x,-y,-z
-x,y,-z
-x,-y,-z
1/2+x,y,-z
1/2-x,y,z
x,-y,z
loop_
_atom_site_type_symbol
_atom_site_label
_atom_site_fract_x
_atom_site_fract_y
_atom_site_fract_z
Si Si1 0.369826 0.172323 0.673434
Si Si2 0.694082 0.179660 0.888339
Si Si3 0.442829 0.681333 0.493374
Si Si4 0.694134 0.679924 0.137629
Si Si5 0.307343 0.835587 0.456844
Si Si6 0.627266 0.673511 0.703123
O O1 0.412859 0.247019 0.598037
O O2 0.348599 0.258177 0.781548
O O3 0.324751 0.170153 0.585089
O O4 0.382689 0.000000 0.701437
O O5 0.750000 0.218245 0.846332
O O6 0.650338 0.239141 0.808948
O O7 0.691865 0.000000 0.895046
O O8 0.689394 0.250766 0.012569
O O9 0.500000 0.719237 0.500000
O O10 0.437417 0.500000 0.499669
O O11 0.419471 0.727800 0.371393
O O12 0.750000 0.718792 0.177461
O O13 0.691169 0.500000 0.131952
O O14 0.250000 0.832842 0.446985
O O15 0.330702 0.698263 0.390742
O O16 0.324932 0.000000 0.410814
O O17 0.620054 0.500000 0.733380
#
# Coordination Sequence:
#
# PCOD9400445 Si02
#       6
#     8   8   8   8   8   8
#     4  10  19  31  49  73 100 129 163 203 248 297
#     4  10  20  33  49  70 100 137 170 199 237 287
#     4   9  19  36  55  74  98 129 165 207 256 305
#     4  10  20  33  50  73 102 136 172 205 237 282
#     4   9  17  28  42  63  94 129 159 189 231 285
#     4  10  19  30  47  71  96 124 161 203 245 289
#
# _framework density 16.74023
#
# number of rings (size 3 to 8) (size 9 to 14) (size 15 to 20)
#    0.000    2.333    0.000    3.000    0.000    6.667 
#    0.000    0.000    0.000    1.000    0.000    7.000 
#    0.000    0.000    0.000    0.000    0.000    0.000 
#
# Total GULP energy -267268.524259 kJ/mol
# GULP energy per Si atom -5568.094255 kJ/mol
# Density = 1.670213 g / cm^3
# Si number density = 16.740230 Si / 1000 Ang^3
#
#
#
# Elastic Constant Matrix: (Units=GPa)
#
#
# Indices 1 2 3 4 5 6 
#
# 1 85.1532 38.2662 61.0198 0.0000 0.0000 0.0000
# 2 38.2662 59.2460 41.3948 0.0000 0.0000 0.0000
# 3 61.0198 41.3948 86.6920 0.0000 0.0000 0.0000
# 4 0.0000 0.0000 0.0000 30.9730 0.0000 0.0000
# 5 0.0000 0.0000 0.0000 0.0000 18.1948 0.0000
# 6 0.0000 0.0000 0.0000 0.0000 0.0000 16.7040
#
#
#
# Elastic Compliance Matrix: (Units=1/GPa)
#
#
# Indices 1 2 3 4 5 6 
#
# 1 0.024943 -0.005768 -0.014802 0.000000 0.000000 0.000000
# 2 -0.005768 0.026663 -0.008672 0.000000 0.000000 0.000000
# 3 -0.014802 -0.008672 0.026094 0.000000 0.000000 0.000000
# 4 0.000000 0.000000 0.000000 0.032286 0.000000 0.000000
# 5 0.000000 0.000000 0.000000 0.000000 0.054961 0.000000
# 6 0.000000 0.000000 0.000000 0.000000 0.000000 0.059866
#
#
# Mechanical properties :
#
#
# Convention : Reuss Voigt Hill
#
# Bulk Modulus (GPa) = 52.03779 56.93919 54.48849
# Shear Modulus (GPa) = 17.25915 19.20174 18.23044
#
# Velocity S-wave (km/s) = 3.21440 3.39047 3.30361
# Velocity P-wave (km/s) = 6.70294 7.02953 6.86818
#
# Compressibility (1/GPa) = 0.01921680
#
# Stress axis : x y z
#
# Youngs Moduli (GPa) = 40.09210 37.50531 38.32233
#
# Poissons Ratio (x) = 0.21633 0.56725
# Poissons Ratio (y) = 0.23125 0.33231
# Poissons Ratio (z) = 0.59345 0.32523
#
# Static dielectric constant tensor:
#      x y z
#    x 1.564050 0.000000 0.000000 
#    y 0.000000 1.615600 0.000000 
#    z 0.000000 0.000000 1.573000 
# 
# From -- ./inp_files/18978.got.cif
#   From: 2010.05.17/outbox.cif.g08.bks.cpg/sg51_10_cif.got.tgz:18978.got - 2010.06.03 11:52:47.
