data_PCOD9400195
_publ_section_title
;
Structure prediction by ZEFSAII (Michael W. Deem and Ramdas Pophale) SiO2 
 PCOD9400195
Probable space group: P M M A
;
_chemical_formula_sum "Si O2"
_cell_formula_units_Z 48
_cell_length_a 8.839745
_cell_length_b 18.090350
_cell_length_c 18.558716
_cell_angle_alpha 90.000000
_cell_angle_beta 90.000000
_cell_angle_gamma 90.000000
_cell_volume 2967.800013
_symmetry_space_group_name_H-M "P M M A"
_symmetry_group_IT_number 51
_symmetry_cell_setting 'orthorhombic'
loop_
_space_group_symop_operation_xyz
x,y,z
1/2-x,-y,z
1/2+x,-y,-z
-x,y,-z
-x,-y,-z
1/2+x,y,-z
1/2-x,y,z
x,-y,z
loop_
_atom_site_type_symbol
_atom_site_label
_atom_site_fract_x
_atom_site_fract_y
_atom_site_fract_z
Si Si1 0.568772 0.415807 0.420193
Si Si2 0.068577 0.200212 0.184013
Si Si3 0.070455 0.088122 0.922931
Si Si4 0.073942 0.692644 0.306188
Si Si5 0.075507 0.318406 0.923625
Si Si6 0.919847 0.585694 0.203990
O O1 0.500000 0.410208 0.500000
O O2 0.750000 0.413385 0.422889
O O3 0.527716 0.500000 0.393178
O O4 0.510697 0.346758 0.372647
O O5 0.250000 0.195568 0.184557
O O6 0.022115 0.232493 0.263361
O O7 0.999729 0.126752 0.147834
O O8 0.011794 0.260951 0.126803
O O9 0.250000 0.101856 0.924944
O O10 0.044473 0.000000 0.919249
O O11 0.000000 0.114258 0.000000
O O12 0.250000 0.701394 0.324157
O O13 0.047066 0.630413 0.245332
O O14 0.250000 0.294956 0.929857
O O15 0.071176 0.394872 0.879845
O O16 0.000000 0.323503 0.000000
O O17 0.750000 0.611264 0.228101
O O18 0.930284 0.500000 0.217641
#
# Coordination Sequence:
#
# PCOD9400195 Si02
#       6
#     8   8   8   8   8   8
#     4  10  20  33  50  72  98 128 160 195 236 281
#     4  10  20  33  48  66  90 120 153 188 227 274
#     4  10  20  33  50  72  97 125 157 194 237 284
#     4  10  20  32  47  68  92 119 152 189 229 274
#     4  10  19  30  43  58  79 108 144 187 231 273
#     4   9  18  31  44  58  78 108 146 186 229 274
#
# _framework density 16.173596
#
# number of rings (size 3 to 8) (size 9 to 14) (size 15 to 20)
#    0.000    2.167    0.000    3.500    0.000    7.333 
#    0.000    0.000    0.000    0.000    0.000    0.000 
#    0.000    0.667    0.000    2.167    0.000    3.167 
#
# Total GULP energy -267258.505765 kJ/mol
# GULP energy per Si atom -5567.885537 kJ/mol
# Density = 1.613678 g / cm^3
# Si number density = 16.173596 Si / 1000 Ang^3
#
#
#
# Elastic Constant Matrix: (Units=GPa)
#
#
# Indices 1 2 3 4 5 6 
#
# 1 56.1580 30.0643 31.9636 0.0000 0.0000 0.0000
# 2 30.0643 54.3571 37.1765 0.0000 0.0000 0.0000
# 3 31.9636 37.1765 88.4966 0.0000 0.0000 0.0000
# 4 0.0000 0.0000 0.0000 27.0776 0.0000 0.0000
# 5 0.0000 0.0000 0.0000 0.0000 27.9205 0.0000
# 6 0.0000 0.0000 0.0000 0.0000 0.0000 20.7210
#
#
#
# Elastic Compliance Matrix: (Units=1/GPa)
#
#
# Indices 1 2 3 4 5 6 
#
# 1 0.026689 -0.011462 -0.004825 0.000000 0.000000 0.000000
# 2 -0.011462 0.030736 -0.008772 0.000000 0.000000 0.000000
# 3 -0.004825 -0.008772 0.016727 0.000000 0.000000 0.000000
# 4 0.000000 0.000000 0.000000 0.036931 0.000000 0.000000
# 5 0.000000 0.000000 0.000000 0.000000 0.035816 0.000000
# 6 0.000000 0.000000 0.000000 0.000000 0.000000 0.048260
#
#
# Mechanical properties :
#
#
# Convention : Reuss Voigt Hill
#
# Bulk Modulus (GPa) = 41.60517 44.15783 42.88150
# Shear Modulus (GPa) = 19.74040 21.79764 20.76902
#
# Velocity S-wave (km/s) = 3.49740 3.67513 3.58737
# Velocity P-wave (km/s) = 6.48761 6.73576 6.61285
#
# Compressibility (1/GPa) = 0.02403547
#
# Stress axis : x y z
#
# Youngs Moduli (GPa) = 37.46861 32.53556 59.78182
#
# Poissons Ratio (x) = 0.37291 0.28843
# Poissons Ratio (y) = 0.42945 0.52440
# Poissons Ratio (z) = 0.18078 0.28540
#
# Static dielectric constant tensor:
#      x y z
#    x 1.674630 0.000000 0.000000 
#    y 0.000000 1.570230 0.000000 
#    z 0.000000 0.000000 1.559740 
# 
# From -- ./inp_files/27817.got.cif
#   From: 2010.05.17/outbox.cif.g08.bks.cpg/sg51_14_cif.got.tgz:27817.got - 2010.06.03 11:52:47.
