data_PCOD9400694
_publ_section_title
;
Structure prediction by ZEFSAII (Michael W. Deem and Ramdas Pophale) SiO2 
 PCOD9400694
Probable space group: P M M A
;
_chemical_formula_sum "Si O2"
_cell_formula_units_Z 64
_cell_length_a 9.014481
_cell_length_b 18.656169
_cell_length_c 23.370871
_cell_angle_alpha 90.000000
_cell_angle_beta 90.000000
_cell_angle_gamma 90.000000
_cell_volume 3930.412146
_symmetry_space_group_name_H-M "P M M A"
_symmetry_group_IT_number 51
_symmetry_cell_setting 'orthorhombic'
loop_
_space_group_symop_operation_xyz
x,y,z
1/2-x,-y,z
1/2+x,-y,-z
-x,y,-z
-x,-y,-z
1/2+x,y,-z
1/2-x,y,z
x,-y,z
loop_
_atom_site_type_symbol
_atom_site_label
_atom_site_fract_x
_atom_site_fract_y
_atom_site_fract_z
Si Si1 0.575938 0.915905 0.318589
Si Si2 0.914034 0.581413 0.746630
Si Si3 0.072171 0.581512 0.937281
Si Si4 0.420213 0.309649 0.147711
Si Si5 0.421842 0.118319 0.440304
Si Si6 0.571469 0.203681 0.756157
Si Si7 0.579004 0.707998 0.557869
Si Si8 0.422052 0.680401 0.673785
O O1 0.750000 0.895968 0.322293
O O2 0.502438 0.903879 0.381338
O O3 0.498447 0.869071 0.268830
O O4 0.564527 0.000000 0.305449
O O5 0.750000 0.590758 0.719435
O O6 0.929368 0.500000 0.764563
O O7 0.917395 0.632540 0.801094
O O8 0.041288 0.605688 0.703968
O O9 0.250000 0.584851 0.940884
O O10 0.034203 0.500000 0.915089
O O11 0.014076 0.648800 0.900112
O O12 0.000000 0.586113 0.000000
O O13 0.250000 0.298682 0.127904
O O14 0.471138 0.236928 0.181272
O O15 0.500000 0.095001 0.500000
O O16 0.250000 0.094769 0.439671
O O17 0.423331 0.205056 0.440451
O O18 0.750000 0.199724 0.755268
O O19 0.515601 0.261706 0.709875
O O20 0.500000 0.684981 0.500000
O O21 0.750000 0.685606 0.561084
O O22 0.484054 0.680943 0.610581
O O23 0.250000 0.698610 0.676210
#
# Coordination Sequence:
#
# PCOD9400694 Si02
#       8
#     8   8   8   8   8   8   8   8
#     4  11  23  36  51  72  99 129 161 202 252 303
#     4   9  18  32  49  69  95 127 161 198 240 286
#     4  10  20  32  48  73 107 146 183 214 246 286
#     4   9  18  32  51  73  99 131 169 209 246 282
#     4  10  20  33  51  70  93 124 158 198 242 297
#     4  10  20  35  52  71  95 127 166 204 244 293
#     4  10  19  31  48  69  90 114 149 191 235 289
#     4  11  20  30  48  70  94 121 150 193 241 287
#
# _framework density 16.283279
#
# number of rings (size 3 to 8) (size 9 to 14) (size 15 to 20)
#    0.000    2.000    1.250    4.125    0.000    6.250 
#    0.000    0.000    0.000    0.375    0.000    0.000 
#    0.000    0.500    0.000    1.625    0.000    2.375 
#
# Total GULP energy -356648.206580 kJ/mol
# GULP energy per Si atom -5572.628228 kJ/mol
# Density = 1.624622 g / cm^3
# Si number density = 16.283279 Si / 1000 Ang^3
#
#
#
# Elastic Constant Matrix: (Units=GPa)
#
#
# Indices 1 2 3 4 5 6 
#
# 1 94.6430 33.6724 44.8317 0.0000 0.0000 0.0000
# 2 33.6724 50.8778 28.4206 0.0000 0.0000 0.0000
# 3 44.8317 28.4206 77.7412 0.0000 0.0000 0.0000
# 4 0.0000 0.0000 0.0000 22.8295 0.0000 0.0000
# 5 0.0000 0.0000 0.0000 0.0000 27.6213 0.0000
# 6 0.0000 0.0000 0.0000 0.0000 0.0000 19.8247
#
#
#
# Elastic Compliance Matrix: (Units=1/GPa)
#
#
# Indices 1 2 3 4 5 6 
#
# 1 0.016283 -0.006951 -0.006849 0.000000 0.000000 0.000000
# 2 -0.006951 0.027666 -0.006106 0.000000 0.000000 0.000000
# 3 -0.006849 -0.006106 0.019045 0.000000 0.000000 0.000000
# 4 0.000000 0.000000 0.000000 0.043803 0.000000 0.000000
# 5 0.000000 0.000000 0.000000 0.000000 0.036204 0.000000
# 6 0.000000 0.000000 0.000000 0.000000 0.000000 0.050442
#
#
# Mechanical properties :
#
#
# Convention : Reuss Voigt Hill
#
# Bulk Modulus (GPa) = 43.13521 48.56795 45.85158
# Shear Modulus (GPa) = 20.74839 21.81093 21.27966
#
# Velocity S-wave (km/s) = 3.57349 3.66384 3.61895
# Velocity P-wave (km/s) = 6.60109 6.91303 6.75886
#
# Compressibility (1/GPa) = 0.02318292
#
# Stress axis : x y z
#
# Youngs Moduli (GPa) = 61.41209 36.14561 52.50693
#
# Poissons Ratio (x) = 0.25124 0.35963
# Poissons Ratio (y) = 0.42687 0.32059
# Poissons Ratio (z) = 0.42062 0.22069
#
# Static dielectric constant tensor:
#      x y z
#    x 1.562650 0.000000 0.000000 
#    y 0.000000 1.569350 0.000000 
#    z 0.000000 0.000000 1.519810 
# 
# From -- ./inp_files/32626.got.cif
#   From: 2010.05.17/outbox.cif.g08.bks.cpg/sg51_17_cif.got.tgz:32626.got - 2010.06.03 11:52:47.
