data_PCOD9400638
_publ_section_title
;
Structure prediction by ZEFSAII (Michael W. Deem and Ramdas Pophale) SiO2 
 PCOD9400638
Probable space group: P M M A
;
_chemical_formula_sum "Si O2"
_cell_formula_units_Z 48
_cell_length_a 8.545435
_cell_length_b 18.066781
_cell_length_c 15.785646
_cell_angle_alpha 90.000000
_cell_angle_beta 90.000000
_cell_angle_gamma 90.000000
_cell_volume 2437.122250
_symmetry_space_group_name_H-M "P M M A"
_symmetry_group_IT_number 51
_symmetry_cell_setting 'orthorhombic'
loop_
_space_group_symop_operation_xyz
x,y,z
1/2-x,-y,z
1/2+x,-y,-z
-x,y,-z
-x,-y,-z
1/2+x,y,-z
1/2-x,y,z
x,-y,z
loop_
_atom_site_type_symbol
_atom_site_label
_atom_site_fract_x
_atom_site_fract_y
_atom_site_fract_z
Si Si1 0.440142 0.715093 0.218104
Si Si2 0.073573 0.000000 0.111990
Si Si3 0.561419 0.416240 0.906168
Si Si4 0.567481 0.716509 0.590835
Si Si5 0.430963 0.123383 0.582129
Si Si6 0.063662 0.836204 0.910248
Si Si7 0.925310 0.000000 0.278560
O O1 0.250000 0.720479 0.220290
O O2 0.488696 0.646427 0.159235
O O3 0.494713 0.698108 0.314550
O O4 0.501106 0.789070 0.170217
O O5 0.991210 0.922052 0.091281
O O6 0.250000 0.000000 0.078376
O O7 0.064119 0.000000 0.213107
O O8 0.750000 0.415389 0.908176
O O9 0.511263 0.500000 0.883377
O O10 0.500000 0.400266 0.000000
O O11 0.500000 0.689252 0.500000
O O12 0.750000 0.698745 0.589709
O O13 0.536567 0.804509 0.591004
O O14 0.500000 0.083369 0.500000
O O15 0.250000 0.145422 0.568706
O O16 0.435052 0.071317 0.662573
O O17 0.250000 0.833273 0.909786
O O18 0.000000 0.804742 0.000000
O O19 0.750000 0.000000 0.237755
#
# Coordination Sequence:
#
# PCOD9400638 Si02
#       7
#     8   4   8   8   8   8   4
#     4  10  21  37  58  86 115 147 190 233 277 332
#     4  12  25  40  57  76 103 142 186 231 278 329
#     4   9  18  34  57  86 120 153 184 223 274 331
#     4  10  20  34  52  74 103 138 179 226 273 325
#     4  10  19  31  47  67  94 127 168 219 275 332
#     4  12  25  41  60  82 111 146 186 233 283 335
#     4  10  21  34  48  70  97 128 170 219 274 335
#
# _framework density 19.695360000000001
#
# number of rings (size 3 to 8) (size 9 to 14) (size 15 to 20)
#    0.000    1.667    0.000    6.250    0.000    7.333 
#    0.000    0.000    0.000    0.500    0.000    0.000 
#    0.000    0.000    0.000    0.000    0.000    0.667 
#
# Total GULP energy -267737.352647 kJ/mol
# GULP energy per Si atom -5577.861513 kJ/mol
# Density = 1.965053 g / cm^3
# Si number density = 19.695360 Si / 1000 Ang^3
#
#
#
# Elastic Constant Matrix: (Units=GPa)
#
#
# Indices 1 2 3 4 5 6 
#
# 1 50.4182 13.0782 34.0077 0.0000 0.0000 0.0000
# 2 13.0782 83.3062 58.7423 0.0000 0.0000 0.0000
# 3 34.0077 58.7423 150.0892 0.0000 0.0000 0.0000
# 4 0.0000 0.0000 0.0000 40.4084 0.0000 0.0000
# 5 0.0000 0.0000 0.0000 0.0000 31.5005 0.0000
# 6 0.0000 0.0000 0.0000 0.0000 0.0000 12.1903
#
#
#
# Elastic Compliance Matrix: (Units=1/GPa)
#
#
# Indices 1 2 3 4 5 6 
#
# 1 0.023413 0.000090 -0.005340 0.000000 0.000000 0.000000
# 2 0.000090 0.016580 -0.006509 0.000000 0.000000 0.000000
# 3 -0.005340 -0.006509 0.010420 0.000000 0.000000 0.000000
# 4 0.000000 0.000000 0.000000 0.024747 0.000000 0.000000
# 5 0.000000 0.000000 0.000000 0.000000 0.031745 0.000000
# 6 0.000000 0.000000 0.000000 0.000000 0.000000 0.082032
#
#
# Mechanical properties :
#
#
# Convention : Reuss Voigt Hill
#
# Bulk Modulus (GPa) = 37.18336 55.05221 46.11779
# Shear Modulus (GPa) = 22.58131 28.68554 25.63343
#
# Velocity S-wave (km/s) = 3.38972 3.82050 3.61154
# Velocity P-wave (km/s) = 5.85154 6.89015 6.39197
#
# Compressibility (1/GPa) = 0.02689375
#
# Stress axis : x y z
#
# Youngs Moduli (GPa) = 42.71172 60.31429 95.96583
#
# Poissons Ratio (x) = -0.00543 0.51247
# Poissons Ratio (y) = -0.00384 0.62468
# Poissons Ratio (z) = 0.22809 0.39261
#
# Static dielectric constant tensor:
#      x y z
#    x 1.694770 0.000000 0.000000 
#    y 0.000000 1.677940 0.000000 
#    z 0.000000 0.000000 1.770740 
# 
# From -- ./inp_files/21248.got.cif
#   From: 2010.05.17/outbox.cif.g08.bks.cpg/sg51_11_cif.got.tgz:21248.got - 2010.06.03 11:52:47.
