data_PCOD9400464
_publ_section_title
;
Structure prediction by ZEFSAII (Michael W. Deem and Ramdas Pophale) SiO2 
 PCOD9400464
Probable space group: P M M A
;
_chemical_formula_sum "Si O2"
_cell_formula_units_Z 40
_cell_length_a 14.559578
_cell_length_b 14.852230
_cell_length_c 8.031858
_cell_angle_alpha 90.000000
_cell_angle_beta 90.000000
_cell_angle_gamma 90.000000
_cell_volume 1736.826653
_symmetry_space_group_name_H-M "P M M A"
_symmetry_group_IT_number 51
_symmetry_cell_setting 'orthorhombic'
loop_
_space_group_symop_operation_xyz
x,y,z
1/2-x,-y,z
1/2+x,-y,-z
-x,y,-z
-x,-y,-z
1/2+x,y,-z
1/2-x,y,z
x,-y,z
loop_
_atom_site_type_symbol
_atom_site_label
_atom_site_fract_x
_atom_site_fract_y
_atom_site_fract_z
Si Si1 0.599692 0.201614 0.356498
Si Si2 0.144531 0.401233 0.621047
Si Si3 0.110658 0.405263 0.012751
Si Si4 0.900100 0.893403 0.671354
Si Si5 0.611688 0.790074 0.982775
O O1 0.594446 0.306635 0.410943
O O2 0.645754 0.147105 0.506307
O O3 0.500647 0.154225 0.332216
O O4 0.644180 0.198650 0.172827
O O5 0.250000 0.392871 0.564293
O O6 0.108800 0.500000 0.564124
O O7 0.144368 0.405855 0.822599
O O8 0.138490 0.500000 0.094177
O O9 0.137754 0.309165 0.085142
O O10 0.000000 0.405164 0.000000
O O11 0.859721 0.863097 0.848110
O O12 0.908150 0.000000 0.660535
O O13 0.500000 0.790710 0.000000
#
# Coordination Sequence:
#
# PCOD9400464 Si02
#       5
#     8   8   8   8   8
#     4   9  17  30  47  70  98 128 165 207 250 304
#     4   9  17  30  50  75 104 140 176 211 261 324
#     4   8  13  24  44  70 100 131 166 209 254 304
#     4  10  19  30  47  72  99 128 168 216 263 306
#     4   8  15  26  42  67  96 125 159 201 252 299
#
# _framework density 23.030508999999999
#
# number of rings (size 3 to 8) (size 9 to 14) (size 15 to 20)
#    0.000    3.200    0.000    2.400    0.000    4.400 
#    0.000    3.000    0.000    7.200    0.000   11.200 
#    0.000    0.000    0.000    0.000    0.000    0.000 
#
# Total GULP energy -222780.175430 kJ/mol
# GULP energy per Si atom -5569.504386 kJ/mol
# Density = 2.297809 g / cm^3
# Si number density = 23.030509 Si / 1000 Ang^3
#
#
#
# Elastic Constant Matrix: (Units=GPa)
#
#
# Indices 1 2 3 4 5 6 
#
# 1 91.6435 28.3833 13.7995 0.0000 0.0000 0.0000
# 2 28.3833 257.4373 74.0510 0.0000 0.0000 0.0000
# 3 13.7995 74.0510 114.2033 0.0000 0.0000 0.0000
# 4 0.0000 0.0000 0.0000 39.5284 0.0000 0.0000
# 5 0.0000 0.0000 0.0000 0.0000 429.6594 0.0000
# 6 0.0000 0.0000 0.0000 0.0000 0.0000 -11.2058
#
#
#
# Elastic Compliance Matrix: (Units=1/GPa)
#
#
# Indices 1 2 3 4 5 6 
#
# 1 0.011341 -0.001053 -0.000688 0.000000 0.000000 0.000000
# 2 -0.001053 0.004873 -0.003032 0.000000 0.000000 0.000000
# 3 -0.000688 -0.003032 0.010806 0.000000 0.000000 0.000000
# 4 0.000000 0.000000 0.000000 0.025298 0.000000 0.000000
# 5 0.000000 0.000000 0.000000 0.000000 0.002327 0.000000
# 6 0.000000 0.000000 0.000000 0.000000 0.000000 -0.089240
#
#
# Mechanical properties :
#
#
# Convention : Reuss Voigt Hill
#
# Bulk Modulus (GPa) = 57.22743 77.30575 67.26659
# Shear Modulus (GPa) = -260.09174 114.73310 -72.67932
#
# Velocity S-wave (km/s) = -10.63855 7.06584 -5.62373
# Velocity P-wave (km/s) = 11.22508 10.01037 3.59130
#
# Compressibility (1/GPa) = 0.01747414
#
# Stress axis : x y z
#
# Youngs Moduli (GPa) = 88.17237 205.22336 92.54405
#
# Poissons Ratio (x) = 0.21601 0.06366
# Poissons Ratio (y) = 0.09281 0.28063
# Poissons Ratio (z) = 0.06066 0.62231
#
# Static dielectric constant tensor:
#      x y z
#    x 2.093940 0.000000 0.000000 
#    y 0.000000 1.862540 0.000000 
#    z 0.000000 0.000000 1.913580 
# 
# From -- ./inp_files/10764.got.cif
#   From: 2010.05.17/outbox.cif.g08.bks.cpg/sg51_6_cif.got.tgz:10764.got - 2010.06.03 11:52:47.
