data_PCOD9400531
_publ_section_title
;
Structure prediction by ZEFSAII (Michael W. Deem and Ramdas Pophale) SiO2 
 PCOD9400531
Probable space group: P M M A
;
_chemical_formula_sum "Si O2"
_cell_formula_units_Z 64
_cell_length_a 15.266952
_cell_length_b 7.663650
_cell_length_c 25.011198
_cell_angle_alpha 90.000000
_cell_angle_beta 90.000000
_cell_angle_gamma 90.000000
_cell_volume 2926.324590
_symmetry_space_group_name_H-M "P M M A"
_symmetry_group_IT_number 51
_symmetry_cell_setting 'orthorhombic'
loop_
_space_group_symop_operation_xyz
x,y,z
1/2-x,-y,z
1/2+x,-y,-z
-x,y,-z
-x,-y,-z
1/2+x,y,-z
1/2-x,y,z
x,-y,z
loop_
_atom_site_type_symbol
_atom_site_label
_atom_site_fract_x
_atom_site_fract_y
_atom_site_fract_z
Si Si1 0.154642 0.293439 0.744096
Si Si2 0.150270 0.712781 0.033472
Si Si3 0.515283 0.710685 0.560669
Si Si4 0.342389 0.708496 0.616477
Si Si5 0.470803 0.706686 0.128457
Si Si6 0.848234 0.287203 0.089313
Si Si7 0.350342 0.790506 0.348601
Si Si8 0.953703 0.797852 0.755895
O O1 0.250000 0.227820 0.764601
O O2 0.151750 0.500000 0.757510
O O3 0.158307 0.273103 0.680030
O O4 0.059005 0.221463 0.756447
O O5 0.250000 0.765600 0.044880
O O6 0.148105 0.500000 0.034155
O O7 0.085294 0.777919 0.079042
O O8 0.130440 0.760939 0.972220
O O9 0.500000 0.771230 0.500000
O O10 0.513253 0.500000 0.559301
O O11 0.431413 0.780110 0.593081
O O12 0.600839 0.754127 0.595359
O O13 0.250000 0.779031 0.595049
O O14 0.342719 0.500000 0.605869
O O15 0.477931 0.500000 0.119555
O O16 0.570874 0.773853 0.125156
O O17 0.426618 0.728379 0.186052
O O18 0.750000 0.225551 0.102188
O O19 0.844290 0.500000 0.091795
O O20 0.250000 0.725633 0.346985
O O21 0.408541 0.722945 0.297938
O O22 0.347167 0.000000 0.344165
O O23 0.931860 0.000000 0.755944
#
# Coordination Sequence:
#
# PCOD9400531 Si02
#       8
#     8   8   8   8   8   8   8   8
#     4   9  17  32  56  79  99 131 172 212 260 320
#     4   8  14  26  46  73 102 129 165 218 271 315
#     4  10  20  34  58  91 119 140 170 218 272 324
#     4   8  14  27  49  76 107 137 162 197 251 312
#     4  10  19  30  49  76 103 133 173 219 267 320
#     4   8  14  26  46  73 103 133 166 208 261 321
#     4  10  23  43  61  76 104 151 198 232 266 313
#     4  11  23  37  53  75 106 144 185 230 274 314
#
# _framework density 21.870436000000002
#
# number of rings (size 3 to 8) (size 9 to 14) (size 15 to 20)
#    0.000    2.750    1.250    2.250    0.000    4.250 
#    0.000    2.500    0.000    1.875    0.000    1.750 
#    0.000    0.000    0.000    0.000    0.000    0.000 
#
# Total GULP energy -356756.997543 kJ/mol
# GULP energy per Si atom -5574.328087 kJ/mol
# Density = 2.182066 g / cm^3
# Si number density = 21.870436 Si / 1000 Ang^3
#
#
#
# Elastic Constant Matrix: (Units=GPa)
#
#
# Indices 1 2 3 4 5 6 
#
# 1 130.3984 4.2990 80.7658 0.0000 0.0000 0.0000
# 2 4.2990 26.2188 17.8095 0.0000 0.0000 0.0000
# 3 80.7658 17.8095 104.2352 0.0000 0.0000 0.0000
# 4 0.0000 0.0000 0.0000 28.9277 0.0000 0.0000
# 5 0.0000 0.0000 0.0000 0.0000 -1.6416 0.0000
# 6 0.0000 0.0000 0.0000 0.0000 0.0000 10.7118
#
#
#
# Elastic Compliance Matrix: (Units=1/GPa)
#
#
# Indices 1 2 3 4 5 6 
#
# 1 0.015644 0.006413 -0.013217 0.000000 0.000000 0.000000
# 2 0.006413 0.045777 -0.012790 0.000000 0.000000 0.000000
# 3 -0.013217 -0.012790 0.022020 0.000000 0.000000 0.000000
# 4 0.000000 0.000000 0.000000 0.034569 0.000000 0.000000
# 5 0.000000 0.000000 0.000000 0.000000 -0.609158 0.000000
# 6 0.000000 0.000000 0.000000 0.000000 0.000000 0.093355
#
#
# Mechanical properties :
#
#
# Convention : Reuss Voigt Hill
#
# Bulk Modulus (GPa) = 22.59797 51.84458 37.22128
# Shear Modulus (GPa) = -14.54107 18.13145 1.79519
#
# Velocity S-wave (km/s) = -2.58131 2.88243 0.90698
# Velocity P-wave (km/s) = 1.21279 5.90209 4.26060
#
# Compressibility (1/GPa) = 0.04425175
#
# Stress axis : x y z
#
# Youngs Moduli (GPa) = 63.92311 21.84501 45.41274
#
# Poissons Ratio (x) = -0.14009 0.60023
# Poissons Ratio (y) = -0.40993 0.58085
# Poissons Ratio (z) = 0.84488 0.27941
#
# Static dielectric constant tensor:
#      x y z
#    x 1.837740 0.000000 0.000000 
#    y 0.000000 1.838310 0.000000 
#    z 0.000000 0.000000 1.800960 
# 
# From -- ./inp_files/35602.got.cif
#   From: 2010.05.17/outbox.cif.g08.bks.cpg/sg51_18_cif.got.tgz:35602.got - 2010.06.03 11:52:47.
