data_PCOD9400027
_publ_section_title
;
Structure prediction by ZEFSAII (Michael W. Deem and Ramdas Pophale) SiO2 
 PCOD9400027
Probable space group: P M M A
;
_chemical_formula_sum "Si O2"
_cell_formula_units_Z 44
_cell_length_a 9.233463
_cell_length_b 12.949971
_cell_length_c 25.425334
_cell_angle_alpha 90.000000
_cell_angle_beta 90.000000
_cell_angle_gamma 90.000000
_cell_volume 3040.185448
_symmetry_space_group_name_H-M "P M M A"
_symmetry_group_IT_number 51
_symmetry_cell_setting 'orthorhombic'
loop_
_space_group_symop_operation_xyz
x,y,z
1/2-x,-y,z
1/2+x,-y,-z
-x,y,-z
-x,-y,-z
1/2+x,y,-z
1/2-x,y,z
x,-y,z
loop_
_atom_site_type_symbol
_atom_site_label
_atom_site_fract_x
_atom_site_fract_y
_atom_site_fract_z
Si Si1 0.576892 0.500000 0.556097
Si Si2 0.582574 0.625875 0.052910
Si Si3 0.421415 0.624114 0.734465
Si Si4 0.082871 0.625649 0.158388
Si Si5 0.076538 0.880693 0.445263
Si Si6 0.076005 0.304978 0.369984
O O1 0.750000 0.500000 0.547938
O O2 0.500000 0.500000 0.500000
O O3 0.540117 0.600891 0.590474
O O4 0.750000 0.658264 0.052918
O O5 0.581957 0.500000 0.053036
O O6 0.499520 0.659356 0.105590
O O7 0.500000 0.658486 0.000000
O O8 0.250000 0.643411 0.737132
O O9 0.442115 0.500000 0.728514
O O10 0.498992 0.655860 0.788685
O O11 0.493925 0.677706 0.684423
O O12 0.250000 0.659073 0.158936
O O13 0.082937 0.500000 0.157544
O O14 0.250000 0.874170 0.452607
O O15 0.037753 0.801163 0.399401
O O16 0.000000 0.852431 0.500000
O O17 0.039699 0.000000 0.433203
O O18 0.250000 0.307858 0.361084
#
# Coordination Sequence:
#
# PCOD9400027 Si02
#       6
#     4   8   8   8   8   8
#     4  10  20  30  42  60  82 106 131 160 199 242
#     4   9  15  22  32  47  68  94 129 172 212 247
#     4  10  19  29  41  58  79 104 135 170 205 245
#     4   9  16  25  37  51  70  99 132 167 207 248
#     4   9  18  32  49  67  85 106 133 166 204 246
#     4  10  19  31  45  61  83 109 135 165 202 247
#
# _framework density 14.472801
#
# number of rings (size 3 to 8) (size 9 to 14) (size 15 to 20)
#    0.000    2.545    0.909    2.182    0.000    6.545 
#    0.000    0.000    0.000    0.000    0.000    0.000 
#    0.000    0.000    0.000    0.000    0.000    0.909 
#
# Total GULP energy -245250.035407 kJ/mol
# GULP energy per Si atom -5573.864441 kJ/mol
# Density = 1.443986 g / cm^3
# Si number density = 14.472801 Si / 1000 Ang^3
#
#
#
# Elastic Constant Matrix: (Units=GPa)
#
#
# Indices 1 2 3 4 5 6 
#
# 1 94.7440 31.6768 92.2061 0.0000 0.0000 0.0000
# 2 31.6768 36.4619 45.5852 0.0000 0.0000 0.0000
# 3 92.2061 45.5852 177.6237 0.0000 0.0000 0.0000
# 4 0.0000 0.0000 0.0000 10.3612 0.0000 0.0000
# 5 0.0000 0.0000 0.0000 0.0000 33.6863 0.0000
# 6 0.0000 0.0000 0.0000 0.0000 0.0000 7.1154
#
#
#
# Elastic Compliance Matrix: (Units=1/GPa)
#
#
# Indices 1 2 3 4 5 6 
#
# 1 0.022580 -0.007307 -0.009847 0.000000 0.000000 0.000000
# 2 -0.007307 0.042747 -0.007178 0.000000 0.000000 0.000000
# 3 -0.009847 -0.007178 0.012583 0.000000 0.000000 0.000000
# 4 0.000000 0.000000 0.000000 0.096514 0.000000 0.000000
# 5 0.000000 0.000000 0.000000 0.000000 0.029686 0.000000
# 6 0.000000 0.000000 0.000000 0.000000 0.000000 0.140541
#
#
# Mechanical properties :
#
#
# Convention : Reuss Voigt Hill
#
# Bulk Modulus (GPa) = 34.18891 71.97398 53.08145
# Shear Modulus (GPa) = 12.40502 19.52336 15.96419
#
# Velocity S-wave (km/s) = 2.93085 3.67682 3.32482
# Velocity P-wave (km/s) = 5.92683 8.23795 7.17604
#
# Compressibility (1/GPa) = 0.02924925
#
# Stress axis : x y z
#
# Youngs Moduli (GPa) = 44.28603 23.39331 79.47016
#
# Poissons Ratio (x) = 0.17093 0.78250
# Poissons Ratio (y) = 0.32359 0.57040
# Poissons Ratio (z) = 0.43606 0.16791
#
# Static dielectric constant tensor:
#      x y z
#    x 1.482130 0.000000 0.000000 
#    y 0.000000 1.455210 0.000000 
#    z 0.000000 0.000000 1.461750 
# 
# From -- ./inp_files/34525.got.cif
#   From: 2010.05.17/outbox.cif.g08.bks.cpg/sg51_18_cif.got.tgz:34525.got - 2010.06.03 11:52:47.
