data_PCOD9400422
_publ_section_title
;
Structure prediction by ZEFSAII (Michael W. Deem and Ramdas Pophale) SiO2 
 PCOD9400422
Probable space group: P M M A
;
_chemical_formula_sum "Si O2"
_cell_formula_units_Z 56
_cell_length_a 14.812467
_cell_length_b 7.415598
_cell_length_c 24.718239
_cell_angle_alpha 90.000000
_cell_angle_beta 90.000000
_cell_angle_gamma 90.000000
_cell_volume 2715.132958
_symmetry_space_group_name_H-M "P M M A"
_symmetry_group_IT_number 51
_symmetry_cell_setting 'orthorhombic'
loop_
_space_group_symop_operation_xyz
x,y,z
1/2-x,-y,z
1/2+x,-y,-z
-x,y,-z
-x,-y,-z
1/2+x,y,-z
1/2-x,y,z
x,-y,z
loop_
_atom_site_type_symbol
_atom_site_label
_atom_site_fract_x
_atom_site_fract_y
_atom_site_fract_z
Si Si1 0.001042 0.780137 0.438255
Si Si2 0.016408 0.793905 0.856410
Si Si3 0.352542 0.711402 0.071381
Si Si4 0.001509 0.220197 0.735199
Si Si5 0.646541 0.219935 0.649627
Si Si6 0.352988 0.780377 0.647289
Si Si7 0.146250 0.217741 0.949197
O O1 0.912334 0.725357 0.404562
O O2 0.000000 0.718679 0.500000
O O3 0.088344 0.725653 0.403028
O O4 0.001511 0.000000 0.438864
O O5 0.088579 0.727515 0.699712
O O6 0.084949 0.712570 0.900359
O O7 0.007951 0.714555 0.796639
O O8 0.047410 0.000000 0.848097
O O9 0.250000 0.782496 0.073683
O O10 0.350152 0.500000 0.083400
O O11 0.420401 0.796372 0.113712
O O12 0.385009 0.732863 0.009516
O O13 0.912531 0.276135 0.701747
O O14 0.998562 0.000000 0.735860
O O15 0.750000 0.280880 0.649791
O O16 0.647899 0.000000 0.649684
O O17 0.250000 0.717840 0.647219
O O18 0.351137 0.000000 0.647079
O O19 0.250000 0.277606 0.943733
O O20 0.144625 0.000000 0.947691
#
# Coordination Sequence:
#
# PCOD9400422 Si02
#       7
#     8   8   8   8   8   8   8
#     4   8  13  19  26  40  62  88 126 172 207 240
#     4  10  19  30  47  69  89 112 144 181 220 259
#     4  10  21  35  49  66  89 116 144 175 215 263
#     4   8  15  25  35  52  75  96 126 168 208 247
#     4   8  13  21  31  42  61  91 123 158 201 241
#     4   8  13  21  32  45  66  98 131 166 211 255
#     4   9  18  32  48  67  91 115 140 174 216 261
#
# _framework density 20.625142
#
# number of rings (size 3 to 8) (size 9 to 14) (size 15 to 20)
#    0.000    3.286    0.000    2.571    0.000    4.857 
#    0.000    7.143    0.000    0.000    0.000    0.000 
#    0.000    0.000    0.000    0.000    0.000   11.429 
#
# Total GULP energy -312385.769614 kJ/mol
# GULP energy per Si atom -5578.317315 kJ/mol
# Density = 2.057820 g / cm^3
# Si number density = 20.625142 Si / 1000 Ang^3
#
#
#
# Elastic Constant Matrix: (Units=GPa)
#
#
# Indices 1 2 3 4 5 6 
#
# 1 165.7221 -1.9017 99.1283 0.0000 0.0000 0.0000
# 2 -1.9017 66.6600 -0.6386 0.0000 0.0000 0.0000
# 3 99.1283 -0.6386 205.8804 0.0000 0.0000 0.0000
# 4 0.0000 0.0000 0.0000 -55.5064 0.0000 0.0000
# 5 0.0000 0.0000 0.0000 0.0000 -11.4238 0.0000
# 6 0.0000 0.0000 0.0000 0.0000 0.0000 -10.8753
#
#
#
# Elastic Compliance Matrix: (Units=1/GPa)
#
#
# Indices 1 2 3 4 5 6 
#
# 1 0.008478 0.000203 -0.004081 0.000000 0.000000 0.000000
# 2 0.000203 0.015007 -0.000051 0.000000 0.000000 0.000000
# 3 -0.004081 -0.000051 0.006822 0.000000 0.000000 0.000000
# 4 0.000000 0.000000 0.000000 -0.018016 0.000000 0.000000
# 5 0.000000 0.000000 0.000000 0.000000 -0.087537 0.000000
# 6 0.000000 0.000000 0.000000 0.000000 0.000000 -0.091952
#
#
# Mechanical properties :
#
#
# Convention : Reuss Voigt Hill
#
# Bulk Modulus (GPa) = 44.54847 70.15983 57.35415
# Shear Modulus (GPa) = -32.92592 7.21723 -12.85434
#
# Velocity S-wave (km/s) = -3.99983 1.87266 -2.49918
# Velocity P-wave (km/s) = 0.56080 6.22626 4.42045
#
# Compressibility (1/GPa) = 0.02244746
#
# Stress axis : x y z
#
# Youngs Moduli (GPa) = 117.95527 66.63653 146.58218
#
# Poissons Ratio (x) = -0.01351 0.59825
# Poissons Ratio (y) = -0.02392 0.00749
# Poissons Ratio (z) = 0.48141 0.00340
#
# Static dielectric constant tensor:
#      x y z
#    x 1.715720 0.000000 0.000000 
#    y 0.000000 1.813300 0.000000 
#    z 0.000000 0.000000 1.704570 
# 
# From -- ./inp_files/33439.got.cif
#   From: 2010.05.17/outbox.cif.g08.bks.cpg/sg51_17_cif.got.tgz:33439.got - 2010.06.03 11:52:47.
