data_PCOD9400684
_publ_section_title
;
Structure prediction by ZEFSAII (Michael W. Deem and Ramdas Pophale) SiO2 
 PCOD9400684
Probable space group: P M M A
;
_chemical_formula_sum "Si O2"
_cell_formula_units_Z 64
_cell_length_a 14.476865
_cell_length_b 8.977022
_cell_length_c 32.072886
_cell_angle_alpha 90.000000
_cell_angle_beta 90.000000
_cell_angle_gamma 90.000000
_cell_volume 4168.164541
_symmetry_space_group_name_H-M "P M M A"
_symmetry_group_IT_number 51
_symmetry_cell_setting 'orthorhombic'
loop_
_space_group_symop_operation_xyz
x,y,z
1/2-x,-y,z
1/2+x,-y,-z
-x,y,-z
-x,-y,-z
1/2+x,y,-z
1/2-x,y,z
x,-y,z
loop_
_atom_site_type_symbol
_atom_site_label
_atom_site_fract_x
_atom_site_fract_y
_atom_site_fract_z
Si Si1 0.550964 0.678896 0.901557
Si Si2 0.860771 0.823999 0.820606
Si Si3 0.644957 0.181531 0.479952
Si Si4 0.106258 0.168952 0.015087
Si Si5 0.539422 0.181290 0.564097
Si Si6 0.358771 0.179471 0.352363
Si Si7 0.862190 0.671535 0.734403
Si Si8 0.848499 0.678756 0.069643
O O1 0.556648 0.500000 0.902648
O O2 0.590623 0.741491 0.858749
O O3 0.606210 0.746476 0.940982
O O4 0.443270 0.725012 0.907849
O O5 0.750000 0.801767 0.824056
O O6 0.891105 0.758603 0.775948
O O7 0.878657 0.000000 0.822472
O O8 0.750000 0.232833 0.472856
O O9 0.606243 0.224338 0.525656
O O10 0.564962 0.228443 0.447492
O O11 0.646716 0.000000 0.479218
O O12 0.140307 0.000000 0.019510
O O13 0.151278 0.256159 0.976959
O O14 0.000000 0.161674 0.000000
O O15 0.581016 0.229959 0.608120
O O16 0.539337 0.000000 0.564562
O O17 0.250000 0.214923 0.359350
O O18 0.389728 0.251810 0.308916
O O19 0.364891 0.000000 0.348925
O O20 0.750000 0.674212 0.734412
O O21 0.891789 0.500000 0.736131
O O22 0.750000 0.721170 0.089671
O O23 0.852286 0.500000 0.066879
#
# Coordination Sequence:
#
# PCOD9400684 Si02
#       8
#     8   8   8   8   8   8   8   8
#     4  10  19  31  48  68  90 117 147 177 210 251
#     4  10  20  33  48  66  89 115 141 171 210 256
#     4   8  12  18  28  45  74 109 141 174 209 241
#     4   9  17  29  44  62  85 112 143 179 214 246
#     4   8  13  19  29  49  76 106 139 171 205 246
#     4   9  15  23  37  57  81 107 133 164 204 247
#     4   9  17  29  44  62  84 108 134 166 206 253
#     4   9  18  32  48  66  89 117 148 180 213 249
#
# _framework density 15.354480000000001
#
# number of rings (size 3 to 8) (size 9 to 14) (size 15 to 20)
#    0.000    3.000    0.000    2.625    0.000    6.500 
#    0.000    0.000    0.000    0.000    0.000    2.625 
#    0.000    4.500    0.000    0.000    0.000    0.000 
#
# Total GULP energy -356329.760216 kJ/mol
# GULP energy per Si atom -5567.652503 kJ/mol
# Density = 1.531953 g / cm^3
# Si number density = 15.354480 Si / 1000 Ang^3
#
#
#
# Elastic Constant Matrix: (Units=GPa)
#
#
# Indices 1 2 3 4 5 6 
#
# 1 73.2067 21.5820 44.9965 0.0000 0.0000 0.0000
# 2 21.5820 28.0319 38.9259 0.0000 0.0000 0.0000
# 3 44.9965 38.9259 135.4329 0.0000 0.0000 0.0000
# 4 0.0000 0.0000 0.0000 -6.9264 0.0000 0.0000
# 5 0.0000 0.0000 0.0000 0.0000 21.8545 0.0000
# 6 0.0000 0.0000 0.0000 0.0000 0.0000 5.4526
#
#
#
# Elastic Compliance Matrix: (Units=1/GPa)
#
#
# Indices 1 2 3 4 5 6 
#
# 1 0.018582 -0.009542 -0.003431 0.000000 0.000000 0.000000
# 2 -0.009542 0.064268 -0.015302 0.000000 0.000000 0.000000
# 3 -0.003431 -0.015302 0.012922 0.000000 0.000000 0.000000
# 4 0.000000 0.000000 0.000000 -0.144376 0.000000 0.000000
# 5 0.000000 0.000000 0.000000 0.000000 0.045757 0.000000
# 6 0.000000 0.000000 0.000000 0.000000 0.000000 0.183398
#
#
# Mechanical properties :
#
#
# Convention : Reuss Voigt Hill
#
# Bulk Modulus (GPa) = 25.49546 49.74225 37.61885
# Shear Modulus (GPa) = 19.98598 12.82062 16.40330
#
# Velocity S-wave (km/s) = 3.61174 2.89273 3.27204
# Velocity P-wave (km/s) = 5.83382 6.60480 6.23125
#
# Compressibility (1/GPa) = 0.03922268
#
# Stress axis : x y z
#
# Youngs Moduli (GPa) = 53.81564 15.55973 77.38894
#
# Poissons Ratio (x) = 0.14847 0.26554
# Poissons Ratio (y) = 0.51349 1.18419
# Poissons Ratio (z) = 0.18465 0.23809
#
# Static dielectric constant tensor:
#      x y z
#    x 1.537660 0.000000 0.000000 
#    y 0.000000 1.514070 0.000000 
#    z 0.000000 0.000000 1.488950 
# 
# From -- ./inp_files/37827.got.cif
#   From: 2010.05.17/outbox.cif.g08.bks.cpg/sg51_19_cif.got.tgz:37827.got - 2010.06.03 11:52:47.
