data_PCOD9400054
_publ_section_title
;
Structure prediction by ZEFSAII (Michael W. Deem and Ramdas Pophale) SiO2 
 PCOD9400054
Probable space group: P M M A
;
_chemical_formula_sum "Si O2"
_cell_formula_units_Z 56
_cell_length_a 8.705286
_cell_length_b 22.133682
_cell_length_c 18.963601
_cell_angle_alpha 90.000000
_cell_angle_beta 90.000000
_cell_angle_gamma 90.000000
_cell_volume 3653.907248
_symmetry_space_group_name_H-M "P M M A"
_symmetry_group_IT_number 51
_symmetry_cell_setting 'orthorhombic'
loop_
_space_group_symop_operation_xyz
x,y,z
1/2-x,-y,z
1/2+x,-y,-z
-x,y,-z
-x,-y,-z
1/2+x,y,-z
1/2-x,y,z
x,-y,z
loop_
_atom_site_type_symbol
_atom_site_label
_atom_site_fract_x
_atom_site_fract_y
_atom_site_fract_z
Si Si1 0.934184 0.823696 0.835511
Si Si2 0.434549 0.251460 0.293616
Si Si3 0.433711 0.702591 0.078164
Si Si4 0.565020 0.313513 0.421729
Si Si5 0.436631 0.566627 0.663617
Si Si6 0.433607 0.636871 0.796240
Si Si7 0.066565 0.930625 0.923498
O O1 0.750000 0.828913 0.841227
O O2 0.970697 0.806862 0.754328
O O3 0.980501 0.765853 0.883854
O O4 0.009542 0.883595 0.865648
O O5 0.250000 0.258716 0.293939
O O6 0.500198 0.260428 0.371547
O O7 0.511261 0.305903 0.249781
O O8 0.250000 0.701576 0.076324
O O9 0.492114 0.648129 0.127911
O O10 0.500000 0.699789 0.000000
O O11 0.500000 0.309471 0.500000
O O12 0.750000 0.311706 0.421598
O O13 0.514888 0.377693 0.386156
O O14 0.250000 0.566559 0.661116
O O15 0.491288 0.500000 0.642628
O O16 0.478282 0.581616 0.744964
O O17 0.250000 0.637248 0.803315
O O18 0.250000 0.929083 0.927475
O O19 0.017828 0.000000 0.909469
O O20 0.000000 0.913122 0.000000
#
# Coordination Sequence:
#
# PCOD9400054 Si02
#       7
#     8   8   8   8   8   8   8
#     4   9  18  30  45  64  85 113 146 182 220 257
#     4   9  17  30  46  64  87 113 144 180 217 258
#     4  10  19  29  42  62  86 109 139 180 224 266
#     4  10  19  30  46  67  92 120 145 173 214 258
#     4   8  15  28  45  64  85 111 144 177 209 252
#     4   9  16  27  44  63  83 109 139 173 218 264
#     4  10  20  31  43  61  88 123 158 190 222 255
#
# _framework density 15.32606
#
# number of rings (size 3 to 8) (size 9 to 14) (size 15 to 20)
#    0.000    2.714    0.000    4.286    0.000    5.714 
#    0.000    0.000    0.000   15.429    0.000    0.000 
#    0.000    0.571    0.000    1.857    0.000    2.714 
#
# Total GULP energy -311814.142715 kJ/mol
# GULP energy per Si atom -5568.109691 kJ/mol
# Density = 1.529118 g / cm^3
# Si number density = 15.326060 Si / 1000 Ang^3
#
#
#
# Elastic Constant Matrix: (Units=GPa)
#
#
# Indices 1 2 3 4 5 6 
#
# 1 33.3923 16.5084 31.3085 0.0000 0.0000 0.0000
# 2 16.5084 56.6432 46.1939 0.0000 0.0000 0.0000
# 3 31.3085 46.1939 128.7687 0.0000 0.0000 0.0000
# 4 0.0000 0.0000 0.0000 20.9005 0.0000 0.0000
# 5 0.0000 0.0000 0.0000 0.0000 26.5977 0.0000
# 6 0.0000 0.0000 0.0000 0.0000 0.0000 13.1387
#
#
#
# Elastic Compliance Matrix: (Units=1/GPa)
#
#
# Indices 1 2 3 4 5 6 
#
# 1 0.039864 -0.005250 -0.007809 0.000000 0.000000 0.000000
# 2 -0.005250 0.025646 -0.007924 0.000000 0.000000 0.000000
# 3 -0.007809 -0.007924 0.012507 0.000000 0.000000 0.000000
# 4 0.000000 0.000000 0.000000 0.047846 0.000000 0.000000
# 5 0.000000 0.000000 0.000000 0.000000 0.037597 0.000000
# 6 0.000000 0.000000 0.000000 0.000000 0.000000 0.076111
#
#
# Mechanical properties :
#
#
# Convention : Reuss Voigt Hill
#
# Bulk Modulus (GPa) = 27.73748 45.20286 36.47017
# Shear Modulus (GPa) = 17.03259 20.44695 18.73977
#
# Velocity S-wave (km/s) = 3.33731 3.65654 3.50056
# Velocity P-wave (km/s) = 5.74349 6.88369 6.33928
#
# Compressibility (1/GPa) = 0.03605231
#
# Stress axis : x y z
#
# Youngs Moduli (GPa) = 25.08516 38.99173 79.95399
#
# Poissons Ratio (x) = 0.20469 0.62438
# Poissons Ratio (y) = 0.13169 0.63355
# Poissons Ratio (z) = 0.19590 0.30897
#
# Static dielectric constant tensor:
#      x y z
#    x 1.512160 0.000000 0.000000 
#    y 0.000000 1.513940 0.000000 
#    z 0.000000 0.000000 1.472530 
# 
# From -- ./inp_files/28182.got.cif
#   From: 2010.05.17/outbox.cif.g08.bks.cpg/sg51_15_cif.got.tgz:28182.got - 2010.06.03 11:52:47.
