data_PCOD9400843
_publ_section_title
;
Structure prediction by ZEFSAII (Michael W. Deem and Ramdas Pophale) SiO2 
 PCOD9400843
Probable space group: P M M A
;
_chemical_formula_sum "Si O2"
_cell_formula_units_Z 64
_cell_length_a 24.374140
_cell_length_b 9.173788
_cell_length_c 16.729595
_cell_angle_alpha 90.000000
_cell_angle_beta 90.000000
_cell_angle_gamma 90.000000
_cell_volume 3740.790860
_symmetry_space_group_name_H-M "P M M A"
_symmetry_group_IT_number 51
_symmetry_cell_setting 'orthorhombic'
loop_
_space_group_symop_operation_xyz
x,y,z
1/2-x,-y,z
1/2+x,-y,-z
-x,y,-z
-x,-y,-z
1/2+x,y,-z
1/2-x,y,z
x,-y,z
loop_
_atom_site_type_symbol
_atom_site_label
_atom_site_fract_x
_atom_site_fract_y
_atom_site_fract_z
Si Si1 0.377657 0.174472 0.224111
Si Si2 0.816574 0.666610 0.100094
Si Si3 0.814344 0.825435 0.937698
Si Si4 0.581565 0.826453 0.362679
Si Si5 0.022584 0.672892 0.305129
Si Si6 0.914080 0.330260 0.527576
Si Si7 0.686396 0.671328 0.635779
Si Si8 0.186889 0.825101 0.736035
O O1 0.351383 0.212089 0.138548
O O2 0.435025 0.252569 0.244145
O O3 0.335988 0.230695 0.292352
O O4 0.383651 0.000000 0.229165
O O5 0.750000 0.665888 0.098604
O O6 0.835702 0.500000 0.102252
O O7 0.831047 0.751601 0.180817
O O8 0.833121 0.746628 0.018573
O O9 0.750000 0.788034 0.922274
O O10 0.816509 0.000000 0.949203
O O11 0.536376 0.747976 0.307882
O O12 0.573715 0.769957 0.452664
O O13 0.642580 0.788875 0.331626
O O14 0.574457 0.000000 0.358831
O O15 0.019325 0.500000 0.291473
O O16 0.048760 0.694492 0.394022
O O17 0.920761 0.500000 0.504051
O O18 0.852364 0.305217 0.559469
O O19 0.750000 0.697931 0.619941
O O20 0.679084 0.500000 0.658049
O O21 0.250000 0.781136 0.718050
O O22 0.186741 0.000000 0.746329
#
# Coordination Sequence:
#
# PCOD9400843 Si02
#       8
#     8   8   8   8   8   8   8   8
#     4  10  19  31  49  74 102 132 170 211 246 287
#     4   9  17  29  48  75 102 129 165 204 238 280
#     4   9  17  29  47  73 105 138 166 195 240 293
#     4  11  22  34  53  78  98 123 164 209 250 295
#     4  10  21  37  54  71  97 133 168 205 253 300
#     4   9  19  34  50  70  97 131 169 207 249 295
#     4   9  18  32  48  68 100 140 173 202 246 300
#     4   9  19  36  54  73 102 134 159 192 246 304
#
# _framework density 17.108682000000002
#
# number of rings (size 3 to 8) (size 9 to 14) (size 15 to 20)
#    0.000    2.500    0.000    3.000    0.000    8.750 
#    0.000    1.250    0.000    0.750    0.000    5.250 
#    0.000    0.000    0.000    0.000    0.000    0.000 
#
# Total GULP energy -356932.750851 kJ/mol
# GULP energy per Si atom -5577.074232 kJ/mol
# Density = 1.706974 g / cm^3
# Si number density = 17.108682 Si / 1000 Ang^3
#
#
#
# Elastic Constant Matrix: (Units=GPa)
#
#
# Indices 1 2 3 4 5 6 
#
# 1 69.3627 26.6084 7.2479 0.0000 0.0000 0.0000
# 2 26.6084 41.0784 22.2041 0.0000 0.0000 0.0000
# 3 7.2479 22.2041 38.2993 0.0000 0.0000 0.0000
# 4 0.0000 0.0000 0.0000 68.9381 0.0000 0.0000
# 5 0.0000 0.0000 0.0000 0.0000 12.8608 0.0000
# 6 0.0000 0.0000 0.0000 0.0000 0.0000 23.5202
#
#
#
# Elastic Compliance Matrix: (Units=1/GPa)
#
#
# Indices 1 2 3 4 5 6 
#
# 1 0.019924 -0.015827 0.005405 0.000000 0.000000 0.000000
# 2 -0.015827 0.048027 -0.024849 0.000000 0.000000 0.000000
# 3 0.005405 -0.024849 0.039493 0.000000 0.000000 0.000000
# 4 0.000000 0.000000 0.000000 0.014506 0.000000 0.000000
# 5 0.000000 0.000000 0.000000 0.000000 0.077756 0.000000
# 6 0.000000 0.000000 0.000000 0.000000 0.000000 0.042517
#
#
# Mechanical properties :
#
#
# Convention : Reuss Voigt Hill
#
# Bulk Modulus (GPa) = 27.09797 28.98459 28.04128
# Shear Modulus (GPa) = 15.38157 27.24250 21.31203
#
# Velocity S-wave (km/s) = 3.00167 3.99472 3.53326
# Velocity P-wave (km/s) = 5.28076 6.18508 5.75073
#
# Compressibility (1/GPa) = 0.03690314
#
# Stress axis : x y z
#
# Youngs Moduli (GPa) = 50.19154 20.82154 25.32079
#
# Poissons Ratio (x) = 0.32955 -0.13687
# Poissons Ratio (y) = 0.79440 0.62919
# Poissons Ratio (z) = -0.27131 0.51739
#
# Static dielectric constant tensor:
#      x y z
#    x 1.591840 0.000000 0.000000 
#    y 0.000000 1.573750 0.000000 
#    z 0.000000 0.000000 1.551880 
# 
# From -- ./inp_files/26194.got.cif
#   From: 2010.05.17/outbox.cif.g08.bks.cpg/sg51_14_cif.got.tgz:26194.got - 2010.06.03 11:52:47.
