data_PCOD9400059
_publ_section_title
;
Structure prediction by ZEFSAII (Michael W. Deem and Ramdas Pophale) SiO2 
 PCOD9400059
Probable space group: P M M A
;
_chemical_formula_sum "Si O2"
_cell_formula_units_Z 56
_cell_length_a 8.886443
_cell_length_b 14.121951
_cell_length_c 30.166846
_cell_angle_alpha 90.000000
_cell_angle_beta 90.000000
_cell_angle_gamma 90.000000
_cell_volume 3785.755536
_symmetry_space_group_name_H-M "P M M A"
_symmetry_group_IT_number 51
_symmetry_cell_setting 'orthorhombic'
loop_
_space_group_symop_operation_xyz
x,y,z
1/2-x,-y,z
1/2+x,-y,-z
-x,y,-z
-x,-y,-z
1/2+x,y,-z
1/2-x,y,z
x,-y,z
loop_
_atom_site_type_symbol
_atom_site_label
_atom_site_fract_x
_atom_site_fract_y
_atom_site_fract_z
Si Si1 0.930862 0.712166 0.728052
Si Si2 0.923718 0.615152 0.454465
Si Si3 0.432376 0.209200 0.863653
Si Si4 0.068668 0.111073 0.953021
Si Si5 0.068164 0.608117 0.812012
Si Si6 0.931049 0.610167 0.637943
Si Si7 0.931764 0.108837 0.227565
O O1 0.750000 0.712436 0.730383
O O2 0.977024 0.672448 0.680076
O O3 0.995676 0.643541 0.766229
O O4 0.994375 0.815850 0.739396
O O5 0.750000 0.642542 0.453822
O O6 0.931520 0.500000 0.455038
O O7 0.000000 0.648304 0.500000
O O8 0.003574 0.644045 0.408919
O O9 0.250000 0.207124 0.865580
O O10 0.486162 0.170995 0.910814
O O11 0.476782 0.315188 0.849279
O O12 0.474625 0.141788 0.822328
O O13 0.250000 0.117805 0.955502
O O14 0.031436 0.000000 0.945965
O O15 0.000000 0.140744 0.000000
O O16 0.250000 0.613351 0.807524
O O17 0.027002 0.500000 0.821831
O O18 0.750000 0.611430 0.635210
O O19 0.976793 0.500000 0.644877
O O20 0.750000 0.116700 0.230563
O O21 0.973771 0.000000 0.235193
#
# Coordination Sequence:
#
# PCOD9400059 Si02
#       7
#     8   8   8   8   8   8   8
#     4  10  19  29  42  62  88 115 141 172 212 254
#     4   9  16  25  38  56  78 106 140 176 212 248
#     4   8  14  26  44  63  81 105 137 169 203 244
#     4   9  16  26  41  60  81 104 130 163 205 252
#     4   9  17  29  45  63  82 107 142 179 208 241
#     4   9  17  28  40  55  80 114 146 173 203 242
#     4   9  17  30  47  64  83 109 141 175 208 246
#
# _framework density 14.792292
#
# number of rings (size 3 to 8) (size 9 to 14) (size 15 to 20)
#    0.000    3.000    0.000    2.571    0.000    5.714 
#    0.000    4.286    0.000    3.857    0.000    0.000 
#    0.000    0.571    0.000    1.857    0.000    2.714 
#
# Total GULP energy -311858.006398 kJ/mol
# GULP energy per Si atom -5568.892971 kJ/mol
# Density = 1.475862 g / cm^3
# Si number density = 14.792292 Si / 1000 Ang^3
#
#
#
# Elastic Constant Matrix: (Units=GPa)
#
#
# Indices 1 2 3 4 5 6 
#
# 1 18.6055 26.9543 36.5325 0.0000 0.0000 0.0000
# 2 26.9543 100.2219 73.4453 0.0000 0.0000 0.0000
# 3 36.5325 73.4453 157.9993 0.0000 0.0000 0.0000
# 4 0.0000 0.0000 0.0000 20.9644 0.0000 0.0000
# 5 0.0000 0.0000 0.0000 0.0000 26.1456 0.0000
# 6 0.0000 0.0000 0.0000 0.0000 0.0000 14.7281
#
#
#
# Elastic Compliance Matrix: (Units=1/GPa)
#
#
# Indices 1 2 3 4 5 6 
#
# 1 0.115559 -0.017439 -0.018613 0.000000 0.000000 0.000000
# 2 -0.017439 0.017765 -0.004226 0.000000 0.000000 0.000000
# 3 -0.018613 -0.004226 0.012597 0.000000 0.000000 0.000000
# 4 0.000000 0.000000 0.000000 0.047700 0.000000 0.000000
# 5 0.000000 0.000000 0.000000 0.000000 0.038247 0.000000
# 6 0.000000 0.000000 0.000000 0.000000 0.000000 0.067897
#
#
# Mechanical properties :
#
#
# Convention : Reuss Voigt Hill
#
# Bulk Modulus (GPa) = 15.29856 61.18788 38.24322
# Shear Modulus (GPa) = 12.43442 21.69394 17.06418
#
# Velocity S-wave (km/s) = 2.90246 3.83374 3.40013
# Velocity P-wave (km/s) = 4.64726 7.81353 6.42839
#
# Compressibility (1/GPa) = 0.06536563
#
# Stress axis : x y z
#
# Youngs Moduli (GPa) = 8.65356 56.29165 79.38351
#
# Poissons Ratio (x) = 0.98167 1.47757
# Poissons Ratio (y) = 0.15091 0.33544
# Poissons Ratio (z) = 0.16107 0.23786
#
# Static dielectric constant tensor:
#      x y z
#    x 1.498530 0.000000 0.000000 
#    y 0.000000 1.481720 0.000000 
#    z 0.000000 0.000000 1.481370 
# 
# From -- ./inp_files/37500.got.cif
#   From: 2010.05.17/outbox.cif.g08.bks.cpg/sg51_19_cif.got.tgz:37500.got - 2010.06.03 11:52:47.
