data_PCOD9400227
_publ_section_title
;
Structure prediction by ZEFSAII (Michael W. Deem and Ramdas Pophale) SiO2 
 PCOD9400227
Probable space group: P M M A
;
_chemical_formula_sum "Si O2"
_cell_formula_units_Z 48
_cell_length_a 7.361146
_cell_length_b 12.293510
_cell_length_c 26.990284
_cell_angle_alpha 90.000000
_cell_angle_beta 90.000000
_cell_angle_gamma 90.000000
_cell_volume 2442.467450
_symmetry_space_group_name_H-M "P M M A"
_symmetry_group_IT_number 51
_symmetry_cell_setting 'orthorhombic'
loop_
_space_group_symop_operation_xyz
x,y,z
1/2-x,-y,z
1/2+x,-y,-z
-x,y,-z
-x,-y,-z
1/2+x,y,-z
1/2-x,y,z
x,-y,z
loop_
_atom_site_type_symbol
_atom_site_label
_atom_site_fract_x
_atom_site_fract_y
_atom_site_fract_z
Si Si1 0.028748 0.500000 0.789619
Si Si2 0.971878 0.124528 0.147908
Si Si3 0.533557 0.124277 0.446589
Si Si4 0.466454 0.731917 0.943491
Si Si5 0.028256 0.263914 0.756361
Si Si6 0.471752 0.500000 0.905323
Si Si7 0.528612 0.127164 0.338095
O O1 0.250000 0.500000 0.789579
O O2 0.970151 0.388466 0.763629
O O3 0.975441 0.500000 0.847517
O O4 0.750000 0.123589 0.147862
O O5 0.033316 0.184018 0.097801
O O6 0.026609 0.194510 0.195569
O O7 0.031199 0.000000 0.150995
O O8 0.500000 0.178176 0.500000
O O9 0.750000 0.117866 0.442772
O O10 0.470915 0.166441 0.393071
O O11 0.461931 0.000000 0.449651
O O12 0.250000 0.727357 0.936939
O O13 0.534589 0.610218 0.931777
O O14 0.500000 0.763283 0.000000
O O15 0.250000 0.264363 0.755802
O O16 0.967310 0.203256 0.706625
O O17 0.250000 0.500000 0.906311
O O18 0.750000 0.127575 0.336721
O O19 0.475700 0.000000 0.331958
#
# Coordination Sequence:
#
# PCOD9400227 Si02
#       7
#     4   8   8   8   8   4   8
#     4   9  14  21  35  54  77 103 125 152 197 242
#     4   9  16  25  38  56  78 104 131 158 192 237
#     4   8  13  21  33  51  77 106 133 160 190 224
#     4  10  19  30  44  61  81 104 131 162 195 233
#     4   9  14  21  34  53  77 102 127 157 197 240
#     4   9  15  27  42  58  80 103 127 160 199 234
#     4   8  13  20  31  50  76 102 126 157 196 232
#
# _framework density 19.652256999999999
#
# number of rings (size 3 to 8) (size 9 to 14) (size 15 to 20)
#    0.000    3.167    1.667    1.750    0.000    2.333 
#    0.000    0.000    0.000    0.000    0.000    1.750 
#    0.000    2.667    0.000    0.000    0.000    0.000 
#
# Total GULP energy -267666.476878 kJ/mol
# GULP energy per Si atom -5576.384935 kJ/mol
# Density = 1.960753 g / cm^3
# Si number density = 19.652257 Si / 1000 Ang^3
#
#
#
# Elastic Constant Matrix: (Units=GPa)
#
#
# Indices 1 2 3 4 5 6 
#
# 1 70.1616 4.9705 1.9520 0.0000 0.0000 0.0000
# 2 4.9705 143.7708 101.8810 0.0000 0.0000 0.0000
# 3 1.9520 101.8810 224.4539 0.0000 0.0000 0.0000
# 4 0.0000 0.0000 0.0000 12.1221 0.0000 0.0000
# 5 0.0000 0.0000 0.0000 0.0000 8.5731 0.0000
# 6 0.0000 0.0000 0.0000 0.0000 0.0000 13.4861
#
#
#
# Elastic Compliance Matrix: (Units=1/GPa)
#
#
# Indices 1 2 3 4 5 6 
#
# 1 0.014291 -0.000599 0.000147 0.000000 0.000000 0.000000
# 2 -0.000599 0.010279 -0.004660 0.000000 0.000000 0.000000
# 3 0.000147 -0.004660 0.006569 0.000000 0.000000 0.000000
# 4 0.000000 0.000000 0.000000 0.082494 0.000000 0.000000
# 5 0.000000 0.000000 0.000000 0.000000 0.116643 0.000000
# 6 0.000000 0.000000 0.000000 0.000000 0.000000 0.074151
#
#
# Mechanical properties :
#
#
# Convention : Reuss Voigt Hill
#
# Bulk Modulus (GPa) = 47.80990 72.88814 60.34902
# Shear Modulus (GPa) = 15.54620 28.80845 22.17733
#
# Velocity S-wave (km/s) = 2.81564 3.83287 3.36294
# Velocity P-wave (km/s) = 5.91195 7.53375 6.77158
#
# Compressibility (1/GPa) = 0.02091617
#
# Stress axis : x y z
#
# Youngs Moduli (GPa) = 69.97357 97.28853 152.22220
#
# Poissons Ratio (x) = 0.05823 -0.02244
# Poissons Ratio (y) = 0.04188 0.70941
# Poissons Ratio (z) = -0.01031 0.45340
#
# Static dielectric constant tensor:
#      x y z
#    x 1.791990 0.000000 0.000000 
#    y 0.000000 1.650020 0.000000 
#    z 0.000000 0.000000 1.703950 
# 
# From -- ./inp_files/35368.got.cif
#   From: 2010.05.17/outbox.cif.g08.bks.cpg/sg51_18_cif.got.tgz:35368.got - 2010.06.03 11:52:47.
