data_PCOD9400660
_publ_section_title
;
Structure prediction by ZEFSAII (Michael W. Deem and Ramdas Pophale) SiO2 
 PCOD9400660
Probable space group: P M M A
;
_chemical_formula_sum "Si O2"
_cell_formula_units_Z 52
_cell_length_a 30.660078
_cell_length_b 14.307111
_cell_length_c 6.490656
_cell_angle_alpha 90.000000
_cell_angle_beta 90.000000
_cell_angle_gamma 90.000000
_cell_volume 2847.172593
_symmetry_space_group_name_H-M "P M M A"
_symmetry_group_IT_number 51
_symmetry_cell_setting 'orthorhombic'
loop_
_space_group_symop_operation_xyz
x,y,z
1/2-x,-y,z
1/2+x,-y,-z
-x,y,-z
-x,-y,-z
1/2+x,y,-z
1/2-x,y,z
x,-y,z
loop_
_atom_site_type_symbol
_atom_site_label
_atom_site_fract_x
_atom_site_fract_y
_atom_site_fract_z
Si Si1 0.138115 0.769620 0.698090
Si Si2 0.200245 0.733923 0.316303
Si Si3 0.957608 0.774398 0.380302
Si Si4 0.853504 0.391101 0.966207
Si Si5 0.563530 0.602104 0.673577
Si Si6 0.300204 0.890773 0.982511
Si Si7 0.500000 0.319213 0.000000
O O1 0.165949 0.736932 0.501452
O O2 0.091296 0.814611 0.637962
O O3 0.133158 0.678433 0.847535
O O4 0.166808 0.844181 0.822854
O O5 0.250000 0.722208 0.388561
O O6 0.188051 0.654471 0.148321
O O7 0.196436 0.831455 0.192369
O O8 0.947257 0.680347 0.508509
O O9 0.972594 0.746605 0.152268
O O10 0.000000 0.817741 0.500000
O O11 0.848090 0.500000 0.027388
O O12 0.890746 0.387536 0.790537
O O13 0.560567 0.500000 0.578239
O O14 0.529102 0.616812 0.855338
O O15 0.250000 0.880166 0.909381
O O16 0.308743 0.000000 0.013770
#
# Coordination Sequence:
#
# PCOD9400660 Si02
#       7
#     8   8   8   8   8   8   4
#     4  11  20  36  58  82 111 149 187 227 276 332
#     4  10  21  37  57  80 109 142 179 225 276 332
#     4  10  21  32  49  76 108 145 190 228 276 327
#     4  10  21  35  52  75 110 151 193 233 268 316
#     4  10  19  31  47  70 102 143 188 236 279 316
#     4   9  20  38  61  89 113 133 169 225 287 344
#     4  10  19  32  46  70 103 140 188 240 281 320
#
# _framework density 18.263732000000001
#
# number of rings (size 3 to 8) (size 9 to 14) (size 15 to 20)
#    0.000    2.000    3.077    0.692    0.000    6.154 
#    0.000    1.538    0.000    0.462    0.000    1.615 
#    0.000    0.000    0.000    0.000    0.000    0.000 
#
# Total GULP energy -289802.046630 kJ/mol
# GULP energy per Si atom -5573.116281 kJ/mol
# Density = 1.822216 g / cm^3
# Si number density = 18.263732 Si / 1000 Ang^3
#
#
#
# Elastic Constant Matrix: (Units=GPa)
#
#
# Indices 1 2 3 4 5 6 
#
# 1 112.8300 19.7135 31.7514 0.0000 0.0000 0.0000
# 2 19.7135 63.3514 11.4550 0.0000 0.0000 0.0000
# 3 31.7514 11.4550 62.7959 0.0000 0.0000 0.0000
# 4 0.0000 0.0000 0.0000 10.4625 0.0000 0.0000
# 5 0.0000 0.0000 0.0000 0.0000 33.1202 0.0000
# 6 0.0000 0.0000 0.0000 0.0000 0.0000 16.1015
#
#
#
# Elastic Compliance Matrix: (Units=1/GPa)
#
#
# Indices 1 2 3 4 5 6 
#
# 1 0.010682 -0.002428 -0.004959 0.000000 0.000000 0.000000
# 2 -0.002428 0.016875 -0.001851 0.000000 0.000000 0.000000
# 3 -0.004959 -0.001851 0.018769 0.000000 0.000000 0.000000
# 4 0.000000 0.000000 0.000000 0.095580 0.000000 0.000000
# 5 0.000000 0.000000 0.000000 0.000000 0.030193 0.000000
# 6 0.000000 0.000000 0.000000 0.000000 0.000000 0.062106
#
#
# Mechanical properties :
#
#
# Convention : Reuss Voigt Hill
#
# Bulk Modulus (GPa) = 35.90271 40.53522 38.21896
# Shear Modulus (GPa) = 19.08663 23.67400 21.38032
#
# Velocity S-wave (km/s) = 3.23624 3.60423 3.42518
# Velocity P-wave (km/s) = 5.80215 6.28992 6.05095
#
# Compressibility (1/GPa) = 0.02785305
#
# Stress axis : x y z
#
# Youngs Moduli (GPa) = 93.61197 59.25912 53.27826
#
# Poissons Ratio (x) = 0.14385 0.26418
# Poissons Ratio (y) = 0.22725 0.09861
# Poissons Ratio (z) = 0.46418 0.10968
#
# Static dielectric constant tensor:
#      x y z
#    x 1.684170 0.000000 0.000000 
#    y 0.000000 1.603020 0.000000 
#    z 0.000000 0.000000 1.619750 
# 
# From -- ./inp_files/4005.got.cif
#   From: 2010.05.17/outbox.cif.g08.bks.cpg/sg51_3_cif.got.tgz:4005.got - 2010.06.03 11:52:47.
