data_PCOD9400907
_publ_section_title
;
Structure prediction by ZEFSAII (Michael W. Deem and Ramdas Pophale) SiO2 
 PCOD9400907
Probable space group: P M M A
;
_chemical_formula_sum "Si O2"
_cell_formula_units_Z 64
_cell_length_a 7.974552
_cell_length_b 16.471128
_cell_length_c 23.259394
_cell_angle_alpha 90.000000
_cell_angle_beta 90.000000
_cell_angle_gamma 90.000000
_cell_volume 3055.118302
_symmetry_space_group_name_H-M "P M M A"
_symmetry_group_IT_number 51
_symmetry_cell_setting 'orthorhombic'
loop_
_space_group_symop_operation_xyz
x,y,z
1/2-x,-y,z
1/2+x,-y,-z
-x,y,-z
-x,-y,-z
1/2+x,y,-z
1/2-x,y,z
x,-y,z
loop_
_atom_site_type_symbol
_atom_site_label
_atom_site_fract_x
_atom_site_fract_y
_atom_site_fract_z
Si Si1 0.054253 0.735379 0.062764
Si Si2 0.942820 0.406091 0.711898
Si Si3 0.555282 0.590901 0.415988
Si Si4 0.446341 0.690976 0.183610
Si Si5 0.547356 0.771222 0.437453
Si Si6 0.555142 0.913634 0.093041
Si Si7 0.451563 0.090677 0.651351
Si Si8 0.557029 0.878578 0.782262
O O1 0.250000 0.721111 0.066988
O O2 0.977173 0.693975 0.119757
O O3 0.027249 0.832096 0.069651
O O4 0.000000 0.708510 0.000000
O O5 0.750000 0.376249 0.701304
O O6 0.931175 0.500000 0.726742
O O7 0.023351 0.361526 0.765826
O O8 0.042524 0.400506 0.652829
O O9 0.750000 0.588389 0.434005
O O10 0.482651 0.500000 0.430031
O O11 0.480811 0.677609 0.435724
O O12 0.250000 0.664735 0.179376
O O13 0.447287 0.782275 0.207321
O O14 0.500000 0.804756 0.500000
O O15 0.750000 0.765803 0.432143
O O16 0.487364 0.833314 0.387556
O O17 0.750000 0.909799 0.077241
O O18 0.540234 0.912022 0.162484
O O19 0.482980 0.000000 0.073095
O O20 0.250000 0.090518 0.646002
O O21 0.493394 0.101756 0.718747
O O22 0.511964 0.000000 0.633768
O O23 0.750000 0.905058 0.787044
#
# Coordination Sequence:
#
# PCOD9400907 Si02
#       8
#     8   8   8   8   8   8   8   8
#     4  10  20  34  50  67  91 125 166 208 245 286
#     4   9  16  28  50  78 103 127 157 192 233 286
#     4   9  18  33  52  76 106 133 156 191 243 299
#     4   8  16  30  47  70  99 127 156 196 243 286
#     4  10  22  38  54  73  98 131 170 209 249 293
#     4  10  20  33  49  70  97 127 158 196 244 296
#     4  10  21  36  52  71  98 131 166 207 254 300
#     4  10  19  31  50  75 101 128 161 202 246 294
#
# _framework density 20.948453000000001
#
# number of rings (size 3 to 8) (size 9 to 14) (size 15 to 20)
#    0.000    2.500    0.000    3.000    0.000    4.500 
#    0.000    3.125    0.000    0.375    0.000    0.000 
#    0.000    0.000    0.000    0.000    0.000    0.500 
#
# Total GULP energy -356703.379078 kJ/mol
# GULP energy per Si atom -5573.490298 kJ/mol
# Density = 2.090077 g / cm^3
# Si number density = 20.948453 Si / 1000 Ang^3
#
#
#
# Elastic Constant Matrix: (Units=GPa)
#
#
# Indices 1 2 3 4 5 6 
#
# 1 21.5514 5.7074 -5.8222 0.0000 0.0000 0.0000
# 2 5.7074 50.9671 41.2183 0.0000 0.0000 0.0000
# 3 -5.8222 41.2183 105.5374 0.0000 0.0000 0.0000
# 4 0.0000 0.0000 0.0000 -14.3281 0.0000 0.0000
# 5 0.0000 0.0000 0.0000 0.0000 23.4638 0.0000
# 6 0.0000 0.0000 0.0000 0.0000 0.0000 3.9326
#
#
#
# Elastic Compliance Matrix: (Units=1/GPa)
#
#
# Indices 1 2 3 4 5 6 
#
# 1 0.051537 -0.011797 0.007450 0.000000 0.000000 0.000000
# 2 -0.011797 0.031379 -0.012906 0.000000 0.000000 0.000000
# 3 0.007450 -0.012906 0.014927 0.000000 0.000000 0.000000
# 4 0.000000 0.000000 0.000000 -0.069793 0.000000 0.000000
# 5 0.000000 0.000000 0.000000 0.000000 0.042619 0.000000
# 6 0.000000 0.000000 0.000000 0.000000 0.000000 0.254286
#
#
# Mechanical properties :
#
#
# Convention : Reuss Voigt Hill
#
# Bulk Modulus (GPa) = 15.78809 28.91810 22.35310
# Shear Modulus (GPa) = 13.13812 11.74383 12.44098
#
# Velocity S-wave (km/s) = 2.50704 2.37028 2.43962
# Velocity P-wave (km/s) = 3.99166 4.61794 4.31617
#
# Compressibility (1/GPa) = 0.06333887
#
# Stress axis : x y z
#
# Youngs Moduli (GPa) = 19.40337 31.86851 66.99333
#
# Poissons Ratio (x) = 0.37594 -0.49913
# Poissons Ratio (y) = 0.22889 0.86462
# Poissons Ratio (z) = -0.14456 0.41130
#
# Static dielectric constant tensor:
#      x y z
#    x 1.747210 0.000000 0.000000 
#    y 0.000000 1.795190 0.000000 
#    z 0.000000 0.000000 1.786770 
# 
# From -- ./inp_files/32349.got.cif
#   From: 2010.05.17/outbox.cif.g08.bks.cpg/sg51_17_cif.got.tgz:32349.got - 2010.06.03 11:52:47.
