data_PCOD9400190
_publ_section_title
;
Structure prediction by ZEFSAII (Michael W. Deem and Ramdas Pophale) SiO2 
 PCOD9400190
Probable space group: P M M A
;
_chemical_formula_sum "Si O2"
_cell_formula_units_Z 64
_cell_length_a 17.610662
_cell_length_b 14.297477
_cell_length_c 14.447673
_cell_angle_alpha 90.000000
_cell_angle_beta 90.000000
_cell_angle_gamma 90.000000
_cell_volume 3637.751194
_symmetry_space_group_name_H-M "P M M A"
_symmetry_group_IT_number 51
_symmetry_cell_setting 'orthorhombic'
loop_
_space_group_symop_operation_xyz
x,y,z
1/2-x,-y,z
1/2+x,-y,-z
-x,y,-z
-x,-y,-z
1/2+x,y,-z
1/2-x,y,z
x,-y,z
loop_
_atom_site_type_symbol
_atom_site_label
_atom_site_fract_x
_atom_site_fract_y
_atom_site_fract_z
Si Si1 0.334648 0.110302 0.107464
Si Si2 0.081655 0.245325 0.764711
Si Si3 0.404851 0.894695 0.396331
Si Si4 0.070940 0.109919 0.936319
Si Si5 0.659069 0.610826 0.101431
Si Si6 0.910323 0.894870 0.387539
Si Si7 0.658703 0.392397 0.894017
Si Si8 0.592387 0.755732 0.756381
O O1 0.250000 0.146066 0.128281
O O2 0.396709 0.161057 0.169237
O O3 0.337217 0.000000 0.125345
O O4 0.355249 0.123478 0.000415
O O5 0.076740 0.166761 0.843710
O O6 0.123314 0.330689 0.815075
O O7 0.116024 0.190714 0.676576
O O8 0.994863 0.271725 0.741480
O O9 0.388299 0.883993 0.505037
O O10 0.496977 0.894521 0.385122
O O11 0.376437 0.807334 0.335544
O O12 0.379101 0.000000 0.367489
O O13 0.061285 0.000000 0.917125
O O14 0.000000 0.139252 0.000000
O O15 0.750000 0.622214 0.104151
O O16 0.642686 0.500000 0.109078
O O17 0.632797 0.640757 0.997148
O O18 0.886763 0.000000 0.357074
O O19 0.750000 0.391971 0.896980
O O20 0.633654 0.500000 0.883432
O O21 0.632525 0.329657 0.808508
#
# Coordination Sequence:
#
# PCOD9400190 Si02
#       8
#     8   8   8   8   8   8   8   8
#     4  10  20  31  43  64  97 135 168 194 230 291
#     4  11  20  28  50  77  96 124 166 205 250 295
#     4   8  15  28  47  70 100 133 163 197 239 288
#     4  10  19  30  42  64 103 138 161 193 240 289
#     4   9  20  38  55  70  94 130 168 207 252 303
#     4   8  15  29  47  71 100 131 166 200 236 287
#     4   9  19  35  51  67  93 130 164 194 237 296
#     4  11  19  28  47  75  99 121 157 205 252 289
#
# _framework density 17.593287
#
# number of rings (size 3 to 8) (size 9 to 14) (size 15 to 20)
#    0.000    2.500    1.250    3.375    0.000    3.000 
#    0.000    1.250    0.000    3.375    0.000    8.750 
#    0.000    0.000    0.000    0.000    0.000    0.000 
#
# Total GULP energy -356531.446843 kJ/mol
# GULP energy per Si atom -5570.803857 kJ/mol
# Density = 1.755324 g / cm^3
# Si number density = 17.593287 Si / 1000 Ang^3
#
#
#
# Elastic Constant Matrix: (Units=GPa)
#
#
# Indices 1 2 3 4 5 6 
#
# 1 23.1304 21.3630 12.1512 0.0000 0.0000 0.0000
# 2 21.3630 88.7421 53.6252 0.0000 0.0000 0.0000
# 3 12.1512 53.6252 81.9934 0.0000 0.0000 0.0000
# 4 0.0000 0.0000 0.0000 35.0939 0.0000 0.0000
# 5 0.0000 0.0000 0.0000 0.0000 10.5968 0.0000
# 6 0.0000 0.0000 0.0000 0.0000 0.0000 32.6976
#
#
#
# Elastic Compliance Matrix: (Units=1/GPa)
#
#
# Indices 1 2 3 4 5 6 
#
# 1 0.055629 -0.013906 0.000850 0.000000 0.000000 0.000000
# 2 -0.013906 0.022108 -0.012398 0.000000 0.000000 0.000000
# 3 0.000850 -0.012398 0.020179 0.000000 0.000000 0.000000
# 4 0.000000 0.000000 0.000000 0.028495 0.000000 0.000000
# 5 0.000000 0.000000 0.000000 0.000000 0.094368 0.000000
# 6 0.000000 0.000000 0.000000 0.000000 0.000000 0.030583
#
#
# Mechanical properties :
#
#
# Convention : Reuss Voigt Hill
#
# Bulk Modulus (GPa) = 21.27241 40.90498 31.08869
# Shear Modulus (GPa) = 15.72622 22.79275 19.25948
#
# Velocity S-wave (km/s) = 2.99302 3.60326 3.31222
# Velocity P-wave (km/s) = 4.90527 6.37276 5.68655
#
# Compressibility (1/GPa) = 0.04700925
#
# Stress axis : x y z
#
# Youngs Moduli (GPa) = 17.97610 45.23192 49.55672
#
# Poissons Ratio (x) = 0.62898 -0.04214
# Poissons Ratio (y) = 0.24997 0.61443
# Poissons Ratio (z) = -0.01529 0.56081
#
# Static dielectric constant tensor:
#      x y z
#    x 1.631720 0.000000 0.000000 
#    y 0.000000 1.611130 0.000000 
#    z 0.000000 0.000000 1.612260 
# 
# From -- ./inp_files/25351.got.cif
#   From: 2010.05.17/outbox.cif.g08.bks.cpg/sg51_13_cif.got.tgz:25351.got - 2010.06.03 11:52:47.
