data_PCOD9400512
_publ_section_title
;
Structure prediction by ZEFSAII (Michael W. Deem and Ramdas Pophale) SiO2 
 PCOD9400512
Probable space group: P M M A
;
_chemical_formula_sum "Si O2"
_cell_formula_units_Z 40
_cell_length_a 26.571839
_cell_length_b 17.079699
_cell_length_c 5.048310
_cell_angle_alpha 90.000000
_cell_angle_beta 90.000000
_cell_angle_gamma 90.000000
_cell_volume 2291.120023
_symmetry_space_group_name_H-M "P M M A"
_symmetry_group_IT_number 51
_symmetry_cell_setting 'orthorhombic'
loop_
_space_group_symop_operation_xyz
x,y,z
1/2-x,-y,z
1/2+x,-y,-z
-x,y,-z
-x,-y,-z
1/2+x,y,-z
1/2-x,y,z
x,-y,z
loop_
_atom_site_type_symbol
_atom_site_label
_atom_site_fract_x
_atom_site_fract_y
_atom_site_fract_z
Si Si1 0.964368 0.911977 0.254546
Si Si2 0.192766 0.684743 0.915346
Si Si3 0.092082 0.233237 0.962810
Si Si4 0.557292 0.327526 0.541259
Si Si5 0.841288 0.590228 0.595524
O O1 0.000000 0.886666 0.500000
O O2 0.945473 0.000000 0.317390
O O3 0.922675 0.850217 0.160454
O O4 0.000000 0.917033 0.000000
O O5 0.250000 0.712168 0.924978
O O6 0.151563 0.750940 0.986323
O O7 0.183509 0.616685 0.130335
O O8 0.180403 0.647108 0.630861
O O9 0.064695 0.259380 0.235461
O O10 0.073172 0.293793 0.741944
O O11 0.500000 0.353273 0.500000
O O12 0.598775 0.392374 0.615747
O O13 0.831906 0.500000 0.534548
#
# Coordination Sequence:
#
# PCOD9400512 Si02
#       5
#     8   8   8   8   8
#     4  10  19  30  48  75 103 128 153 186 231 279
#     4  10  21  35  51  70  92 124 163 203 245 283
#     4  10  19  32  49  70  97 126 161 197 231 282
#     4  10  19  31  49  70  95 129 160 191 235 287
#     4  10  21  34  49  72  96 121 159 202 246 293
#
# _framework density 17.458708999999999
#
# number of rings (size 3 to 8) (size 9 to 14) (size 15 to 20)
#    0.000    2.000    0.000    4.800    0.000    2.800 
#    0.000    0.000    0.000    7.800    0.000    0.000 
#    0.000   14.400    0.000    0.000    0.000    3.200 
#
# Total GULP energy -223002.098046 kJ/mol
# GULP energy per Si atom -5575.052451 kJ/mol
# Density = 1.741897 g / cm^3
# Si number density = 17.458709 Si / 1000 Ang^3
#
#
#
# Elastic Constant Matrix: (Units=GPa)
#
#
# Indices 1 2 3 4 5 6 
#
# 1 109.1463 24.9117 18.3109 0.0000 0.0000 0.0000
# 2 24.9117 55.8631 -13.7472 0.0000 0.0000 0.0000
# 3 18.3109 -13.7472 82.0382 0.0000 0.0000 0.0000
# 4 0.0000 0.0000 0.0000 19.5401 0.0000 0.0000
# 5 0.0000 0.0000 0.0000 0.0000 16.6806 0.0000
# 6 0.0000 0.0000 0.0000 0.0000 0.0000 1.7240
#
#
#
# Elastic Compliance Matrix: (Units=1/GPa)
#
#
# Indices 1 2 3 4 5 6 
#
# 1 0.011057 -0.005776 -0.003436 0.000000 0.000000 0.000000
# 2 -0.005776 0.021688 0.004924 0.000000 0.000000 0.000000
# 3 -0.003436 0.004924 0.013781 0.000000 0.000000 0.000000
# 4 0.000000 0.000000 0.000000 0.051177 0.000000 0.000000
# 5 0.000000 0.000000 0.000000 0.000000 0.059950 0.000000
# 6 0.000000 0.000000 0.000000 0.000000 0.000000 0.580039
#
#
# Mechanical properties :
#
#
# Convention : Reuss Voigt Hill
#
# Bulk Modulus (GPa) = 26.35064 33.99981 30.17523
# Shear Modulus (GPa) = 6.58832 22.09374 14.34103
#
# Velocity S-wave (km/s) = 1.94470 3.56123 2.86916
# Velocity P-wave (km/s) = 4.49092 6.03543 5.31953
#
# Compressibility (1/GPa) = 0.03794974
#
# Stress axis : x y z
#
# Youngs Moduli (GPa) = 90.44220 46.10765 72.56176
#
# Poissons Ratio (x) = 0.26633 0.24931
# Poissons Ratio (y) = 0.52241 -0.35726
# Poissons Ratio (z) = 0.31074 -0.22701
#
# Static dielectric constant tensor:
#      x y z
#    x 1.626570 0.000000 0.000000 
#    y 0.000000 1.611550 0.000000 
#    z 0.000000 0.000000 1.595990 
# 
# From -- ./inp_files/3917.got.cif
#   From: 2010.05.17/outbox.cif.g08.bks.cpg/sg51_2_cif.got.tgz:3917.got - 2010.06.03 11:52:47.
