data_PCOD9400297
_publ_section_title
;
Structure prediction by ZEFSAII (Michael W. Deem and Ramdas Pophale) SiO2 
 PCOD9400297
Probable space group: P M M A
;
_chemical_formula_sum "Si O2"
_cell_formula_units_Z 64
_cell_length_a 8.915806
_cell_length_b 14.732500
_cell_length_c 31.841392
_cell_angle_alpha 90.000000
_cell_angle_beta 90.000000
_cell_angle_gamma 90.000000
_cell_volume 4182.434085
_symmetry_space_group_name_H-M "P M M A"
_symmetry_group_IT_number 51
_symmetry_cell_setting 'orthorhombic'
loop_
_space_group_symop_operation_xyz
x,y,z
1/2-x,-y,z
1/2+x,-y,-z
-x,y,-z
-x,-y,-z
1/2+x,y,-z
1/2-x,y,z
x,-y,z
loop_
_atom_site_type_symbol
_atom_site_label
_atom_site_fract_x
_atom_site_fract_y
_atom_site_fract_z
Si Si1 0.069492 0.708304 0.623856
Si Si2 0.930346 0.392968 0.703513
Si Si3 0.930612 0.102829 0.243655
Si Si4 0.432123 0.100711 0.658391
Si Si5 0.422998 0.610415 0.956948
Si Si6 0.430778 0.394283 0.130545
Si Si7 0.071038 0.606958 0.454821
Si Si8 0.569211 0.283199 0.787660
O O1 0.250000 0.704862 0.621973
O O2 0.020572 0.812736 0.631515
O O3 0.012626 0.651602 0.664019
O O4 0.000099 0.665811 0.582112
O O5 0.750000 0.383306 0.697992
O O6 0.963016 0.500000 0.706537
O O7 0.973275 0.341610 0.746437
O O8 0.750000 0.109626 0.241840
O O9 0.974959 0.114354 0.292761
O O10 0.003247 0.183041 0.217358
O O11 0.972195 0.000000 0.231174
O O12 0.250000 0.099513 0.657793
O O13 0.483373 0.000000 0.645125
O O14 0.250000 0.637431 0.956205
O O15 0.429175 0.500000 0.957580
O O16 0.504252 0.637692 0.913972
O O17 0.500000 0.641941 0.000000
O O18 0.250000 0.391985 0.128418
O O19 0.474318 0.500000 0.137027
O O20 0.479898 0.334335 0.170065
O O21 0.250000 0.618897 0.456155
O O22 0.040565 0.500000 0.446495
O O23 0.000000 0.628950 0.500000
O O24 0.750000 0.278788 0.788239
#
# Coordination Sequence:
#
# PCOD9400297 Si02
#       8
#     8   8   8   8   8   8   8   8
#     4  11  20  31  51  75  96 121 156 194 230 271
#     4  10  20  32  44  62  93 130 161 189 224 268
#     4   9  17  31  49  66  88 120 156 194 237 280
#     4   8  15  29  48  69  93 121 153 189 231 275
#     4   9  16  26  41  61  84 113 152 197 239 277
#     4   9  17  29  43  60  87 125 162 193 231 279
#     4  10  21  37  55  74  98 126 154 187 228 273
#     4  10  19  30  45  65  91 123 159 196 232 271
#
# _framework density 15.302094
#
# number of rings (size 3 to 8) (size 9 to 14) (size 15 to 20)
#    0.000    2.500    1.250    2.625    0.000    6.250 
#    0.000    0.000    0.000    4.125    0.000    0.000 
#    0.000    0.500    0.000    1.625    0.000    2.375 
#
# Total GULP energy -356789.196783 kJ/mol
# GULP energy per Si atom -5574.831200 kJ/mol
# Density = 1.526727 g / cm^3
# Si number density = 15.302094 Si / 1000 Ang^3
#
#
#
# Elastic Constant Matrix: (Units=GPa)
#
#
# Indices 1 2 3 4 5 6 
#
# 1 30.4613 37.7863 45.5799 0.0000 0.0000 0.0000
# 2 37.7863 113.3208 83.0238 0.0000 0.0000 0.0000
# 3 45.5799 83.0238 142.3712 0.0000 0.0000 0.0000
# 4 0.0000 0.0000 0.0000 7.7605 0.0000 0.0000
# 5 0.0000 0.0000 0.0000 0.0000 25.3045 0.0000
# 6 0.0000 0.0000 0.0000 0.0000 0.0000 21.1766
#
#
#
# Elastic Compliance Matrix: (Units=1/GPa)
#
#
# Indices 1 2 3 4 5 6 
#
# 1 0.071766 -0.012391 -0.015750 0.000000 0.000000 0.000000
# 2 -0.012391 0.017546 -0.006265 0.000000 0.000000 0.000000
# 3 -0.015750 -0.006265 0.015720 0.000000 0.000000 0.000000
# 4 0.000000 0.000000 0.000000 0.128858 0.000000 0.000000
# 5 0.000000 0.000000 0.000000 0.000000 0.039519 0.000000
# 6 0.000000 0.000000 0.000000 0.000000 0.000000 0.047222
#
#
# Mechanical properties :
#
#
# Convention : Reuss Voigt Hill
#
# Bulk Modulus (GPa) = 27.60905 68.77038 48.18971
# Shear Modulus (GPa) = 12.45276 18.83253 15.64265
#
# Velocity S-wave (km/s) = 2.85580 3.51196 3.20074
# Velocity P-wave (km/s) = 5.38108 7.84121 6.72460
#
# Compressibility (1/GPa) = 0.03622001
#
# Stress axis : x y z
#
# Youngs Moduli (GPa) = 13.93411 56.99170 63.61383
#
# Poissons Ratio (x) = 0.70618 1.00192
# Poissons Ratio (y) = 0.17266 0.39856
# Poissons Ratio (z) = 0.21946 0.35707
#
# Static dielectric constant tensor:
#      x y z
#    x 1.514940 0.000000 0.000000 
#    y 0.000000 1.503610 0.000000 
#    z 0.000000 0.000000 1.489010 
# 
# From -- ./inp_files/37591.got.cif
#   From: 2010.05.17/outbox.cif.g08.bks.cpg/sg51_19_cif.got.tgz:37591.got - 2010.06.03 11:52:47.
