data_PCOD9400504
_publ_section_title
;
Structure prediction by ZEFSAII (Michael W. Deem and Ramdas Pophale) SiO2 
 PCOD9400504
Probable space group: P M M A
;
_chemical_formula_sum "Si O2"
_cell_formula_units_Z 64
_cell_length_a 24.944237
_cell_length_b 8.986477
_cell_length_c 16.503769
_cell_angle_alpha 90.000000
_cell_angle_beta 90.000000
_cell_angle_gamma 90.000000
_cell_volume 3699.498261
_symmetry_space_group_name_H-M "P M M A"
_symmetry_group_IT_number 51
_symmetry_cell_setting 'orthorhombic'
loop_
_space_group_symop_operation_xyz
x,y,z
1/2-x,-y,z
1/2+x,-y,-z
-x,y,-z
-x,-y,-z
1/2+x,y,-z
1/2-x,y,z
x,-y,z
loop_
_atom_site_type_symbol
_atom_site_label
_atom_site_fract_x
_atom_site_fract_y
_atom_site_fract_z
Si Si1 0.310964 0.679318 0.482925
Si Si2 0.386649 0.825786 0.612143
Si Si3 0.971209 0.678624 0.276362
Si Si4 0.187536 0.172295 0.769382
Si Si5 0.916747 0.680102 0.796447
Si Si6 0.560010 0.822694 0.970074
Si Si7 0.309632 0.680821 0.293555
Si Si8 0.894867 0.324466 0.124958
O O1 0.250000 0.724009 0.508470
O O2 0.313545 0.500000 0.489193
O O3 0.357977 0.749126 0.536205
O O4 0.316614 0.719743 0.388206
O O5 0.440651 0.753094 0.648378
O O6 0.343879 0.809278 0.685341
O O7 0.395182 0.000000 0.596815
O O8 0.967210 0.500000 0.284979
O O9 0.939231 0.718991 0.193287
O O10 0.033007 0.719760 0.261578
O O11 0.250000 0.199124 0.758143
O O12 0.160999 0.281131 0.833964
O O13 0.179584 0.000000 0.795138
O O14 0.916602 0.500000 0.802618
O O15 0.927213 0.747002 0.884745
O O16 0.860078 0.730630 0.759338
O O17 0.563924 0.000000 0.962180
O O18 0.500000 0.784590 0.000000
O O19 0.597017 0.762752 0.042121
O O20 0.250000 0.730800 0.267421
O O21 0.309464 0.500000 0.290515
O O22 0.899905 0.500000 0.110902
#
# Coordination Sequence:
#
# PCOD9400504 Si02
#       8
#     8   8   8   8   8   8   8   8
#     4   9  17  31  52  76 102 133 172 216 257 301
#     4  10  19  30  48  74 104 137 174 212 254 303
#     4   9  18  31  48  73 103 134 168 209 259 306
#     4   9  18  32  48  68 100 138 171 206 252 306
#     4  10  19  34  57  80 103 132 170 217 263 308
#     4  11  22  34  52  77 104 133 169 209 255 311
#     4   8  16  33  57  82 104 130 168 214 262 307
#     4  10  19  32  50  73 101 130 168 215 253 297
#
# _framework density 17.299643
#
# number of rings (size 3 to 8) (size 9 to 14) (size 15 to 20)
#    0.000    2.500    1.250    2.250    0.000    3.000 
#    0.000    1.875    0.000    7.125    0.000    0.000 
#    0.000    0.000    0.000    0.000    0.000    0.000 
#
# Total GULP energy -356813.830571 kJ/mol
# GULP energy per Si atom -5575.216103 kJ/mol
# Density = 1.726027 g / cm^3
# Si number density = 17.299643 Si / 1000 Ang^3
#
#
#
# Elastic Constant Matrix: (Units=GPa)
#
#
# Indices 1 2 3 4 5 6 
#
# 1 121.7753 35.9044 61.5019 0.0000 0.0000 0.0000
# 2 35.9044 21.6441 32.2259 0.0000 0.0000 0.0000
# 3 61.5019 32.2259 80.4652 0.0000 0.0000 0.0000
# 4 0.0000 0.0000 0.0000 9.7941 0.0000 0.0000
# 5 0.0000 0.0000 0.0000 0.0000 27.2925 0.0000
# 6 0.0000 0.0000 0.0000 0.0000 0.0000 15.5871
#
#
#
# Elastic Compliance Matrix: (Units=1/GPa)
#
#
# Indices 1 2 3 4 5 6 
#
# 1 0.016605 -0.021423 -0.004112 0.000000 0.000000 0.000000
# 2 -0.021423 0.142085 -0.040530 0.000000 0.000000 0.000000
# 3 -0.004112 -0.040530 0.031802 0.000000 0.000000 0.000000
# 4 0.000000 0.000000 0.000000 0.102103 0.000000 0.000000
# 5 0.000000 0.000000 0.000000 0.000000 0.036640 0.000000
# 6 0.000000 0.000000 0.000000 0.000000 0.000000 0.064155
#
#
# Mechanical properties :
#
#
# Convention : Reuss Voigt Hill
#
# Bulk Modulus (GPa) = 17.13429 53.68324 35.40877
# Shear Modulus (GPa) = 9.17476 16.81823 12.99649
#
# Velocity S-wave (km/s) = 2.30542 3.12135 2.74388
# Velocity P-wave (km/s) = 4.12462 6.63997 5.52728
#
# Compressibility (1/GPa) = 0.05836251
#
# Stress axis : x y z
#
# Youngs Moduli (GPa) = 60.22332 7.03806 31.44409
#
# Poissons Ratio (x) = 0.15078 0.12929
# Poissons Ratio (y) = 1.29017 1.27443
# Poissons Ratio (z) = 0.24762 0.28525
#
# Static dielectric constant tensor:
#      x y z
#    x 1.599470 0.000000 0.000000 
#    y 0.000000 1.577150 0.000000 
#    z 0.000000 0.000000 1.563550 
# 
# From -- ./inp_files/26265.got.cif
#   From: 2010.05.17/outbox.cif.g08.bks.cpg/sg51_14_cif.got.tgz:26265.got - 2010.06.03 11:52:47.
