data_PCOD9400362
_publ_section_title
;
Structure prediction by ZEFSAII (Michael W. Deem and Ramdas Pophale) SiO2 
 PCOD9400362
Probable space group: P M M A
;
_chemical_formula_sum "Si O2"
_cell_formula_units_Z 64
_cell_length_a 8.330722
_cell_length_b 24.509665
_cell_length_c 13.563915
_cell_angle_alpha 90.000000
_cell_angle_beta 90.000000
_cell_angle_gamma 90.000000
_cell_volume 2769.523643
_symmetry_space_group_name_H-M "P M M A"
_symmetry_group_IT_number 51
_symmetry_cell_setting 'orthorhombic'
loop_
_space_group_symop_operation_xyz
x,y,z
1/2-x,-y,z
1/2+x,-y,-z
-x,y,-z
-x,-y,-z
1/2+x,y,-z
1/2-x,y,z
x,-y,z
loop_
_atom_site_type_symbol
_atom_site_label
_atom_site_fract_x
_atom_site_fract_y
_atom_site_fract_z
Si Si1 0.938773 0.061163 0.681437
Si Si2 0.565426 0.675515 0.136545
Si Si3 0.554758 0.822160 0.677793
Si Si4 0.062573 0.296354 0.341006
Si Si5 0.057902 0.559105 0.819646
Si Si6 0.571456 0.934960 0.104683
Si Si7 0.066029 0.209932 0.103630
Si Si8 0.433880 0.582792 0.397163
O O1 0.750000 0.058022 0.658337
O O2 0.005482 0.118843 0.639496
O O3 0.961154 0.071171 0.799063
O O4 0.007482 0.000000 0.659056
O O5 0.750000 0.679819 0.102676
O O6 0.556867 0.687689 0.253285
O O7 0.498787 0.614134 0.126517
O O8 0.457684 0.724833 0.099540
O O9 0.750000 0.826798 0.678715
O O10 0.518962 0.764616 0.623579
O O11 0.497498 0.810765 0.791375
O O12 0.250000 0.291815 0.304589
O O13 0.062175 0.351011 0.404053
O O14 0.250000 0.559978 0.831793
O O15 0.995440 0.500000 0.852920
O O16 0.022550 0.565323 0.702835
O O17 0.750000 0.911675 0.121127
O O18 0.588657 0.000000 0.097004
O O19 0.500000 0.918421 0.000000
O O20 0.250000 0.195059 0.106816
O O21 0.000000 0.190233 0.000000
O O22 0.500000 0.561402 0.500000
O O23 0.250000 0.566628 0.384371
#
# Coordination Sequence:
#
# PCOD9400362 Si02
#       8
#     8   8   8   8   8   8   8   8
#     4   9  16  26  40  57  77 101 129 163 205 252
#     4   9  16  28  47  68  88 111 142 180 220 260
#     4   8  15  28  44  61  82 108 138 174 215 260
#     4   8  15  29  46  62  83 113 146 177 213 255
#     4   9  18  32  49  69  94 124 154 180 207 246
#     4   9  16  25  35  46  63  90 124 159 194 235
#     4  10  19  31  46  63  84 109 141 184 231 272
#     4  10  19  30  46  68  94 123 151 181 214 247
#
# _framework density 23.108667000000001
#
# number of rings (size 3 to 8) (size 9 to 14) (size 15 to 20)
#    0.000    3.000    0.000    2.250    0.000    3.500 
#    0.000    4.375    0.000    0.375    0.000    0.000 
#    0.000    0.500    0.000    0.375    0.000    1.000 
#
# Total GULP energy -356275.108832 kJ/mol
# GULP energy per Si atom -5566.798576 kJ/mol
# Density = 2.305607 g / cm^3
# Si number density = 23.108667 Si / 1000 Ang^3
#
#
#
# Elastic Constant Matrix: (Units=GPa)
#
#
# Indices 1 2 3 4 5 6 
#
# 1 21.1331 1.8794 -0.3734 0.0000 0.0000 0.0000
# 2 1.8794 226.4685 -4.4809 0.0000 0.0000 0.0000
# 3 -0.3734 -4.4809 19.6526 0.0000 0.0000 0.0000
# 4 0.0000 0.0000 0.0000 -1.0089 0.0000 0.0000
# 5 0.0000 0.0000 0.0000 0.0000 6.5154 0.0000
# 6 0.0000 0.0000 0.0000 0.0000 0.0000 -10.7678
#
#
#
# Elastic Compliance Matrix: (Units=1/GPa)
#
#
# Indices 1 2 3 4 5 6 
#
# 1 0.047367 -0.000377 0.000814 0.000000 0.000000 0.000000
# 2 -0.000377 0.004439 0.001005 0.000000 0.000000 0.000000
# 3 0.000814 0.001005 0.051128 0.000000 0.000000 0.000000
# 4 0.000000 0.000000 0.000000 -0.991195 0.000000 0.000000
# 5 0.000000 0.000000 0.000000 0.000000 0.153483 0.000000
# 6 0.000000 0.000000 0.000000 0.000000 0.000000 -0.092870
#
#
# Mechanical properties :
#
#
# Convention : Reuss Voigt Hill
#
# Bulk Modulus (GPa) = 9.45021 29.03382 19.24201
# Shear Modulus (GPa) = -6.28726 16.96302 5.33788
#
# Velocity S-wave (km/s) = -1.65125 2.71228 1.52149
# Velocity P-wave (km/s) = 0.68031 4.73286 3.38103
#
# Compressibility (1/GPa) = 0.10581778
#
# Stress axis : x y z
#
# Youngs Moduli (GPa) = 21.11177 225.29440 19.55860
#
# Poissons Ratio (x) = 0.08493 -0.01592
# Poissons Ratio (y) = 0.00796 -0.01965
# Poissons Ratio (z) = -0.01719 -0.22639
#
# Static dielectric constant tensor:
#      x y z
#    x 1.844280 0.000000 0.000000 
#    y 0.000000 1.993120 0.000000 
#    z 0.000000 0.000000 1.831330 
# 
# From -- ./inp_files/28639.got.cif
#   From: 2010.05.17/outbox.cif.g08.bks.cpg/sg51_15_cif.got.tgz:28639.got - 2010.06.03 11:52:47.
