data_PCOD9400415
_publ_section_title
;
Structure prediction by ZEFSAII (Michael W. Deem and Ramdas Pophale) SiO2 
 PCOD9400415
Probable space group: P M M A
;
_chemical_formula_sum "Si O2"
_cell_formula_units_Z 40
_cell_length_a 15.826391
_cell_length_b 14.272155
_cell_length_c 7.259959
_cell_angle_alpha 90.000000
_cell_angle_beta 90.000000
_cell_angle_gamma 90.000000
_cell_volume 1639.855621
_symmetry_space_group_name_H-M "P M M A"
_symmetry_group_IT_number 51
_symmetry_cell_setting 'orthorhombic'
loop_
_space_group_symop_operation_xyz
x,y,z
1/2-x,-y,z
1/2+x,-y,-z
-x,y,-z
-x,-y,-z
1/2+x,y,-z
1/2-x,y,z
x,-y,z
loop_
_atom_site_type_symbol
_atom_site_label
_atom_site_fract_x
_atom_site_fract_y
_atom_site_fract_z
Si Si1 0.601797 0.000000 0.543248
Si Si2 0.600709 0.398643 0.976711
Si Si3 0.398206 0.600601 0.462181
Si Si4 0.152149 0.199105 0.037752
Si Si5 0.098937 0.800293 0.454828
Si Si6 0.900408 0.000000 0.981293
O O1 0.500000 0.000000 0.500000
O O2 0.635617 0.100599 0.478786
O O3 0.619262 0.000000 0.762840
O O4 0.631833 0.500000 0.048068
O O5 0.617403 0.399462 0.757522
O O6 0.632433 0.299405 0.053489
O O7 0.500000 0.397931 0.000000
O O8 0.500000 0.601072 0.500000
O O9 0.366629 0.500000 0.532809
O O10 0.364247 0.701676 0.523897
O O11 0.250000 0.197836 0.084914
O O12 0.102821 0.199661 0.232143
O O13 0.130871 0.100043 0.943218
O O14 0.000000 0.800338 0.500000
O O15 0.000000 0.000000 0.000000
#
# Coordination Sequence:
#
# PCOD9400415 Si02
#       6
#     4   8   8   8   8   4
#     4   8  14  25  42  65  86 108 143 186 223 261
#     4   9  17  29  45  67  93 122 159 199 237 284
#     4   8  13  22  38  61  85 109 142 185 224 260
#     4  10  19  30  46  71  99 125 158 205 253 289
#     4   8  14  25  41  62  88 118 150 187 228 278
#     4  10  19  31  48  71  93 122 161 198 236 285
#
# _framework density 24.392391
#
# number of rings (size 3 to 8) (size 9 to 14) (size 15 to 20)
#    0.000    3.200    0.000    0.900    0.000    0.400 
#    0.000    0.000    0.000    0.000    0.000  112.000 
#    0.000   52.800    0.000    0.000    0.000    0.000 
#
# Total GULP energy -222879.832051 kJ/mol
# GULP energy per Si atom -5571.995801 kJ/mol
# Density = 2.433687 g / cm^3
# Si number density = 24.392391 Si / 1000 Ang^3
#
#
#
# Elastic Constant Matrix: (Units=GPa)
#
#
# Indices 1 2 3 4 5 6 
#
# 1 40.2951 17.8209 -7.5162 0.0000 0.0000 0.0000
# 2 17.8209 378.4026 17.6808 0.0000 0.0000 0.0000
# 3 -7.5162 17.6808 105.1556 0.0000 0.0000 0.0000
# 4 0.0000 0.0000 0.0000 -31.5158 0.0000 0.0000
# 5 0.0000 0.0000 0.0000 0.0000 -1.0125 0.0000
# 6 0.0000 0.0000 0.0000 0.0000 0.0000 -8.0923
#
#
#
# Elastic Compliance Matrix: (Units=1/GPa)
#
#
# Indices 1 2 3 4 5 6 
#
# 1 0.025781 -0.001311 0.002063 0.000000 0.000000 0.000000
# 2 -0.001311 0.002730 -0.000553 0.000000 0.000000 0.000000
# 3 0.002063 -0.000553 0.009750 0.000000 0.000000 0.000000
# 4 0.000000 0.000000 0.000000 -0.031730 0.000000 0.000000
# 5 0.000000 0.000000 0.000000 0.000000 -0.987635 0.000000
# 6 0.000000 0.000000 0.000000 0.000000 0.000000 -0.123574
#
#
# Mechanical properties :
#
#
# Convention : Reuss Voigt Hill
#
# Bulk Modulus (GPa) = 25.86564 64.42494 45.14529
# Shear Modulus (GPa) = -4.57796 24.93372 10.17788
#
# Velocity S-wave (km/s) = -1.37145 3.20064 2.04490
# Velocity P-wave (km/s) = 2.84942 6.33467 4.91158
#
# Compressibility (1/GPa) = 0.03866132
#
# Stress axis : x y z
#
# Youngs Moduli (GPa) = 38.78774 366.26865 102.56289
#
# Poissons Ratio (x) = 0.48002 -0.21160
# Poissons Ratio (y) = 0.05083 0.05669
# Poissons Ratio (z) = -0.08002 0.20245
#
# Static dielectric constant tensor:
#      x y z
#    x 1.834500 0.000000 0.000000 
#    y 0.000000 2.087970 0.000000 
#    z 0.000000 0.000000 1.878820 
# 
# From -- ./inp_files/8037.got.cif
#   From: 2010.05.17/outbox.cif.g08.bks.cpg/sg51_5_cif.got.tgz:8037.got - 2010.06.03 11:52:47.
