data_PCOD9400611
_publ_section_title
;
Structure prediction by ZEFSAII (Michael W. Deem and Ramdas Pophale) SiO2 
 PCOD9400611
Probable space group: P M M A
;
_chemical_formula_sum "Si O2"
_cell_formula_units_Z 64
_cell_length_a 9.063296
_cell_length_b 15.275386
_cell_length_c 26.765037
_cell_angle_alpha 90.000000
_cell_angle_beta 90.000000
_cell_angle_gamma 90.000000
_cell_volume 3705.494777
_symmetry_space_group_name_H-M "P M M A"
_symmetry_group_IT_number 51
_symmetry_cell_setting 'orthorhombic'
loop_
_space_group_symop_operation_xyz
x,y,z
1/2-x,-y,z
1/2+x,-y,-z
-x,y,-z
-x,-y,-z
1/2+x,y,-z
1/2-x,y,z
x,-y,z
loop_
_atom_site_type_symbol
_atom_site_label
_atom_site_fract_x
_atom_site_fract_y
_atom_site_fract_z
Si Si1 0.583932 0.399462 0.858393
Si Si2 0.927440 0.782745 0.748923
Si Si3 0.074209 0.400542 0.754146
Si Si4 0.420444 0.106573 0.550630
Si Si5 0.916698 0.874513 0.049604
Si Si6 0.073403 0.898157 0.347333
Si Si7 0.428127 0.101274 0.835855
Si Si8 0.916412 0.665922 0.048289
O O1 0.750000 0.370812 0.844230
O O2 0.593239 0.500000 0.874597
O O3 0.473962 0.397292 0.812018
O O4 0.515769 0.347924 0.903611
O O5 0.750000 0.779127 0.754237
O O6 0.965131 0.844717 0.702044
O O7 0.990903 0.686414 0.735586
O O8 0.996685 0.828177 0.798729
O O9 0.250000 0.391674 0.748335
O O10 0.032588 0.500000 0.736478
O O11 0.500000 0.136530 0.500000
O O12 0.250000 0.131967 0.550104
O O13 0.497778 0.134802 0.601908
O O14 0.427666 0.000000 0.550423
O O15 0.750000 0.908015 0.049580
O O16 0.977023 0.891226 0.105758
O O17 0.906522 0.770116 0.043270
O O18 0.000000 0.905974 0.000000
O O19 0.250000 0.894274 0.354043
O O20 0.032216 0.000000 0.340325
O O21 0.250000 0.115656 0.834904
O O22 0.456638 0.000000 0.819932
O O23 0.750000 0.630741 0.053788
O O24 0.000000 0.629262 0.000000
#
# Coordination Sequence:
#
# PCOD9400611 Si02
#       8
#     8   8   8   8   8   8   8   8
#     4  10  20  33  49  69  91 114 144 185 235 293
#     4  11  22  35  54  78 105 137 172 213 259 306
#     4  10  21  37  56  76  98 126 161 202 250 306
#     4   9  16  26  43  68  99 139 185 227 264 300
#     4   9  19  34  50  68  88 114 152 197 243 289
#     4   9  18  32  48  70 105 145 182 219 257 299
#     4  10  21  36  53  74 102 134 167 205 251 306
#     4  10  19  31  47  65  88 117 149 187 231 283
#
# _framework density 17.271647000000002
#
# number of rings (size 3 to 8) (size 9 to 14) (size 15 to 20)
#    0.000    2.250    0.000    3.000    0.000    7.250 
#    0.000    1.250    0.000    0.000    0.000    0.000 
#    0.000    0.500    0.000    1.625    0.000    2.375 
#
# Total GULP energy -356658.834649 kJ/mol
# GULP energy per Si atom -5572.794291 kJ/mol
# Density = 1.723234 g / cm^3
# Si number density = 17.271647 Si / 1000 Ang^3
#
#
#
# Elastic Constant Matrix: (Units=GPa)
#
#
# Indices 1 2 3 4 5 6 
#
# 1 52.0181 32.8619 40.7401 0.0000 0.0000 0.0000
# 2 32.8619 68.4852 43.9929 0.0000 0.0000 0.0000
# 3 40.7401 43.9929 109.8471 0.0000 0.0000 0.0000
# 4 0.0000 0.0000 0.0000 5.7142 0.0000 0.0000
# 5 0.0000 0.0000 0.0000 0.0000 28.0983 0.0000
# 6 0.0000 0.0000 0.0000 0.0000 0.0000 12.7355
#
#
#
# Elastic Compliance Matrix: (Units=1/GPa)
#
#
# Indices 1 2 3 4 5 6 
#
# 1 0.031720 -0.010318 -0.007632 0.000000 0.000000 0.000000
# 2 -0.010318 0.023016 -0.005391 0.000000 0.000000 0.000000
# 3 -0.007632 -0.005391 0.014093 0.000000 0.000000 0.000000
# 4 0.000000 0.000000 0.000000 0.175003 0.000000 0.000000
# 5 0.000000 0.000000 0.000000 0.000000 0.035589 0.000000
# 6 0.000000 0.000000 0.000000 0.000000 0.000000 0.078521
#
#
# Mechanical properties :
#
#
# Convention : Reuss Voigt Hill
#
# Bulk Modulus (GPa) = 45.15293 51.72669 48.43981
# Shear Modulus (GPa) = 12.13580 16.82664 14.48122
#
# Velocity S-wave (km/s) = 2.65362 3.12466 2.89872
# Velocity P-wave (km/s) = 5.96561 6.55987 6.26978
#
# Compressibility (1/GPa) = 0.02214696
#
# Stress axis : x y z
#
# Youngs Moduli (GPa) = 31.52635 43.44897 70.95665
#
# Poissons Ratio (x) = 0.44830 0.54154
# Poissons Ratio (y) = 0.32528 0.38252
# Poissons Ratio (z) = 0.24061 0.23423
#
# Static dielectric constant tensor:
#      x y z
#    x 1.605430 0.000000 0.000000 
#    y 0.000000 1.623990 0.000000 
#    z 0.000000 0.000000 1.571950 
# 
# From -- ./inp_files/34912.got.cif
#   From: 2010.05.17/outbox.cif.g08.bks.cpg/sg51_18_cif.got.tgz:34912.got - 2010.06.03 11:52:47.
