data_PCOD9400837
_publ_section_title
;
Structure prediction by ZEFSAII (Michael W. Deem and Ramdas Pophale) SiO2 
 PCOD9400837
Probable space group: P M M A
;
_chemical_formula_sum "Si O2"
_cell_formula_units_Z 40
_cell_length_a 8.071975
_cell_length_b 14.132950
_cell_length_c 19.328177
_cell_angle_alpha 90.000000
_cell_angle_beta 90.000000
_cell_angle_gamma 90.000000
_cell_volume 2204.974263
_symmetry_space_group_name_H-M "P M M A"
_symmetry_group_IT_number 51
_symmetry_cell_setting 'orthorhombic'
loop_
_space_group_symop_operation_xyz
x,y,z
1/2-x,-y,z
1/2+x,-y,-z
-x,y,-z
-x,-y,-z
1/2+x,y,-z
1/2-x,y,z
x,-y,z
loop_
_atom_site_type_symbol
_atom_site_label
_atom_site_fract_x
_atom_site_fract_y
_atom_site_fract_z
Si Si1 0.550690 0.703268 0.076185
Si Si2 0.550440 0.108939 0.575508
Si Si3 0.052301 0.202431 0.283471
Si Si4 0.450592 0.394131 0.783200
Si Si5 0.551882 0.105315 0.142502
O O1 0.750000 0.705479 0.078745
O O2 0.495640 0.636505 0.139296
O O3 0.488015 0.809540 0.094053
O O4 0.500000 0.673176 0.000000
O O5 0.500000 0.145549 0.500000
O O6 0.750000 0.107397 0.577674
O O7 0.491514 0.167541 0.641823
O O8 0.491205 0.000000 0.581135
O O9 0.250000 0.191001 0.281056
O O10 0.009412 0.310926 0.266997
O O11 0.980169 0.139463 0.220969
O O12 0.250000 0.393402 0.782472
O O13 0.507260 0.500000 0.766569
O O14 0.750000 0.101323 0.132965
O O15 0.483903 0.000000 0.130322
#
# Coordination Sequence:
#
# PCOD9400837 Si02
#       5
#     8   8   8   8   8
#     4   9  18  31  46  67  94 122 154 194 239 285
#     4   9  18  31  47  71 103 134 160 187 223 269
#     4  10  19  31  49  74 101 124 153 199 244 279
#     4   9  19  36  54  70  91 122 159 197 239 289
#     4   9  18  32  48  66  92 129 167 196 228 279
#
# _framework density 18.140799999999999
#
# number of rings (size 3 to 8) (size 9 to 14) (size 15 to 20)
#    0.000    2.800    0.000    2.400    0.000    7.200 
#    0.000    2.000    0.000    0.600    0.000    0.000 
#    0.000    0.000    0.000    0.000    0.000    0.000 
#
# Total GULP energy -223010.364833 kJ/mol
# GULP energy per Si atom -5575.259121 kJ/mol
# Density = 1.809951 g / cm^3
# Si number density = 18.140800 Si / 1000 Ang^3
#
#
#
# Elastic Constant Matrix: (Units=GPa)
#
#
# Indices 1 2 3 4 5 6 
#
# 1 5.7114 -0.8129 -6.8076 0.0000 0.0000 0.0000
# 2 -0.8129 60.3552 10.2256 0.0000 0.0000 0.0000
# 3 -6.8076 10.2256 97.5458 0.0000 0.0000 0.0000
# 4 0.0000 0.0000 0.0000 9.6823 0.0000 0.0000
# 5 0.0000 0.0000 0.0000 0.0000 25.7109 0.0000
# 6 0.0000 0.0000 0.0000 0.0000 0.0000 15.2124
#
#
#
# Elastic Compliance Matrix: (Units=1/GPa)
#
#
# Indices 1 2 3 4 5 6 
#
# 1 0.190982 0.000320 0.013295 0.000000 0.000000 0.000000
# 2 0.000320 0.016869 -0.001746 0.000000 0.000000 0.000000
# 3 0.013295 -0.001746 0.011362 0.000000 0.000000 0.000000
# 4 0.000000 0.000000 0.000000 0.103282 0.000000 0.000000
# 5 0.000000 0.000000 0.000000 0.000000 0.038894 0.000000
# 6 0.000000 0.000000 0.000000 0.000000 0.000000 0.065736
#
#
# Mechanical properties :
#
#
# Convention : Reuss Voigt Hill
#
# Bulk Modulus (GPa) = 4.11607 18.75808 11.43707
# Shear Modulus (GPa) = 10.32268 20.85493 15.58880
#
# Velocity S-wave (km/s) = 2.38802 3.39428 2.93460
# Velocity P-wave (km/s) = 3.14284 5.07190 4.21910
#
# Compressibility (1/GPa) = 0.24295007
#
# Stress axis : x y z
#
# Youngs Moduli (GPa) = 5.23610 59.28142 88.00899
#
# Poissons Ratio (x) = -0.01895 -1.17007
# Poissons Ratio (y) = -0.00167 0.15367
# Poissons Ratio (z) = -0.06961 0.10351
#
# Static dielectric constant tensor:
#      x y z
#    x 1.644530 0.000000 0.000000 
#    y 0.000000 1.633800 0.000000 
#    z 0.000000 0.000000 1.607140 
# 
# From -- ./inp_files/20523.got.cif
#   From: 2010.05.17/outbox.cif.g08.bks.cpg/sg51_11_cif.got.tgz:20523.got - 2010.06.03 11:52:47.
