data_PCOD9400139
_publ_section_title
;
Structure prediction by ZEFSAII (Michael W. Deem and Ramdas Pophale) SiO2 
 PCOD9400139
Probable space group: P M M A
;
_chemical_formula_sum "Si O2"
_cell_formula_units_Z 64
_cell_length_a 30.796036
_cell_length_b 9.117027
_cell_length_c 14.905766
_cell_angle_alpha 90.000000
_cell_angle_beta 90.000000
_cell_angle_gamma 90.000000
_cell_volume 4185.066456
_symmetry_space_group_name_H-M "P M M A"
_symmetry_group_IT_number 51
_symmetry_cell_setting 'orthorhombic'
loop_
_space_group_symop_operation_xyz
x,y,z
1/2-x,-y,z
1/2+x,-y,-z
-x,y,-z
-x,-y,-z
1/2+x,y,-z
1/2-x,y,z
x,-y,z
loop_
_atom_site_type_symbol
_atom_site_label
_atom_site_fract_x
_atom_site_fract_y
_atom_site_fract_z
Si Si1 0.800574 0.674280 0.852122
Si Si2 0.545944 0.322594 0.048423
Si Si3 0.615514 0.828472 0.562332
Si Si4 0.300071 0.175354 0.341335
Si Si5 0.434017 0.165620 0.249129
Si Si6 0.879797 0.828784 0.932652
Si Si7 0.043770 0.677203 0.554529
Si Si8 0.522870 0.675261 0.246161
O O1 0.750000 0.700613 0.875084
O O2 0.808042 0.500000 0.848625
O O3 0.807371 0.742473 0.752812
O O4 0.833807 0.749040 0.920710
O O5 0.549598 0.500000 0.043669
O O6 0.543830 0.275048 0.152573
O O7 0.500000 0.283792 0.000000
O O8 0.586432 0.249126 0.998974
O O9 0.664718 0.780299 0.584105
O O10 0.591638 0.816997 0.658535
O O11 0.586461 0.738693 0.493289
O O12 0.615860 0.000000 0.536222
O O13 0.250000 0.199424 0.367982
O O14 0.306171 0.000000 0.325603
O O15 0.402156 0.180201 0.165380
O O16 0.472663 0.279814 0.242622
O O17 0.452465 0.000000 0.247041
O O18 0.874510 0.000000 0.955183
O O19 0.044592 0.500000 0.552641
O O20 0.040685 0.728082 0.657904
O O21 0.000000 0.722856 0.500000
O O22 0.526293 0.500000 0.246967
#
# Coordination Sequence:
#
# PCOD9400139 Si02
#       8
#     8   8   8   8   8   8   8   8
#     4  10  20  32  48  72 100 129 162 199 239 287
#     4  10  20  33  50  71  95 127 164 202 245 290
#     4  10  19  31  46  69  96 127 162 194 235 283
#     4   9  17  31  49  69  97 129 159 194 238 287
#     4  10  19  29  44  68  97 126 161 197 234 278
#     4  11  21  33  49  71  99 132 165 199 240 288
#     4  10  20  32  47  68  93 125 163 199 237 281
#     4  10  20  34  48  66  95 128 163 201 242 282
#
# _framework density 15.29247
#
# number of rings (size 3 to 8) (size 9 to 14) (size 15 to 20)
#    0.000    2.000    3.750    0.750    0.000    3.250 
#    0.000    0.000    0.000    0.000    0.000    0.875 
#    0.000    5.000    0.000    0.000    0.000    0.000 
#
# Total GULP energy -356814.395109 kJ/mol
# GULP energy per Si atom -5575.224924 kJ/mol
# Density = 1.525766 g / cm^3
# Si number density = 15.292470 Si / 1000 Ang^3
#
#
#
# Elastic Constant Matrix: (Units=GPa)
#
#
# Indices 1 2 3 4 5 6 
#
# 1 115.9134 44.1701 51.7454 0.0000 0.0000 0.0000
# 2 44.1701 28.4831 35.6350 0.0000 0.0000 0.0000
# 3 51.7454 35.6350 97.0718 0.0000 0.0000 0.0000
# 4 0.0000 0.0000 0.0000 14.5064 0.0000 0.0000
# 5 0.0000 0.0000 0.0000 0.0000 21.5059 0.0000
# 6 0.0000 0.0000 0.0000 0.0000 0.0000 24.5042
#
#
#
# Elastic Compliance Matrix: (Units=1/GPa)
#
#
# Indices 1 2 3 4 5 6 
#
# 1 0.021195 -0.034644 0.001420 0.000000 0.000000 0.000000
# 2 -0.034644 0.121555 -0.026156 0.000000 0.000000 0.000000
# 3 0.001420 -0.026156 0.019147 0.000000 0.000000 0.000000
# 4 0.000000 0.000000 0.000000 0.068935 0.000000 0.000000
# 5 0.000000 0.000000 0.000000 0.000000 0.046499 0.000000
# 6 0.000000 0.000000 0.000000 0.000000 0.000000 0.040809
#
#
# Mechanical properties :
#
#
# Convention : Reuss Voigt Hill
#
# Bulk Modulus (GPa) = 23.18189 56.06326 39.62258
# Shear Modulus (GPa) = 11.07962 19.43115 15.25539
#
# Velocity S-wave (km/s) = 2.69460 3.56846 3.16187
# Velocity P-wave (km/s) = 4.98729 7.32932 6.26865
#
# Compressibility (1/GPa) = 0.04313712
#
# Stress axis : x y z
#
# Youngs Moduli (GPa) = 47.18137 8.22671 52.22833
#
# Poissons Ratio (x) = 0.28500 -0.07414
# Poissons Ratio (y) = 1.63454 1.36607
# Poissons Ratio (z) = -0.06698 0.21517
#
# Static dielectric constant tensor:
#      x y z
#    x 1.504740 0.000000 0.000000 
#    y 0.000000 1.516670 0.000000 
#    z 0.000000 0.000000 1.504460 
# 
# From -- ./inp_files/26684.got.cif
#   From: 2010.05.17/outbox.cif.g08.bks.cpg/sg51_14_cif.got.tgz:26684.got - 2010.06.03 11:52:47.
