data_PCOD9400984
_publ_section_title
;
Structure prediction by ZEFSAII (Michael W. Deem and Ramdas Pophale) SiO2 
 PCOD9400984
Probable space group: P M M A
;
_chemical_formula_sum "Si O2"
_cell_formula_units_Z 64
_cell_length_a 18.193627
_cell_length_b 8.672315
_cell_length_c 23.163737
_cell_angle_alpha 90.000000
_cell_angle_beta 90.000000
_cell_angle_gamma 90.000000
_cell_volume 3654.794445
_symmetry_space_group_name_H-M "P M M A"
_symmetry_group_IT_number 51
_symmetry_cell_setting 'orthorhombic'
loop_
_space_group_symop_operation_xyz
x,y,z
1/2-x,-y,z
1/2+x,-y,-z
-x,y,-z
-x,-y,-z
1/2+x,y,-z
1/2-x,y,z
x,-y,z
loop_
_atom_site_type_symbol
_atom_site_label
_atom_site_fract_x
_atom_site_fract_y
_atom_site_fract_z
Si Si1 0.535299 0.184428 0.122055
Si Si2 0.385772 0.684229 0.079420
Si Si3 0.428168 0.176994 0.458487
Si Si4 0.834615 0.684061 0.444025
Si Si5 0.489464 0.685052 0.244093
Si Si6 0.963323 0.814638 0.364080
Si Si7 0.669704 0.686931 0.794027
Si Si8 0.667562 0.815063 0.040190
O O1 0.464542 0.234552 0.085034
O O2 0.526449 0.263050 0.184233
O O3 0.607396 0.232736 0.087048
O O4 0.535655 0.000000 0.129327
O O5 0.395624 0.500000 0.079526
O O6 0.342473 0.725025 0.138297
O O7 0.346911 0.737060 0.021317
O O8 0.500000 0.174516 0.500000
O O9 0.366599 0.269058 0.493181
O O10 0.463471 0.238628 0.399322
O O11 0.403694 0.000000 0.450985
O O12 0.750000 0.735581 0.437086
O O13 0.836912 0.500000 0.438598
O O14 0.890924 0.754652 0.397191
O O15 0.490542 0.500000 0.247850
O O16 0.529125 0.756618 0.299194
O O17 0.403760 0.737929 0.239261
O O18 0.962603 0.000000 0.366849
O O19 0.750000 0.743222 0.774730
O O20 0.670290 0.500000 0.790541
O O21 0.750000 0.780799 0.059811
O O22 0.660642 0.000000 0.032431
#
# Coordination Sequence:
#
# PCOD9400984 Si02
#       8
#     8   8   8   8   8   8   8   8
#     4  10  20  35  53  71  97 134 172 212 258 311
#     4  10  19  31  51  77 101 127 163 207 256 312
#     4   8  16  31  51  75 102 133 168 203 243 295
#     4  10  20  33  52  81 112 138 170 215 260 298
#     4  10  20  34  54  77 101 133 174 219 260 301
#     4  10  20  35  55  77 103 139 179 213 250 303
#     4   8  15  29  48  71  98 126 158 200 253 308
#     4  10  21  35  50  71  99 130 166 209 258 311
#
# _framework density 17.511244000000001
#
# number of rings (size 3 to 8) (size 9 to 14) (size 15 to 20)
#    0.000    2.500    0.000    4.125    0.000    7.000 
#    0.000    1.250    0.000   12.000    0.000    0.000 
#    0.000    0.000    0.000    0.000    0.000    0.000 
#
# Total GULP energy -356825.749762 kJ/mol
# GULP energy per Si atom -5575.402340 kJ/mol
# Density = 1.747139 g / cm^3
# Si number density = 17.511244 Si / 1000 Ang^3
#
#
#
# Elastic Constant Matrix: (Units=GPa)
#
#
# Indices 1 2 3 4 5 6 
#
# 1 113.7850 31.3999 41.1437 0.0000 0.0000 0.0000
# 2 31.3999 35.4626 15.9923 0.0000 0.0000 0.0000
# 3 41.1437 15.9923 52.7349 0.0000 0.0000 0.0000
# 4 0.0000 0.0000 0.0000 25.3030 0.0000 0.0000
# 5 0.0000 0.0000 0.0000 0.0000 16.4923 0.0000
# 6 0.0000 0.0000 0.0000 0.0000 0.0000 17.2312
#
#
#
# Elastic Compliance Matrix: (Units=1/GPa)
#
#
# Indices 1 2 3 4 5 6 
#
# 1 0.014288 -0.008832 -0.008469 0.000000 0.000000 0.000000
# 2 -0.008832 0.038125 -0.004671 0.000000 0.000000 0.000000
# 3 -0.008469 -0.004671 0.026987 0.000000 0.000000 0.000000
# 4 0.000000 0.000000 0.000000 0.039521 0.000000 0.000000
# 5 0.000000 0.000000 0.000000 0.000000 0.060634 0.000000
# 6 0.000000 0.000000 0.000000 0.000000 0.000000 0.058034
#
#
# Mechanical properties :
#
#
# Convention : Reuss Voigt Hill
#
# Bulk Modulus (GPa) = 28.20407 42.11713 35.16060
# Shear Modulus (GPa) = 17.04430 19.36843 18.20637
#
# Velocity S-wave (km/s) = 3.12322 3.32935 3.22793
# Velocity P-wave (km/s) = 5.39881 6.23563 5.83225
#
# Compressibility (1/GPa) = 0.03545588
#
# Stress axis : x y z
#
# Youngs Moduli (GPa) = 69.98807 26.22926 37.05492
#
# Poissons Ratio (x) = 0.23166 0.31383
# Poissons Ratio (y) = 0.61813 0.17309
# Poissons Ratio (z) = 0.59274 0.12252
#
# Static dielectric constant tensor:
#      x y z
#    x 1.603250 0.000000 0.000000 
#    y 0.000000 1.595480 0.000000 
#    z 0.000000 0.000000 1.580520 
# 
# From -- ./inp_files/33919.got.cif
#   From: 2010.05.17/outbox.cif.g08.bks.cpg/sg51_17_cif.got.tgz:33919.got - 2010.06.03 11:52:47.
