data_PCOD9400282
_publ_section_title
;
Structure prediction by ZEFSAII (Michael W. Deem and Ramdas Pophale) SiO2 
 PCOD9400282
Probable space group: P M M A
;
_chemical_formula_sum "Si O2"
_cell_formula_units_Z 56
_cell_length_a 9.618546
_cell_length_b 19.940789
_cell_length_c 15.725929
_cell_angle_alpha 90.000000
_cell_angle_beta 90.000000
_cell_angle_gamma 90.000000
_cell_volume 3016.255140
_symmetry_space_group_name_H-M "P M M A"
_symmetry_group_IT_number 51
_symmetry_cell_setting 'orthorhombic'
loop_
_space_group_symop_operation_xyz
x,y,z
1/2-x,-y,z
1/2+x,-y,-z
-x,y,-z
-x,-y,-z
1/2+x,y,-z
1/2-x,y,z
x,-y,z
loop_
_atom_site_type_symbol
_atom_site_label
_atom_site_fract_x
_atom_site_fract_y
_atom_site_fract_z
Si Si1 0.595361 0.851806 0.576099
Si Si2 0.414512 0.579032 0.084898
Si Si3 0.098128 0.923441 0.691450
Si Si4 0.081808 0.687210 0.225202
Si Si5 0.593920 0.922990 0.105592
Si Si6 0.082487 0.207002 0.082151
Si Si7 0.409636 0.309379 0.418888
O O1 0.500000 0.877083 0.500000
O O2 0.750000 0.877775 0.568773
O O3 0.523359 0.876183 0.661143
O O4 0.597651 0.771473 0.573774
O O5 0.250000 0.590670 0.069447
O O6 0.434027 0.500000 0.102663
O O7 0.455148 0.624451 0.165154
O O8 0.500000 0.595459 0.000000
O O9 0.250000 0.899749 0.660436
O O10 0.101979 0.924728 0.792542
O O11 0.077191 0.000000 0.661890
O O12 0.250000 0.690278 0.232766
O O13 0.042886 0.752382 0.168334
O O14 0.032337 0.679694 0.322820
O O15 0.750000 0.902685 0.075005
O O16 0.474744 0.869065 0.086985
O O17 0.569271 0.000000 0.079289
O O18 0.250000 0.211129 0.072756
O O19 0.000000 0.236090 0.000000
O O20 0.500000 0.333116 0.500000
O O21 0.250000 0.334728 0.424242
#
# Coordination Sequence:
#
# PCOD9400282 Si02
#       7
#     8   8   8   8   8   8   8
#     4  10  19  30  45  64  87 117 153 196 248 303
#     4   9  17  31  53  80 110 145 180 211 248 298
#     4   9  18  32  48  65  86 113 148 194 247 301
#     4   9  18  33  53  77 107 139 171 211 257 305
#     4   9  19  36  54  70  92 125 165 209 255 304
#     4  11  22  35  52  75 103 134 169 212 260 308
#     4   9  18  33  51  72  98 128 165 208 251 297
#
# _framework density 18.566068999999999
#
# number of rings (size 3 to 8) (size 9 to 14) (size 15 to 20)
#    0.000    2.571    0.000    3.000    0.000    3.429 
#    0.000    4.286    0.000    0.429    0.000    0.000 
#    0.000    0.000    0.000    0.000    0.000    0.000 
#
# Total GULP energy -311987.956463 kJ/mol
# GULP energy per Si atom -5571.213508 kJ/mol
# Density = 1.852381 g / cm^3
# Si number density = 18.566069 Si / 1000 Ang^3
#
#
#
# Elastic Constant Matrix: (Units=GPa)
#
#
# Indices 1 2 3 4 5 6 
#
# 1 89.3208 30.7309 54.2518 0.0000 0.0000 0.0000
# 2 30.7309 49.9401 31.3539 0.0000 0.0000 0.0000
# 3 54.2518 31.3539 139.4595 0.0000 0.0000 0.0000
# 4 0.0000 0.0000 0.0000 23.6278 0.0000 0.0000
# 5 0.0000 0.0000 0.0000 0.0000 31.9428 0.0000
# 6 0.0000 0.0000 0.0000 0.0000 0.0000 13.9955
#
#
#
# Elastic Compliance Matrix: (Units=1/GPa)
#
#
# Indices 1 2 3 4 5 6 
#
# 1 0.016609 -0.007177 -0.004848 0.000000 0.000000 0.000000
# 2 -0.007177 0.026416 -0.003147 0.000000 0.000000 0.000000
# 3 -0.004848 -0.003147 0.009764 0.000000 0.000000 0.000000
# 4 0.000000 0.000000 0.000000 0.042323 0.000000 0.000000
# 5 0.000000 0.000000 0.000000 0.000000 0.031306 0.000000
# 6 0.000000 0.000000 0.000000 0.000000 0.000000 0.071452
#
#
# Mechanical properties :
#
#
# Convention : Reuss Voigt Hill
#
# Bulk Modulus (GPa) = 44.55169 56.82151 50.68660
# Shear Modulus (GPa) = 21.21379 24.73879 22.97629
#
# Velocity S-wave (km/s) = 3.38392 3.65427 3.52169
# Velocity P-wave (km/s) = 6.27027 6.96250 6.62543
#
# Compressibility (1/GPa) = 0.02244584
#
# Stress axis : x y z
#
# Youngs Moduli (GPa) = 60.20731 37.85550 102.41822
#
# Poissons Ratio (x) = 0.27169 0.49649
# Poissons Ratio (y) = 0.43211 0.32231
# Poissons Ratio (z) = 0.29187 0.11913
#
# Static dielectric constant tensor:
#      x y z
#    x 1.624690 0.000000 0.000000 
#    y 0.000000 1.642080 0.000000 
#    z 0.000000 0.000000 1.692820 
# 
# From -- ./inp_files/21811.got.cif
#   From: 2010.05.17/outbox.cif.g08.bks.cpg/sg51_11_cif.got.tgz:21811.got - 2010.06.03 11:52:47.
