data_PCOD9400889
_publ_section_title
;
Structure prediction by ZEFSAII (Michael W. Deem and Ramdas Pophale) SiO2 
 PCOD9400889
Probable space group: P M M A
;
_chemical_formula_sum "Si O2"
_cell_formula_units_Z 44
_cell_length_a 8.636249
_cell_length_b 16.745925
_cell_length_c 16.448999
_cell_angle_alpha 90.000000
_cell_angle_beta 90.000000
_cell_angle_gamma 90.000000
_cell_volume 2378.886772
_symmetry_space_group_name_H-M "P M M A"
_symmetry_group_IT_number 51
_symmetry_cell_setting 'orthorhombic'
loop_
_space_group_symop_operation_xyz
x,y,z
1/2-x,-y,z
1/2+x,-y,-z
-x,y,-z
-x,-y,-z
1/2+x,y,-z
1/2-x,y,z
x,-y,z
loop_
_atom_site_type_symbol
_atom_site_label
_atom_site_fract_x
_atom_site_fract_y
_atom_site_fract_z
Si Si1 0.068598 0.379021 0.712402
Si Si2 0.932846 0.588247 0.883530
Si Si3 0.065051 0.907166 0.413168
Si Si4 0.564895 0.762446 0.084724
Si Si5 0.564985 0.500000 0.589336
Si Si6 0.931685 0.191920 0.263497
O O1 0.250000 0.398271 0.727100
O O2 0.056428 0.283876 0.708296
O O3 0.966203 0.408835 0.787500
O O4 0.004907 0.423272 0.634516
O O5 0.750000 0.595101 0.900630
O O6 0.986679 0.500000 0.911332
O O7 0.017184 0.668655 0.912503
O O8 0.250000 0.904278 0.417751
O O9 0.000000 0.876026 0.500000
O O10 0.011947 0.861494 0.331906
O O11 0.014986 0.000000 0.406705
O O12 0.750000 0.765995 0.084620
O O13 0.510595 0.804468 0.169098
O O14 0.500000 0.795921 0.000000
O O15 0.750000 0.500000 0.592631
O O16 0.500000 0.500000 0.500000
O O17 0.750000 0.170040 0.260920
#
# Coordination Sequence:
#
# PCOD9400889 Si02
#       6
#     8   8   8   8   4   8
#     4  10  20  35  53  73 101 137 180 228 276 328
#     4  10  19  31  50  74 100 135 180 228 280 334
#     4  10  21  37  60  90 120 149 180 220 272 330
#     4  10  21  36  54  78 109 146 189 235 284 335
#     4  12  24  36  50  70  97 136 183 230 282 332
#     4   9  20  37  58  84 112 147 185 225 279 334
#
# _framework density 18.496044999999999
#
# number of rings (size 3 to 8) (size 9 to 14) (size 15 to 20)
#    0.000    2.000    0.909    4.091    0.000    7.636 
#    0.000    0.000    0.000    0.545    0.000    0.000 
#    0.000    0.000    0.000    0.000    0.000    0.000 
#
# Total GULP energy -245394.853266 kJ/mol
# GULP energy per Si atom -5577.155756 kJ/mol
# Density = 1.845395 g / cm^3
# Si number density = 18.496045 Si / 1000 Ang^3
#
#
#
# Elastic Constant Matrix: (Units=GPa)
#
#
# Indices 1 2 3 4 5 6 
#
# 1 48.4428 19.7758 29.8848 0.0000 0.0000 0.0000
# 2 19.7758 48.2979 46.2241 0.0000 0.0000 0.0000
# 3 29.8848 46.2241 177.3452 0.0000 0.0000 0.0000
# 4 0.0000 0.0000 0.0000 -108.6926 0.0000 0.0000
# 5 0.0000 0.0000 0.0000 0.0000 33.6814 0.0000
# 6 0.0000 0.0000 0.0000 0.0000 0.0000 29.0877
#
#
#
# Elastic Compliance Matrix: (Units=1/GPa)
#
#
# Indices 1 2 3 4 5 6 
#
# 1 0.025353 -0.008383 -0.002087 0.000000 0.000000 0.000000
# 2 -0.008383 0.030358 -0.006500 0.000000 0.000000 0.000000
# 3 -0.002087 -0.006500 0.007685 0.000000 0.000000 0.000000
# 4 0.000000 0.000000 0.000000 -0.009200 0.000000 0.000000
# 5 0.000000 0.000000 0.000000 0.000000 0.029690 0.000000
# 6 0.000000 0.000000 0.000000 0.000000 0.000000 0.034379
#
#
# Mechanical properties :
#
#
# Convention : Reuss Voigt Hill
#
# Bulk Modulus (GPa) = 33.95036 51.76171 42.85603
# Shear Modulus (GPa) = 30.85968 2.69538 16.77753
#
# Velocity S-wave (km/s) = 4.08909 1.20849 3.01506
# Velocity P-wave (km/s) = 6.37884 5.47661 5.94487
#
# Compressibility (1/GPa) = 0.02945477
#
# Stress axis : x y z
#
# Youngs Moduli (GPa) = 39.44334 32.93980 130.12957
#
# Poissons Ratio (x) = 0.27614 0.27161
# Poissons Ratio (y) = 0.33066 0.84585
# Poissons Ratio (z) = 0.08233 0.21411
#
# Static dielectric constant tensor:
#      x y z
#    x 1.631920 0.000000 0.000000 
#    y 0.000000 1.629750 0.000000 
#    z 0.000000 0.000000 1.638450 
# 
# From -- ./inp_files/20890.got.cif
#   From: 2010.05.17/outbox.cif.g08.bks.cpg/sg51_11_cif.got.tgz:20890.got - 2010.06.03 11:52:47.
