data_PCOD9400772
_publ_section_title
;
Structure prediction by ZEFSAII (Michael W. Deem and Ramdas Pophale) SiO2 
 PCOD9400772
Probable space group: P M M A
;
_chemical_formula_sum "Si O2"
_cell_formula_units_Z 56
_cell_length_a 9.661097
_cell_length_b 23.721454
_cell_length_c 15.089024
_cell_angle_alpha 90.000000
_cell_angle_beta 90.000000
_cell_angle_gamma 90.000000
_cell_volume 3458.031120
_symmetry_space_group_name_H-M "P M M A"
_symmetry_group_IT_number 51
_symmetry_cell_setting 'orthorhombic'
loop_
_space_group_symop_operation_xyz
x,y,z
1/2-x,-y,z
1/2+x,-y,-z
-x,y,-z
-x,-y,-z
1/2+x,y,-z
1/2-x,y,z
x,-y,z
loop_
_atom_site_type_symbol
_atom_site_label
_atom_site_fract_x
_atom_site_fract_y
_atom_site_fract_z
Si Si1 0.414410 0.382212 0.276105
Si Si2 0.091649 0.931527 0.917584
Si Si3 0.085832 0.433850 0.088847
Si Si4 0.904694 0.433484 0.420562
Si Si5 0.087139 0.066340 0.253839
Si Si6 0.913058 0.151133 0.587658
Si Si7 0.586426 0.719083 0.590428
O O1 0.250000 0.394578 0.288251
O O2 0.443816 0.392916 0.172363
O O3 0.512072 0.423842 0.330882
O O4 0.442022 0.322935 0.327072
O O5 0.250000 0.911536 0.919689
O O6 0.011048 0.918213 0.827662
O O7 0.096142 0.000000 0.922895
O O8 0.000000 0.911415 0.000000
O O9 0.250000 0.429861 0.070250
O O10 0.057998 0.500000 0.113097
O O11 0.000000 0.421158 0.000000
O O12 0.750000 0.408769 0.420030
O O13 0.890941 0.500000 0.434976
O O14 0.000000 0.411159 0.500000
O O15 0.250000 0.073192 0.229825
O O16 0.056121 0.106244 0.336311
O O17 0.067122 0.000000 0.274631
O O18 0.750000 0.147032 0.567250
O O19 0.939756 0.215775 0.616543
O O20 0.000000 0.139927 0.500000
O O21 0.500000 0.709509 0.500000
O O22 0.750000 0.713021 0.569963
#
# Coordination Sequence:
#
# PCOD9400772 Si02
#       7
#     8   8   8   8   8   8   8
#     4  10  19  31  49  70  91 118 153 191 229 270
#     4   9  16  26  42  65  92 120 149 183 224 271
#     4   9  18  32  49  69  93 120 150 186 227 270
#     4  10  20  31  43  63  93 125 152 181 221 268
#     4   9  17  29  45  66  92 122 156 193 235 284
#     4   9  18  32  48  66  91 123 156 192 233 276
#     4   9  18  32  49  69  92 120 154 190 230 276
#
# _framework density 16.194185000000001
#
# number of rings (size 3 to 8) (size 9 to 14) (size 15 to 20)
#    0.000    2.714    0.000    1.714    0.000    6.286 
#    0.000    1.429    0.000    0.857    0.000    2.000 
#    0.000    0.000    0.000    0.000    0.000    0.000 
#
# Total GULP energy -311846.919631 kJ/mol
# GULP energy per Si atom -5568.694993 kJ/mol
# Density = 1.615733 g / cm^3
# Si number density = 16.194185 Si / 1000 Ang^3
#
#
#
# Elastic Constant Matrix: (Units=GPa)
#
#
# Indices 1 2 3 4 5 6 
#
# 1 81.7360 44.6130 81.8676 0.0000 0.0000 0.0000
# 2 44.6130 67.3557 60.0394 0.0000 0.0000 0.0000
# 3 81.8676 60.0394 141.6724 0.0000 0.0000 0.0000
# 4 0.0000 0.0000 0.0000 5.0228 0.0000 0.0000
# 5 0.0000 0.0000 0.0000 0.0000 29.7947 0.0000
# 6 0.0000 0.0000 0.0000 0.0000 0.0000 -13.5497
#
#
#
# Elastic Compliance Matrix: (Units=1/GPa)
#
#
# Indices 1 2 3 4 5 6 
#
# 1 0.031172 -0.007377 -0.014887 0.000000 0.000000 0.000000
# 2 -0.007377 0.025605 -0.006589 0.000000 0.000000 0.000000
# 3 -0.014887 -0.006589 0.018453 0.000000 0.000000 0.000000
# 4 0.000000 0.000000 0.000000 0.199092 0.000000 0.000000
# 5 0.000000 0.000000 0.000000 0.000000 0.033563 0.000000
# 6 0.000000 0.000000 0.000000 0.000000 0.000000 -0.073802
#
#
# Mechanical properties :
#
#
# Convention : Reuss Voigt Hill
#
# Bulk Modulus (GPa) = 57.05776 73.75602 65.40689
# Shear Modulus (GPa) = 16.79943 11.20317 14.00130
#
# Velocity S-wave (km/s) = 3.22432 2.63307 2.94358
# Velocity P-wave (km/s) = 7.01225 7.40862 7.21316
#
# Compressibility (1/GPa) = 0.01752610
#
# Stress axis : x y z
#
# Youngs Moduli (GPa) = 32.08044 39.05417 54.19087
#
# Poissons Ratio (x) = 0.28809 0.80673
# Poissons Ratio (y) = 0.23665 0.35704
# Poissons Ratio (z) = 0.47758 0.25731
#
# Static dielectric constant tensor:
#      x y z
#    x 1.569720 0.000000 0.000000 
#    y 0.000000 1.555950 0.000000 
#    z 0.000000 0.000000 1.526850 
# 
# From -- ./inp_files/21841.got.cif
#   From: 2010.05.17/outbox.cif.g08.bks.cpg/sg51_11_cif.got.tgz:21841.got - 2010.06.03 11:52:47.
