data_PCOD9400441
_publ_section_title
;
Structure prediction by ZEFSAII (Michael W. Deem and Ramdas Pophale) SiO2 
 PCOD9400441
Probable space group: P M M A
;
_chemical_formula_sum "Si O2"
_cell_formula_units_Z 64
_cell_length_a 9.247636
_cell_length_b 15.773101
_cell_length_c 30.683328
_cell_angle_alpha 90.000000
_cell_angle_beta 90.000000
_cell_angle_gamma 90.000000
_cell_volume 4475.589784
_symmetry_space_group_name_H-M "P M M A"
_symmetry_group_IT_number 51
_symmetry_cell_setting 'orthorhombic'
loop_
_space_group_symop_operation_xyz
x,y,z
1/2-x,-y,z
1/2+x,-y,-z
-x,y,-z
-x,-y,-z
1/2+x,y,-z
1/2-x,y,z
x,-y,z
loop_
_atom_site_type_symbol
_atom_site_label
_atom_site_fract_x
_atom_site_fract_y
_atom_site_fract_z
Si Si1 0.077244 0.237571 0.790112
Si Si2 0.082965 0.103355 0.543766
Si Si3 0.583532 0.896886 0.630779
Si Si4 0.076246 0.901074 0.719696
Si Si5 0.918422 0.592978 0.788615
Si Si6 0.921714 0.900931 0.953566
Si Si7 0.418482 0.594853 0.105613
Si Si8 0.076836 0.234215 0.892714
O O1 0.250000 0.246292 0.787786
O O2 0.034308 0.158985 0.759791
O O3 0.041675 0.224654 0.841160
O O4 0.005624 0.324886 0.774323
O O5 0.250000 0.129945 0.543489
O O6 0.000000 0.130008 0.500000
O O7 0.001046 0.131223 0.587526
O O8 0.082171 0.000000 0.543942
O O9 0.750000 0.869007 0.630498
O O10 0.502251 0.873633 0.675277
O O11 0.583603 0.000000 0.629714
O O12 0.250000 0.895913 0.713759
O O13 0.041195 0.000000 0.728125
O O14 0.750000 0.600538 0.776611
O O15 0.971940 0.500000 0.774176
O O16 0.924269 0.592758 0.841526
O O17 0.750000 0.884216 0.957143
O O18 0.996647 0.838612 0.919432
O O19 0.940047 0.000000 0.941193
O O20 0.000000 0.889200 0.000000
O O21 0.250000 0.608952 0.093701
O O22 0.461208 0.500000 0.090564
O O23 0.517325 0.673717 0.092352
O O24 0.250000 0.229564 0.897913
#
# Coordination Sequence:
#
# PCOD9400441 Si02
#       8
#     8   8   8   8   8   8   8   8
#     4   9  18  29  42  63  87 112 142 173 205 241
#     4   9  15  22  33  49  68  90 119 160 208 251
#     4   9  16  25  36  50  68  93 129 170 209 248
#     4   9  17  29  41  52  73 108 145 176 206 242
#     4   8  14  25  41  60  82 108 136 168 207 246
#     4  10  21  37  55  72  89 111 140 173 209 250
#     4   8  14  26  44  65  90 119 146 170 199 238
#     4  10  19  30  47  71  95 116 139 171 209 248
#
# _framework density 14.299791000000001
#
# number of rings (size 3 to 8) (size 9 to 14) (size 15 to 20)
#    0.000    3.000    0.000    2.250    0.000    5.750 
#    0.000    3.750    0.000    1.875    0.000    0.000 
#    0.000    0.000    0.000    0.000    0.000    0.625 
#
# Total GULP energy -356291.197262 kJ/mol
# GULP energy per Si atom -5567.049957 kJ/mol
# Density = 1.426724 g / cm^3
# Si number density = 14.299791 Si / 1000 Ang^3
#
#
#
# Elastic Constant Matrix: (Units=GPa)
#
#
# Indices 1 2 3 4 5 6 
#
# 1 76.2557 55.9288 51.3489 0.0000 0.0000 0.0000
# 2 55.9288 88.9597 60.8408 0.0000 0.0000 0.0000
# 3 51.3489 60.8408 70.8924 0.0000 0.0000 0.0000
# 4 0.0000 0.0000 0.0000 -1.2231 0.0000 0.0000
# 5 0.0000 0.0000 0.0000 0.0000 21.5459 0.0000
# 6 0.0000 0.0000 0.0000 0.0000 0.0000 21.3776
#
#
#
# Elastic Compliance Matrix: (Units=1/GPa)
#
#
# Indices 1 2 3 4 5 6 
#
# 1 0.028381 -0.009161 -0.012695 0.000000 0.000000 0.000000
# 2 -0.009161 0.030171 -0.019258 0.000000 0.000000 0.000000
# 3 -0.012695 -0.019258 0.039829 0.000000 0.000000 0.000000
# 4 0.000000 0.000000 0.000000 -0.817588 0.000000 0.000000
# 5 0.000000 0.000000 0.000000 0.000000 0.046413 0.000000
# 6 0.000000 0.000000 0.000000 0.000000 0.000000 0.046778
#
#
# Mechanical properties :
#
#
# Convention : Reuss Voigt Hill
#
# Bulk Modulus (GPa) = 61.90713 63.59388 62.75050
# Shear Modulus (GPa) = -9.28673 12.87267 1.79297
#
# Velocity S-wave (km/s) = -2.55116 3.00359 1.12097
# Velocity P-wave (km/s) = 5.89139 7.52311 6.75669
#
# Compressibility (1/GPa) = 0.01615323
#
# Stress axis : x y z
#
# Youngs Moduli (GPa) = 35.23427 33.14405 25.10738
#
# Poissons Ratio (x) = 0.30363 0.31875
# Poissons Ratio (y) = 0.32278 0.48352
# Poissons Ratio (z) = 0.44731 0.63829
#
# Static dielectric constant tensor:
#      x y z
#    x 1.477590 0.000000 0.000000 
#    y 0.000000 1.464780 0.000000 
#    z 0.000000 0.000000 1.458280 
# 
# From -- ./inp_files/37533.got.cif
#   From: 2010.05.17/outbox.cif.g08.bks.cpg/sg51_19_cif.got.tgz:37533.got - 2010.06.03 11:52:47.
