data_PCOD9400776
_publ_section_title
;
Structure prediction by ZEFSAII (Michael W. Deem and Ramdas Pophale) SiO2 
 PCOD9400776
Probable space group: P M M A
;
_chemical_formula_sum "Si O2"
_cell_formula_units_Z 40
_cell_length_a 21.865100
_cell_length_b 7.741019
_cell_length_c 12.051623
_cell_angle_alpha 90.000000
_cell_angle_beta 90.000000
_cell_angle_gamma 90.000000
_cell_volume 2039.835468
_symmetry_space_group_name_H-M "P M M A"
_symmetry_group_IT_number 51
_symmetry_cell_setting 'orthorhombic'
loop_
_space_group_symop_operation_xyz
x,y,z
1/2-x,-y,z
1/2+x,-y,-z
-x,y,-z
-x,-y,-z
1/2+x,y,-z
1/2-x,y,z
x,-y,z
loop_
_atom_site_type_symbol
_atom_site_label
_atom_site_fract_x
_atom_site_fract_y
_atom_site_fract_z
Si Si1 0.679937 0.203700 0.527110
Si Si2 0.679171 0.291634 0.776711
Si Si3 0.023940 0.800260 0.830123
Si Si4 0.444732 0.211604 0.581975
Si Si5 0.592481 0.302235 0.964428
O O1 0.750000 0.274811 0.514410
O O2 0.660865 0.223940 0.655947
O O3 0.622562 0.273012 0.456736
O O4 0.684292 0.000000 0.502792
O O5 0.750000 0.250368 0.789760
O O6 0.671767 0.500000 0.773502
O O7 0.642453 0.224745 0.882118
O O8 0.040849 0.736532 0.708247
O O9 0.968665 0.701483 0.889068
O O10 0.004706 0.000000 0.820621
O O11 0.078355 0.789111 0.919791
O O12 0.500000 0.264917 0.500000
O O13 0.443392 0.000000 0.579307
O O14 0.608341 0.500000 0.990521
#
# Coordination Sequence:
#
# PCOD9400776 Si02
#       5
#     8   8   8   8   8
#     4   9  17  30  49  71  94 121 154 192 232 274
#     4   9  18  32  49  69  93 122 155 190 230 275
#     4  10  19  31  49  70  93 122 155 190 230 279
#     4   9  17  29  46  69  95 121 150 186 229 275
#     4  10  19  32  49  68  94 123 152 192 237 277
#
# _framework density 19.609425000000002
#
# number of rings (size 3 to 8) (size 9 to 14) (size 15 to 20)
#    0.000    2.600    0.000    3.600    0.000    3.200 
#    0.000    3.000    0.000    6.600    0.000    0.000 
#    0.000    0.000    0.000    0.000    0.000    0.000 
#
# Total GULP energy -222981.521761 kJ/mol
# GULP energy per Si atom -5574.538044 kJ/mol
# Density = 1.956479 g / cm^3
# Si number density = 19.609425 Si / 1000 Ang^3
#
#
#
# Elastic Constant Matrix: (Units=GPa)
#
#
# Indices 1 2 3 4 5 6 
#
# 1 65.8586 -1.0647 68.5369 0.0000 0.0000 0.0000
# 2 -1.0647 30.1085 1.8546 0.0000 0.0000 0.0000
# 3 68.5369 1.8546 158.3687 0.0000 0.0000 0.0000
# 4 0.0000 0.0000 0.0000 50.6115 0.0000 0.0000
# 5 0.0000 0.0000 0.0000 0.0000 35.6674 0.0000
# 6 0.0000 0.0000 0.0000 0.0000 0.0000 12.8755
#
#
#
# Elastic Compliance Matrix: (Units=1/GPa)
#
#
# Indices 1 2 3 4 5 6 
#
# 1 0.027715 0.001720 -0.012014 0.000000 0.000000 0.000000
# 2 0.001720 0.033344 -0.001135 0.000000 0.000000 0.000000
# 3 -0.012014 -0.001135 0.011527 0.000000 0.000000 0.000000
# 4 0.000000 0.000000 0.000000 0.019758 0.000000 0.000000
# 5 0.000000 0.000000 0.000000 0.000000 0.028037 0.000000
# 6 0.000000 0.000000 0.000000 0.000000 0.000000 0.077667
#
#
# Mechanical properties :
#
#
# Convention : Reuss Voigt Hill
#
# Bulk Modulus (GPa) = 20.10956 43.66550 31.88753
# Shear Modulus (GPa) = 21.05431 32.16481 26.60956
#
# Velocity S-wave (km/s) = 3.28027 4.05442 3.68771
# Velocity P-wave (km/s) = 4.96227 6.65084 5.86762
#
# Compressibility (1/GPa) = 0.04972758
#
# Stress axis : x y z
#
# Youngs Moduli (GPa) = 36.08206 29.99051 86.75278
#
# Poissons Ratio (x) = -0.05158 1.04226
# Poissons Ratio (y) = -0.06206 0.09845
# Poissons Ratio (z) = 0.43350 0.03403
#
# Static dielectric constant tensor:
#      x y z
#    x 1.721990 0.000000 0.000000 
#    y 0.000000 1.715660 0.000000 
#    z 0.000000 0.000000 1.680060 
# 
# From -- ./inp_files/17904.got.cif
#   From: 2010.05.17/outbox.cif.g08.bks.cpg/sg51_9_cif.got.tgz:17904.got - 2010.06.03 11:52:47.
