data_PCOD9400963
_publ_section_title
;
Structure prediction by ZEFSAII (Michael W. Deem and Ramdas Pophale) SiO2 
 PCOD9400963
Probable space group: P M M A
;
_chemical_formula_sum "Si O2"
_cell_formula_units_Z 44
_cell_length_a 9.096753
_cell_length_b 7.410129
_cell_length_c 31.630231
_cell_angle_alpha 90.000000
_cell_angle_beta 90.000000
_cell_angle_gamma 90.000000
_cell_volume 2132.134192
_symmetry_space_group_name_H-M "P M M A"
_symmetry_group_IT_number 51
_symmetry_cell_setting 'orthorhombic'
loop_
_space_group_symop_operation_xyz
x,y,z
1/2-x,-y,z
1/2+x,-y,-z
-x,y,-z
-x,-y,-z
1/2+x,y,-z
1/2-x,y,z
x,-y,z
loop_
_atom_site_type_symbol
_atom_site_label
_atom_site_fract_x
_atom_site_fract_y
_atom_site_fract_z
Si Si1 0.421098 0.720551 0.226024
Si Si2 0.921126 0.720449 0.957550
Si Si3 0.918578 0.718760 0.311001
Si Si4 0.080043 0.207314 0.397472
Si Si5 0.574968 0.500000 0.454332
Si Si6 0.571660 0.713681 0.866116
O O1 0.250000 0.772461 0.231294
O O2 0.423179 0.500000 0.225132
O O3 0.515655 0.778058 0.266079
O O4 0.475516 0.783773 0.179785
O O5 0.750000 0.768866 0.959988
O O6 0.928521 0.500000 0.956972
O O7 0.980220 0.783527 0.911733
O O8 0.000000 0.782043 0.000000
O O9 0.750000 0.776691 0.316394
O O10 0.920315 0.500000 0.311384
O O11 0.018055 0.779577 0.349976
O O12 0.250000 0.267953 0.398387
O O13 0.981386 0.329560 0.427520
O O14 0.074526 0.000000 0.411115
O O15 0.250000 0.500000 0.541999
O O16 0.500000 0.500000 0.500000
O O17 0.750000 0.730529 0.866378
O O18 0.538631 0.500000 0.866012
#
# Coordination Sequence:
#
# PCOD9400963 Si02
#       6
#     8   8   8   8   4   8
#     4   8  13  22  38  58  81 116 161 210 262 321
#     4   8  12  17  24  34  51  80 123 177 237 303
#     4  10  19  31  50  78 111 147 184 229 287 346
#     4  11  24  42  66  95 126 163 208 254 297 347
#     4  12  26  46  72 100 132 170 206 250 301 350
#     4   7  10  17  28  42  62  92 136 189 245 306
#
# _framework density 20.636600999999999
#
# number of rings (size 3 to 8) (size 9 to 14) (size 15 to 20)
#    0.000    2.909    0.909    4.091    0.000    2.545 
#    0.000    0.909    0.000    5.455    0.000    0.000 
#    0.000    0.000    0.000    0.000    0.000    0.909 
#
# Total GULP energy -245488.848815 kJ/mol
# GULP energy per Si atom -5579.292019 kJ/mol
# Density = 2.058963 g / cm^3
# Si number density = 20.636601 Si / 1000 Ang^3
#
#
#
# Elastic Constant Matrix: (Units=GPa)
#
#
# Indices 1 2 3 4 5 6 
#
# 1 109.9266 22.5150 74.3943 0.0000 0.0000 0.0000
# 2 22.5150 76.2964 30.3878 0.0000 0.0000 0.0000
# 3 74.3943 30.3878 191.6365 0.0000 0.0000 0.0000
# 4 0.0000 0.0000 0.0000 -31.8250 0.0000 0.0000
# 5 0.0000 0.0000 0.0000 0.0000 36.8569 0.0000
# 6 0.0000 0.0000 0.0000 0.0000 0.0000 -17.5959
#
#
#
# Elastic Compliance Matrix: (Units=1/GPa)
#
#
# Indices 1 2 3 4 5 6 
#
# 1 0.012588 -0.001888 -0.004588 0.000000 0.000000 0.000000
# 2 -0.001888 0.014273 -0.001531 0.000000 0.000000 0.000000
# 3 -0.004588 -0.001531 0.007242 0.000000 0.000000 0.000000
# 4 0.000000 0.000000 0.000000 -0.031422 0.000000 0.000000
# 5 0.000000 0.000000 0.000000 0.000000 0.027132 0.000000
# 6 0.000000 0.000000 0.000000 0.000000 0.000000 -0.056832
#
#
# Mechanical properties :
#
#
# Convention : Reuss Voigt Hill
#
# Bulk Modulus (GPa) = 55.27276 70.27264 62.77270
# Shear Modulus (GPa) = -1004.86126 14.19136 -495.33495
#
# Velocity S-wave (km/s) = -22.09047 2.62521 -15.50962
# Velocity P-wave (km/s) = 24.97618 6.58144 17.03664
#
# Compressibility (1/GPa) = 0.01809209
#
# Stress axis : x y z
#
# Youngs Moduli (GPa) = 79.43908 70.06029 138.08710
#
# Poissons Ratio (x) = 0.13225 0.63348
# Poissons Ratio (y) = 0.14995 0.21135
# Poissons Ratio (z) = 0.36443 0.10723
#
# Static dielectric constant tensor:
#      x y z
#    x 1.689210 0.000000 0.000000 
#    y 0.000000 1.634800 0.000000 
#    z 0.000000 0.000000 1.744020 
# 
# From -- ./inp_files/36799.got.cif
#   From: 2010.05.17/outbox.cif.g08.bks.cpg/sg51_19_cif.got.tgz:36799.got - 2010.06.03 11:52:47.
