data_PCOD9400425
_publ_section_title
;
Structure prediction by ZEFSAII (Michael W. Deem and Ramdas Pophale) SiO2 
 PCOD9400425
Probable space group: P M M A
;
_chemical_formula_sum "Si O2"
_cell_formula_units_Z 48
_cell_length_a 21.409303
_cell_length_b 7.596401
_cell_length_c 15.776129
_cell_angle_alpha 90.000000
_cell_angle_beta 90.000000
_cell_angle_gamma 90.000000
_cell_volume 2565.729453
_symmetry_space_group_name_H-M "P M M A"
_symmetry_group_IT_number 51
_symmetry_cell_setting 'orthorhombic'
loop_
_space_group_symop_operation_xyz
x,y,z
1/2-x,-y,z
1/2+x,-y,-z
-x,y,-z
-x,-y,-z
1/2+x,y,-z
1/2-x,y,z
x,-y,z
loop_
_atom_site_type_symbol
_atom_site_label
_atom_site_fract_x
_atom_site_fract_y
_atom_site_fract_z
Si Si1 0.182022 0.285490 0.118608
Si Si2 0.349044 0.285422 0.308351
Si Si3 0.316796 0.712832 0.494092
Si Si4 0.985413 0.292049 0.734994
Si Si5 0.042314 0.715598 0.078299
Si Si6 0.049212 0.794506 0.569159
O O1 0.250000 0.228793 0.084105
O O2 0.181416 0.500000 0.116311
O O3 0.178701 0.232845 0.217879
O O4 0.115681 0.230031 0.077993
O O5 0.345899 0.500000 0.309217
O O6 0.319943 0.226617 0.396212
O O7 0.421041 0.226473 0.306663
O O8 0.250000 0.770334 0.530987
O O9 0.317414 0.500000 0.493740
O O10 0.380195 0.767717 0.539323
O O11 0.976900 0.500000 0.744918
O O12 0.987325 0.225620 0.831483
O O13 0.038230 0.268234 0.665119
O O14 0.042516 0.500000 0.076098
O O15 0.000000 0.775129 0.000000
O O16 0.000000 0.715640 0.500000
O O17 0.035841 0.000000 0.572580
#
# Coordination Sequence:
#
# PCOD9400425 Si02
#       6
#     8   8   8   8   8   8
#     4   8  12  18  31  54  85 115 139 170 220 280
#     4   8  13  22  38  62  88 112 142 181 226 277
#     4  10  19  30  47  69  92 120 156 200 242 280
#     4   9  16  28  48  68  88 121 157 193 235 279
#     4   8  14  24  40  64  90 114 145 187 238 286
#     4  11  22  33  46  66  94 128 162 195 230 273
#
# _framework density 18.708130000000001
#
# number of rings (size 3 to 8) (size 9 to 14) (size 15 to 20)
#    0.000    3.000    1.667    3.000    0.000    3.000 
#    0.000    0.000    0.000    1.500    0.000    4.667 
#    0.000    0.000    0.000    0.000    0.000    0.000 
#
# Total GULP energy -267285.479422 kJ/mol
# GULP energy per Si atom -5568.447488 kJ/mol
# Density = 1.866555 g / cm^3
# Si number density = 18.708130 Si / 1000 Ang^3
#
#
#
# Elastic Constant Matrix: (Units=GPa)
#
#
# Indices 1 2 3 4 5 6 
#
# 1 140.8871 -9.2325 83.7503 0.0000 0.0000 0.0000
# 2 -9.2325 31.8182 1.1325 0.0000 0.0000 0.0000
# 3 83.7503 1.1325 108.8140 0.0000 0.0000 0.0000
# 4 0.0000 0.0000 0.0000 -22.3412 0.0000 0.0000
# 5 0.0000 0.0000 0.0000 0.0000 20.9210 0.0000
# 6 0.0000 0.0000 0.0000 0.0000 0.0000 -23.8746
#
#
#
# Elastic Compliance Matrix: (Units=1/GPa)
#
#
# Indices 1 2 3 4 5 6 
#
# 1 0.013658 0.004339 -0.010557 0.000000 0.000000 0.000000
# 2 0.004339 0.032819 -0.003681 0.000000 0.000000 0.000000
# 3 -0.010557 -0.003681 0.017354 0.000000 0.000000 0.000000
# 4 0.000000 0.000000 0.000000 -0.044760 0.000000 0.000000
# 5 0.000000 0.000000 0.000000 0.000000 0.047799 0.000000
# 6 0.000000 0.000000 0.000000 0.000000 0.000000 -0.041885
#
#
# Mechanical properties :
#
#
# Convention : Reuss Voigt Hill
#
# Bulk Modulus (GPa) = 22.71101 48.09111 35.40106
# Shear Modulus (GPa) = 84.09131 8.66564 46.37847
#
# Velocity S-wave (km/s) = 6.71168 2.15455 4.98441
# Velocity P-wave (km/s) = 8.49872 5.65254 7.21732
#
# Compressibility (1/GPa) = 0.04403151
#
# Stress axis : x y z
#
# Youngs Moduli (GPa) = 73.21764 30.47059 57.62434
#
# Poissons Ratio (x) = -0.13221 0.60835
# Poissons Ratio (y) = -0.31768 0.21212
# Poissons Ratio (z) = 0.77297 0.11216
#
# Static dielectric constant tensor:
#      x y z
#    x 1.682430 0.000000 0.000000 
#    y 0.000000 1.703020 0.000000 
#    z 0.000000 0.000000 1.643350 
# 
# From -- ./inp_files/25481.got.cif
#   From: 2010.05.17/outbox.cif.g08.bks.cpg/sg51_13_cif.got.tgz:25481.got - 2010.06.03 11:52:47.
