data_PCOD9400256
_publ_section_title
;
Structure prediction by ZEFSAII (Michael W. Deem and Ramdas Pophale) SiO2 
 PCOD9400256
Probable space group: P M M A
;
_chemical_formula_sum "Si O2"
_cell_formula_units_Z 52
_cell_length_a 9.046117
_cell_length_b 23.365173
_cell_length_c 15.431482
_cell_angle_alpha 90.000000
_cell_angle_beta 90.000000
_cell_angle_gamma 90.000000
_cell_volume 3261.661130
_symmetry_space_group_name_H-M "P M M A"
_symmetry_group_IT_number 51
_symmetry_cell_setting 'orthorhombic'
loop_
_space_group_symop_operation_xyz
x,y,z
1/2-x,-y,z
1/2+x,-y,-z
-x,y,-z
-x,-y,-z
1/2+x,y,-z
1/2-x,y,z
x,-y,z
loop_
_atom_site_type_symbol
_atom_site_label
_atom_site_fract_x
_atom_site_fract_y
_atom_site_fract_z
Si Si1 0.420849 0.272996 0.911969
Si Si2 0.071855 0.812088 0.595622
Si Si3 0.073129 0.727408 0.268097
Si Si4 0.572545 0.938569 0.404994
Si Si5 0.072062 0.500000 0.406223
Si Si6 0.426607 0.407335 0.265766
Si Si7 0.919364 0.587656 0.087507
O O1 0.250000 0.254913 0.908256
O O2 0.508902 0.255897 0.825902
O O3 0.422006 0.342610 0.913959
O O4 0.500000 0.253478 0.000000
O O5 0.250000 0.806713 0.589570
O O6 0.034867 0.876072 0.632007
O O7 0.000000 0.807517 0.500000
O O8 0.004378 0.764612 0.658235
O O9 0.250000 0.734471 0.270412
O O10 0.040010 0.659708 0.279587
O O11 0.500000 0.938958 0.500000
O O12 0.750000 0.938625 0.414267
O O13 0.530894 0.000000 0.362925
O O14 0.250000 0.500000 0.415388
O O15 0.029488 0.554811 0.348007
O O16 0.000000 0.500000 0.500000
O O17 0.250000 0.412704 0.254583
O O18 0.501759 0.428118 0.177074
O O19 0.750000 0.569360 0.087333
O O20 0.000000 0.568420 0.000000
#
# Coordination Sequence:
#
# PCOD9400256 Si02
#       7
#     8   8   8   8   4   8   8
#     4   9  16  27  44  67  93 121 151 183 222 268
#     4  10  19  30  44  64  92 124 156 190 227 268
#     4  10  19  31  47  68  94 122 151 186 229 274
#     4   8  14  25  41  60  83 114 151 187 222 261
#     4  10  22  40  57  70  85 110 149 196 238 274
#     4   9  19  35  52  69  90 116 148 188 231 273
#     4   9  16  27  47  73  98 121 144 173 214 268
#
# _framework density 15.942796
#
# number of rings (size 3 to 8) (size 9 to 14) (size 15 to 20)
#    0.000    2.769    0.000    1.846    0.000    6.154 
#    0.000    1.923    0.000    0.000    0.000    0.000 
#    0.000    0.615    0.000    1.692    0.000    2.769 
#
# Total GULP energy -289695.946690 kJ/mol
# GULP energy per Si atom -5571.075898 kJ/mol
# Density = 1.590651 g / cm^3
# Si number density = 15.942796 Si / 1000 Ang^3
#
#
#
# Elastic Constant Matrix: (Units=GPa)
#
#
# Indices 1 2 3 4 5 6 
#
# 1 66.7079 49.3093 59.1741 0.0000 0.0000 0.0000
# 2 49.3093 85.9502 64.5913 0.0000 0.0000 0.0000
# 3 59.1741 64.5913 137.1315 0.0000 0.0000 0.0000
# 4 0.0000 0.0000 0.0000 -7.4153 0.0000 0.0000
# 5 0.0000 0.0000 0.0000 0.0000 32.6781 0.0000
# 6 0.0000 0.0000 0.0000 0.0000 0.0000 11.6300
#
#
#
# Elastic Compliance Matrix: (Units=1/GPa)
#
#
# Indices 1 2 3 4 5 6 
#
# 1 0.030398 -0.011736 -0.007589 0.000000 0.000000 0.000000
# 2 -0.011736 0.022540 -0.005553 0.000000 0.000000 0.000000
# 3 -0.007589 -0.005553 0.013183 0.000000 0.000000 0.000000
# 4 0.000000 0.000000 0.000000 -0.134856 0.000000 0.000000
# 5 0.000000 0.000000 0.000000 0.000000 0.030602 0.000000
# 6 0.000000 0.000000 0.000000 0.000000 0.000000 0.085985
#
#
# Mechanical properties :
#
#
# Convention : Reuss Voigt Hill
#
# Bulk Modulus (GPa) = 61.10574 70.65990 65.88282
# Shear Modulus (GPa) = 48.51469 15.15955 31.83712
#
# Velocity S-wave (km/s) = 5.52237 3.08697 4.47358
# Velocity P-wave (km/s) = 8.89232 7.55797 8.25216
#
# Compressibility (1/GPa) = 0.01636507
#
# Stress axis : x y z
#
# Youngs Moduli (GPa) = 32.89712 44.36513 75.85759
#
# Poissons Ratio (x) = 0.52066 0.57571
# Poissons Ratio (y) = 0.38607 0.42122
# Poissons Ratio (z) = 0.24967 0.24635
#
# Static dielectric constant tensor:
#      x y z
#    x 1.529850 0.000000 0.000000 
#    y 0.000000 1.568970 0.000000 
#    z 0.000000 0.000000 1.498520 
# 
# From -- ./inp_files/22038.got.cif
#   From: 2010.05.17/outbox.cif.g08.bks.cpg/sg51_12_cif.got.tgz:22038.got - 2010.06.03 11:52:47.
