data_PCOD9400989
_publ_section_title
;
Structure prediction by ZEFSAII (Michael W. Deem and Ramdas Pophale) SiO2 
 PCOD9400989
Probable space group: P M M A
;
_chemical_formula_sum "Si O2"
_cell_formula_units_Z 36
_cell_length_a 14.224706
_cell_length_b 8.526621
_cell_length_c 10.766753
_cell_angle_alpha 90.000000
_cell_angle_beta 90.000000
_cell_angle_gamma 90.000000
_cell_volume 1305.885226
_symmetry_space_group_name_H-M "P M M A"
_symmetry_group_IT_number 51
_symmetry_cell_setting 'orthorhombic'
loop_
_space_group_symop_operation_xyz
x,y,z
1/2-x,-y,z
1/2+x,-y,-z
-x,y,-z
-x,-y,-z
1/2+x,y,-z
1/2-x,y,z
x,-y,z
loop_
_atom_site_type_symbol
_atom_site_label
_atom_site_fract_x
_atom_site_fract_y
_atom_site_fract_z
Si Si1 0.078435 0.000000 0.759515
Si Si2 0.145583 0.000000 0.486670
Si Si3 0.575978 0.327968 0.888030
Si Si4 0.109946 0.666703 0.471880
Si Si5 0.855641 0.000000 0.830955
Si Si6 0.610276 0.331149 0.243527
O O1 0.129713 0.842650 0.805493
O O2 0.079888 0.000000 0.608146
O O3 0.968266 0.000000 0.792100
O O4 0.134023 0.164468 0.415360
O O5 0.250000 0.000000 0.538661
O O6 0.621935 0.500000 0.893007
O O7 0.504328 0.331928 0.769136
O O8 0.639505 0.174583 0.892067
O O9 0.500000 0.319333 0.000000
O O10 0.140504 0.500000 0.416112
O O11 0.145536 0.670532 0.614952
O O12 0.000000 0.662762 0.500000
O O13 0.750000 0.000000 0.771294
O O14 0.639802 0.500000 0.189326
#
# Coordination Sequence:
#
# PCOD9400989 Si02
#       6
#     4   4   8   8   4   8
#     4   8  16  30  46  68 100 132 166 208 252 304
#     4  10  19  31  51  77 104 138 176 215 264 315
#     4   9  17  30  50  72  96 130 168 209 257 305
#     4   9  17  30  50  72  96 130 168 209 257 305
#     4  10  19  31  51  77 104 138 176 215 264 315
#     4   8  14  26  46  70  92 122 162 198 240 294
#
# _framework density 27.567506999999999
#
# number of rings (size 3 to 8) (size 9 to 14) (size 15 to 20)
#    0.000    3.111    0.000    0.667    0.000    0.889 
#    0.000    0.000    0.000   48.000    0.000   56.000 
#    0.000    0.000    0.000    0.000    0.000    0.000 
#
# Total GULP energy -200557.394014 kJ/mol
# GULP energy per Si atom -5571.038723 kJ/mol
# Density = 2.750476 g / cm^3
# Si number density = 27.567507 Si / 1000 Ang^3
#
#
#
# Elastic Constant Matrix: (Units=GPa)
#
#
# Indices 1 2 3 4 5 6 
#
# 1 133.2745 53.2104 17.5063 0.0000 0.0000 0.0000
# 2 53.2104 411.6703 8.1105 0.0000 0.0000 0.0000
# 3 17.5063 8.1105 81.5383 0.0000 0.0000 0.0000
# 4 0.0000 0.0000 0.0000 11.3405 0.0000 0.0000
# 5 0.0000 0.0000 0.0000 0.0000 5.0993 0.0000
# 6 0.0000 0.0000 0.0000 0.0000 0.0000 -19.5201
#
#
#
# Elastic Compliance Matrix: (Units=1/GPa)
#
#
# Indices 1 2 3 4 5 6 
#
# 1 0.008126 -0.001018 -0.001643 0.000000 0.000000 0.000000
# 2 -0.001018 0.002561 -0.000036 0.000000 0.000000 0.000000
# 3 -0.001643 -0.000036 0.012621 0.000000 0.000000 0.000000
# 4 0.000000 0.000000 0.000000 0.088180 0.000000 0.000000
# 5 0.000000 0.000000 0.000000 0.000000 0.196105 0.000000
# 6 0.000000 0.000000 0.000000 0.000000 0.000000 -0.051229
#
#
# Mechanical properties :
#
#
# Convention : Reuss Voigt Hill
#
# Bulk Modulus (GPa) = 55.82636 87.12638 71.47637
# Shear Modulus (GPa) = 18.67562 35.89432 27.28497
#
# Velocity S-wave (km/s) = 2.60561 3.61231 3.14944
# Velocity P-wave (km/s) = 5.41729 7.00512 6.26174
#
# Compressibility (1/GPa) = 0.01791268
#
# Stress axis : x y z
#
# Youngs Moduli (GPa) = 123.06835 390.40997 79.23554
#
# Poissons Ratio (x) = 0.39740 0.13021
# Poissons Ratio (y) = 0.12527 0.00287
# Poissons Ratio (z) = 0.20224 0.01415
#
# Static dielectric constant tensor:
#      x y z
#    x 2.009460 0.000000 0.000000 
#    y 0.000000 2.231780 0.000000 
#    z 0.000000 0.000000 2.249220 
# 
# From -- ./inp_files/23656.got.cif
#   From: 2010.05.17/outbox.cif.g08.bks.cpg/sg51_12_cif.got.tgz:23656.got - 2010.06.03 11:52:47.
