data_PCOD9400596
_publ_section_title
;
Structure prediction by ZEFSAII (Michael W. Deem and Ramdas Pophale) SiO2 
 PCOD9400596
Probable space group: P M M A
;
_chemical_formula_sum "Si O2"
_cell_formula_units_Z 44
_cell_length_a 8.553569
_cell_length_b 29.851357
_cell_length_c 9.717441
_cell_angle_alpha 90.000000
_cell_angle_beta 90.000000
_cell_angle_gamma 90.000000
_cell_volume 2481.209035
_symmetry_space_group_name_H-M "P M M A"
_symmetry_group_IT_number 51
_symmetry_cell_setting 'orthorhombic'
loop_
_space_group_symop_operation_xyz
x,y,z
1/2-x,-y,z
1/2+x,-y,-z
-x,y,-z
-x,-y,-z
1/2+x,y,-z
1/2-x,y,z
x,-y,z
loop_
_atom_site_type_symbol
_atom_site_label
_atom_site_fract_x
_atom_site_fract_y
_atom_site_fract_z
Si Si1 0.561120 0.451805 0.342753
Si Si2 0.061562 0.180601 0.152422
Si Si3 0.437915 0.921597 0.153801
Si Si4 0.563823 0.000000 0.345310
Si Si5 0.562167 0.645088 0.342595
Si Si6 0.937419 0.261556 0.655429
O O1 0.500000 0.451902 0.500000
O O2 0.750000 0.451640 0.346404
O O3 0.510953 0.500000 0.281150
O O4 0.514044 0.403457 0.281456
O O5 0.250000 0.181376 0.149931
O O6 0.014679 0.129639 0.188429
O O7 0.008285 0.218850 0.257145
O O8 0.000000 0.190011 0.000000
O O9 0.250000 0.924319 0.152325
O O10 0.504142 0.956768 0.261817
O O11 0.500000 0.931388 0.000000
O O12 0.500000 0.000000 0.500000
O O13 0.750000 0.000000 0.347989
O O14 0.500000 0.644424 0.500000
O O15 0.750000 0.647870 0.344289
O O16 0.495053 0.691054 0.282514
O O17 0.750000 0.262221 0.651152
O O18 0.000000 0.258139 0.500000
#
# Coordination Sequence:
#
# PCOD9400596 Si02
#       6
#     8   8   8   4   8   8
#     4   8  13  20  30  46  71 104 143 185 227 273
#     4   9  20  36  55  77 101 129 165 205 244 286
#     4  10  20  38  60  82 106 136 172 208 247 295
#     4  12  25  40  57  82 112 142 172 208 251 292
#     4   9  15  23  36  55  80 114 152 189 232 282
#     4  10  19  31  46  68  96 127 160 196 239 288
#
# _framework density 17.733291000000001
#
# number of rings (size 3 to 8) (size 9 to 14) (size 15 to 20)
#    0.000    2.545    0.000    3.818    0.000    3.636 
#    0.000    1.818    0.000    0.000    0.000    0.000 
#    0.000    0.727    0.000    1.636    0.000    8.545 
#
# Total GULP energy -245084.580199 kJ/mol
# GULP energy per Si atom -5570.104095 kJ/mol
# Density = 1.769293 g / cm^3
# Si number density = 17.733291 Si / 1000 Ang^3
#
#
#
# Elastic Constant Matrix: (Units=GPa)
#
#
# Indices 1 2 3 4 5 6 
#
# 1 51.7157 44.8323 23.1334 0.0000 0.0000 0.0000
# 2 44.8323 200.7790 91.5696 0.0000 0.0000 0.0000
# 3 23.1334 91.5696 60.5850 0.0000 0.0000 0.0000
# 4 0.0000 0.0000 0.0000 -23.7464 0.0000 0.0000
# 5 0.0000 0.0000 0.0000 0.0000 20.2169 0.0000
# 6 0.0000 0.0000 0.0000 0.0000 0.0000 27.6385
#
#
#
# Elastic Compliance Matrix: (Units=1/GPa)
#
#
# Indices 1 2 3 4 5 6 
#
# 1 0.024200 -0.003828 -0.003454 0.000000 0.000000 0.000000
# 2 -0.003828 0.016637 -0.023683 0.000000 0.000000 0.000000
# 3 -0.003454 -0.023683 0.053620 0.000000 0.000000 0.000000
# 4 0.000000 0.000000 0.000000 -0.042112 0.000000 0.000000
# 5 0.000000 0.000000 0.000000 0.000000 0.049464 0.000000
# 6 0.000000 0.000000 0.000000 0.000000 0.000000 0.036181
#
#
# Mechanical properties :
#
#
# Convention : Reuss Voigt Hill
#
# Bulk Modulus (GPa) = 30.74513 70.23894 50.49203
# Shear Modulus (GPa) = 23.72311 15.05807 19.39059
#
# Velocity S-wave (km/s) = 3.66153 2.91716 3.31033
# Velocity P-wave (km/s) = 5.93724 7.14430 6.56855
#
# Compressibility (1/GPa) = 0.03252547
#
# Stress axis : x y z
#
# Youngs Moduli (GPa) = 41.32152 60.10781 18.64965
#
# Poissons Ratio (x) = 0.23012 0.06442
# Poissons Ratio (y) = 0.15819 0.44169
# Poissons Ratio (z) = 0.14274 1.42356
#
# Static dielectric constant tensor:
#      x y z
#    x 1.604180 0.000000 0.000000 
#    y 0.000000 1.684600 0.000000 
#    z 0.000000 0.000000 1.563160 
# 
# From -- ./inp_files/5767.got.cif
#   From: 2010.05.17/outbox.cif.g08.bks.cpg/sg51_3_cif.got.tgz:5767.got - 2010.06.03 11:52:47.
