data_PCOD9400327
_publ_section_title
;
Structure prediction by ZEFSAII (Michael W. Deem and Ramdas Pophale) SiO2 
 PCOD9400327
Probable space group: P M M A
;
_chemical_formula_sum "Si O2"
_cell_formula_units_Z 48
_cell_length_a 27.006761
_cell_length_b 8.644082
_cell_length_c 12.251691
_cell_angle_alpha 90.000000
_cell_angle_beta 90.000000
_cell_angle_gamma 90.000000
_cell_volume 2860.140805
_symmetry_space_group_name_H-M "P M M A"
_symmetry_group_IT_number 51
_symmetry_cell_setting 'orthorhombic'
loop_
_space_group_symop_operation_xyz
x,y,z
1/2-x,-y,z
1/2+x,-y,-z
-x,y,-z
-x,-y,-z
1/2+x,y,-z
1/2-x,y,z
x,-y,z
loop_
_atom_site_type_symbol
_atom_site_label
_atom_site_fract_x
_atom_site_fract_y
_atom_site_fract_z
Si Si1 0.380365 0.683986 0.015098
Si Si2 0.946133 0.685501 0.547308
Si Si3 0.569956 0.815466 0.786996
Si Si4 0.893713 0.686112 0.329210
Si Si5 0.961220 0.816404 0.144781
Si Si6 0.806187 0.688058 0.171982
O O1 0.377540 0.500000 0.023262
O O2 0.386692 0.753290 0.135222
O O3 0.428894 0.730983 0.945807
O O4 0.334869 0.738321 0.938221
O O5 0.949316 0.500000 0.561026
O O6 0.932303 0.756876 0.663275
O O7 0.904994 0.719146 0.455005
O O8 0.000000 0.736288 0.500000
O O9 0.517800 0.766684 0.842373
O O10 0.571223 0.000000 0.786847
O O11 0.900576 0.500000 0.313380
O O12 0.934422 0.775130 0.258108
O O13 0.841009 0.727986 0.275377
O O14 0.959599 0.000000 0.123212
O O15 0.750000 0.744588 0.178977
O O16 0.804780 0.500000 0.168965
#
# Coordination Sequence:
#
# PCOD9400327 Si02
#       6
#     8   8   8   8   8   8
#     4  10  20  32  49  71  95 125 161 200 245 291
#     4  10  19  31  48  69  98 133 169 203 233 280
#     4  11  22  32  45  67  99 136 168 196 236 285
#     4   9  17  30  49  73  97 126 162 199 241 283
#     4  10  19  30  45  67  98 131 162 197 235 281
#     4   8  15  30  53  77  96 115 149 202 255 296
#
# _framework density 16.782389999999999
#
# number of rings (size 3 to 8) (size 9 to 14) (size 15 to 20)
#    0.000    2.333    1.667    3.000    0.000    5.000 
#    0.000    0.000    0.000   13.500    0.000    4.667 
#    0.000    0.000    0.000    0.000    0.000    0.000 
#
# Total GULP energy -267569.322190 kJ/mol
# GULP energy per Si atom -5574.360879 kJ/mol
# Density = 1.674419 g / cm^3
# Si number density = 16.782390 Si / 1000 Ang^3
#
#
#
# Elastic Constant Matrix: (Units=GPa)
#
#
# Indices 1 2 3 4 5 6 
#
# 1 107.8923 17.6321 53.9044 0.0000 0.0000 0.0000
# 2 17.6321 11.5369 20.2366 0.0000 0.0000 0.0000
# 3 53.9044 20.2366 100.5691 0.0000 0.0000 0.0000
# 4 0.0000 0.0000 0.0000 -3.9055 0.0000 0.0000
# 5 0.0000 0.0000 0.0000 0.0000 9.8513 0.0000
# 6 0.0000 0.0000 0.0000 0.0000 0.0000 -1.3801
#
#
#
# Elastic Compliance Matrix: (Units=1/GPa)
#
#
# Indices 1 2 3 4 5 6 
#
# 1 0.013730 -0.012480 -0.004848 0.000000 0.000000 0.000000
# 2 -0.012480 0.145304 -0.022549 0.000000 0.000000 0.000000
# 3 -0.004848 -0.022549 0.017079 0.000000 0.000000 0.000000
# 4 0.000000 0.000000 0.000000 -0.256051 0.000000 0.000000
# 5 0.000000 0.000000 0.000000 0.000000 0.101510 0.000000
# 6 0.000000 0.000000 0.000000 0.000000 0.000000 -0.724590
#
#
# Mechanical properties :
#
#
# Convention : Reuss Voigt Hill
#
# Bulk Modulus (GPa) = 10.37783 44.83829 27.60806
# Shear Modulus (GPa) = -8.45818 9.46150 0.50166
#
# Velocity S-wave (km/s) = -2.24741 2.37697 0.54733
# Velocity P-wave (km/s) = 0.73300 5.85737 4.10923
#
# Compressibility (1/GPa) = 0.09635927
#
# Stress axis : x y z
#
# Youngs Moduli (GPa) = 72.83203 6.88211 58.55089
#
# Poissons Ratio (x) = 0.08589 0.28385
# Poissons Ratio (y) = 0.90898 1.32025
# Poissons Ratio (z) = 0.35309 0.15518
#
# Static dielectric constant tensor:
#      x y z
#    x 1.566090 0.000000 0.000000 
#    y 0.000000 1.563740 0.000000 
#    z 0.000000 0.000000 1.582500 
# 
# From -- ./inp_files/18626.got.cif
#   From: 2010.05.17/outbox.cif.g08.bks.cpg/sg51_10_cif.got.tgz:18626.got - 2010.06.03 11:52:47.
