data_PCOD9400794
_publ_section_title
;
Structure prediction by ZEFSAII (Michael W. Deem and Ramdas Pophale) SiO2 
 PCOD9400794
Probable space group: P M M A
;
_chemical_formula_sum "Si O2"
_cell_formula_units_Z 56
_cell_length_a 8.711759
_cell_length_b 19.689887
_cell_length_c 19.162308
_cell_angle_alpha 90.000000
_cell_angle_beta 90.000000
_cell_angle_gamma 90.000000
_cell_volume 3286.978723
_symmetry_space_group_name_H-M "P M M A"
_symmetry_group_IT_number 51
_symmetry_cell_setting 'orthorhombic'
loop_
_space_group_symop_operation_xyz
x,y,z
1/2-x,-y,z
1/2+x,-y,-z
-x,y,-z
-x,-y,-z
1/2+x,y,-z
1/2-x,y,z
x,-y,z
loop_
_atom_site_type_symbol
_atom_site_label
_atom_site_fract_x
_atom_site_fract_y
_atom_site_fract_z
Si Si1 0.436654 0.575195 0.351996
Si Si2 0.065103 0.423690 0.188511
Si Si3 0.064722 0.712920 0.424312
Si Si4 0.565817 0.153294 0.074681
Si Si5 0.933710 0.715078 0.155962
Si Si6 0.434002 0.205737 0.288303
Si Si7 0.064482 0.077884 0.784094
O O1 0.250000 0.575581 0.353165
O O2 0.487574 0.500000 0.375052
O O3 0.479203 0.583742 0.270488
O O4 0.488952 0.638372 0.398093
O O5 0.250000 0.419551 0.185551
O O6 0.019985 0.500000 0.166434
O O7 0.994681 0.360897 0.147172
O O8 0.250000 0.711754 0.427440
O O9 0.020339 0.765988 0.363906
O O10 0.000000 0.728711 0.500000
O O11 0.750000 0.151502 0.070999
O O12 0.519097 0.229686 0.097720
O O13 0.519209 0.104465 0.138661
O O14 0.500000 0.134502 0.000000
O O15 0.750000 0.714938 0.159489
O O16 0.998701 0.745033 0.228547
O O17 0.250000 0.208039 0.283420
O O18 0.493853 0.130872 0.270313
O O19 0.250000 0.082403 0.780257
O O20 0.019128 0.000000 0.773577
#
# Coordination Sequence:
#
# PCOD9400794 Si02
#       7
#     8   8   8   8   8   8   8
#     4   8  14  27  45  64  92 128 162 200 248 295
#     4   9  16  28  48  71  95 126 166 212 259 302
#     4  10  20  32  47  69  97 131 168 208 252 295
#     4   9  19  33  49  74 105 137 165 194 235 285
#     4  10  19  31  49  72 100 131 166 209 254 294
#     4  10  19  33  52  74  99 128 169 210 243 289
#     4   9  19  36  56  79 107 134 158 192 244 295
#
# _framework density 17.036921
#
# number of rings (size 3 to 8) (size 9 to 14) (size 15 to 20)
#    0.000    2.714    1.429    2.571    0.000    5.143 
#    0.000    0.000    0.000    0.857    0.000    0.000 
#    0.000    0.000    0.000    0.000    0.000    0.000 
#
# Total GULP energy -312142.129155 kJ/mol
# GULP energy per Si atom -5573.966592 kJ/mol
# Density = 1.699814 g / cm^3
# Si number density = 17.036921 Si / 1000 Ang^3
#
#
#
# Elastic Constant Matrix: (Units=GPa)
#
#
# Indices 1 2 3 4 5 6 
#
# 1 14.1497 26.2556 11.7424 0.0000 0.0000 0.0000
# 2 26.2556 134.3502 38.9483 0.0000 0.0000 0.0000
# 3 11.7424 38.9483 61.8767 0.0000 0.0000 0.0000
# 4 0.0000 0.0000 0.0000 16.0218 0.0000 0.0000
# 5 0.0000 0.0000 0.0000 0.0000 23.7430 0.0000
# 6 0.0000 0.0000 0.0000 0.0000 0.0000 24.1877
#
#
#
# Elastic Compliance Matrix: (Units=1/GPa)
#
#
# Indices 1 2 3 4 5 6 
#
# 1 0.115191 -0.019784 -0.009407 0.000000 0.000000 0.000000
# 2 -0.019784 0.012503 -0.004115 0.000000 0.000000 0.000000
# 3 -0.009407 -0.004115 0.020537 0.000000 0.000000 0.000000
# 4 0.000000 0.000000 0.000000 0.062415 0.000000 0.000000
# 5 0.000000 0.000000 0.000000 0.000000 0.042118 0.000000
# 6 0.000000 0.000000 0.000000 0.000000 0.000000 0.041343
#
#
# Mechanical properties :
#
#
# Convention : Reuss Voigt Hill
#
# Bulk Modulus (GPa) = 12.25229 40.47437 26.36333
# Shear Modulus (GPa) = 12.88912 21.68586 17.28749
#
# Velocity S-wave (km/s) = 2.75351 3.57161 3.18890
# Velocity P-wave (km/s) = 4.16129 6.38881 5.39135
#
# Compressibility (1/GPa) = 0.08161737
#
# Stress axis : x y z
#
# Youngs Moduli (GPa) = 8.68127 79.98297 48.69346
#
# Poissons Ratio (x) = 1.58241 0.45804
# Poissons Ratio (y) = 0.17175 0.20039
# Poissons Ratio (z) = 0.08166 0.32915
#
# Static dielectric constant tensor:
#      x y z
#    x 1.577950 0.000000 0.000000 
#    y 0.000000 1.595610 0.000000 
#    z 0.000000 0.000000 1.550750 
# 
# From -- ./inp_files/28256.got.cif
#   From: 2010.05.17/outbox.cif.g08.bks.cpg/sg51_15_cif.got.tgz:28256.got - 2010.06.03 11:52:47.
