data_PCOD9400079
_publ_section_title
;
Structure prediction by ZEFSAII (Michael W. Deem and Ramdas Pophale) SiO2 
 PCOD9400079
Probable space group: P M M A
;
_chemical_formula_sum "Si O2"
_cell_formula_units_Z 64
_cell_length_a 7.723035
_cell_length_b 29.450741
_cell_length_c 15.396272
_cell_angle_alpha 90.000000
_cell_angle_beta 90.000000
_cell_angle_gamma 90.000000
_cell_volume 3501.868264
_symmetry_space_group_name_H-M "P M M A"
_symmetry_group_IT_number 51
_symmetry_cell_setting 'orthorhombic'
loop_
_space_group_symop_operation_xyz
x,y,z
1/2-x,-y,z
1/2+x,-y,-z
-x,y,-z
-x,-y,-z
1/2+x,y,-z
1/2-x,y,z
x,-y,z
loop_
_atom_site_type_symbol
_atom_site_label
_atom_site_fract_x
_atom_site_fract_y
_atom_site_fract_z
Si Si1 0.042082 0.869352 0.401289
Si Si2 0.957712 0.084632 0.904101
Si Si3 0.541844 0.765778 0.598116
Si Si4 0.957573 0.732864 0.778484
Si Si5 0.955772 0.352060 0.101650
Si Si6 0.541852 0.188378 0.903146
Si Si7 0.041635 0.451272 0.897376
Si Si8 0.537870 0.950307 0.721209
O O1 0.250000 0.867473 0.391102
O O2 0.977287 0.817760 0.388568
O O3 0.977396 0.907621 0.335473
O O4 0.000000 0.882324 0.500000
O O5 0.750000 0.086578 0.899014
O O6 0.023938 0.136696 0.896396
O O7 0.017171 0.056723 0.820949
O O8 0.000000 0.067125 0.000000
O O9 0.500000 0.751256 0.500000
O O10 0.750000 0.767494 0.601840
O O11 0.479512 0.735555 0.679022
O O12 0.750000 0.737329 0.775331
O O13 0.024748 0.776601 0.831791
O O14 0.992208 0.688145 0.834381
O O15 0.750000 0.354812 0.104353
O O16 0.025346 0.401775 0.130912
O O17 0.000000 0.343686 0.000000
O O18 0.750000 0.186277 0.894718
O O19 0.500000 0.205205 0.000000
O O20 0.250000 0.451438 0.886816
O O21 0.976680 0.500000 0.861782
O O22 0.000000 0.451786 0.000000
O O23 0.750000 0.949673 0.719314
O O24 0.483288 0.000000 0.689334
#
# Coordination Sequence:
#
# PCOD9400079 Si02
#       8
#     8   8   8   8   8   8   8   8
#     4   9  17  31  50  69  88 110 137 169 207 253
#     4   9  17  30  46  62  81 107 141 176 206 241
#     4   9  18  32  49  67  86 111 143 179 217 259
#     4  10  19  30  44  62  87 117 146 178 219 263
#     4  10  19  29  42  63  92 124 156 188 221 257
#     4   9  17  28  42  60  82 110 142 173 205 245
#     4   8  14  25  40  57  80 114 154 190 220 251
#     4   9  17  29  46  66  86 110 138 166 203 254
#
# _framework density 18.275957999999999
#
# number of rings (size 3 to 8) (size 9 to 14) (size 15 to 20)
#    0.000    2.875    0.000    1.500    0.000    6.000 
#    0.000    0.625    0.000    6.750    0.000    0.000 
#    0.000    0.500    0.000    1.125    0.000    2.000 
#
# Total GULP energy -356627.673785 kJ/mol
# GULP energy per Si atom -5572.307403 kJ/mol
# Density = 1.823436 g / cm^3
# Si number density = 18.275958 Si / 1000 Ang^3
#
#
#
# Elastic Constant Matrix: (Units=GPa)
#
#
# Indices 1 2 3 4 5 6 
#
# 1 28.0823 3.3129 3.2714 0.0000 0.0000 0.0000
# 2 3.3129 76.3140 63.0425 0.0000 0.0000 0.0000
# 3 3.2714 63.0425 111.7442 0.0000 0.0000 0.0000
# 4 0.0000 0.0000 0.0000 10.6495 0.0000 0.0000
# 5 0.0000 0.0000 0.0000 0.0000 18.9123 0.0000
# 6 0.0000 0.0000 0.0000 0.0000 0.0000 9.9631
#
#
#
# Elastic Compliance Matrix: (Units=1/GPa)
#
#
# Indices 1 2 3 4 5 6 
#
# 1 0.035799 -0.001289 -0.000321 0.000000 0.000000 0.000000
# 2 -0.001289 0.024588 -0.013834 0.000000 0.000000 0.000000
# 3 -0.000321 -0.013834 0.016763 0.000000 0.000000 0.000000
# 4 0.000000 0.000000 0.000000 0.093901 0.000000 0.000000
# 5 0.000000 0.000000 0.000000 0.000000 0.052876 0.000000
# 6 0.000000 0.000000 0.000000 0.000000 0.000000 0.100371
#
#
# Mechanical properties :
#
#
# Convention : Reuss Voigt Hill
#
# Bulk Modulus (GPa) = 21.61587 39.48825 30.55206
# Shear Modulus (GPa) = 13.49143 17.67257 15.58200
#
# Velocity S-wave (km/s) = 2.71994 3.11301 2.92309
# Velocity P-wave (km/s) = 4.66018 5.88002 5.30528
#
# Compressibility (1/GPa) = 0.04626230
#
# Stress axis : x y z
#
# Youngs Moduli (GPa) = 27.93372 40.67045 59.65493
#
# Poissons Ratio (x) = 0.05243 0.01913
# Poissons Ratio (y) = 0.03601 0.82526
# Poissons Ratio (z) = 0.00896 0.56263
#
# Static dielectric constant tensor:
#      x y z
#    x 1.700200 0.000000 0.000000 
#    y 0.000000 1.676330 0.000000 
#    z 0.000000 0.000000 1.608790 
# 
# From -- ./inp_files/22568.got.cif
#   From: 2010.05.17/outbox.cif.g08.bks.cpg/sg51_12_cif.got.tgz:22568.got - 2010.06.03 11:52:47.
