data_PCOD9400918
_publ_section_title
;
Structure prediction by ZEFSAII (Michael W. Deem and Ramdas Pophale) SiO2 
 PCOD9400918
Probable space group: P M M A
;
_chemical_formula_sum "Si O2"
_cell_formula_units_Z 56
_cell_length_a 17.079080
_cell_length_b 8.271792
_cell_length_c 17.101157
_cell_angle_alpha 90.000000
_cell_angle_beta 90.000000
_cell_angle_gamma 90.000000
_cell_volume 2415.959069
_symmetry_space_group_name_H-M "P M M A"
_symmetry_group_IT_number 51
_symmetry_cell_setting 'orthorhombic'
loop_
_space_group_symop_operation_xyz
x,y,z
1/2-x,-y,z
1/2+x,-y,-z
-x,y,-z
-x,-y,-z
1/2+x,y,-z
1/2-x,y,z
x,-y,z
loop_
_atom_site_type_symbol
_atom_site_label
_atom_site_fract_x
_atom_site_fract_y
_atom_site_fract_z
Si Si1 0.100328 0.189968 0.826763
Si Si2 0.656421 0.820516 0.848891
Si Si3 0.581201 0.304045 0.465013
Si Si4 0.250000 0.302676 0.545153
Si Si5 0.250000 0.694607 0.728080
Si Si6 0.163770 0.312704 0.317556
Si Si7 0.497303 0.694501 0.690575
Si Si8 0.341360 0.309239 0.987595
O O1 0.174570 0.244602 0.775006
O O2 0.108924 0.272292 0.910753
O O3 0.025732 0.236302 0.774292
O O4 0.102660 0.000000 0.838719
O O5 0.750000 0.828666 0.861434
O O6 0.650095 0.699361 0.776337
O O7 0.629329 0.000000 0.825633
O O8 0.625432 0.770457 0.933470
O O9 0.500000 0.241650 0.500000
O O10 0.580690 0.500000 0.476216
O O11 0.667261 0.247559 0.490750
O O12 0.570158 0.272527 0.372598
O O13 0.250000 0.500000 0.541754
O O14 0.250000 0.257308 0.636940
O O15 0.250000 0.500000 0.729818
O O16 0.250000 0.240045 0.333142
O O17 0.167805 0.500000 0.342182
O O18 0.080277 0.245726 0.344672
O O19 0.502593 0.500000 0.696757
O O20 0.250000 0.256545 0.973128
O O21 0.338898 0.500000 0.001376
#
# Coordination Sequence:
#
# PCOD9400918 Si02
#       8
#     8   8   8   4   4   8   8   8
#     4  12  23  33  50  80 114 145 186 237 280 328
#     4   9  17  30  50  75 104 139 183 233 283 335
#     4   9  17  31  52  82 116 148 188 234 280 333
#     4   9  16  29  53  81 111 150 187 224 277 335
#     4  11  19  33  55  77 109 150 189 224 275 341
#     4   9  18  34  55  77 102 137 185 234 285 343
#     4  10  20  36  56  78 110 148 183 228 283 342
#     4  10  19  31  50  75 107 147 187 228 280 340
#
# _framework density 23.179200000000002
#
# number of rings (size 3 to 8) (size 9 to 14) (size 15 to 20)
#    0.000    2.143    2.143    2.357    0.000    2.857 
#    1.286    0.714    0.000    4.714    0.000    0.000 
#    0.000    0.000    0.000    0.000    0.000    0.000 
#
# Total GULP energy -312599.404474 kJ/mol
# GULP energy per Si atom -5582.132223 kJ/mol
# Density = 2.312644 g / cm^3
# Si number density = 23.179200 Si / 1000 Ang^3
#
#
#
# Elastic Constant Matrix: (Units=GPa)
#
#
# Indices 1 2 3 4 5 6 
#
# 1 150.9650 -3.5187 16.2441 0.0000 0.0000 0.0000
# 2 -3.5187 23.7631 -0.0614 0.0000 0.0000 0.0000
# 3 16.2441 -0.0614 73.6231 0.0000 0.0000 0.0000
# 4 0.0000 0.0000 0.0000 -32.6920 0.0000 0.0000
# 5 0.0000 0.0000 0.0000 0.0000 27.0462 0.0000
# 6 0.0000 0.0000 0.0000 0.0000 0.0000 11.6239
#
#
#
# Elastic Compliance Matrix: (Units=1/GPa)
#
#
# Indices 1 2 3 4 5 6 
#
# 1 0.006809 0.001004 -0.001501 0.000000 0.000000 0.000000
# 2 0.001004 0.042230 -0.000186 0.000000 0.000000 0.000000
# 3 -0.001501 -0.000186 0.013914 0.000000 0.000000 0.000000
# 4 0.000000 0.000000 0.000000 -0.030589 0.000000 0.000000
# 5 0.000000 0.000000 0.000000 0.000000 0.036974 0.000000
# 6 0.000000 0.000000 0.000000 0.000000 0.000000 0.086030
#
#
# Mechanical properties :
#
#
# Convention : Reuss Voigt Hill
#
# Bulk Modulus (GPa) = 16.23740 30.40878 23.32309
# Shear Modulus (GPa) = 28.20656 16.90811 22.55734
#
# Velocity S-wave (km/s) = 3.49218 2.70377 3.12295
# Velocity P-wave (km/s) = 4.82502 4.78483 4.80497
#
# Compressibility (1/GPa) = 0.06158622
#
# Stress axis : x y z
#
# Youngs Moduli (GPa) = 146.86390 23.67964 71.87095
#
# Poissons Ratio (x) = -0.02378 0.10791
# Poissons Ratio (y) = -0.14750 0.01339
# Poissons Ratio (z) = 0.22052 0.00441
#
# Static dielectric constant tensor:
#      x y z
#    x 1.937570 0.000000 0.000000 
#    y 0.000000 1.817820 0.000000 
#    z 0.000000 0.000000 1.884030 
# 
# From -- ./inp_files/33577.got.cif
#   From: 2010.05.17/outbox.cif.g08.bks.cpg/sg51_17_cif.got.tgz:33577.got - 2010.06.03 11:52:47.
