data_PCOD9400908
_publ_section_title
;
Structure prediction by ZEFSAII (Michael W. Deem and Ramdas Pophale) SiO2 
 PCOD9400908
Probable space group: P M M A
;
_chemical_formula_sum "Si O2"
_cell_formula_units_Z 40
_cell_length_a 19.008571
_cell_length_b 7.809530
_cell_length_c 13.985966
_cell_angle_alpha 90.000000
_cell_angle_beta 90.000000
_cell_angle_gamma 90.000000
_cell_volume 2076.188757
_symmetry_space_group_name_H-M "P M M A"
_symmetry_group_IT_number 51
_symmetry_cell_setting 'orthorhombic'
loop_
_space_group_symop_operation_xyz
x,y,z
1/2-x,-y,z
1/2+x,-y,-z
-x,y,-z
-x,-y,-z
1/2+x,y,-z
1/2-x,y,z
x,-y,z
loop_
_atom_site_type_symbol
_atom_site_label
_atom_site_fract_x
_atom_site_fract_y
_atom_site_fract_z
Si Si1 0.532498 0.795863 0.805572
Si Si2 0.827466 0.709225 0.312329
Si Si3 0.471616 0.292733 0.601395
Si Si4 0.828942 0.799309 0.904430
Si Si5 0.114932 0.298686 0.891600
O O1 0.515972 0.757968 0.694896
O O2 0.607903 0.726128 0.839754
O O3 0.467719 0.725312 0.868843
O O4 0.531562 0.000000 0.819503
O O5 0.750000 0.766068 0.340896
O O6 0.828131 0.500000 0.311819
O O7 0.891839 0.765465 0.378223
O O8 0.845472 0.763331 0.204022
O O9 0.500000 0.230091 0.500000
O O10 0.471450 0.500000 0.599130
O O11 0.750000 0.725536 0.896124
O O12 0.823688 0.000000 0.879841
O O13 0.856707 0.786801 0.013018
O O14 0.128925 0.500000 0.901969
#
# Coordination Sequence:
#
# PCOD9400908 Si02
#       5
#     8   8   8   8   8
#     4  10  20  34  52  72  96 130 169 204 244 298
#     4   8  14  26  45  69  95 122 153 192 241 293
#     4   9  18  33  52  73  97 124 159 207 257 300
#     4  10  21  35  49  69 101 138 171 202 237 283
#     4  10  19  31  50  75 101 129 164 207 251 294
#
# _framework density 19.266071
#
# number of rings (size 3 to 8) (size 9 to 14) (size 15 to 20)
#    0.000    2.600    0.000    3.600    0.000    5.600 
#    0.000    1.000    0.000    6.600    0.000    0.000 
#    0.000    0.000    0.000    0.000    0.000    0.000 
#
# Total GULP energy -223130.399722 kJ/mol
# GULP energy per Si atom -5578.259993 kJ/mol
# Density = 1.922222 g / cm^3
# Si number density = 19.266071 Si / 1000 Ang^3
#
#
#
# Elastic Constant Matrix: (Units=GPa)
#
#
# Indices 1 2 3 4 5 6 
#
# 1 177.9930 -9.3119 81.3815 0.0000 0.0000 0.0000
# 2 -9.3119 22.1272 -13.0496 0.0000 0.0000 0.0000
# 3 81.3815 -13.0496 84.0146 0.0000 0.0000 0.0000
# 4 0.0000 0.0000 0.0000 21.4073 0.0000 0.0000
# 5 0.0000 0.0000 0.0000 0.0000 13.7033 0.0000
# 6 0.0000 0.0000 0.0000 0.0000 0.0000 14.8571
#
#
#
# Elastic Compliance Matrix: (Units=1/GPa)
#
#
# Indices 1 2 3 4 5 6 
#
# 1 0.010141 -0.001679 -0.010084 0.000000 0.000000 0.000000
# 2 -0.001679 0.050029 0.009397 0.000000 0.000000 0.000000
# 3 -0.010084 0.009397 0.023130 0.000000 0.000000 0.000000
# 4 0.000000 0.000000 0.000000 0.046713 0.000000 0.000000
# 5 0.000000 0.000000 0.000000 0.000000 0.072975 0.000000
# 6 0.000000 0.000000 0.000000 0.000000 0.000000 0.067308
#
#
# Mechanical properties :
#
#
# Convention : Reuss Voigt Hill
#
# Bulk Modulus (GPa) = 12.72781 44.68609 28.70695
# Shear Modulus (GPa) = 16.59935 25.00121 20.80028
#
# Velocity S-wave (km/s) = 2.93846 3.60624 3.28934
# Velocity P-wave (km/s) = 4.25833 6.37060 5.41839
#
# Compressibility (1/GPa) = 0.07856812
#
# Stress axis : x y z
#
# Youngs Moduli (GPa) = 98.61073 19.98856 43.23340
#
# Poissons Ratio (x) = 0.03357 0.43596
# Poissons Ratio (y) = 0.16561 -0.40629
# Poissons Ratio (z) = 0.99438 -0.18784
#
# Static dielectric constant tensor:
#      x y z
#    x 1.707550 0.000000 0.000000 
#    y 0.000000 1.693130 0.000000 
#    z 0.000000 0.000000 1.634670 
# 
# From -- ./inp_files/24537.got.cif
#   From: 2010.05.17/outbox.cif.g08.bks.cpg/sg51_13_cif.got.tgz:24537.got - 2010.06.03 11:52:47.
