data_PCOD9400265
_publ_section_title
;
Structure prediction by ZEFSAII (Michael W. Deem and Ramdas Pophale) SiO2 
 PCOD9400265
Probable space group: P M M A
;
_chemical_formula_sum "Si O2"
_cell_formula_units_Z 56
_cell_length_a 7.800561
_cell_length_b 19.951952
_cell_length_c 19.210391
_cell_angle_alpha 90.000000
_cell_angle_beta 90.000000
_cell_angle_gamma 90.000000
_cell_volume 2989.836456
_symmetry_space_group_name_H-M "P M M A"
_symmetry_group_IT_number 51
_symmetry_cell_setting 'orthorhombic'
loop_
_space_group_symop_operation_xyz
x,y,z
1/2-x,-y,z
1/2+x,-y,-z
-x,y,-z
-x,-y,-z
1/2+x,y,-z
1/2-x,y,z
x,-y,z
loop_
_atom_site_type_symbol
_atom_site_label
_atom_site_fract_x
_atom_site_fract_y
_atom_site_fract_z
Si Si1 0.458716 0.574107 0.355846
Si Si2 0.041096 0.426083 0.192396
Si Si3 0.043709 0.711827 0.421168
Si Si4 0.547465 0.154818 0.077589
Si Si5 0.044094 0.716271 0.154244
Si Si6 0.456346 0.203927 0.291127
Si Si7 0.043569 0.075539 0.787819
O O1 0.250000 0.573887 0.358418
O O2 0.517124 0.500000 0.378563
O O3 0.503026 0.582629 0.274210
O O4 0.519951 0.637482 0.399862
O O5 0.250000 0.427262 0.189507
O O6 0.981132 0.500000 0.169951
O O7 0.981174 0.360179 0.151552
O O8 0.250000 0.709933 0.415841
O O9 0.981261 0.764639 0.363324
O O10 0.000000 0.728535 0.500000
O O11 0.750000 0.150792 0.083000
O O12 0.498246 0.231695 0.093583
O O13 0.475625 0.108977 0.140290
O O14 0.500000 0.134146 0.000000
O O15 0.250000 0.713300 0.158668
O O16 0.980975 0.751018 0.225932
O O17 0.250000 0.208527 0.290894
O O18 0.502156 0.127778 0.273259
O O19 0.250000 0.072423 0.792644
O O20 0.979437 0.000000 0.778314
#
# Coordination Sequence:
#
# PCOD9400265 Si02
#       7
#     8   8   8   8   8   8   8
#     4   8  13  23  40  62  90 124 160 198 239 281
#     4   8  12  20  40  68  91 115 154 201 242 278
#     4  10  19  30  44  66  95 128 164 202 240 280
#     4  10  20  33  49  72 101 130 155 181 218 268
#     4   9  15  27  48  70  92 121 158 199 237 274
#     4   9  17  30  48  70  95 122 158 198 232 274
#     4   9  19  35  54  76 100 124 149 181 226 276
#
# _framework density 18.730121
#
# number of rings (size 3 to 8) (size 9 to 14) (size 15 to 20)
#    0.000    3.000    1.429    1.286    0.000    2.000 
#    0.000    0.000    0.000    1.286    0.000    2.000 
#    0.000    0.000    0.000    0.000    0.000    0.000 
#
# Total GULP energy -312049.328866 kJ/mol
# GULP energy per Si atom -5572.309444 kJ/mol
# Density = 1.868749 g / cm^3
# Si number density = 18.730121 Si / 1000 Ang^3
#
#
#
# Elastic Constant Matrix: (Units=GPa)
#
#
# Indices 1 2 3 4 5 6 
#
# 1 21.3196 10.5478 2.6075 0.0000 0.0000 0.0000
# 2 10.5478 153.4166 57.6465 0.0000 0.0000 0.0000
# 3 2.6075 57.6465 71.6261 0.0000 0.0000 0.0000
# 4 0.0000 0.0000 0.0000 18.7393 0.0000 0.0000
# 5 0.0000 0.0000 0.0000 0.0000 13.8492 0.0000
# 6 0.0000 0.0000 0.0000 0.0000 0.0000 -9.4427
#
#
#
# Elastic Compliance Matrix: (Units=1/GPa)
#
#
# Indices 1 2 3 4 5 6 
#
# 1 0.048644 -0.003840 0.001320 0.000000 0.000000 0.000000
# 2 -0.003840 0.009647 -0.007624 0.000000 0.000000 0.000000
# 3 0.001320 -0.007624 0.020050 0.000000 0.000000 0.000000
# 4 0.000000 0.000000 0.000000 0.053364 0.000000 0.000000
# 5 0.000000 0.000000 0.000000 0.000000 0.072207 0.000000
# 6 0.000000 0.000000 0.000000 0.000000 0.000000 -0.105902
#
#
# Mechanical properties :
#
#
# Convention : Reuss Voigt Hill
#
# Bulk Modulus (GPa) = 17.22626 43.10734 30.16680
# Shear Modulus (GPa) = 36.32419 16.33317 26.32868
#
# Velocity S-wave (km/s) = 4.40858 2.95621 3.75332
# Velocity P-wave (km/s) = 5.92715 5.89213 5.90967
#
# Compressibility (1/GPa) = 0.05805092
#
# Stress axis : x y z
#
# Youngs Moduli (GPa) = 20.55758 103.65767 49.87607
#
# Poissons Ratio (x) = 0.39809 -0.06583
# Poissons Ratio (y) = 0.07895 0.38028
# Poissons Ratio (z) = -0.02714 0.79033
#
# Static dielectric constant tensor:
#      x y z
#    x 1.693080 0.000000 0.000000 
#    y 0.000000 1.678460 0.000000 
#    z 0.000000 0.000000 1.589430 
# 
# From -- ./inp_files/28254.got.cif
#   From: 2010.05.17/outbox.cif.g08.bks.cpg/sg51_15_cif.got.tgz:28254.got - 2010.06.03 11:52:47.
