data_PCOD9400928
_publ_section_title
;
Structure prediction by ZEFSAII (Michael W. Deem and Ramdas Pophale) SiO2 
 PCOD9400928
Probable space group: P M M A
;
_chemical_formula_sum "Si O2"
_cell_formula_units_Z 52
_cell_length_a 9.337019
_cell_length_b 19.436502
_cell_length_c 15.161414
_cell_angle_alpha 90.000000
_cell_angle_beta 90.000000
_cell_angle_gamma 90.000000
_cell_volume 2751.478076
_symmetry_space_group_name_H-M "P M M A"
_symmetry_group_IT_number 51
_symmetry_cell_setting 'orthorhombic'
loop_
_space_group_symop_operation_xyz
x,y,z
1/2-x,-y,z
1/2+x,-y,-z
-x,y,-z
-x,-y,-z
1/2+x,y,-z
1/2-x,y,z
x,-y,z
loop_
_atom_site_type_symbol
_atom_site_label
_atom_site_fract_x
_atom_site_fract_y
_atom_site_fract_z
Si Si1 0.421988 0.131156 0.784354
Si Si2 0.419985 0.680781 0.590743
Si Si3 0.584673 0.606676 0.913948
Si Si4 0.416773 0.772543 0.088593
Si Si5 0.578297 0.577219 0.717471
Si Si6 0.418981 0.155222 0.589482
Si Si7 0.079614 0.000000 0.906758
O O1 0.250000 0.143856 0.786125
O O2 0.505800 0.194539 0.827553
O O3 0.462093 0.120364 0.681946
O O4 0.453578 0.066434 0.846938
O O5 0.500000 0.663028 0.500000
O O6 0.250000 0.668326 0.584887
O O7 0.491897 0.634848 0.665659
O O8 0.440805 0.762675 0.604364
O O9 0.750000 0.587469 0.924591
O O10 0.576179 0.689859 0.907932
O O11 0.534859 0.578981 0.820046
O O12 0.500000 0.584435 0.000000
O O13 0.250000 0.792756 0.084160
O O14 0.500000 0.795099 0.000000
O O15 0.750000 0.591119 0.713708
O O16 0.554038 0.500000 0.682278
O O17 0.500000 0.135214 0.500000
O O18 0.250000 0.143797 0.576076
O O19 0.250000 0.000000 0.923369
O O20 0.000000 0.000000 0.000000
#
# Coordination Sequence:
#
# PCOD9400928 Si02
#       7
#     8   8   8   8   8   8   4
#     4  10  20  35  54  77 106 140 175 212 255 301
#     4  10  20  35  56  80 104 132 167 210 259 309
#     4   9  19  34  51  73 101 132 168 212 261 309
#     4  10  19  31  50  76 103 132 168 213 262 309
#     4  10  21  36  52  72 101 136 172 211 256 307
#     4   9  19  35  56  81 107 134 168 212 260 307
#     4  10  22  38  55  76 108 146 179 212 251 298
#
# _framework density 18.898933
#
# number of rings (size 3 to 8) (size 9 to 14) (size 15 to 20)
#    0.000    2.308    0.000    2.308    0.000    5.231 
#    0.000    0.385    0.000    0.000    0.000    0.000 
#    0.000    0.000    0.000    0.000    0.000    0.000 
#
# Total GULP energy -290280.424579 kJ/mol
# GULP energy per Si atom -5582.315857 kJ/mol
# Density = 1.885592 g / cm^3
# Si number density = 18.898933 Si / 1000 Ang^3
#
#
#
# Elastic Constant Matrix: (Units=GPa)
#
#
# Indices 1 2 3 4 5 6 
#
# 1 52.3830 30.7037 58.2270 0.0000 0.0000 0.0000
# 2 30.7037 39.7619 42.7255 0.0000 0.0000 0.0000
# 3 58.2270 42.7255 162.9836 0.0000 0.0000 0.0000
# 4 0.0000 0.0000 0.0000 874.3671 0.0000 0.0000
# 5 0.0000 0.0000 0.0000 0.0000 39.1607 0.0000
# 6 0.0000 0.0000 0.0000 0.0000 0.0000 159.7754
#
#
#
# Elastic Compliance Matrix: (Units=1/GPa)
#
#
# Indices 1 2 3 4 5 6 
#
# 1 0.043039 -0.023266 -0.009277 0.000000 0.000000 0.000000
# 2 -0.023266 0.047589 -0.004163 0.000000 0.000000 0.000000
# 3 -0.009277 -0.004163 0.010541 0.000000 0.000000 0.000000
# 4 0.000000 0.000000 0.000000 0.001144 0.000000 0.000000
# 5 0.000000 0.000000 0.000000 0.000000 0.025536 0.000000
# 6 0.000000 0.000000 0.000000 0.000000 0.000000 0.006259
#
#
# Mechanical properties :
#
#
# Convention : Reuss Voigt Hill
#
# Bulk Modulus (GPa) = 36.02701 57.60453 46.81577
# Shear Modulus (GPa) = 23.06558 222.89212 122.97885
#
# Velocity S-wave (km/s) = 3.49731 10.87175 8.07546
# Velocity P-wave (km/s) = 5.95085 13.71641 10.57243
#
# Compressibility (1/GPa) = 0.02775695
#
# Stress axis : x y z
#
# Youngs Moduli (GPa) = 23.23457 21.01316 94.86540
#
# Poissons Ratio (x) = 0.48889 0.88006
# Poissons Ratio (y) = 0.54058 0.39496
# Poissons Ratio (z) = 0.21555 0.08748
#
# Static dielectric constant tensor:
#      x y z
#    x 1.628710 0.000000 0.000000 
#    y 0.000000 1.672820 0.000000 
#    z 0.000000 0.000000 1.647540 
# 
# From -- ./inp_files/21584.got.cif
#   From: 2010.05.17/outbox.cif.g08.bks.cpg/sg51_11_cif.got.tgz:21584.got - 2010.06.03 11:52:47.
