data_PCOD9400008
_publ_section_title
;
Structure prediction by ZEFSAII (Michael W. Deem and Ramdas Pophale) SiO2 
 PCOD9400008
Probable space group: P M M A
;
_chemical_formula_sum "Si O2"
_cell_formula_units_Z 64
_cell_length_a 27.323235
_cell_length_b 13.773682
_cell_length_c 8.936688
_cell_angle_alpha 90.000000
_cell_angle_beta 90.000000
_cell_angle_gamma 90.000000
_cell_volume 3363.247015
_symmetry_space_group_name_H-M "P M M A"
_symmetry_group_IT_number 51
_symmetry_cell_setting 'orthorhombic'
loop_
_space_group_symop_operation_xyz
x,y,z
1/2-x,-y,z
1/2+x,-y,-z
-x,y,-z
-x,-y,-z
1/2+x,y,-z
1/2-x,y,z
x,-y,z
loop_
_atom_site_type_symbol
_atom_site_label
_atom_site_fract_x
_atom_site_fract_y
_atom_site_fract_z
Si Si1 0.691529 0.614320 0.795722
Si Si2 0.861972 0.745842 0.558174
Si Si3 0.640020 0.259628 0.052556
Si Si4 0.903094 0.389171 0.306749
Si Si5 0.138663 0.884119 0.697763
Si Si6 0.486954 0.609553 0.335351
Si Si7 0.565036 0.776122 0.806489
Si Si8 0.021417 0.885689 0.666471
O O1 0.750000 0.611889 0.798034
O O2 0.674683 0.500000 0.801084
O O3 0.673030 0.673791 0.650240
O O4 0.672482 0.682439 0.931977
O O5 0.894043 0.674041 0.454530
O O6 0.839941 0.825169 0.444253
O O7 0.895866 0.803185 0.677322
O O8 0.626657 0.339318 0.175838
O O9 0.657719 0.167550 0.150781
O O10 0.592245 0.221729 0.962899
O O11 0.888816 0.500000 0.333947
O O12 0.959913 0.388585 0.260164
O O13 0.079243 0.864768 0.685238
O O14 0.145951 0.000000 0.693775
O O15 0.500000 0.650204 0.500000
O O16 0.470117 0.500000 0.359986
O O17 0.448566 0.666239 0.237302
O O18 0.514425 0.832009 0.781933
O O19 0.000000 0.864243 0.500000
O O20 0.015802 0.000000 0.688907
#
# Coordination Sequence:
#
# PCOD9400008 Si02
#       8
#     8   8   8   8   8   8   8   8
#     4  10  22  42  66  90 114 138 173 230 296 360
#     4  10  19  33  59  84 105 142 186 234 285 334
#     4  10  23  36  54  81 112 153 187 226 286 346
#     4  10  19  32  48  73 109 145 187 229 271 332
#     4  10  21  38  57  83 120 158 197 239 278 323
#     4  10  19  28  43  69 104 150 193 230 272 318
#     4  11  19  31  49  73 108 146 191 236 273 317
#     4  10  19  31  52  80 110 150 201 247 282 309
#
# _framework density 19.029229999999998
#
# number of rings (size 3 to 8) (size 9 to 14) (size 15 to 20)
#    0.000    1.875    2.500    2.625    0.000    5.000 
#    0.000    6.875    0.000    9.000    0.000    0.000 
#    0.000    0.000    0.000    0.000    0.000    0.000 
#
# Total GULP energy -356743.164071 kJ/mol
# GULP energy per Si atom -5574.111939 kJ/mol
# Density = 1.898592 g / cm^3
# Si number density = 19.029230 Si / 1000 Ang^3
#
#
#
# Elastic Constant Matrix: (Units=GPa)
#
#
# Indices 1 2 3 4 5 6 
#
# 1 36.1050 16.9236 17.1584 0.0000 0.0000 0.0000
# 2 16.9236 133.7338 46.0458 0.0000 0.0000 0.0000
# 3 17.1584 46.0458 80.8949 0.0000 0.0000 0.0000
# 4 0.0000 0.0000 0.0000 18.0230 0.0000 0.0000
# 5 0.0000 0.0000 0.0000 0.0000 10.9379 0.0000
# 6 0.0000 0.0000 0.0000 0.0000 0.0000 21.7758
#
#
#
# Elastic Compliance Matrix: (Units=1/GPa)
#
#
# Indices 1 2 3 4 5 6 
#
# 1 0.031261 -0.002081 -0.005446 0.000000 0.000000 0.000000
# 2 -0.002081 0.009439 -0.004931 0.000000 0.000000 0.000000
# 3 -0.005446 -0.004931 0.016324 0.000000 0.000000 0.000000
# 4 0.000000 0.000000 0.000000 0.055485 0.000000 0.000000
# 5 0.000000 0.000000 0.000000 0.000000 0.091425 0.000000
# 6 0.000000 0.000000 0.000000 0.000000 0.000000 0.045923
#
#
# Mechanical properties :
#
#
# Convention : Reuss Voigt Hill
#
# Bulk Modulus (GPa) = 31.14616 45.66547 38.40582
# Shear Modulus (GPa) = 17.51474 21.52107 19.51790
#
# Velocity S-wave (km/s) = 3.03712 3.36661 3.20610
# Velocity P-wave (km/s) = 5.35741 6.25793 5.82510
#
# Compressibility (1/GPa) = 0.03210668
#
# Stress axis : x y z
#
# Youngs Moduli (GPa) = 31.98914 105.94655 61.26027
#
# Poissons Ratio (x) = 0.22045 0.33364
# Poissons Ratio (y) = 0.06656 0.30209
# Poissons Ratio (z) = 0.17422 0.52245
#
# Static dielectric constant tensor:
#      x y z
#    x 1.670720 0.000000 0.000000 
#    y 0.000000 1.689070 0.000000 
#    z 0.000000 0.000000 1.690200 
# 
# From -- ./inp_files/13279.got.cif
#   From: 2010.05.17/outbox.cif.g08.bks.cpg/sg51_7_cif.got.tgz:13279.got - 2010.06.03 11:52:47.
