data_PCOD9400405
_publ_section_title
;
Structure prediction by ZEFSAII (Michael W. Deem and Ramdas Pophale) SiO2 
 PCOD9400405
Probable space group: P M M A
;
_chemical_formula_sum "Si O2"
_cell_formula_units_Z 56
_cell_length_a 8.458363
_cell_length_b 19.695799
_cell_length_c 19.253225
_cell_angle_alpha 90.000000
_cell_angle_beta 90.000000
_cell_angle_gamma 90.000000
_cell_volume 3207.475954
_symmetry_space_group_name_H-M "P M M A"
_symmetry_group_IT_number 51
_symmetry_cell_setting 'orthorhombic'
loop_
_space_group_symop_operation_xyz
x,y,z
1/2-x,-y,z
1/2+x,-y,-z
-x,y,-z
-x,-y,-z
1/2+x,y,-z
1/2-x,y,z
x,-y,z
loop_
_atom_site_type_symbol
_atom_site_label
_atom_site_fract_x
_atom_site_fract_y
_atom_site_fract_z
Si Si1 0.060735 0.290522 0.340866
Si Si2 0.561588 0.283647 0.078458
Si Si3 0.939563 0.573203 0.920471
Si Si4 0.058934 0.791901 0.788951
Si Si5 0.942485 0.076319 0.291282
Si Si6 0.558789 0.422747 0.578179
Si Si7 0.560499 0.837600 0.423719
O O1 0.250000 0.291794 0.335408
O O2 0.006168 0.363978 0.368794
O O3 0.992557 0.263732 0.268009
O O4 0.010464 0.233393 0.396667
O O5 0.750000 0.282196 0.074703
O O6 0.510268 0.357397 0.107709
O O7 0.504732 0.228705 0.134325
O O8 0.500000 0.275298 0.000000
O O9 0.750000 0.578037 0.920662
O O10 0.984160 0.500000 0.888699
O O11 0.000000 0.571522 0.000000
O O12 0.250000 0.792824 0.788993
O O13 0.003853 0.865587 0.762366
O O14 0.750000 0.074766 0.288252
O O15 0.984363 0.105260 0.367271
O O16 0.999908 0.000000 0.279344
O O17 0.500000 0.408012 0.500000
O O18 0.750000 0.421748 0.577108
O O19 0.508478 0.500000 0.595885
O O20 0.500000 0.853513 0.500000
O O21 0.750000 0.831619 0.423415
#
# Coordination Sequence:
#
# PCOD9400405 Si02
#       7
#     8   8   8   8   8   8   8
#     4  10  19  31  49  69  92 125 160 196 240 285
#     4  10  19  31  49  72  97 125 157 195 238 282
#     4   9  16  26  42  65  92 121 152 186 225 269
#     4   9  19  34  51  72  96 121 153 193 234 281
#     4   8  15  30  51  71  92 122 157 191 230 276
#     4   9  18  31  46  66  91 121 160 202 239 274
#     4  10  19  30  46  70  99 127 158 195 232 274
#
# _framework density 17.459209999999999
#
# number of rings (size 3 to 8) (size 9 to 14) (size 15 to 20)
#    0.000    2.714    0.000    3.857    0.000    4.571 
#    0.000    0.714    0.000   13.286    0.000    0.000 
#    0.000    0.000    0.000    0.000    0.000    0.571 
#
# Total GULP energy -311998.654538 kJ/mol
# GULP energy per Si atom -5571.404545 kJ/mol
# Density = 1.741947 g / cm^3
# Si number density = 17.459210 Si / 1000 Ang^3
#
#
#
# Elastic Constant Matrix: (Units=GPa)
#
#
# Indices 1 2 3 4 5 6 
#
# 1 15.2597 14.9643 14.3869 0.0000 0.0000 0.0000
# 2 14.9643 144.7163 78.1724 0.0000 0.0000 0.0000
# 3 14.3869 78.1724 99.7350 0.0000 0.0000 0.0000
# 4 0.0000 0.0000 0.0000 9.7794 0.0000 0.0000
# 5 0.0000 0.0000 0.0000 0.0000 19.5736 0.0000
# 6 0.0000 0.0000 0.0000 0.0000 0.0000 15.6973
#
#
#
# Elastic Compliance Matrix: (Units=1/GPa)
#
#
# Indices 1 2 3 4 5 6 
#
# 1 0.076797 -0.003394 -0.008418 0.000000 0.000000 0.000000
# 2 -0.003394 0.012134 -0.009021 0.000000 0.000000 0.000000
# 3 -0.008418 -0.009021 0.018312 0.000000 0.000000 0.000000
# 4 0.000000 0.000000 0.000000 0.102256 0.000000 0.000000
# 5 0.000000 0.000000 0.000000 0.000000 0.051089 0.000000
# 6 0.000000 0.000000 0.000000 0.000000 0.000000 0.063705
#
#
# Mechanical properties :
#
#
# Convention : Reuss Voigt Hill
#
# Bulk Modulus (GPa) = 15.24937 52.75091 34.00014
# Shear Modulus (GPa) = 12.89268 19.15590 16.02429
#
# Velocity S-wave (km/s) = 2.72038 3.31596 3.03283
# Velocity P-wave (km/s) = 4.31515 6.70375 5.63741
#
# Compressibility (1/GPa) = 0.06557650
#
# Stress axis : x y z
#
# Youngs Moduli (GPa) = 13.02140 82.41315 54.61029
#
# Poissons Ratio (x) = 0.27971 0.45970
# Poissons Ratio (y) = 0.04419 0.49264
# Poissons Ratio (z) = 0.10961 0.74345
#
# Static dielectric constant tensor:
#      x y z
#    x 1.599140 0.000000 0.000000 
#    y 0.000000 1.625150 0.000000 
#    z 0.000000 0.000000 1.565290 
# 
# From -- ./inp_files/32258.got.cif
#   From: 2010.05.17/outbox.cif.g08.bks.cpg/sg51_17_cif.got.tgz:32258.got - 2010.06.03 11:52:47.
