data_PCOD9400112
_publ_section_title
;
Structure prediction by ZEFSAII (Michael W. Deem and Ramdas Pophale) SiO2 
 PCOD9400112
Probable space group: P M M A
;
_chemical_formula_sum "Si O2"
_cell_formula_units_Z 56
_cell_length_a 9.011878
_cell_length_b 20.485442
_cell_length_c 15.551540
_cell_angle_alpha 90.000000
_cell_angle_beta 90.000000
_cell_angle_gamma 90.000000
_cell_volume 2871.005631
_symmetry_space_group_name_H-M "P M M A"
_symmetry_group_IT_number 51
_symmetry_cell_setting 'orthorhombic'
loop_
_space_group_symop_operation_xyz
x,y,z
1/2-x,-y,z
1/2+x,-y,-z
-x,y,-z
-x,-y,-z
1/2+x,y,-z
1/2-x,y,z
x,-y,z
loop_
_atom_site_type_symbol
_atom_site_label
_atom_site_fract_x
_atom_site_fract_y
_atom_site_fract_z
Si Si1 0.928825 0.665036 0.910337
Si Si2 0.925277 0.387425 0.589001
Si Si3 0.575350 0.893911 0.414088
Si Si4 0.071309 0.928326 0.778472
Si Si5 0.923094 0.201967 0.829019
Si Si6 0.580100 0.235172 0.628764
Si Si7 0.076114 0.575585 0.766221
O O1 0.750000 0.662143 0.912442
O O2 0.974237 0.740119 0.890967
O O3 0.989477 0.620844 0.833098
O O4 0.000000 0.643761 0.000000
O O5 0.750000 0.402209 0.589880
O O6 0.941925 0.308736 0.598048
O O7 0.000000 0.408506 0.500000
O O8 0.005429 0.416776 0.671983
O O9 0.500000 0.920347 0.500000
O O10 0.750000 0.903919 0.419899
O O11 0.523505 0.921768 0.321973
O O12 0.534416 0.817149 0.407903
O O13 0.250000 0.924785 0.778932
O O14 0.008621 0.866229 0.828599
O O15 0.026112 0.000000 0.810373
O O16 0.750000 0.189061 0.845477
O O17 0.934056 0.231138 0.732125
O O18 0.750000 0.214957 0.607209
O O19 0.250000 0.593956 0.763480
O O20 0.065237 0.500000 0.792658
#
# Coordination Sequence:
#
# PCOD9400112 Si02
#       7
#     8   8   8   8   8   8   8
#     4  11  23  42  68  99 128 157 195 244 300 365
#     4  11  22  37  58  86 120 162 208 256 305 358
#     4  10  19  29  43  67 100 142 189 240 294 346
#     4   9  19  34  51  75 108 148 194 240 292 353
#     4   9  18  35  58  85 116 148 189 239 291 349
#     4   9  17  32  52  76 107 144 189 241 295 347
#     4  11  25  44  65  91 124 163 206 251 302 360
#
# _framework density 19.505361000000001
#
# number of rings (size 3 to 8) (size 9 to 14) (size 15 to 20)
#    0.000    2.000    1.429    2.143    0.000    6.286 
#    0.000    0.000    0.000    0.429    0.000    0.000 
#    0.000    0.000    0.000    0.000    0.000    0.000 
#
# Total GULP energy -312759.363338 kJ/mol
# GULP energy per Si atom -5584.988631 kJ/mol
# Density = 1.946097 g / cm^3
# Si number density = 19.505361 Si / 1000 Ang^3
#
#
#
# Elastic Constant Matrix: (Units=GPa)
#
#
# Indices 1 2 3 4 5 6 
#
# 1 68.5952 43.0088 34.7718 0.0000 0.0000 0.0000
# 2 43.0088 82.7786 34.2240 0.0000 0.0000 0.0000
# 3 34.7718 34.2240 84.8669 0.0000 0.0000 0.0000
# 4 0.0000 0.0000 0.0000 -4.3121 0.0000 0.0000
# 5 0.0000 0.0000 0.0000 0.0000 26.5843 0.0000
# 6 0.0000 0.0000 0.0000 0.0000 0.0000 22.3862
#
#
#
# Elastic Compliance Matrix: (Units=1/GPa)
#
#
# Indices 1 2 3 4 5 6 
#
# 1 0.023715 -0.009966 -0.005698 0.000000 0.000000 0.000000
# 2 -0.009966 0.018686 -0.003452 0.000000 0.000000 0.000000
# 3 -0.005698 -0.003452 0.015510 0.000000 0.000000 0.000000
# 4 0.000000 0.000000 0.000000 -0.231906 0.000000 0.000000
# 5 0.000000 0.000000 0.000000 0.000000 0.037616 0.000000
# 6 0.000000 0.000000 0.000000 0.000000 0.000000 0.044670
#
#
# Mechanical properties :
#
#
# Convention : Reuss Voigt Hill
#
# Bulk Modulus (GPa) = 50.81513 51.13888 50.97700
# Shear Modulus (GPa) = -106.56718 17.21408 -44.67655
#
# Velocity S-wave (km/s) = -7.39956 2.97396 -4.79108
# Velocity P-wave (km/s) = 6.84807 6.16988 2.10104
#
# Compressibility (1/GPa) = 0.01967918
#
# Stress axis : x y z
#
# Youngs Moduli (GPa) = 42.16735 53.51739 64.47575
#
# Poissons Ratio (x) = 0.53334 0.36736
# Poissons Ratio (y) = 0.42023 0.22257
# Poissons Ratio (z) = 0.24026 0.18474
#
# Static dielectric constant tensor:
#      x y z
#    x 1.659190 0.000000 0.000000 
#    y 0.000000 1.693190 0.000000 
#    z 0.000000 0.000000 1.682610 
# 
# From -- ./inp_files/21828.got.cif
#   From: 2010.05.17/outbox.cif.g08.bks.cpg/sg51_11_cif.got.tgz:21828.got - 2010.06.03 11:52:47.
