data_PCOD9400729
_publ_section_title
;
Structure prediction by ZEFSAII (Michael W. Deem and Ramdas Pophale) SiO2 
 PCOD9400729
Probable space group: P M M A
;
_chemical_formula_sum "Si O2"
_cell_formula_units_Z 48
_cell_length_a 7.656671
_cell_length_b 13.353800
_cell_length_c 18.892268
_cell_angle_alpha 90.000000
_cell_angle_beta 90.000000
_cell_angle_gamma 90.000000
_cell_volume 1931.652282
_symmetry_space_group_name_H-M "P M M A"
_symmetry_group_IT_number 51
_symmetry_cell_setting 'orthorhombic'
loop_
_space_group_symop_operation_xyz
x,y,z
1/2-x,-y,z
1/2+x,-y,-z
-x,y,-z
-x,-y,-z
1/2+x,y,-z
1/2-x,y,z
x,-y,z
loop_
_atom_site_type_symbol
_atom_site_label
_atom_site_fract_x
_atom_site_fract_y
_atom_site_fract_z
Si Si1 0.045302 0.893326 0.613634
Si Si2 0.958559 0.676162 0.423120
Si Si3 0.042101 0.826908 0.232111
Si Si4 0.953182 0.392036 0.728558
Si Si5 0.042765 0.171876 0.919205
Si Si6 0.040376 0.394301 0.917479
O O1 0.250000 0.894849 0.595506
O O2 0.972178 0.790898 0.581465
O O3 0.030660 0.881894 0.698776
O O4 0.966680 0.000000 0.592147
O O5 0.750000 0.676514 0.412825
O O6 0.000000 0.634172 0.500000
O O7 0.037699 0.621227 0.355878
O O8 0.250000 0.822701 0.241457
O O9 0.971294 0.711204 0.239128
O O10 0.005895 0.877166 0.155875
O O11 0.750000 0.394777 0.749873
O O12 0.036499 0.500000 0.744194
O O13 0.250000 0.177824 0.919936
O O14 0.965489 0.283573 0.905495
O O15 0.000000 0.137749 0.000000
O O16 0.250000 0.391909 0.905862
O O17 0.972143 0.500000 0.886765
O O18 0.000000 0.402572 0.000000
#
# Coordination Sequence:
#
# PCOD9400729 Si02
#       6
#     8   8   8   8   8   8
#     4   9  19  37  59  81 106 138 175 214 260 316
#     4  10  20  34  54  82 114 145 178 218 262 309
#     4  10  20  34  53  78 106 136 175 222 269 320
#     4   9  19  36  55  75 104 145 189 228 265 307
#     4  10  19  31  48  70  98 133 172 216 268 322
#     4   8  14  24  37  55  81 114 153 196 241 290
#
# _framework density 24.849191000000001
#
# number of rings (size 3 to 8) (size 9 to 14) (size 15 to 20)
#    0.000    2.667    0.000    1.500    0.000    4.000 
#    0.000    0.000    0.000    4.500    0.000    0.000 
#    0.000    0.000    0.000    0.000    0.000    0.000 
#
# Total GULP energy -267651.566533 kJ/mol
# GULP energy per Si atom -5576.074303 kJ/mol
# Density = 2.479263 g / cm^3
# Si number density = 24.849191 Si / 1000 Ang^3
#
#
#
# Elastic Constant Matrix: (Units=GPa)
#
#
# Indices 1 2 3 4 5 6 
#
# 1 75.8933 0.1737 -20.2630 0.0000 0.0000 0.0000
# 2 0.1737 88.9097 -0.4344 0.0000 0.0000 0.0000
# 3 -20.2630 -0.4344 160.2344 0.0000 0.0000 0.0000
# 4 0.0000 0.0000 0.0000 -15.9536 0.0000 0.0000
# 5 0.0000 0.0000 0.0000 0.0000 20.0168 0.0000
# 6 0.0000 0.0000 0.0000 0.0000 0.0000 1.5348
#
#
#
# Elastic Compliance Matrix: (Units=1/GPa)
#
#
# Indices 1 2 3 4 5 6 
#
# 1 0.013637 -0.000018 0.001724 0.000000 0.000000 0.000000
# 2 -0.000018 0.011248 0.000028 0.000000 0.000000 0.000000
# 3 0.001724 0.000028 0.006459 0.000000 0.000000 0.000000
# 4 0.000000 0.000000 0.000000 -0.062682 0.000000 0.000000
# 5 0.000000 0.000000 0.000000 0.000000 0.049958 0.000000
# 6 0.000000 0.000000 0.000000 0.000000 0.000000 0.651565
#
#
# Mechanical properties :
#
#
# Convention : Reuss Voigt Hill
#
# Bulk Modulus (GPa) = 28.72554 31.55445 30.13999
# Shear Modulus (GPa) = 7.37115 24.15700 15.76407
#
# Velocity S-wave (km/s) = 1.72418 3.12131 2.52144
# Velocity P-wave (km/s) = 3.94319 5.07110 4.54229
#
# Compressibility (1/GPa) = 0.03481223
#
# Stress axis : x y z
#
# Youngs Moduli (GPa) = 73.33068 88.90836 154.82261
#
# Poissons Ratio (x) = 0.00162 -0.26698
# Poissons Ratio (y) = 0.00134 -0.00436
# Poissons Ratio (z) = -0.12645 -0.00251
#
# Static dielectric constant tensor:
#      x y z
#    x 1.905110 0.000000 0.000000 
#    y 0.000000 2.050880 0.000000 
#    z 0.000000 0.000000 1.910910 
# 
# From -- ./inp_files/27541.got.cif
#   From: 2010.05.17/outbox.cif.g08.bks.cpg/sg51_14_cif.got.tgz:27541.got - 2010.06.03 11:52:47.
