data_PCOD9400108
_publ_section_title
;
Structure prediction by ZEFSAII (Michael W. Deem and Ramdas Pophale) SiO2 
 PCOD9400108
Probable space group: P M M A
;
_chemical_formula_sum "Si O2"
_cell_formula_units_Z 48
_cell_length_a 26.360278
_cell_length_b 7.716041
_cell_length_c 12.474753
_cell_angle_alpha 90.000000
_cell_angle_beta 90.000000
_cell_angle_gamma 90.000000
_cell_volume 2537.327159
_symmetry_space_group_name_H-M "P M M A"
_symmetry_group_IT_number 51
_symmetry_cell_setting 'orthorhombic'
loop_
_space_group_symop_operation_xyz
x,y,z
1/2-x,-y,z
1/2+x,-y,-z
-x,y,-z
-x,-y,-z
1/2+x,y,-z
1/2-x,y,z
x,-y,z
loop_
_atom_site_type_symbol
_atom_site_label
_atom_site_fract_x
_atom_site_fract_y
_atom_site_fract_z
Si Si1 0.891573 0.706106 0.657393
Si Si2 0.028827 0.294536 0.160947
Si Si3 0.385745 0.210281 0.996906
Si Si4 0.192508 0.791501 0.177289
Si Si5 0.919597 0.197848 0.221449
Si Si6 0.447269 0.202750 0.548738
O O1 0.895369 0.500000 0.647576
O O2 0.935255 0.764029 0.740755
O O3 0.838853 0.748679 0.715360
O O4 0.904854 0.783955 0.542711
O O5 0.019197 0.500000 0.170419
O O6 0.062182 0.263295 0.055724
O O7 0.024069 0.198788 0.829127
O O8 0.385615 0.274645 0.874370
O O9 0.384530 0.000000 0.994280
O O10 0.340776 0.271135 0.075646
O O11 0.250000 0.726083 0.177958
O O12 0.194124 0.000000 0.169569
O O13 0.927787 0.279617 0.338761
O O14 0.901802 0.000000 0.238011
O O15 0.500000 0.277327 0.500000
O O16 0.458183 0.000000 0.571488
#
# Coordination Sequence:
#
# PCOD9400108 Si02
#       6
#     8   8   8   8   8   8
#     4  10  20  32  48  72 100 129 162 203 246 287
#     4  10  19  29  43  66  97 129 161 197 235 282
#     4   9  18  31  47  68  94 122 156 197 243 293
#     4   9  18  34  56  76  93 118 155 201 250 296
#     4  10  19  30  45  66  95 132 166 196 235 282
#     4  10  19  31  48  68  96 136 175 205 235 282
#
# _framework density 18.917545
#
# number of rings (size 3 to 8) (size 9 to 14) (size 15 to 20)
#    0.000    2.333    1.667    1.500    0.000    5.333 
#    0.000    0.000    0.000    1.000    0.000    4.667 
#    0.000    0.000    0.000    0.000    0.000    0.000 
#
# Total GULP energy -267679.680714 kJ/mol
# GULP energy per Si atom -5576.660015 kJ/mol
# Density = 1.887449 g / cm^3
# Si number density = 18.917545 Si / 1000 Ang^3
#
#
#
# Elastic Constant Matrix: (Units=GPa)
#
#
# Indices 1 2 3 4 5 6 
#
# 1 79.8784 -2.6412 46.4317 0.0000 0.0000 0.0000
# 2 -2.6412 35.7873 -0.8990 0.0000 0.0000 0.0000
# 3 46.4317 -0.8990 170.6351 0.0000 0.0000 0.0000
# 4 0.0000 0.0000 0.0000 -3.2447 0.0000 0.0000
# 5 0.0000 0.0000 0.0000 0.0000 10.0432 0.0000
# 6 0.0000 0.0000 0.0000 0.0000 0.0000 213.9426
#
#
#
# Elastic Compliance Matrix: (Units=1/GPa)
#
#
# Indices 1 2 3 4 5 6 
#
# 1 0.014907 0.000998 -0.004051 0.000000 0.000000 0.000000
# 2 0.000998 0.028013 -0.000124 0.000000 0.000000 0.000000
# 3 -0.004051 -0.000124 0.006962 0.000000 0.000000 0.000000
# 4 0.000000 0.000000 0.000000 -0.308193 0.000000 0.000000
# 5 0.000000 0.000000 0.000000 0.000000 0.099570 0.000000
# 6 0.000000 0.000000 0.000000 0.000000 0.000000 0.004674
#
#
# Mechanical properties :
#
#
# Convention : Reuss Voigt Hill
#
# Bulk Modulus (GPa) = 22.97320 41.34263 32.15791
# Shear Modulus (GPa) = -37.53663 60.37549 11.41943
#
# Velocity S-wave (km/s) = -4.45929 5.65547 2.45958
# Velocity P-wave (km/s) = 3.78728 8.03414 5.01018
#
# Compressibility (1/GPa) = 0.04352899
#
# Stress axis : x y z
#
# Youngs Moduli (GPa) = 67.08327 35.69710 143.63390
#
# Poissons Ratio (x) = -0.03564 0.58187
# Poissons Ratio (y) = -0.06698 0.01782
# Poissons Ratio (z) = 0.27176 0.00443
#
# Static dielectric constant tensor:
#      x y z
#    x 1.632890 0.000000 0.000000 
#    y 0.000000 1.692400 0.000000 
#    z 0.000000 0.000000 1.712080 
# 
# From -- ./inp_files/19273.got.cif
#   From: 2010.05.17/outbox.cif.g08.bks.cpg/sg51_10_cif.got.tgz:19273.got - 2010.06.03 11:52:47.
