data_PCOD9400793
_publ_section_title
;
Structure prediction by ZEFSAII (Michael W. Deem and Ramdas Pophale) SiO2 
 PCOD9400793
Probable space group: P M M A
;
_chemical_formula_sum "Si O2"
_cell_formula_units_Z 56
_cell_length_a 19.885436
_cell_length_b 9.033447
_cell_length_c 18.309637
_cell_angle_alpha 90.000000
_cell_angle_beta 90.000000
_cell_angle_gamma 90.000000
_cell_volume 3289.033922
_symmetry_space_group_name_H-M "P M M A"
_symmetry_group_IT_number 51
_symmetry_cell_setting 'orthorhombic'
loop_
_space_group_symop_operation_xyz
x,y,z
1/2-x,-y,z
1/2+x,-y,-z
-x,y,-z
-x,-y,-z
1/2+x,y,-z
1/2-x,y,z
x,-y,z
loop_
_atom_site_type_symbol
_atom_site_label
_atom_site_fract_x
_atom_site_fract_y
_atom_site_fract_z
Si Si1 0.066415 0.669680 0.345866
Si Si2 0.537993 0.678587 0.813577
Si Si3 0.608028 0.822954 0.214086
Si Si4 0.073474 0.824743 0.036876
Si Si5 0.171573 0.327073 0.921517
Si Si6 0.918377 0.169639 0.509005
Si Si7 0.596681 0.330037 0.362866
O O1 0.087868 0.500000 0.356218
O O2 0.077188 0.714129 0.261801
O O3 0.095857 0.768295 0.410455
O O4 0.984939 0.672202 0.354775
O O5 0.529725 0.500000 0.816355
O O6 0.465097 0.755916 0.807039
O O7 0.572315 0.741012 0.885899
O O8 0.658165 0.754098 0.155129
O O9 0.623216 0.767995 0.296049
O O10 0.606062 0.000000 0.210062
O O11 0.085289 0.000000 0.046422
O O12 0.126972 0.753243 0.982307
O O13 0.000000 0.807158 0.000000
O O14 0.250000 0.319599 0.940142
O O15 0.151858 0.500000 0.915391
O O16 0.888908 0.265681 0.442833
O O17 0.000000 0.174811 0.500000
O O18 0.897699 0.000000 0.501655
O O19 0.618252 0.500000 0.355451
#
# Coordination Sequence:
#
# PCOD9400793 Si02
#       7
#     8   8   8   8   8   8   8
#     4   8  15  25  37  57  86 122 160 197 242 290
#     4  10  19  31  49  71  97 131 169 210 251 301
#     4  11  20  31  48  71  98 127 164 208 254 302
#     4  11  22  35  54  80 104 132 169 213 263 313
#     4  11  24  40  57  76 100 134 173 212 258 312
#     4   9  15  22  34  55  84 120 158 197 242 289
#     4   9  16  26  40  58  85 123 163 200 238 288
#
# _framework density 17.026277
#
# number of rings (size 3 to 8) (size 9 to 14) (size 15 to 20)
#    0.000    2.143    1.429    4.286    0.000    7.429 
#    0.000    0.000    0.000    0.000    0.000    0.000 
#    0.000    1.143    0.000   10.000    0.000    7.143 
#
# Total GULP energy -312317.357534 kJ/mol
# GULP energy per Si atom -5577.095670 kJ/mol
# Density = 1.698752 g / cm^3
# Si number density = 17.026277 Si / 1000 Ang^3
#
#
#
# Elastic Constant Matrix: (Units=GPa)
#
#
# Indices 1 2 3 4 5 6 
#
# 1 26.6939 28.0824 22.8800 0.0000 0.0000 0.0000
# 2 28.0824 132.4890 76.3271 0.0000 0.0000 0.0000
# 3 22.8800 76.3271 145.5823 0.0000 0.0000 0.0000
# 4 0.0000 0.0000 0.0000 29.6224 0.0000 0.0000
# 5 0.0000 0.0000 0.0000 0.0000 8.6125 0.0000
# 6 0.0000 0.0000 0.0000 0.0000 0.0000 8.3526
#
#
#
# Elastic Compliance Matrix: (Units=1/GPa)
#
#
# Indices 1 2 3 4 5 6 
#
# 1 0.049262 -0.008570 -0.003249 0.000000 0.000000 0.000000
# 2 -0.008570 0.012305 -0.005105 0.000000 0.000000 0.000000
# 3 -0.003249 -0.005105 0.010056 0.000000 0.000000 0.000000
# 4 0.000000 0.000000 0.000000 0.033758 0.000000 0.000000
# 5 0.000000 0.000000 0.000000 0.000000 0.116111 0.000000
# 6 0.000000 0.000000 0.000000 0.000000 0.000000 0.119724
#
#
# Mechanical properties :
#
#
# Convention : Reuss Voigt Hill
#
# Bulk Modulus (GPa) = 26.47168 62.14936 44.31052
# Shear Modulus (GPa) = 12.89807 21.14920 17.02364
#
# Velocity S-wave (km/s) = 2.75533 3.52824 3.16546
# Velocity P-wave (km/s) = 5.06989 7.29241 6.28025
#
# Compressibility (1/GPa) = 0.03777622
#
# Stress axis : x y z
#
# Youngs Moduli (GPa) = 20.29952 81.26794 99.44478
#
# Poissons Ratio (x) = 0.69645 0.32311
# Poissons Ratio (y) = 0.17396 0.50762
# Poissons Ratio (z) = 0.06596 0.41483
#
# Static dielectric constant tensor:
#      x y z
#    x 1.514850 0.000000 0.000000 
#    y 0.000000 1.569330 0.000000 
#    z 0.000000 0.000000 1.590660 
# 
# From -- ./inp_files/30435.got.cif
#   From: 2010.05.17/outbox.cif.g08.bks.cpg/sg51_16_cif.got.tgz:30435.got - 2010.06.03 11:52:47.
