data_PCOD9400758
_publ_section_title
;
Structure prediction by ZEFSAII (Michael W. Deem and Ramdas Pophale) SiO2 
 PCOD9400758
Probable space group: P M M A
;
_chemical_formula_sum "Si O2"
_cell_formula_units_Z 40
_cell_length_a 8.725603
_cell_length_b 26.272287
_cell_length_c 10.144958
_cell_angle_alpha 90.000000
_cell_angle_beta 90.000000
_cell_angle_gamma 90.000000
_cell_volume 2325.645859
_symmetry_space_group_name_H-M "P M M A"
_symmetry_group_IT_number 51
_symmetry_cell_setting 'orthorhombic'
loop_
_space_group_symop_operation_xyz
x,y,z
1/2-x,-y,z
1/2+x,-y,-z
-x,y,-z
-x,-y,-z
1/2+x,y,-z
1/2-x,y,z
x,-y,z
loop_
_atom_site_type_symbol
_atom_site_label
_atom_site_fract_x
_atom_site_fract_y
_atom_site_fract_z
Si Si1 0.566150 0.863369 0.144193
Si Si2 0.066147 0.444396 0.351288
Si Si3 0.434146 0.339100 0.647965
Si Si4 0.565496 0.253721 0.143819
Si Si5 0.566545 0.058700 0.644998
O O1 0.750000 0.866133 0.141211
O O2 0.521112 0.804707 0.174376
O O3 0.501375 0.902154 0.250761
O O4 0.500000 0.875424 0.000000
O O5 0.250000 0.439576 0.356538
O O6 0.029212 0.500000 0.291123
O O7 0.000000 0.445847 0.500000
O O8 0.994068 0.392986 0.294643
O O9 0.500000 0.332983 0.500000
O O10 0.250000 0.340601 0.639591
O O11 0.482435 0.293139 0.743285
O O12 0.750000 0.255344 0.136269
O O13 0.500000 0.266765 0.000000
O O14 0.500000 0.068970 0.500000
O O15 0.750000 0.062856 0.641647
O O16 0.526756 0.000000 0.678866
#
# Coordination Sequence:
#
# PCOD9400758 Si02
#       5
#     8   8   8   8   8
#     4  10  20  36  56  78 104 134 172 213 253 300
#     4   9  16  26  42  66  95 126 160 199 244 291
#     4  10  19  31  48  73 101 128 163 203 245 294
#     4   9  20  36  53  74 100 132 168 206 249 297
#     4  10  21  37  56  79 107 138 171 208 253 302
#
# _framework density 17.199522000000002
#
# number of rings (size 3 to 8) (size 9 to 14) (size 15 to 20)
#    0.000    2.400    0.000    3.600    0.000    6.000 
#    0.000    2.000    0.000    0.600    0.000    0.000 
#    0.000    0.000    0.000    0.000    0.000    0.000 
#
# Total GULP energy -223021.864281 kJ/mol
# GULP energy per Si atom -5575.546607 kJ/mol
# Density = 1.716038 g / cm^3
# Si number density = 17.199522 Si / 1000 Ang^3
#
#
#
# Elastic Constant Matrix: (Units=GPa)
#
#
# Indices 1 2 3 4 5 6 
#
# 1 56.6711 54.2436 40.6200 0.0000 0.0000 0.0000
# 2 54.2436 158.8398 110.7478 0.0000 0.0000 0.0000
# 3 40.6200 110.7478 98.5053 0.0000 0.0000 0.0000
# 4 0.0000 0.0000 0.0000 -9.7365 0.0000 0.0000
# 5 0.0000 0.0000 0.0000 0.0000 28.3968 0.0000
# 6 0.0000 0.0000 0.0000 0.0000 0.0000 28.4293
#
#
#
# Elastic Compliance Matrix: (Units=1/GPa)
#
#
# Indices 1 2 3 4 5 6 
#
# 1 0.026470 -0.006612 -0.003481 0.000000 0.000000 0.000000
# 2 -0.006612 0.030782 -0.031882 0.000000 0.000000 0.000000
# 3 -0.003481 -0.031882 0.047431 0.000000 0.000000 0.000000
# 4 0.000000 0.000000 0.000000 -0.102706 0.000000 0.000000
# 5 0.000000 0.000000 0.000000 0.000000 0.035215 0.000000
# 6 0.000000 0.000000 0.000000 0.000000 0.000000 0.035175
#
#
# Mechanical properties :
#
#
# Convention : Reuss Voigt Hill
#
# Bulk Modulus (GPa) = 48.23112 80.58211 64.40661
# Shear Modulus (GPa) = 30.63186 16.64491 23.63839
#
# Velocity S-wave (km/s) = 4.22473 3.11425 3.71126
# Velocity P-wave (km/s) = 7.20422 7.73851 7.47614
#
# Compressibility (1/GPa) = 0.02073350
#
# Stress axis : x y z
#
# Youngs Moduli (GPa) = 37.77880 32.48602 21.08318
#
# Poissons Ratio (x) = 0.21480 0.07340
# Poissons Ratio (y) = 0.24980 0.67216
# Poissons Ratio (z) = 0.13152 1.03571
#
# Static dielectric constant tensor:
#      x y z
#    x 1.577080 0.000000 0.000000 
#    y 0.000000 1.617660 0.000000 
#    z 0.000000 0.000000 1.544330 
# 
# From -- ./inp_files/5259.got.cif
#   From: 2010.05.17/outbox.cif.g08.bks.cpg/sg51_3_cif.got.tgz:5259.got - 2010.06.03 11:52:47.
