data_PCOD9400575
_publ_section_title
;
Structure prediction by ZEFSAII (Michael W. Deem and Ramdas Pophale) SiO2 
 PCOD9400575
Probable space group: P M M A
;
_chemical_formula_sum "Si O2"
_cell_formula_units_Z 52
_cell_length_a 8.774384
_cell_length_b 27.472792
_cell_length_c 13.982128
_cell_angle_alpha 90.000000
_cell_angle_beta 90.000000
_cell_angle_gamma 90.000000
_cell_volume 3370.487404
_symmetry_space_group_name_H-M "P M M A"
_symmetry_group_IT_number 51
_symmetry_cell_setting 'orthorhombic'
loop_
_space_group_symop_operation_xyz
x,y,z
1/2-x,-y,z
1/2+x,-y,-z
-x,y,-z
-x,-y,-z
1/2+x,y,-z
1/2-x,y,z
x,-y,z
loop_
_atom_site_type_symbol
_atom_site_label
_atom_site_fract_x
_atom_site_fract_y
_atom_site_fract_z
Si Si1 0.432647 0.758713 0.897520
Si Si2 0.067753 0.056001 0.894382
Si Si3 0.566205 0.294296 0.295894
Si Si4 0.066353 0.500000 0.606982
Si Si5 0.567560 0.852253 0.795728
Si Si6 0.568166 0.798563 0.601744
Si Si7 0.934367 0.606385 0.392744
O O1 0.250000 0.761346 0.902859
O O2 0.475379 0.721621 0.811893
O O3 0.497310 0.811133 0.865097
O O4 0.500000 0.745180 0.000000
O O5 0.250000 0.061104 0.898134
O O6 0.997967 0.095608 0.823733
O O7 0.031311 0.000000 0.868376
O O8 0.000000 0.064811 0.000000
O O9 0.750000 0.291475 0.302827
O O10 0.496485 0.253810 0.365958
O O11 0.517616 0.348002 0.328293
O O12 0.250000 0.500000 0.603124
O O13 0.020468 0.552883 0.647247
O O14 0.000000 0.500000 0.500000
O O15 0.750000 0.851849 0.805968
O O16 0.528670 0.835309 0.688057
O O17 0.500000 0.812719 0.500000
O O18 0.750000 0.795584 0.595161
O O19 0.750000 0.607488 0.399359
O O20 0.000000 0.611533 0.500000
#
# Coordination Sequence:
#
# PCOD9400575 Si02
#       7
#     8   8   8   4   8   8   8
#     4  10  19  31  46  64  88 116 145 180 219 261
#     4  10  20  33  50  72  96 121 148 180 219 261
#     4   9  18  30  44  63  87 115 147 181 218 260
#     4   8  14  24  38  56  81 110 140 174 211 254
#     4  10  20  33  49  69  92 119 149 180 216 259
#     4  10  20  32  47  67  91 119 150 182 217 257
#     4   9  16  26  40  60  85 113 143 175 213 256
#
# _framework density 15.428036000000001
#
# number of rings (size 3 to 8) (size 9 to 14) (size 15 to 20)
#    0.000    2.462    0.000    2.769    0.000    5.231 
#    0.000    0.000    0.000    0.462    0.000    0.538 
#    0.000    0.000    0.000    0.000    0.000    0.000 
#
# Total GULP energy -289865.001856 kJ/mol
# GULP energy per Si atom -5574.326959 kJ/mol
# Density = 1.539292 g / cm^3
# Si number density = 15.428036 Si / 1000 Ang^3
#
#
#
# Elastic Constant Matrix: (Units=GPa)
#
#
# Indices 1 2 3 4 5 6 
#
# 1 29.4196 37.4846 30.1666 0.0000 0.0000 0.0000
# 2 37.4846 142.9459 64.0837 0.0000 0.0000 0.0000
# 3 30.1666 64.0837 88.0190 0.0000 0.0000 0.0000
# 4 0.0000 0.0000 0.0000 19.8280 0.0000 0.0000
# 5 0.0000 0.0000 0.0000 0.0000 24.9569 0.0000
# 6 0.0000 0.0000 0.0000 0.0000 0.0000 17.6089
#
#
#
# Elastic Compliance Matrix: (Units=1/GPa)
#
#
# Indices 1 2 3 4 5 6 
#
# 1 0.060319 -0.009723 -0.013594 0.000000 0.000000 0.000000
# 2 -0.009723 0.011953 -0.005370 0.000000 0.000000 0.000000
# 3 -0.013594 -0.005370 0.019930 0.000000 0.000000 0.000000
# 4 0.000000 0.000000 0.000000 0.050434 0.000000 0.000000
# 5 0.000000 0.000000 0.000000 0.000000 0.040069 0.000000
# 6 0.000000 0.000000 0.000000 0.000000 0.000000 0.056790
#
#
# Mechanical properties :
#
#
# Convention : Reuss Voigt Hill
#
# Bulk Modulus (GPa) = 28.71306 58.20603 43.45955
# Shear Modulus (GPa) = 16.20868 21.05539 18.63203
#
# Velocity S-wave (km/s) = 3.24481 3.69826 3.47893
# Velocity P-wave (km/s) = 5.71750 7.48635 6.66090
#
# Compressibility (1/GPa) = 0.03482736
#
# Stress axis : x y z
#
# Youngs Moduli (GPa) = 16.57863 83.66280 50.17582
#
# Poissons Ratio (x) = 0.81346 0.68208
# Poissons Ratio (y) = 0.16120 0.26944
# Poissons Ratio (z) = 0.22537 0.44927
#
# Static dielectric constant tensor:
#      x y z
#    x 1.514050 0.000000 0.000000 
#    y 0.000000 1.527320 0.000000 
#    z 0.000000 0.000000 1.490600 
# 
# From -- ./inp_files/14602.got.cif
#   From: 2010.05.17/outbox.cif.g08.bks.cpg/sg51_8_cif.got.tgz:14602.got - 2010.06.03 11:52:47.
