data_PCOD9400909
_publ_section_title
;
Structure prediction by ZEFSAII (Michael W. Deem and Ramdas Pophale) SiO2 
 PCOD9400909
Probable space group: P M M A
;
_chemical_formula_sum "Si O2"
_cell_formula_units_Z 40
_cell_length_a 8.738928
_cell_length_b 26.569871
_cell_length_c 9.946175
_cell_angle_alpha 90.000000
_cell_angle_beta 90.000000
_cell_angle_gamma 90.000000
_cell_volume 2309.424152
_symmetry_space_group_name_H-M "P M M A"
_symmetry_group_IT_number 51
_symmetry_cell_setting 'orthorhombic'
loop_
_space_group_symop_operation_xyz
x,y,z
1/2-x,-y,z
1/2+x,-y,-z
-x,y,-z
-x,-y,-z
1/2+x,y,-z
1/2-x,y,z
x,-y,z
loop_
_atom_site_type_symbol
_atom_site_label
_atom_site_fract_x
_atom_site_fract_y
_atom_site_fract_z
Si Si1 0.566696 0.139768 0.849391
Si Si2 0.066227 0.354821 0.849334
Si Si3 0.933206 0.058076 0.352165
Si Si4 0.434516 0.557324 0.647306
Si Si5 0.933205 0.748505 0.848938
O O1 0.750000 0.135895 0.856885
O O2 0.500014 0.096771 0.754974
O O3 0.529709 0.195994 0.793452
O O4 0.500000 0.135641 0.000000
O O5 0.250000 0.353130 0.857444
O O6 0.018006 0.401542 0.756769
O O7 0.006101 0.301891 0.788833
O O8 0.000000 0.360064 0.000000
O O9 0.750000 0.062090 0.356029
O O10 0.000000 0.068508 0.500000
O O11 0.973135 0.000000 0.318315
O O12 0.500000 0.568746 0.500000
O O13 0.250000 0.558394 0.640230
O O14 0.481094 0.500000 0.682554
O O15 0.750000 0.743067 0.853346
O O16 0.000000 0.749800 0.000000
#
# Coordination Sequence:
#
# PCOD9400909 Si02
#       5
#     8   8   8   8   8
#     4  10  20  34  54  79 105 135 171 211 253 299
#     4  10  19  31  50  75 101 130 164 203 246 293
#     4  10  21  37  56  77 103 136 171 209 255 304
#     4   9  19  35  52  71  97 129 165 204 247 295
#     4   9  17  30  49  73 101 132 165 202 247 295
#
# _framework density 17.320335
#
# number of rings (size 3 to 8) (size 9 to 14) (size 15 to 20)
#    0.000    2.400    0.000    3.600    0.000    6.000 
#    0.000    1.000    0.000    2.400    0.000    0.000 
#    0.000    0.000    0.000    0.000    0.000    0.000 
#
# Total GULP energy -222999.987957 kJ/mol
# GULP energy per Si atom -5574.999699 kJ/mol
# Density = 1.728091 g / cm^3
# Si number density = 17.320335 Si / 1000 Ang^3
#
#
#
# Elastic Constant Matrix: (Units=GPa)
#
#
# Indices 1 2 3 4 5 6 
#
# 1 56.2236 58.8409 35.4437 0.0000 0.0000 0.0000
# 2 58.8409 177.7962 99.8687 0.0000 0.0000 0.0000
# 3 35.4437 99.8687 80.3492 0.0000 0.0000 0.0000
# 4 0.0000 0.0000 0.0000 -24.0737 0.0000 0.0000
# 5 0.0000 0.0000 0.0000 0.0000 28.7234 0.0000
# 6 0.0000 0.0000 0.0000 0.0000 0.0000 33.6816
#
#
#
# Elastic Compliance Matrix: (Units=1/GPa)
#
#
# Indices 1 2 3 4 5 6 
#
# 1 0.027386 -0.007546 -0.002702 0.000000 0.000000 0.000000
# 2 -0.007546 0.020713 -0.022416 0.000000 0.000000 0.000000
# 3 -0.002702 -0.022416 0.041499 0.000000 0.000000 0.000000
# 4 0.000000 0.000000 0.000000 -0.041539 0.000000 0.000000
# 5 0.000000 0.000000 0.000000 0.000000 0.034815 0.000000
# 6 0.000000 0.000000 0.000000 0.000000 0.000000 0.029690
#
#
# Mechanical properties :
#
#
# Convention : Reuss Voigt Hill
#
# Bulk Modulus (GPa) = 41.20116 78.07505 59.63811
# Shear Modulus (GPa) = 26.88436 15.68064 21.28250
#
# Velocity S-wave (km/s) = 3.94405 3.01214 3.50917
# Velocity P-wave (km/s) = 6.67683 7.56784 7.13626
#
# Compressibility (1/GPa) = 0.02427116
#
# Stress axis : x y z
#
# Youngs Moduli (GPa) = 36.51439 48.27911 24.09686
#
# Poissons Ratio (x) = 0.36431 0.06510
# Poissons Ratio (y) = 0.27553 0.54016
# Poissons Ratio (z) = 0.09865 1.08223
#
# Static dielectric constant tensor:
#      x y z
#    x 1.580890 0.000000 0.000000 
#    y 0.000000 1.627140 0.000000 
#    z 0.000000 0.000000 1.537280 
# 
# From -- ./inp_files/5255.got.cif
#   From: 2010.05.17/outbox.cif.g08.bks.cpg/sg51_3_cif.got.tgz:5255.got - 2010.06.03 11:52:47.
