data_PCOD9400619
_publ_section_title
;
Structure prediction by ZEFSAII (Michael W. Deem and Ramdas Pophale) SiO2 
 PCOD9400619
Probable space group: P M M A
;
_chemical_formula_sum "Si O2"
_cell_formula_units_Z 52
_cell_length_a 9.656785
_cell_length_b 19.614830
_cell_length_c 15.774499
_cell_angle_alpha 90.000000
_cell_angle_beta 90.000000
_cell_angle_gamma 90.000000
_cell_volume 2987.945596
_symmetry_space_group_name_H-M "P M M A"
_symmetry_group_IT_number 51
_symmetry_cell_setting 'orthorhombic'
loop_
_space_group_symop_operation_xyz
x,y,z
1/2-x,-y,z
1/2+x,-y,-z
-x,y,-z
-x,-y,-z
1/2+x,y,-z
1/2-x,y,z
x,-y,z
loop_
_atom_site_type_symbol
_atom_site_label
_atom_site_fract_x
_atom_site_fract_y
_atom_site_fract_z
Si Si1 0.916295 0.848199 0.589470
Si Si2 0.909722 0.393004 0.267930
Si Si3 0.910609 0.000000 0.584160
Si Si4 0.410258 0.771062 0.920601
Si Si5 0.095745 0.580004 0.426988
Si Si6 0.089119 0.771464 0.729485
Si Si7 0.590509 0.394826 0.078245
O O1 0.750000 0.836599 0.578288
O O2 0.000000 0.842775 0.500000
O O3 0.987260 0.799134 0.657869
O O4 0.935429 0.926038 0.624542
O O5 0.750000 0.414491 0.283975
O O6 0.910879 0.310739 0.270621
O O7 0.950635 0.415685 0.173241
O O8 0.014587 0.416534 0.339170
O O9 0.000000 0.000000 0.500000
O O10 0.750000 0.000000 0.559274
O O11 0.250000 0.789944 0.932025
O O12 0.452656 0.792534 0.825502
O O13 0.415733 0.688113 0.921424
O O14 0.500000 0.795507 0.000000
O O15 0.250000 0.610071 0.423190
O O16 0.111135 0.500000 0.447807
O O17 0.000000 0.612140 0.500000
O O18 0.250000 0.792695 0.714916
O O19 0.750000 0.414036 0.066254
O O20 0.500000 0.419225 0.000000
#
# Coordination Sequence:
#
# PCOD9400619 Si02
#       7
#     8   8   4   8   8   8   8
#     4  10  19  31  47  66  90 121 154 188 226 268
#     4   9  18  32  49  69  95 124 151 183 225 270
#     4   8  16  30  46  64  85 112 151 192 225 262
#     4   8  14  25  41  61  88 119 149 182 218 259
#     4  10  21  36  53  71  89 113 150 193 231 269
#     4   9  18  31  45  67  98 125 150 183 224 270
#     4   8  14  25  42  65  91 119 148 178 216 261
#
# _framework density 17.403261000000001
#
# number of rings (size 3 to 8) (size 9 to 14) (size 15 to 20)
#    0.000    3.077    0.000    2.769    0.000    4.000 
#    0.000    3.077    0.000    0.462    0.000    0.538 
#    0.000    0.000    0.000    0.000    0.000    0.000 
#
# Total GULP energy -289504.519579 kJ/mol
# GULP energy per Si atom -5567.394607 kJ/mol
# Density = 1.736365 g / cm^3
# Si number density = 17.403261 Si / 1000 Ang^3
#
#
#
# Elastic Constant Matrix: (Units=GPa)
#
#
# Indices 1 2 3 4 5 6 
#
# 1 104.4812 18.7182 92.2930 0.0000 0.0000 0.0000
# 2 18.7182 36.6543 17.7663 0.0000 0.0000 0.0000
# 3 92.2930 17.7663 139.2376 0.0000 0.0000 0.0000
# 4 0.0000 0.0000 0.0000 57.9586 0.0000 0.0000
# 5 0.0000 0.0000 0.0000 0.0000 32.5232 0.0000
# 6 0.0000 0.0000 0.0000 0.0000 0.0000 17.7409
#
#
#
# Elastic Compliance Matrix: (Units=1/GPa)
#
#
# Indices 1 2 3 4 5 6 
#
# 1 0.023864 -0.004818 -0.015204 0.000000 0.000000 0.000000
# 2 -0.004818 0.030053 -0.000641 0.000000 0.000000 0.000000
# 3 -0.015204 -0.000641 0.017341 0.000000 0.000000 0.000000
# 4 0.000000 0.000000 0.000000 0.017254 0.000000 0.000000
# 5 0.000000 0.000000 0.000000 0.000000 0.030747 0.000000
# 6 0.000000 0.000000 0.000000 0.000000 0.000000 0.056367
#
#
# Mechanical properties :
#
#
# Convention : Reuss Voigt Hill
#
# Bulk Modulus (GPa) = 33.40726 59.76977 46.58851
# Shear Modulus (GPa) = 22.03328 31.75090 26.89209
#
# Velocity S-wave (km/s) = 3.56201 4.27596 3.93521
# Velocity P-wave (km/s) = 6.01289 7.66792 6.89028
#
# Compressibility (1/GPa) = 0.02993362
#
# Stress axis : x y z
#
# Youngs Moduli (GPa) = 41.90380 33.27458 57.66542
#
# Poissons Ratio (x) = 0.16030 0.87672
# Poissons Ratio (y) = 0.20187 0.03699
# Poissons Ratio (z) = 0.63709 0.02134
#
# Static dielectric constant tensor:
#      x y z
#    x 1.595750 0.000000 0.000000 
#    y 0.000000 1.626270 0.000000 
#    z 0.000000 0.000000 1.579490 
# 
# From -- ./inp_files/22101.got.cif
#   From: 2010.05.17/outbox.cif.g08.bks.cpg/sg51_12_cif.got.tgz:22101.got - 2010.06.03 11:52:47.
