data_PCOD9400593
_publ_section_title
;
Structure prediction by ZEFSAII (Michael W. Deem and Ramdas Pophale) SiO2 
 PCOD9400593
Probable space group: P M M A
;
_chemical_formula_sum "Si O2"
_cell_formula_units_Z 32
_cell_length_a 20.090156
_cell_length_b 5.520839
_cell_length_c 13.391942
_cell_angle_alpha 90.000000
_cell_angle_beta 90.000000
_cell_angle_gamma 90.000000
_cell_volume 1485.360775
_symmetry_space_group_name_H-M "P M M A"
_symmetry_group_IT_number 51
_symmetry_cell_setting 'orthorhombic'
loop_
_space_group_symop_operation_xyz
x,y,z
1/2-x,-y,z
1/2+x,-y,-z
-x,y,-z
-x,-y,-z
1/2+x,y,-z
1/2-x,y,z
x,-y,z
loop_
_atom_site_type_symbol
_atom_site_label
_atom_site_fract_x
_atom_site_fract_y
_atom_site_fract_z
Si Si1 0.931977 0.500000 0.935474
Si Si2 0.175873 0.000000 0.573683
Si Si3 0.963440 0.000000 0.308945
Si Si4 0.324347 0.500000 0.445508
Si Si5 0.324251 0.500000 0.888938
Si Si6 0.527233 0.500000 0.614444
Si Si7 0.933037 0.000000 0.933639
Si Si8 0.371203 0.000000 0.856631
O O1 0.876402 0.500000 0.021046
O O2 0.927189 0.748844 0.876770
O O3 0.000000 0.500000 0.000000
O O4 0.172607 0.250232 0.509890
O O5 0.250000 0.000000 0.621668
O O6 0.109959 0.000000 0.640571
O O7 0.999422 0.750858 0.339171
O O8 0.943886 0.000000 0.192570
O O9 0.250000 0.500000 0.397398
O O10 0.392557 0.500000 0.383172
O O11 0.250000 0.500000 0.928060
O O12 0.336775 0.747478 0.829055
O O13 0.500000 0.500000 0.500000
O O14 0.877790 0.000000 0.022769
O O15 0.000000 0.000000 0.000000
#
# Coordination Sequence:
#
# PCOD9400593 Si02
#       8
#     4   4   4   4   4   4   4   4
#     4   8  14  25  43  66  90 119 164 210 245 280
#     4  10  19  31  46  67  95 129 163 197 243 300
#     4  12  22  34  50  74 101 134 173 211 259 304
#     4  10  20  34  51  72  94 120 163 208 249 301
#     4  10  19  32  48  67 100 144 178 207 249 307
#     4  12  21  35  56  73  98 131 170 215 258 300
#     4   8  14  27  46  65  90 123 159 197 243 286
#     4  10  21  33  46  71 104 133 173 216 251 307
#
# _framework density 21.543586999999999
#
# number of rings (size 3 to 8) (size 9 to 14) (size 15 to 20)
#    0.000    2.000    2.500    2.250    0.000    1.000 
#    0.000    1.250    0.000    0.000    0.000    0.000 
#    0.000   96.000    0.000    0.000    0.000    0.000 
#
# Total GULP energy -178353.374824 kJ/mol
# GULP energy per Si atom -5573.542963 kJ/mol
# Density = 2.149455 g / cm^3
# Si number density = 21.543587 Si / 1000 Ang^3
#
#
#
# Elastic Constant Matrix: (Units=GPa)
#
#
# Indices 1 2 3 4 5 6 
#
# 1 188.2170 51.6048 34.5133 0.0000 0.0000 0.0000
# 2 51.6048 263.0969 26.1719 0.0000 0.0000 0.0000
# 3 34.5133 26.1719 47.2375 0.0000 0.0000 0.0000
# 4 0.0000 0.0000 0.0000 -7.7347 0.0000 0.0000
# 5 0.0000 0.0000 0.0000 0.0000 29.1651 0.0000
# 6 0.0000 0.0000 0.0000 0.0000 0.0000 25.3358
#
#
#
# Elastic Compliance Matrix: (Units=1/GPa)
#
#
# Indices 1 2 3 4 5 6 
#
# 1 0.006299 -0.000823 -0.004146 0.000000 0.000000 0.000000
# 2 -0.000823 0.004130 -0.001687 0.000000 0.000000 0.000000
# 3 -0.004146 -0.001687 0.025134 0.000000 0.000000 0.000000
# 4 0.000000 0.000000 0.000000 -0.129288 0.000000 0.000000
# 5 0.000000 0.000000 0.000000 0.000000 0.034288 0.000000
# 6 0.000000 0.000000 0.000000 0.000000 0.000000 0.039470
#
#
# Mechanical properties :
#
#
# Convention : Reuss Voigt Hill
#
# Bulk Modulus (GPa) = 44.94325 80.34792 62.64559
# Shear Modulus (GPa) = 6570.62943 35.10403 3302.86673
#
# Velocity S-wave (km/s) = 55.28603 4.04101 39.19741
# Velocity P-wave (km/s) = 64.00234 7.69087 45.58207
#
# Compressibility (1/GPa) = 0.02225028
#
# Stress axis : x y z
#
# Youngs Moduli (GPa) = 158.75613 242.12328 39.78735
#
# Poissons Ratio (x) = 0.19928 0.16497
# Poissons Ratio (y) = 0.13066 0.06712
# Poissons Ratio (z) = 0.65824 0.40845
#
# Static dielectric constant tensor:
#      x y z
#    x 1.787840 0.000000 0.000000 
#    y 0.000000 1.828080 0.000000 
#    z 0.000000 0.000000 1.787500 
# 
# From -- ./inp_files/24492.got.cif
#   From: 2010.05.17/outbox.cif.g08.bks.cpg/sg51_13_cif.got.tgz:24492.got - 2010.06.03 11:52:47.
