data_PCOD9400364
_publ_section_title
;
Structure prediction by ZEFSAII (Michael W. Deem and Ramdas Pophale) SiO2 
 PCOD9400364
Probable space group: P M M A
;
_chemical_formula_sum "Si O2"
_cell_formula_units_Z 64
_cell_length_a 8.886534
_cell_length_b 19.480415
_cell_length_c 24.204453
_cell_angle_alpha 90.000000
_cell_angle_beta 90.000000
_cell_angle_gamma 90.000000
_cell_volume 4190.114433
_symmetry_space_group_name_H-M "P M M A"
_symmetry_group_IT_number 51
_symmetry_cell_setting 'orthorhombic'
loop_
_space_group_symop_operation_xyz
x,y,z
1/2-x,-y,z
1/2+x,-y,-z
-x,y,-z
-x,-y,-z
1/2+x,y,-z
1/2-x,y,z
x,-y,z
loop_
_atom_site_type_symbol
_atom_site_label
_atom_site_fract_x
_atom_site_fract_y
_atom_site_fract_z
Si Si1 0.569917 0.287945 0.331638
Si Si2 0.930131 0.346478 0.836178
Si Si3 0.069939 0.791226 0.558509
Si Si4 0.929649 0.921310 0.615972
Si Si5 0.570994 0.921847 0.261855
Si Si6 0.069525 0.421796 0.731127
Si Si7 0.929465 0.211286 0.772728
Si Si8 0.429859 0.419796 0.940204
O O1 0.750000 0.277451 0.324642
O O2 0.529752 0.261565 0.392287
O O3 0.536628 0.367137 0.317271
O O4 0.486124 0.243500 0.285189
O O5 0.750000 0.351672 0.839258
O O6 0.969344 0.268357 0.818617
O O7 0.989979 0.393970 0.786197
O O8 0.003158 0.372272 0.892553
O O9 0.250000 0.794599 0.554417
O O10 0.000000 0.771885 0.500000
O O11 0.006471 0.865018 0.577511
O O12 0.750000 0.911091 0.616999
O O13 0.994480 0.913757 0.677964
O O14 0.960109 0.000000 0.598510
O O15 0.750000 0.913445 0.268355
O O16 0.506306 0.862655 0.222884
O O17 0.540945 0.000000 0.243250
O O18 0.250000 0.420017 0.740510
O O19 0.026226 0.500000 0.719049
O O20 0.750000 0.203915 0.771418
O O21 0.250000 0.413215 0.942416
O O22 0.465437 0.500000 0.927445
O O23 0.500000 0.404437 0.000000
#
# Coordination Sequence:
#
# PCOD9400364 Si02
#       8
#     8   8   8   8   8   8   8   8
#     4   9  18  32  48  66  88 115 148 185 230 281
#     4  10  20  31  45  70 101 130 161 198 235 274
#     4  11  22  34  49  66  86 115 150 189 230 277
#     4  10  20  33  49  68  90 116 147 184 224 270
#     4  10  19  30  46  68  94 124 155 187 227 277
#     4   9  17  30  49  71  93 118 150 190 234 280
#     4  10  19  30  47  69  94 124 156 192 234 275
#     4  10  20  33  49  69  96 134 174 207 239 276
#
# _framework density 15.274046
#
# number of rings (size 3 to 8) (size 9 to 14) (size 15 to 20)
#    0.000    2.125    1.250    2.625    0.000    6.250 
#    0.000    0.000    0.000    0.375    0.000    0.000 
#    0.000    0.500    0.000    1.625    0.000    2.500 
#
# Total GULP energy -357046.518326 kJ/mol
# GULP energy per Si atom -5578.851849 kJ/mol
# Density = 1.523928 g / cm^3
# Si number density = 15.274046 Si / 1000 Ang^3
#
#
#
# Elastic Constant Matrix: (Units=GPa)
#
#
# Indices 1 2 3 4 5 6 
#
# 1 49.3770 47.6294 45.8298 0.0000 0.0000 0.0000
# 2 47.6294 117.1602 65.8828 0.0000 0.0000 0.0000
# 3 45.8298 65.8828 105.8203 0.0000 0.0000 0.0000
# 4 0.0000 0.0000 0.0000 25.3149 0.0000 0.0000
# 5 0.0000 0.0000 0.0000 0.0000 24.2367 0.0000
# 6 0.0000 0.0000 0.0000 0.0000 0.0000 21.0301
#
#
#
# Elastic Compliance Matrix: (Units=1/GPa)
#
#
# Indices 1 2 3 4 5 6 
#
# 1 0.040422 -0.010138 -0.011195 0.000000 0.000000 0.000000
# 2 -0.010138 0.015676 -0.005369 0.000000 0.000000 0.000000
# 3 -0.011195 -0.005369 0.017641 0.000000 0.000000 0.000000
# 4 0.000000 0.000000 0.000000 0.039502 0.000000 0.000000
# 5 0.000000 0.000000 0.000000 0.000000 0.041260 0.000000
# 6 0.000000 0.000000 0.000000 0.000000 0.000000 0.047551
#
#
# Mechanical properties :
#
#
# Convention : Reuss Voigt Hill
#
# Bulk Modulus (GPa) = 49.17458 65.67128 57.42293
# Shear Modulus (GPa) = 19.06704 21.65071 20.35888
#
# Velocity S-wave (km/s) = 3.53700 3.76903 3.65486
# Velocity P-wave (km/s) = 6.99609 7.87588 7.44899
#
# Compressibility (1/GPa) = 0.02033571
#
# Stress axis : x y z
#
# Youngs Moduli (GPa) = 24.73929 63.79261 56.68602
#
# Poissons Ratio (x) = 0.64670 0.63458
# Poissons Ratio (y) = 0.25080 0.30435
# Poissons Ratio (z) = 0.27695 0.34251
#
# Static dielectric constant tensor:
#      x y z
#    x 1.510020 0.000000 0.000000 
#    y 0.000000 1.527720 0.000000 
#    z 0.000000 0.000000 1.476120 
# 
# From -- ./inp_files/35124.got.cif
#   From: 2010.05.17/outbox.cif.g08.bks.cpg/sg51_18_cif.got.tgz:35124.got - 2010.06.03 11:52:47.
