data_PCOD9400287
_publ_section_title
;
Structure prediction by ZEFSAII (Michael W. Deem and Ramdas Pophale) SiO2 
 PCOD9400287
Probable space group: P M M A
;
_chemical_formula_sum "Si O2"
_cell_formula_units_Z 40
_cell_length_a 7.356486
_cell_length_b 12.347857
_cell_length_c 21.085273
_cell_angle_alpha 90.000000
_cell_angle_beta 90.000000
_cell_angle_gamma 90.000000
_cell_volume 1915.319510
_symmetry_space_group_name_H-M "P M M A"
_symmetry_group_IT_number 51
_symmetry_cell_setting 'orthorhombic'
loop_
_space_group_symop_operation_xyz
x,y,z
1/2-x,-y,z
1/2+x,-y,-z
-x,y,-z
-x,-y,-z
1/2+x,y,-z
1/2-x,y,z
x,-y,z
loop_
_atom_site_type_symbol
_atom_site_label
_atom_site_fract_x
_atom_site_fract_y
_atom_site_fract_z
Si Si1 0.033028 0.376992 0.927201
Si Si2 0.966545 0.232203 0.427927
Si Si3 0.471926 0.234148 0.810770
Si Si4 0.028231 0.000000 0.618485
Si Si5 0.971431 0.000000 0.233392
Si Si6 0.028061 0.624152 0.689119
O O1 0.250000 0.382773 0.918865
O O2 0.962694 0.500000 0.918138
O O3 0.965844 0.292740 0.874918
O O4 0.000000 0.345288 0.000000
O O5 0.750000 0.227335 0.419319
O O6 0.034937 0.110399 0.414638
O O7 0.033483 0.315011 0.374567
O O8 0.000000 0.265342 0.500000
O O9 0.250000 0.232303 0.811363
O O10 0.530985 0.110801 0.799880
O O11 0.525925 0.306502 0.750381
O O12 0.250000 0.000000 0.616755
O O13 0.975912 0.000000 0.692507
O O14 0.750000 0.000000 0.233185
O O15 0.250000 0.622927 0.688925
O O16 0.968535 0.500000 0.692444
#
# Coordination Sequence:
#
# PCOD9400287 Si02
#       6
#     8   8   8   4   4   8
#     4   9  17  29  46  69  95 121 148 179 216 258
#     4  10  19  30  45  65  89 116 146 182 223 266
#     4   9  15  25  43  67  91 114 146 187 223 256
#     4   9  15  27  44  65  89 112 143 184 225 262
#     4   9  14  23  42  67  91 112 141 186 230 258
#     4   9  16  26  42  64  88 114 146 185 225 260
#
# _framework density 20.884243999999999
#
# number of rings (size 3 to 8) (size 9 to 14) (size 15 to 20)
#    0.000    2.800    2.000    0.900    0.000    2.800 
#    0.000    0.500    0.000    1.200    0.000    0.000 
#    0.000    0.000    0.000    0.000    0.000    0.000 
#
# Total GULP energy -223392.143022 kJ/mol
# GULP energy per Si atom -5584.803576 kJ/mol
# Density = 2.083671 g / cm^3
# Si number density = 20.884244 Si / 1000 Ang^3
#
#
#
# Elastic Constant Matrix: (Units=GPa)
#
#
# Indices 1 2 3 4 5 6 
#
# 1 76.3243 5.5468 -2.9435 0.0000 0.0000 0.0000
# 2 5.5468 196.7519 122.7873 0.0000 0.0000 0.0000
# 3 -2.9435 122.7873 191.1529 0.0000 0.0000 0.0000
# 4 0.0000 0.0000 0.0000 -7.2568 0.0000 0.0000
# 5 0.0000 0.0000 0.0000 0.0000 11.7202 0.0000
# 6 0.0000 0.0000 0.0000 0.0000 0.0000 -7.5254
#
#
#
# Elastic Compliance Matrix: (Units=1/GPa)
#
#
# Indices 1 2 3 4 5 6 
#
# 1 0.013191 -0.000832 0.000738 0.000000 0.000000 0.000000
# 2 -0.000832 0.008536 -0.005496 0.000000 0.000000 0.000000
# 3 0.000738 -0.005496 0.008773 0.000000 0.000000 0.000000
# 4 0.000000 0.000000 0.000000 -0.137802 0.000000 0.000000
# 5 0.000000 0.000000 0.000000 0.000000 0.085323 0.000000
# 6 0.000000 0.000000 0.000000 0.000000 0.000000 -0.132883
#
#
# Mechanical properties :
#
#
# Convention : Reuss Voigt Hill
#
# Bulk Modulus (GPa) = 51.76237 79.44560 65.60398
# Shear Modulus (GPa) = -36.43180 21.97684 -7.22748
#
# Velocity S-wave (km/s) = -4.18121 3.24746 -1.86232
# Velocity P-wave (km/s) = 1.23660 7.22391 5.18238
#
# Compressibility (1/GPa) = 0.01931905
#
# Stress axis : x y z
#
# Youngs Moduli (GPa) = 75.80966 117.15417 113.98623
#
# Poissons Ratio (x) = 0.09751 -0.08409
# Poissons Ratio (y) = 0.06309 0.62644
# Poissons Ratio (z) = -0.05593 0.64385
#
# Static dielectric constant tensor:
#      x y z
#    x 1.823310 0.000000 0.000000 
#    y 0.000000 1.719770 0.000000 
#    z 0.000000 0.000000 1.706680 
# 
# From -- ./inp_files/31433.got.cif
#   From: 2010.05.17/outbox.cif.g08.bks.cpg/sg51_16_cif.got.tgz:31433.got - 2010.06.03 11:52:47.
