data_PCOD9400853
_publ_section_title
;
Structure prediction by ZEFSAII (Michael W. Deem and Ramdas Pophale) SiO2 
 PCOD9400853
Probable space group: P M M A
;
_chemical_formula_sum "Si O2"
_cell_formula_units_Z 44
_cell_length_a 8.556929
_cell_length_b 29.774707
_cell_length_c 9.340384
_cell_angle_alpha 90.000000
_cell_angle_beta 90.000000
_cell_angle_gamma 90.000000
_cell_volume 2379.743538
_symmetry_space_group_name_H-M "P M M A"
_symmetry_group_IT_number 51
_symmetry_cell_setting 'orthorhombic'
loop_
_space_group_symop_operation_xyz
x,y,z
1/2-x,-y,z
1/2+x,-y,-z
-x,y,-z
-x,-y,-z
1/2+x,y,-z
1/2-x,y,z
x,-y,z
loop_
_atom_site_type_symbol
_atom_site_label
_atom_site_fract_x
_atom_site_fract_y
_atom_site_fract_z
Si Si1 0.938439 0.672237 0.162180
Si Si2 0.061719 0.415074 0.661416
Si Si3 0.562707 0.771094 0.163085
Si Si4 0.561284 0.950351 0.661146
Si Si5 0.436904 0.500000 0.161756
Si Si6 0.437318 0.864051 0.161739
O O1 0.750000 0.671527 0.154477
O O2 0.988895 0.631383 0.262521
O O3 0.983758 0.721832 0.219901
O O4 0.000000 0.666778 0.000000
O O5 0.250000 0.416833 0.660245
O O6 0.000000 0.417717 0.500000
O O7 0.997905 0.456341 0.754360
O O8 0.750000 0.774309 0.161963
O O9 0.494872 0.816805 0.228210
O O10 0.500000 0.770565 0.000000
O O11 0.500000 0.946247 0.500000
O O12 0.750000 0.949381 0.658810
O O13 0.507543 0.908031 0.753601
O O14 0.513372 0.000000 0.715712
O O15 0.250000 0.500000 0.159628
O O16 0.500000 0.500000 0.000000
O O17 0.250000 0.863421 0.158064
O O18 0.500000 0.866552 0.000000
#
# Coordination Sequence:
#
# PCOD9400853 Si02
#       6
#     8   8   8   8   4   8
#     4   9  19  34  55  80 106 137 177 219 259 307
#     4  11  23  40  59  83 114 148 183 222 269 317
#     4   9  16  29  49  74 103 135 170 211 257 305
#     4   9  19  35  52  70  95 128 167 209 253 304
#     4  12  25  42  63  88 114 144 182 224 267 316
#     4  10  19  31  49  75 103 131 166 209 256 306
#
# _framework density 18.489388999999999
#
# number of rings (size 3 to 8) (size 9 to 14) (size 15 to 20)
#    0.000    2.182    0.000    4.364    0.000    5.455 
#    0.000    0.909    0.000    4.364    0.000    0.000 
#    0.000    0.000    0.000    0.000    0.000    0.000 
#
# Total GULP energy -245436.841718 kJ/mol
# GULP energy per Si atom -5578.110039 kJ/mol
# Density = 1.844731 g / cm^3
# Si number density = 18.489389 Si / 1000 Ang^3
#
#
#
# Elastic Constant Matrix: (Units=GPa)
#
#
# Indices 1 2 3 4 5 6 
#
# 1 52.6827 48.3536 24.2897 0.0000 0.0000 0.0000
# 2 48.3536 233.1253 91.3406 0.0000 0.0000 0.0000
# 3 24.2897 91.3406 90.8197 0.0000 0.0000 0.0000
# 4 0.0000 0.0000 0.0000 -32.1107 0.0000 0.0000
# 5 0.0000 0.0000 0.0000 0.0000 25.3593 0.0000
# 6 0.0000 0.0000 0.0000 0.0000 0.0000 37.1986
#
#
#
# Elastic Compliance Matrix: (Units=1/GPa)
#
#
# Indices 1 2 3 4 5 6 
#
# 1 0.023734 -0.004020 -0.002305 0.000000 0.000000 0.000000
# 2 -0.004020 0.007760 -0.006729 0.000000 0.000000 0.000000
# 3 -0.002305 -0.006729 0.018395 0.000000 0.000000 0.000000
# 4 0.000000 0.000000 0.000000 -0.031142 0.000000 0.000000
# 5 0.000000 0.000000 0.000000 0.000000 0.039433 0.000000
# 6 0.000000 0.000000 0.000000 0.000000 0.000000 0.026883
#
#
# Mechanical properties :
#
#
# Convention : Reuss Voigt Hill
#
# Bulk Modulus (GPa) = 42.05033 78.28839 60.16936
# Shear Modulus (GPa) = 41.98254 20.26568 31.12411
#
# Velocity S-wave (km/s) = 4.77028 3.31429 4.10732
# Velocity P-wave (km/s) = 7.28925 7.55515 7.42339
#
# Compressibility (1/GPa) = 0.02378102
#
# Stress axis : x y z
#
# Youngs Moduli (GPa) = 42.13440 128.86778 54.36200
#
# Poissons Ratio (x) = 0.51800 0.12530
# Poissons Ratio (y) = 0.16937 0.36582
# Poissons Ratio (z) = 0.09711 0.86720
#
# Static dielectric constant tensor:
#      x y z
#    x 1.631140 0.000000 0.000000 
#    y 0.000000 1.691910 0.000000 
#    z 0.000000 0.000000 1.578470 
# 
# From -- ./inp_files/5747.got.cif
#   From: 2010.05.17/outbox.cif.g08.bks.cpg/sg51_3_cif.got.tgz:5747.got - 2010.06.03 11:52:47.
