data_PCOD9400761
_publ_section_title
;
Structure prediction by ZEFSAII (Michael W. Deem and Ramdas Pophale) SiO2 
 PCOD9400761
Probable space group: P M M A
;
_chemical_formula_sum "Si O2"
_cell_formula_units_Z 64
_cell_length_a 22.911323
_cell_length_b 9.046116
_cell_length_c 17.995135
_cell_angle_alpha 90.000000
_cell_angle_beta 90.000000
_cell_angle_gamma 90.000000
_cell_volume 3729.644428
_symmetry_space_group_name_H-M "P M M A"
_symmetry_group_IT_number 51
_symmetry_cell_setting 'orthorhombic'
loop_
_space_group_symop_operation_xyz
x,y,z
1/2-x,-y,z
1/2+x,-y,-z
-x,y,-z
-x,-y,-z
1/2+x,y,-z
1/2-x,y,z
x,-y,z
loop_
_atom_site_type_symbol
_atom_site_label
_atom_site_fract_x
_atom_site_fract_y
_atom_site_fract_z
Si Si1 0.082589 0.822079 0.823236
Si Si2 0.184488 0.321648 0.254806
Si Si3 0.315348 0.177988 0.933563
Si Si4 0.846003 0.674242 0.910986
Si Si5 0.414626 0.176995 0.356206
Si Si6 0.929606 0.330464 0.490548
Si Si7 0.015745 0.674048 0.084000
Si Si8 0.551596 0.177800 0.339164
O O1 0.135569 0.769324 0.875517
O O2 0.082637 0.776490 0.737251
O O3 0.023017 0.765486 0.859558
O O4 0.083073 0.000000 0.824117
O O5 0.250000 0.286007 0.282044
O O6 0.177121 0.500000 0.257828
O O7 0.180330 0.278522 0.167831
O O8 0.132821 0.246927 0.301144
O O9 0.250000 0.217477 0.908925
O O10 0.319277 0.000000 0.937500
O O11 0.325610 0.241357 0.015772
O O12 0.833134 0.500000 0.921195
O O13 0.915682 0.692166 0.904368
O O14 0.405535 0.240805 0.439144
O O15 0.482068 0.214592 0.334766
O O16 0.409792 0.000000 0.356013
O O17 0.909424 0.500000 0.491787
O O18 0.920737 0.253874 0.411198
O O19 0.000000 0.330909 0.500000
O O20 0.001461 0.500000 0.091506
O O21 0.000000 0.719217 0.000000
O O22 0.554953 0.000000 0.347516
#
# Coordination Sequence:
#
# PCOD9400761 Si02
#       8
#     8   8   8   8   8   8   8   8
#     4  10  20  33  50  72 100 134 168 206 255 306
#     4  10  21  35  50  70  98 134 174 212 250 298
#     4  10  21  35  50  69  94 128 171 214 251 290
#     4  10  20  35  53  72  98 132 169 210 257 305
#     4  10  19  32  52  76 103 132 163 203 251 303
#     4   9  17  30  51  78 105 132 161 193 238 298
#     4  10  19  31  48  73 102 128 162 209 257 306
#     4   9  18  32  50  76 105 131 164 206 255 306
#
# _framework density 17.159811999999999
#
# number of rings (size 3 to 8) (size 9 to 14) (size 15 to 20)
#    0.000    2.250    1.250    1.875    0.000    4.750 
#    0.000    0.000    0.000    0.750    0.000    1.750 
#    0.000    0.000    0.000    0.000    0.000    0.000 
#
# Total GULP energy -357000.304740 kJ/mol
# GULP energy per Si atom -5578.129762 kJ/mol
# Density = 1.712076 g / cm^3
# Si number density = 17.159812 Si / 1000 Ang^3
#
#
#
# Elastic Constant Matrix: (Units=GPa)
#
#
# Indices 1 2 3 4 5 6 
#
# 1 52.2068 26.4538 44.6696 0.0000 0.0000 0.0000
# 2 26.4538 27.6420 37.0843 0.0000 0.0000 0.0000
# 3 44.6696 37.0843 128.8890 0.0000 0.0000 0.0000
# 4 0.0000 0.0000 0.0000 23.4108 0.0000 0.0000
# 5 0.0000 0.0000 0.0000 0.0000 9.1531 0.0000
# 6 0.0000 0.0000 0.0000 0.0000 0.0000 10.2146
#
#
#
# Elastic Compliance Matrix: (Units=1/GPa)
#
#
# Indices 1 2 3 4 5 6 
#
# 1 0.038722 -0.031032 -0.004491 0.000000 0.000000 0.000000
# 2 -0.031032 0.083789 -0.013353 0.000000 0.000000 0.000000
# 3 -0.004491 -0.013353 0.013157 0.000000 0.000000 0.000000
# 4 0.000000 0.000000 0.000000 0.042715 0.000000 0.000000
# 5 0.000000 0.000000 0.000000 0.000000 0.109253 0.000000
# 6 0.000000 0.000000 0.000000 0.000000 0.000000 0.097899
#
#
# Mechanical properties :
#
#
# Convention : Reuss Voigt Hill
#
# Bulk Modulus (GPa) = 26.37441 47.23927 36.80684
# Shear Modulus (GPa) = 10.08214 15.25770 12.66992
#
# Velocity S-wave (km/s) = 2.42656 2.98510 2.72020
# Velocity P-wave (km/s) = 4.82226 6.28251 5.60018
#
# Compressibility (1/GPa) = 0.03791554
#
# Stress axis : x y z
#
# Youngs Moduli (GPa) = 25.82528 11.93469 76.00334
#
# Poissons Ratio (x) = 0.37035 0.34137
# Poissons Ratio (y) = 0.80140 1.01490
# Poissons Ratio (z) = 0.11599 0.15937
#
# Static dielectric constant tensor:
#      x y z
#    x 1.566070 0.000000 0.000000 
#    y 0.000000 1.579210 0.000000 
#    z 0.000000 0.000000 1.574700 
# 
# From -- ./inp_files/30919.got.cif
#   From: 2010.05.17/outbox.cif.g08.bks.cpg/sg51_16_cif.got.tgz:30919.got - 2010.06.03 11:52:47.
