data_PCOD9400207
_publ_section_title
;
Structure prediction by ZEFSAII (Michael W. Deem and Ramdas Pophale) SiO2 
 PCOD9400207
Probable space group: P M M A
;
_chemical_formula_sum "Si O2"
_cell_formula_units_Z 64
_cell_length_a 14.272937
_cell_length_b 8.302565
_cell_length_c 23.828883
_cell_angle_alpha 90.000000
_cell_angle_beta 90.000000
_cell_angle_gamma 90.000000
_cell_volume 2823.769988
_symmetry_space_group_name_H-M "P M M A"
_symmetry_group_IT_number 51
_symmetry_cell_setting 'orthorhombic'
loop_
_space_group_symop_operation_xyz
x,y,z
1/2-x,-y,z
1/2+x,-y,-z
-x,y,-z
-x,-y,-z
1/2+x,y,-z
1/2-x,y,z
x,-y,z
loop_
_atom_site_type_symbol
_atom_site_label
_atom_site_fract_x
_atom_site_fract_y
_atom_site_fract_z
Si Si1 0.939209 0.308348 0.249281
Si Si2 0.150129 0.811144 0.397511
Si Si3 0.612509 0.691364 0.007484
Si Si4 0.896930 0.686255 0.128531
Si Si5 0.110228 0.681646 0.514322
Si Si6 0.095019 0.183092 0.106235
Si Si7 0.351103 0.812166 0.231334
Si Si8 0.058401 0.192052 0.630588
O O1 0.927516 0.500000 0.249246
O O2 0.050745 0.269433 0.246787
O O3 0.904885 0.238326 0.308165
O O4 0.890280 0.244258 0.191625
O O5 0.250000 0.740578 0.378023
O O6 0.149185 0.791426 0.464866
O O7 0.050258 0.745711 0.375563
O O8 0.150405 0.000000 0.383562
O O9 0.631317 0.500000 0.006015
O O10 0.641502 0.753600 0.069270
O O11 0.500000 0.714104 0.000000
O O12 0.647421 0.773196 0.950818
O O13 0.866936 0.500000 0.131138
O O14 0.008481 0.696470 0.116818
O O15 0.145382 0.500000 0.508455
O O16 0.000000 0.679440 0.500000
O O17 0.116653 0.739935 0.578149
O O18 0.151044 0.189937 0.163718
O O19 0.057457 0.000000 0.101145
O O20 0.250000 0.748672 0.251128
O O21 0.358398 0.000000 0.248790
O O22 0.055421 0.000000 0.624796
#
# Coordination Sequence:
#
# PCOD9400207 Si02
#       8
#     8   8   8   8   8   8   8   8
#     4  10  19  30  43  60  82 109 146 187 219 252
#     4   9  18  32  49  69  93 121 152 185 222 267
#     4   8  13  22  35  50  70  96 121 148 192 247
#     4   8  15  26  37  50  73 103 128 155 200 251
#     4   9  17  30  48  69  92 118 149 187 228 266
#     4   9  15  22  35  54  71  91 125 167 205 241
#     4   9  18  31  42  52  74 110 146 178 216 262
#     4  10  19  31  47  66  91 125 158 185 221 272
#
# _framework density 22.664736000000001
#
# number of rings (size 3 to 8) (size 9 to 14) (size 15 to 20)
#    0.000    3.000    0.000    2.250    0.000    6.250 
#    0.000    1.250    0.000    0.000    0.000    0.000 
#    0.000    1.000    0.000    8.000    0.000    4.000 
#
# Total GULP energy -356505.482627 kJ/mol
# GULP energy per Si atom -5570.398166 kJ/mol
# Density = 2.261315 g / cm^3
# Si number density = 22.664736 Si / 1000 Ang^3
#
#
#
# Elastic Constant Matrix: (Units=GPa)
#
#
# Indices 1 2 3 4 5 6 
#
# 1 46.1966 2.9910 -1.5555 0.0000 0.0000 0.0000
# 2 2.9910 22.2681 12.1452 0.0000 0.0000 0.0000
# 3 -1.5555 12.1452 217.1184 0.0000 0.0000 0.0000
# 4 0.0000 0.0000 0.0000 23.7267 0.0000 0.0000
# 5 0.0000 0.0000 0.0000 0.0000 -241.3536 0.0000
# 6 0.0000 0.0000 0.0000 0.0000 0.0000 -0.7172
#
#
#
# Elastic Compliance Matrix: (Units=1/GPa)
#
#
# Indices 1 2 3 4 5 6 
#
# 1 0.021860 -0.003117 0.000331 0.000000 0.000000 0.000000
# 2 -0.003117 0.046765 -0.002638 0.000000 0.000000 0.000000
# 3 0.000331 -0.002638 0.004756 0.000000 0.000000 0.000000
# 4 0.000000 0.000000 0.000000 0.042147 0.000000 0.000000
# 5 0.000000 0.000000 0.000000 0.000000 -0.004143 0.000000
# 6 0.000000 0.000000 0.000000 0.000000 0.000000 -1.394238
#
#
# Mechanical properties :
#
#
# Convention : Reuss Voigt Hill
#
# Bulk Modulus (GPa) = 15.99175 34.74939 25.37057
# Shear Modulus (GPa) = -3.99628 -25.53535 -14.76581
#
# Velocity S-wave (km/s) = -1.32930 -3.36021 -2.55520
# Velocity P-wave (km/s) = 2.17141 0.55724 1.58518
#
# Compressibility (1/GPa) = 0.06253225
#
# Stress axis : x y z
#
# Youngs Moduli (GPa) = 45.74657 21.38354 210.27253
#
# Poissons Ratio (x) = 0.06665 -0.06959
# Poissons Ratio (y) = 0.14258 0.55476
# Poissons Ratio (z) = -0.01514 0.05642
#
# Static dielectric constant tensor:
#      x y z
#    x 1.884590 0.000000 0.000000 
#    y 0.000000 1.803540 0.000000 
#    z 0.000000 0.000000 1.900830 
# 
# From -- ./inp_files/35958.got.cif
#   From: 2010.05.17/outbox.cif.g08.bks.cpg/sg51_18_cif.got.tgz:35958.got - 2010.06.03 11:52:47.
