data_PCOD9400973
_publ_section_title
;
Structure prediction by ZEFSAII (Michael W. Deem and Ramdas Pophale) SiO2 
 PCOD9400973
Probable space group: P M M A
;
_chemical_formula_sum "Si O2"
_cell_formula_units_Z 64
_cell_length_a 28.424639
_cell_length_b 7.582001
_cell_length_c 14.855166
_cell_angle_alpha 90.000000
_cell_angle_beta 90.000000
_cell_angle_gamma 90.000000
_cell_volume 3201.520627
_symmetry_space_group_name_H-M "P M M A"
_symmetry_group_IT_number 51
_symmetry_cell_setting 'orthorhombic'
loop_
_space_group_symop_operation_xyz
x,y,z
1/2-x,-y,z
1/2+x,-y,-z
-x,y,-z
-x,-y,-z
1/2+x,y,-z
1/2-x,y,z
x,-y,z
loop_
_atom_site_type_symbol
_atom_site_label
_atom_site_fract_x
_atom_site_fract_y
_atom_site_fract_z
Si Si1 0.805005 0.714395 0.474378
Si Si2 0.540819 0.785193 0.282106
Si Si3 0.117274 0.296858 0.863982
Si Si4 0.695012 0.715626 0.273336
Si Si5 0.561274 0.794717 0.781397
Si Si6 0.127569 0.697188 0.375205
Si Si7 0.052701 0.704834 0.015974
Si Si8 0.945006 0.207925 0.479683
O O1 0.750000 0.754150 0.480659
O O2 0.810350 0.500000 0.475197
O O3 0.820666 0.773422 0.374180
O O4 0.832303 0.782432 0.562058
O O5 0.573277 0.712137 0.204027
O O6 0.486667 0.730662 0.267120
O O7 0.560842 0.727885 0.378203
O O8 0.542159 0.000000 0.281503
O O9 0.130753 0.500000 0.883087
O O10 0.160854 0.220472 0.806397
O O11 0.094642 0.217137 0.954719
O O12 0.750000 0.763662 0.261433
O O13 0.693180 0.500000 0.274133
O O14 0.605364 0.776943 0.714737
O O15 0.553774 0.000000 0.799381
O O16 0.565118 0.709881 0.879133
O O17 0.142836 0.500000 0.351039
O O18 0.084922 0.694034 0.446494
O O19 0.049245 0.500000 0.986989
O O20 0.000000 0.781148 0.000000
O O21 0.000000 0.220867 0.500000
O O22 0.932547 0.000000 0.486052
#
# Coordination Sequence:
#
# PCOD9400973 Si02
#       8
#     8   8   8   8   8   8   8   8
#     4   8  15  29  49  75 106 133 160 202 256 309
#     4  10  20  32  47  67  96 134 172 203 238 294
#     4  10  19  31  51  75 101 128 160 208 260 303
#     4   8  14  27  49  77 105 130 158 196 247 308
#     4  11  22  36  51  68  97 139 177 207 248 304
#     4  11  21  32  51  77 101 130 171 214 256 300
#     4  10  20  34  50  73 102 131 166 216 264 296
#     4  10  19  33  46  63  99 140 169 197 239 293
#
# _framework density 19.990500000000001
#
# number of rings (size 3 to 8) (size 9 to 14) (size 15 to 20)
#    0.000    2.250    2.500    2.250    0.000    3.000 
#    0.000    0.000    0.000    2.625    0.000    8.750 
#    0.000    0.000    0.000    0.000    0.000    0.000 
#
# Total GULP energy -356937.938811 kJ/mol
# GULP energy per Si atom -5577.155294 kJ/mol
# Density = 1.994500 g / cm^3
# Si number density = 19.990500 Si / 1000 Ang^3
#
#
#
# Elastic Constant Matrix: (Units=GPa)
#
#
# Indices 1 2 3 4 5 6 
#
# 1 92.8072 0.2639 50.8869 0.0000 0.0000 0.0000
# 2 0.2639 40.8267 -0.7556 0.0000 0.0000 0.0000
# 3 50.8869 -0.7556 132.1331 0.0000 0.0000 0.0000
# 4 0.0000 0.0000 0.0000 23.0457 0.0000 0.0000
# 5 0.0000 0.0000 0.0000 0.0000 34.6480 0.0000
# 6 0.0000 0.0000 0.0000 0.0000 0.0000 18.7843
#
#
#
# Elastic Compliance Matrix: (Units=1/GPa)
#
#
# Indices 1 2 3 4 5 6 
#
# 1 0.013661 -0.000186 -0.005262 0.000000 0.000000 0.000000
# 2 -0.000186 0.024499 0.000212 0.000000 0.000000 0.000000
# 3 -0.005262 0.000212 0.009596 0.000000 0.000000 0.000000
# 4 0.000000 0.000000 0.000000 0.043392 0.000000 0.000000
# 5 0.000000 0.000000 0.000000 0.000000 0.028862 0.000000
# 6 0.000000 0.000000 0.000000 0.000000 0.000000 0.053236
#
#
# Mechanical properties :
#
#
# Convention : Reuss Voigt Hill
#
# Bulk Modulus (GPa) = 26.82170 40.72860 33.77515
# Shear Modulus (GPa) = 25.49127 29.65369 27.57248
#
# Velocity S-wave (km/s) = 3.57483 3.85566 3.71789
# Velocity P-wave (km/s) = 5.52137 6.34347 5.94665
#
# Compressibility (1/GPa) = 0.03728324
#
# Stress axis : x y z
#
# Youngs Moduli (GPa) = 73.20222 40.81813 104.21160
#
# Poissons Ratio (x) = 0.00758 0.54837
# Poissons Ratio (y) = 0.01359 -0.02205
# Poissons Ratio (z) = 0.38520 -0.00864
#
# Static dielectric constant tensor:
#      x y z
#    x 1.713010 0.000000 0.000000 
#    y 0.000000 1.761320 0.000000 
#    z 0.000000 0.000000 1.713130 
# 
# From -- ./inp_files/26666.got.cif
#   From: 2010.05.17/outbox.cif.g08.bks.cpg/sg51_14_cif.got.tgz:26666.got - 2010.06.03 11:52:47.
