data_PCOD9400841
_publ_section_title
;
Structure prediction by ZEFSAII (Michael W. Deem and Ramdas Pophale) SiO2 
 PCOD9400841
Probable space group: P M M A
;
_chemical_formula_sum "Si O2"
_cell_formula_units_Z 44
_cell_length_a 8.440215
_cell_length_b 29.781638
_cell_length_c 9.506396
_cell_angle_alpha 90.000000
_cell_angle_beta 90.000000
_cell_angle_gamma 90.000000
_cell_volume 2389.560284
_symmetry_space_group_name_H-M "P M M A"
_symmetry_group_IT_number 51
_symmetry_cell_setting 'orthorhombic'
loop_
_space_group_symop_operation_xyz
x,y,z
1/2-x,-y,z
1/2+x,-y,-z
-x,y,-z
-x,-y,-z
1/2+x,y,-z
1/2-x,y,z
x,-y,z
loop_
_atom_site_type_symbol
_atom_site_label
_atom_site_fract_x
_atom_site_fract_y
_atom_site_fract_z
Si Si1 0.560540 0.228195 0.157977
Si Si2 0.058574 0.500000 0.840094
Si Si3 0.441495 0.048234 0.338329
Si Si4 0.441612 0.413629 0.659305
Si Si5 0.939810 0.145845 0.659840
Si Si6 0.441476 0.329064 0.841126
O O1 0.750000 0.227821 0.158483
O O2 0.500312 0.188236 0.254575
O O3 0.507542 0.278599 0.200856
O O4 0.500000 0.221219 0.000000
O O5 0.250000 0.500000 0.843053
O O6 0.006545 0.544146 0.754281
O O7 0.000000 0.500000 0.000000
O O8 0.500000 0.048195 0.500000
O O9 0.250000 0.048127 0.337949
O O10 0.492711 0.096831 0.280172
O O11 0.494429 0.000000 0.275934
O O12 0.500000 0.417230 0.500000
O O13 0.250000 0.413660 0.657322
O O14 0.495590 0.367722 0.734969
O O15 0.750000 0.146520 0.659316
O O16 0.000000 0.148656 0.500000
O O17 0.250000 0.329811 0.843853
O O18 0.500000 0.337610 0.000000
#
# Coordination Sequence:
#
# PCOD9400841 Si02
#       6
#     8   4   8   8   8   8
#     4  10  20  35  53  73  99 132 169 209 252 301
#     4  10  21  36  56  80 106 136 173 212 248 294
#     4   8  14  25  42  65  93 124 158 197 242 292
#     4  10  21  36  53  78 108 136 168 207 251 297
#     4  10  19  31  49  74 102 131 164 205 251 298
#     4   9  19  35  54  75  99 129 168 208 247 297
#
# _framework density 18.413430000000002
#
# number of rings (size 3 to 8) (size 9 to 14) (size 15 to 20)
#    0.000    2.545    0.000    1.909    0.000    3.636 
#    0.000    1.818    0.000    0.545    0.000    0.000 
#    0.000    0.000    0.000    0.000    0.000    0.000 
#
# Total GULP energy -245244.183962 kJ/mol
# GULP energy per Si atom -5573.731454 kJ/mol
# Density = 1.837152 g / cm^3
# Si number density = 18.413430 Si / 1000 Ang^3
#
#
#
# Elastic Constant Matrix: (Units=GPa)
#
#
# Indices 1 2 3 4 5 6 
#
# 1 17.5891 33.3584 16.3035 0.0000 0.0000 0.0000
# 2 33.3584 221.8454 112.5586 0.0000 0.0000 0.0000
# 3 16.3035 112.5586 100.5324 0.0000 0.0000 0.0000
# 4 0.0000 0.0000 0.0000 169.7494 0.0000 0.0000
# 5 0.0000 0.0000 0.0000 0.0000 30.8729 0.0000
# 6 0.0000 0.0000 0.0000 0.0000 0.0000 19.0403
#
#
#
# Elastic Compliance Matrix: (Units=1/GPa)
#
#
# Indices 1 2 3 4 5 6 
#
# 1 0.079591 -0.012546 0.001140 0.000000 0.000000 0.000000
# 2 -0.012546 0.012414 -0.011864 0.000000 0.000000 0.000000
# 3 0.001140 -0.011864 0.023046 0.000000 0.000000 0.000000
# 4 0.000000 0.000000 0.000000 0.005891 0.000000 0.000000
# 5 0.000000 0.000000 0.000000 0.000000 0.032391 0.000000
# 6 0.000000 0.000000 0.000000 0.000000 0.000000 0.052520
#
#
# Mechanical properties :
#
#
# Convention : Reuss Voigt Hill
#
# Bulk Modulus (GPa) = 14.59658 73.82309 44.20984
# Shear Modulus (GPa) = 18.16661 55.78229 36.97445
#
# Velocity S-wave (km/s) = 3.14442 5.51000 4.48595
# Velocity P-wave (km/s) = 4.59647 8.98105 7.13396
#
# Compressibility (1/GPa) = 0.06850922
#
# Stress axis : x y z
#
# Youngs Moduli (GPa) = 12.56419 80.55622 43.39237
#
# Poissons Ratio (x) = 1.01067 -0.04945
# Poissons Ratio (y) = 0.15763 0.51481
# Poissons Ratio (z) = -0.01432 0.95572
#
# Static dielectric constant tensor:
#      x y z
#    x 1.644860 0.000000 0.000000 
#    y 0.000000 1.694140 0.000000 
#    z 0.000000 0.000000 1.581270 
# 
# From -- ./inp_files/5848.got.cif
#   From: 2010.05.17/outbox.cif.g08.bks.cpg/sg51_3_cif.got.tgz:5848.got - 2010.06.03 11:52:47.
