data_PCOD9400460
_publ_section_title
;
Structure prediction by ZEFSAII (Michael W. Deem and Ramdas Pophale) SiO2 
 PCOD9400460
Probable space group: P M M A
;
_chemical_formula_sum "Si O2"
_cell_formula_units_Z 48
_cell_length_a 18.269796
_cell_length_b 7.436547
_cell_length_c 15.912826
_cell_angle_alpha 90.000000
_cell_angle_beta 90.000000
_cell_angle_gamma 90.000000
_cell_volume 2161.983321
_symmetry_space_group_name_H-M "P M M A"
_symmetry_group_IT_number 51
_symmetry_cell_setting 'orthorhombic'
loop_
_space_group_symop_operation_xyz
x,y,z
1/2-x,-y,z
1/2+x,-y,-z
-x,y,-z
-x,-y,-z
1/2+x,y,-z
1/2-x,y,z
x,-y,z
loop_
_atom_site_type_symbol
_atom_site_label
_atom_site_fract_x
_atom_site_fract_y
_atom_site_fract_z
Si Si1 0.335939 0.782629 0.277576
Si Si2 0.831027 0.280708 0.016672
Si Si3 0.061387 0.706089 0.123793
Si Si4 0.334163 0.784640 0.461006
Si Si5 0.666217 0.286150 0.355646
Si Si6 0.905817 0.280385 0.185855
O O1 0.250000 0.734324 0.270533
O O2 0.383300 0.707742 0.202102
O O3 0.363592 0.724392 0.370436
O O4 0.339980 0.000000 0.272830
O O5 0.750000 0.220427 0.991114
O O6 0.831091 0.500000 0.011549
O O7 0.848700 0.234034 0.112622
O O8 0.894721 0.214415 0.954850
O O9 0.044485 0.500000 0.099608
O O10 0.985002 0.785288 0.155107
O O11 0.250000 0.717658 0.464889
O O12 0.367311 0.741774 0.551592
O O13 0.331429 0.000000 0.456138
O O14 0.750000 0.214245 0.354477
O O15 0.671813 0.500000 0.344660
O O16 0.619778 0.216540 0.277189
O O17 0.909251 0.500000 0.189894
#
# Coordination Sequence:
#
# PCOD9400460 Si02
#       6
#     8   8   8   8   8   8
#     4   9  18  33  51  69  92 124 157 189 232 282
#     4   9  16  27  46  71  95 121 157 196 229 268
#     4  10  19  30  47  72  98 123 154 192 231 272
#     4   8  15  29  48  68  90 118 153 193 235 275
#     4   9  16  27  46  70  92 119 158 197 231 271
#     4   9  17  29  44  66  99 130 151 183 236 284
#
# _framework density 22.201834000000002
#
# number of rings (size 3 to 8) (size 9 to 14) (size 15 to 20)
#    0.000    3.000    0.000    2.500    0.000    5.667 
#    0.000    3.333    0.000    8.000    0.000    2.333 
#    0.000    0.000    0.000    0.000    0.000    0.000 
#
# Total GULP energy -267778.628202 kJ/mol
# GULP energy per Si atom -5578.721421 kJ/mol
# Density = 2.215130 g / cm^3
# Si number density = 22.201834 Si / 1000 Ang^3
#
#
#
# Elastic Constant Matrix: (Units=GPa)
#
#
# Indices 1 2 3 4 5 6 
#
# 1 43.8198 -2.0602 0.5594 0.0000 0.0000 0.0000
# 2 -2.0602 68.4806 -7.5686 0.0000 0.0000 0.0000
# 3 0.5594 -7.5686 108.3968 0.0000 0.0000 0.0000
# 4 0.0000 0.0000 0.0000 32.7023 0.0000 0.0000
# 5 0.0000 0.0000 0.0000 0.0000 -64.5351 0.0000
# 6 0.0000 0.0000 0.0000 0.0000 0.0000 -4.6477
#
#
#
# Elastic Compliance Matrix: (Units=1/GPa)
#
#
# Indices 1 2 3 4 5 6 
#
# 1 0.022854 0.000680 -0.000070 0.000000 0.000000 0.000000
# 2 0.000680 0.014736 0.001025 0.000000 0.000000 0.000000
# 3 -0.000070 0.001025 0.009297 0.000000 0.000000 0.000000
# 4 0.000000 0.000000 0.000000 0.030579 0.000000 0.000000
# 5 0.000000 0.000000 0.000000 0.000000 -0.015495 0.000000
# 6 0.000000 0.000000 0.000000 0.000000 0.000000 -0.215160
#
#
# Mechanical properties :
#
#
# Convention : Reuss Voigt Hill
#
# Bulk Modulus (GPa) = 19.93749 22.50651 21.22200
# Shear Modulus (GPa) = -35.78078 8.02168 -13.87955
#
# Velocity S-wave (km/s) = -4.01885 1.90287 -2.50302
# Velocity P-wave (km/s) = 3.54051 3.87132 1.10723
#
# Compressibility (1/GPa) = 0.05015676
#
# Stress axis : x y z
#
# Youngs Moduli (GPa) = 43.75679 67.85892 107.55782
#
# Poissons Ratio (x) = -0.04613 0.00758
# Poissons Ratio (y) = -0.02974 -0.11029
# Poissons Ratio (z) = 0.00308 -0.06958
#
# Static dielectric constant tensor:
#      x y z
#    x 1.791650 0.000000 0.000000 
#    y 0.000000 0.533740 0.000000 
#    z 0.000000 0.000000 1.824610 
# 
# From -- ./inp_files/18112.got.cif
#   From: 2010.05.17/outbox.cif.g08.bks.cpg/sg51_10_cif.got.tgz:18112.got - 2010.06.03 11:52:47.
