data_PCOD9400450
_publ_section_title
;
Structure prediction by ZEFSAII (Michael W. Deem and Ramdas Pophale) SiO2 
 PCOD9400450
Probable space group: P M M A
;
_chemical_formula_sum "Si O2"
_cell_formula_units_Z 32
_cell_length_a 11.333636
_cell_length_b 15.378680
_cell_length_c 7.649280
_cell_angle_alpha 90.000000
_cell_angle_beta 90.000000
_cell_angle_gamma 90.000000
_cell_volume 1333.241670
_symmetry_space_group_name_H-M "P M M A"
_symmetry_group_IT_number 51
_symmetry_cell_setting 'orthorhombic'
loop_
_space_group_symop_operation_xyz
x,y,z
1/2-x,-y,z
1/2+x,-y,-z
-x,y,-z
-x,-y,-z
1/2+x,y,-z
1/2-x,y,z
x,-y,z
loop_
_atom_site_type_symbol
_atom_site_label
_atom_site_fract_x
_atom_site_fract_y
_atom_site_fract_z
Si Si1 0.125172 0.401292 0.019718
Si Si2 0.624141 0.371497 0.578458
Si Si3 0.122285 0.832201 0.330218
Si Si4 0.379067 0.101481 0.721552
O O1 0.250000 0.361988 0.958888
O O2 0.117594 0.500000 0.945720
O O3 0.131963 0.407991 0.227643
O O4 0.000000 0.354389 0.000000
O O5 0.500000 0.399688 0.500000
O O6 0.750000 0.391807 0.487204
O O7 0.618544 0.267319 0.604443
O O8 0.250000 0.845705 0.241162
O O9 0.123304 0.887879 0.509486
O O10 0.002384 0.853334 0.227651
O O11 0.250000 0.135560 0.781281
O O12 0.386064 0.000000 0.766261
#
# Coordination Sequence:
#
# PCOD9400450 Si02
#       4
#     8   8   8   8
#     4   9  19  36  54  71  93 123 160 199 236 278
#     4  10  19  30  47  71  98 126 155 192 237 284
#     4   9  15  23  35  54  83 117 147 179 221 268
#     4   9  15  22  34  53  81 119 156 184 217 266
#
# _framework density 24.001649
#
# number of rings (size 3 to 8) (size 9 to 14) (size 15 to 20)
#    0.000    2.750    2.500    1.500    0.000    3.000 
#    0.000    0.000    0.000    0.000    0.000    0.000 
#    0.000    4.000    0.000   11.500    0.000    8.500 
#
# Total GULP energy -178165.329260 kJ/mol
# GULP energy per Si atom -5567.666539 kJ/mol
# Density = 2.394702 g / cm^3
# Si number density = 24.001649 Si / 1000 Ang^3
#
#
#
# Elastic Constant Matrix: (Units=GPa)
#
#
# Indices 1 2 3 4 5 6 
#
# 1 358.8428 28.2637 16.9664 0.0000 0.0000 0.0000
# 2 28.2637 63.7218 -8.6507 0.0000 0.0000 0.0000
# 3 16.9664 -8.6507 27.1226 0.0000 0.0000 0.0000
# 4 0.0000 0.0000 0.0000 -2.1981 0.0000 0.0000
# 5 0.0000 0.0000 0.0000 0.0000 8.7695 0.0000
# 6 0.0000 0.0000 0.0000 0.0000 0.0000**********
#
#
#
# Elastic Compliance Matrix: (Units=1/GPa)
#
#
# Indices 1 2 3 4 5 6 
#
# 1 0.003034 -0.001676 -0.002432 0.000000 0.000000 0.000000
# 2 -0.001676 0.017329 0.006575 0.000000 0.000000 0.000000
# 3 -0.002432 0.006575 0.040488 0.000000 0.000000 0.000000
# 4 0.000000 0.000000 0.000000 -0.454931 0.000000 0.000000
# 5 0.000000 0.000000 0.000000 0.000000 0.114031 0.000000
# 6 0.000000 0.000000 0.000000 0.000000 0.000000 -0.000046
#
#
# Mechanical properties :
#
#
# Convention : Reuss Voigt Hill
#
# Bulk Modulus (GPa) = 15.20082 58.09401 36.64742
# Shear Modulus (GPa) = -19.00415 -4330.00433 -2174.50424
#
# Velocity S-wave (km/s) = -2.81692 -42.52012 -30.13218
# Velocity P-wave (km/s) = 2.05744 48.85036 34.57305
#
# Compressibility (1/GPa) = 0.06578593
#
# Stress axis : x y z
#
# Youngs Moduli (GPa) = 329.62781 57.70622 24.69847
#
# Poissons Ratio (x) = 0.09670 0.06007
# Poissons Ratio (y) = 0.55239 -0.16240
# Poissons Ratio (z) = 0.80173 -0.37944
#
# Static dielectric constant tensor:
#      x y z
#    x 2.130550 0.000000 0.000000 
#    y 0.000000 1.927390 0.000000 
#    z 0.000000 0.000000 1.872320 
# 
# From -- ./inp_files/6645.got.cif
#   From: 2010.05.17/outbox.cif.g08.bks.cpg/sg51_4_cif.got.tgz:6645.got - 2010.06.03 11:52:47.
