data_PCOD9400476
_publ_section_title
;
Structure prediction by ZEFSAII (Michael W. Deem and Ramdas Pophale) SiO2 
 PCOD9400476
Probable space group: P M M A
;
_chemical_formula_sum "Si O2"
_cell_formula_units_Z 58
_cell_length_a 32.837156
_cell_length_b 7.340310
_cell_length_c 11.279813
_cell_angle_alpha 90.000000
_cell_angle_beta 90.000000
_cell_angle_gamma 90.000000
_cell_volume 2718.828650
_symmetry_space_group_name_H-M "P M M A"
_symmetry_group_IT_number 51
_symmetry_cell_setting 'orthorhombic'
loop_
_space_group_symop_operation_xyz
x,y,z
1/2-x,-y,z
1/2+x,-y,-z
-x,y,-z
-x,-y,-z
1/2+x,y,-z
1/2-x,y,z
x,-y,z
loop_
_atom_site_type_symbol
_atom_site_label
_atom_site_fract_x
_atom_site_fract_y
_atom_site_fract_z
Si Si1 0.368618 0.209719 0.364291
Si Si2 0.549315 0.719663 0.748365
Si Si3 0.627328 0.790051 0.122562
Si Si4 0.750000 0.500000 0.887642
Si Si5 0.472991 0.280244 0.614373
Si Si6 0.377563 0.787654 0.620233
Si Si7 0.046650 0.280112 0.993503
Si Si8 0.673161 0.224573 0.882355
O O1 0.417265 0.217044 0.344175
O O2 0.361611 0.291525 0.495171
O O3 0.348782 0.279017 0.242342
O O4 0.355860 0.000000 0.370782
O O5 0.549388 0.500000 0.744841
O O6 0.503130 0.775563 0.720843
O O7 0.563279 0.777592 0.877992
O O8 0.635900 0.708298 0.252536
O O9 0.578613 0.782805 0.103030
O O10 0.639721 0.000000 0.128945
O O11 0.647919 0.721113 0.001543
O O12 0.714458 0.338713 0.887070
O O13 0.500000 0.228104 0.500000
O O14 0.470184 0.500000 0.614253
O O15 0.426921 0.215728 0.617171
O O16 0.365752 0.000000 0.620577
O O17 0.045883 0.500000 0.984702
O O18 0.000000 0.220074 0.000000
O O19 0.677293 0.000000 0.882479
#
# Coordination Sequence:
#
# PCOD9400476 Si02
#       8
#     8   8   8   2   8   8   8   8
#     4  10  20  35  57  83 114 153 197 244 298 357
#     4  10  19  30  48  71 107 152 206 257 305 348
#     4  10  21  37  57  84 121 160 202 254 305 359
#     4  12  26  44  80 108 126 154 192 246 314 386
#     4  10  19  31  45  71 110 160 214 268 306 340
#     4  10  21  35  53  80 115 163 212 253 303 353
#     4  10  20  32  49  74 111 160 211 258 302 349
#     4  10  23  44  70 101 131 158 197 248 307 381
#
# _framework density 21.332718
#
# number of rings (size 3 to 8) (size 9 to 14) (size 15 to 20)
#    0.000    1.931    2.759    1.034    1.931    2.759 
#    0.000    0.000    0.000    1.655    0.000    4.828 
#    0.000    0.000    0.000    0.000    0.000    0.000 
#
# Total GULP energy -322902.471732 kJ/mol
# GULP energy per Si atom -5567.283995 kJ/mol
# Density = 2.128416 g / cm^3
# Si number density = 21.332718 Si / 1000 Ang^3
#
#
#
# Elastic Constant Matrix: (Units=GPa)
#
#
# Indices 1 2 3 4 5 6 
#
# 1 97.8365 9.5227 55.1869 0.0000 0.0000 0.0000
# 2 9.5227 90.7746 19.1337 0.0000 0.0000 0.0000
# 3 55.1869 19.1337 202.4199 0.0000 0.0000 0.0000
# 4 0.0000 0.0000 0.0000 -8.3057 0.0000 0.0000
# 5 0.0000 0.0000 0.0000 0.0000 -2.8683 0.0000
# 6 0.0000 0.0000 0.0000 0.0000 0.0000 25.8408
#
#
#
# Elastic Compliance Matrix: (Units=1/GPa)
#
#
# Indices 1 2 3 4 5 6 
#
# 1 0.012109 -0.000586 -0.003246 0.000000 0.000000 0.000000
# 2 -0.000586 0.011269 -0.000905 0.000000 0.000000 0.000000
# 3 -0.003246 -0.000905 0.005911 0.000000 0.000000 0.000000
# 4 0.000000 0.000000 0.000000 -0.120400 0.000000 0.000000
# 5 0.000000 0.000000 0.000000 0.000000 -0.348638 0.000000
# 6 0.000000 0.000000 0.000000 0.000000 0.000000 0.038699
#
#
# Mechanical properties :
#
#
# Convention : Reuss Voigt Hill
#
# Bulk Modulus (GPa) = 50.47032 62.07972 56.27502
# Shear Modulus (GPa) = -12.98799 23.41254 5.21228
#
# Velocity S-wave (km/s) = -2.47012 3.31644 1.56481
# Velocity P-wave (km/s) = 3.94647 6.62034 5.44993
#
# Compressibility (1/GPa) = 0.01981362
#
# Stress axis : x y z
#
# Youngs Moduli (GPa) = 82.58215 88.74202 169.18254
#
# Poissons Ratio (x) = 0.05201 0.54916
# Poissons Ratio (y) = 0.04840 0.15317
# Poissons Ratio (z) = 0.26806 0.08034
#
# Static dielectric constant tensor:
#      x y z
#    x 1.705510 0.000000 0.000000 
#    y 0.000000 1.814130 0.000000 
#    z 0.000000 0.000000 1.883890 
# 
# From -- ./inp_files/19397.got.cif
#   From: 2010.05.17/outbox.cif.g08.bks.cpg/sg51_10_cif.got.tgz:19397.got - 2010.06.03 11:52:47.
