data_PCOD9400539
_publ_section_title
;
Structure prediction by ZEFSAII (Michael W. Deem and Ramdas Pophale) SiO2 
 PCOD9400539
Probable space group: P M M A
;
_chemical_formula_sum "Si O2"
_cell_formula_units_Z 56
_cell_length_a 19.927438
_cell_length_b 7.453089
_cell_length_c 17.151769
_cell_angle_alpha 90.000000
_cell_angle_beta 90.000000
_cell_angle_gamma 90.000000
_cell_volume 2547.397351
_symmetry_space_group_name_H-M "P M M A"
_symmetry_group_IT_number 51
_symmetry_cell_setting 'orthorhombic'
loop_
_space_group_symop_operation_xyz
x,y,z
1/2-x,-y,z
1/2+x,-y,-z
-x,y,-z
-x,-y,-z
1/2+x,y,-z
1/2-x,y,z
x,-y,z
loop_
_atom_site_type_symbol
_atom_site_label
_atom_site_fract_x
_atom_site_fract_y
_atom_site_fract_z
Si Si1 0.173048 0.783821 0.692451
Si Si2 0.327611 0.280660 0.146105
Si Si3 0.445278 0.286371 0.250717
Si Si4 0.673945 0.781207 0.481203
Si Si5 0.075346 0.710065 0.833145
Si Si6 0.421037 0.282145 0.001500
Si Si7 0.951951 0.215660 0.569730
O O1 0.250000 0.725053 0.702665
O O2 0.150798 0.727090 0.605750
O O3 0.126439 0.724680 0.762171
O O4 0.172647 0.000000 0.692381
O O5 0.250000 0.220316 0.145533
O O6 0.325045 0.500000 0.145049
O O7 0.372390 0.223817 0.221078
O O8 0.372369 0.222315 0.071238
O O9 0.444387 0.500000 0.239975
O O10 0.504438 0.212031 0.195638
O O11 0.464831 0.257384 0.340463
O O12 0.750000 0.721256 0.492603
O O13 0.622255 0.721613 0.546091
O O14 0.674752 0.000000 0.481398
O O15 0.062780 0.500000 0.847254
O O16 0.102996 0.777125 0.915544
O O17 0.420442 0.500000 0.008757
O O18 0.500000 0.230144 0.000000
O O19 0.000000 0.281632 0.500000
O O20 0.954091 0.000000 0.565153
#
# Coordination Sequence:
#
# PCOD9400539 Si02
#       7
#     8   8   8   8   8   8   8
#     4   9  18  33  52  73  99 131 164 202 250 302
#     4   9  17  30  49  73 101 135 174 212 251 299
#     4  10  20  33  49  73 104 135 164 204 258 306
#     4   8  15  30  50  68  89 123 165 203 243 294
#     4  10  19  30  50  76 102 131 164 205 250 295
#     4   9  15  28  49  71  99 134 170 207 247 295
#     4  10  20  33  51  74  97 125 168 214 248 290
#
# _framework density 21.983221
#
# number of rings (size 3 to 8) (size 9 to 14) (size 15 to 20)
#    0.000    2.714    1.429    1.714    0.000    3.429 
#    0.000    2.143    0.000    2.143    0.000    0.000 
#    0.000    0.000    0.000    0.000    0.000    0.000 
#
# Total GULP energy -312383.895157 kJ/mol
# GULP energy per Si atom -5578.283842 kJ/mol
# Density = 2.193319 g / cm^3
# Si number density = 21.983221 Si / 1000 Ang^3
#
#
#
# Elastic Constant Matrix: (Units=GPa)
#
#
# Indices 1 2 3 4 5 6 
#
# 1 91.4918 2.9259 48.8825 0.0000 0.0000 0.0000
# 2 2.9259 61.1259 -0.0859 0.0000 0.0000 0.0000
# 3 48.8825 -0.0859 111.4244 0.0000 0.0000 0.0000
# 4 0.0000 0.0000 0.0000 16.2160 0.0000 0.0000
# 5 0.0000 0.0000 0.0000 0.0000 37.9490 0.0000
# 6 0.0000 0.0000 0.0000 0.0000 0.0000 -6.0092
#
#
#
# Elastic Compliance Matrix: (Units=1/GPa)
#
#
# Indices 1 2 3 4 5 6 
#
# 1 0.014306 -0.000694 -0.006276 0.000000 0.000000 0.000000
# 2 -0.000694 0.016393 0.000317 0.000000 0.000000 0.000000
# 3 -0.006276 0.000317 0.011728 0.000000 0.000000 0.000000
# 4 0.000000 0.000000 0.000000 0.061668 0.000000 0.000000
# 5 0.000000 0.000000 0.000000 0.000000 0.026351 0.000000
# 6 0.000000 0.000000 0.000000 0.000000 0.000000 -0.166411
#
#
# Mechanical properties :
#
#
# Convention : Reuss Voigt Hill
#
# Bulk Modulus (GPa) = 34.33939 40.83189 37.58564
# Shear Modulus (GPa) = -386.06288 23.78578 -181.13855
#
# Velocity S-wave (km/s) = -13.26644 3.29294 -9.08721
# Velocity P-wave (km/s) = 14.79898 5.75086 9.64203
#
# Compressibility (1/GPa) = 0.02912108
#
# Stress axis : x y z
#
# Youngs Moduli (GPa) = 69.90308 61.00044 85.26276
#
# Poissons Ratio (x) = 0.04231 0.53515
# Poissons Ratio (y) = 0.04848 -0.02702
# Poissons Ratio (z) = 0.43874 -0.01933
#
# Static dielectric constant tensor:
#      x y z
#    x 1.798730 0.000000 0.000000 
#    y 0.000000 1.858700 0.000000 
#    z 0.000000 0.000000 1.805210 
# 
# From -- ./inp_files/25784.got.cif
#   From: 2010.05.17/outbox.cif.g08.bks.cpg/sg51_13_cif.got.tgz:25784.got - 2010.06.03 11:52:47.
