data_PCOD9400453
_publ_section_title
;
Structure prediction by ZEFSAII (Michael W. Deem and Ramdas Pophale) SiO2 
 PCOD9400453
Probable space group: P M M A
;
_chemical_formula_sum "Si O2"
_cell_formula_units_Z 64
_cell_length_a 9.316511
_cell_length_b 22.252182
_cell_length_c 16.318980
_cell_angle_alpha 90.000000
_cell_angle_beta 90.000000
_cell_angle_gamma 90.000000
_cell_volume 3383.131779
_symmetry_space_group_name_H-M "P M M A"
_symmetry_group_IT_number 51
_symmetry_cell_setting 'orthorhombic'
loop_
_space_group_symop_operation_xyz
x,y,z
1/2-x,-y,z
1/2+x,-y,-z
-x,y,-z
-x,-y,-z
1/2+x,y,-z
1/2-x,y,z
x,-y,z
loop_
_atom_site_type_symbol
_atom_site_label
_atom_site_fract_x
_atom_site_fract_y
_atom_site_fract_z
Si Si1 0.421291 0.567605 0.736994
Si Si2 0.077867 0.858556 0.084861
Si Si3 0.083854 0.092118 0.582520
Si Si4 0.081467 0.400022 0.922717
Si Si5 0.088283 0.315303 0.300442
Si Si6 0.588880 0.283157 0.890348
Si Si7 0.580072 0.929991 0.230032
Si Si8 0.585554 0.763234 0.420354
O O1 0.250000 0.578701 0.728269
O O2 0.452459 0.500000 0.708626
O O3 0.454218 0.572083 0.834372
O O4 0.512003 0.620036 0.695219
O O5 0.250000 0.869653 0.081642
O O6 0.057053 0.786368 0.092706
O O7 0.007984 0.890566 0.164510
O O8 0.000000 0.877811 0.000000
O O9 0.250000 0.072729 0.575750
O O10 0.032085 0.074477 0.674075
O O11 0.080187 0.164636 0.582963
O O12 0.000000 0.072605 0.500000
O O13 0.250000 0.405202 0.934297
O O14 0.030350 0.330555 0.918046
O O15 0.000000 0.427243 0.000000
O O16 0.250000 0.317436 0.333553
O O17 0.095946 0.294884 0.206470
O O18 0.993033 0.266038 0.344605
O O19 0.750000 0.297037 0.923214
O O20 0.750000 0.912551 0.228580
O O21 0.569597 0.000000 0.206392
O O22 0.500000 0.743050 0.500000
O O23 0.750000 0.744602 0.423961
#
# Coordination Sequence:
#
# PCOD9400453 Si02
#       8
#     8   8   8   8   8   8   8   8
#     4   9  19  35  51  68  94 132 176 214 250 298
#     4  11  23  38  57  80 106 140 183 230 280 329
#     4   9  19  35  57  86 117 147 178 215 263 320
#     4  10  19  30  47  71  99 131 166 207 255 306
#     4  10  19  32  52  78 106 134 168 212 260 309
#     4   9  19  34  52  76 104 133 167 211 263 318
#     4  10  22  40  59  80 109 145 185 227 269 317
#     4  10  19  32  52  79 110 140 169 203 249 305
#
# _framework density 18.917383999999998
#
# number of rings (size 3 to 8) (size 9 to 14) (size 15 to 20)
#    0.000    2.250    0.000    2.625    0.000    5.250 
#    0.000    0.000    0.000    0.375    0.000    0.000 
#    0.000    0.000    0.000    0.000    0.000    0.000 
#
# Total GULP energy -357004.234058 kJ/mol
# GULP energy per Si atom -5578.191157 kJ/mol
# Density = 1.887433 g / cm^3
# Si number density = 18.917384 Si / 1000 Ang^3
#
#
#
# Elastic Constant Matrix: (Units=GPa)
#
#
# Indices 1 2 3 4 5 6 
#
# 1 86.6296 36.1544 34.9535 0.0000 0.0000 0.0000
# 2 36.1544 58.1790 24.4094 0.0000 0.0000 0.0000
# 3 34.9535 24.4094 72.0450 0.0000 0.0000 0.0000
# 4 0.0000 0.0000 0.0000 4.0849 0.0000 0.0000
# 5 0.0000 0.0000 0.0000 0.0000 35.6767 0.0000
# 6 0.0000 0.0000 0.0000 0.0000 0.0000 -25.3789
#
#
#
# Elastic Compliance Matrix: (Units=1/GPa)
#
#
# Indices 1 2 3 4 5 6 
#
# 1 0.017292 -0.008424 -0.005536 0.000000 0.000000 0.000000
# 2 -0.008424 0.024140 -0.004092 0.000000 0.000000 0.000000
# 3 -0.005536 -0.004092 0.017952 0.000000 0.000000 0.000000
# 4 0.000000 0.000000 0.000000 0.244802 0.000000 0.000000
# 5 0.000000 0.000000 0.000000 0.000000 0.028029 0.000000
# 6 0.000000 0.000000 0.000000 0.000000 0.000000 -0.039403
#
#
# Mechanical properties :
#
#
# Convention : Reuss Voigt Hill
#
# Bulk Modulus (GPa) = 42.95133 45.32091 44.13612
# Shear Modulus (GPa) = 14.85106 10.96565 12.90836
#
# Velocity S-wave (km/s) = 2.80491 2.41023 2.61502
# Velocity P-wave (km/s) = 5.76576 5.63515 5.70083
#
# Compressibility (1/GPa) = 0.02328217
#
# Stress axis : x y z
#
# Youngs Moduli (GPa) = 57.82860 41.42528 55.70320
#
# Poissons Ratio (x) = 0.34895 0.30835
# Poissons Ratio (y) = 0.48713 0.22793
# Poissons Ratio (z) = 0.32012 0.16951
#
# Static dielectric constant tensor:
#      x y z
#    x 1.666250 0.000000 0.000000 
#    y 0.000000 1.648080 0.000000 
#    z 0.000000 0.000000 1.698170 
# 
# From -- ./inp_files/22374.got.cif
#   From: 2010.05.17/outbox.cif.g08.bks.cpg/sg51_12_cif.got.tgz:22374.got - 2010.06.03 11:52:47.
