data_PCOD9400533
_publ_section_title
;
Structure prediction by ZEFSAII (Michael W. Deem and Ramdas Pophale) SiO2 
 PCOD9400533
Probable space group: P M M A
;
_chemical_formula_sum "Si O2"
_cell_formula_units_Z 64
_cell_length_a 18.748574
_cell_length_b 13.112500
_cell_length_c 14.999429
_cell_angle_alpha 90.000000
_cell_angle_beta 90.000000
_cell_angle_gamma 90.000000
_cell_volume 3687.469774
_symmetry_space_group_name_H-M "P M M A"
_symmetry_group_IT_number 51
_symmetry_cell_setting 'orthorhombic'
loop_
_space_group_symop_operation_xyz
x,y,z
1/2-x,-y,z
1/2+x,-y,-z
-x,y,-z
-x,-y,-z
1/2+x,y,-z
1/2-x,y,z
x,-y,z
loop_
_atom_site_type_symbol
_atom_site_label
_atom_site_fract_x
_atom_site_fract_y
_atom_site_fract_z
Si Si1 0.170395 0.801332 0.175471
Si Si2 0.824974 0.882273 0.631689
Si Si3 0.043492 0.259495 0.748231
Si Si4 0.900240 0.618418 0.722246
Si Si5 0.523323 0.879530 0.897785
Si Si6 0.480481 0.883737 0.397887
Si Si7 0.581355 0.621555 0.514087
Si Si8 0.665970 0.376809 0.338042
O O1 0.250000 0.799695 0.135646
O O2 0.172496 0.875485 0.261418
O O3 0.150456 0.692752 0.220926
O O4 0.104191 0.838594 0.116563
O O5 0.750000 0.833523 0.602842
O O6 0.900284 0.840478 0.602069
O O7 0.823809 0.000000 0.603006
O O8 0.029006 0.184270 0.664856
O O9 0.118321 0.315918 0.733956
O O10 0.980778 0.344128 0.742635
O O11 0.026833 0.189759 0.834236
O O12 0.890571 0.500000 0.744340
O O13 0.891433 0.630373 0.615463
O O14 0.520205 0.000000 0.873787
O O15 0.500000 0.869314 0.000000
O O16 0.500000 0.889243 0.500000
O O17 0.478990 0.000000 0.361951
O O18 0.500000 0.661764 0.500000
O O19 0.575414 0.500000 0.500000
O O20 0.633794 0.655095 0.434862
O O21 0.750000 0.354831 0.332839
O O22 0.657024 0.500000 0.327836
#
# Coordination Sequence:
#
# PCOD9400533 Si02
#       8
#     8   8   8   8   8   8   8   8
#     4  10  20  33  53  82 111 141 174 217 278 338
#     4   9  16  29  49  73 101 132 173 222 266 313
#     4  11  20  33  57  78 106 142 185 226 271 326
#     4  10  19  30  49  77 112 152 189 227 273 322
#     4  10  21  39  63  89 111 135 175 228 282 338
#     4  10  20  32  48  74 107 145 183 220 265 324
#     4   9  16  28  47  73 107 148 194 236 270 309
#     4  10  21  35  52  77 110 151 197 238 271 309
#
# _framework density 17.356075000000001
#
# number of rings (size 3 to 8) (size 9 to 14) (size 15 to 20)
#    0.000    2.125    3.750    1.125    1.750    1.500 
#    0.000    3.750    0.000   12.375    0.000    0.000 
#    0.000    0.000    0.000    0.000    0.000    0.000 
#
# Total GULP energy -356604.283598 kJ/mol
# GULP energy per Si atom -5571.941931 kJ/mol
# Density = 1.731657 g / cm^3
# Si number density = 17.356075 Si / 1000 Ang^3
#
#
#
# Elastic Constant Matrix: (Units=GPa)
#
#
# Indices 1 2 3 4 5 6 
#
# 1 142.1909 42.4609 46.6923 0.0000 0.0000 0.0000
# 2 42.4609 93.9789 28.5897 0.0000 0.0000 0.0000
# 3 46.6923 28.5897 78.9589 0.0000 0.0000 0.0000
# 4 0.0000 0.0000 0.0000 20.6945 0.0000 0.0000
# 5 0.0000 0.0000 0.0000 0.0000 18.8528 0.0000
# 6 0.0000 0.0000 0.0000 0.0000 0.0000 21.2819
#
#
#
# Elastic Compliance Matrix: (Units=1/GPa)
#
#
# Indices 1 2 3 4 5 6 
#
# 1 0.009366 -0.002862 -0.004502 0.000000 0.000000 0.000000
# 2 -0.002862 0.012832 -0.002954 0.000000 0.000000 0.000000
# 3 -0.004502 -0.002954 0.016397 0.000000 0.000000 0.000000
# 4 0.000000 0.000000 0.000000 0.048322 0.000000 0.000000
# 5 0.000000 0.000000 0.000000 0.000000 0.053043 0.000000
# 6 0.000000 0.000000 0.000000 0.000000 0.000000 0.046988
#
#
# Mechanical properties :
#
#
# Convention : Reuss Voigt Hill
#
# Bulk Modulus (GPa) = 55.68330 61.17941 58.43136
# Shear Modulus (GPa) = 23.41147 25.32488 24.36817
#
# Velocity S-wave (km/s) = 3.67671 3.82401 3.75108
# Velocity P-wave (km/s) = 7.08356 7.40429 7.24570
#
# Compressibility (1/GPa) = 0.01795870
#
# Stress axis : x y z
#
# Youngs Moduli (GPa) = 106.77063 77.92771 60.98752
#
# Poissons Ratio (x) = 0.22303 0.27458
# Poissons Ratio (y) = 0.30558 0.18016
# Poissons Ratio (z) = 0.48071 0.23020
#
# Static dielectric constant tensor:
#      x y z
#    x 1.620520 0.000000 0.000000 
#    y 0.000000 1.648020 0.000000 
#    z 0.000000 0.000000 1.550750 
# 
# From -- ./inp_files/25345.got.cif
#   From: 2010.05.17/outbox.cif.g08.bks.cpg/sg51_13_cif.got.tgz:25345.got - 2010.06.03 11:52:47.
