data_PCOD9400503
_publ_section_title
;
Structure prediction by ZEFSAII (Michael W. Deem and Ramdas Pophale) SiO2 
 PCOD9400503
Probable space group: P M M A
;
_chemical_formula_sum "Si O2"
_cell_formula_units_Z 44
_cell_length_a 9.719077
_cell_length_b 23.612483
_cell_length_c 10.775979
_cell_angle_alpha 90.000000
_cell_angle_beta 90.000000
_cell_angle_gamma 90.000000
_cell_volume 2472.996020
_symmetry_space_group_name_H-M "P M M A"
_symmetry_group_IT_number 51
_symmetry_cell_setting 'orthorhombic'
loop_
_space_group_symop_operation_xyz
x,y,z
1/2-x,-y,z
1/2+x,-y,-z
-x,y,-z
-x,-y,-z
1/2+x,y,-z
1/2-x,y,z
x,-y,z
loop_
_atom_site_type_symbol
_atom_site_label
_atom_site_fract_x
_atom_site_fract_y
_atom_site_fract_z
Si Si1 0.102284 0.937265 0.829377
Si Si2 0.000000 0.842123 0.000000
Si Si3 0.094873 0.221995 0.241729
Si Si4 0.591267 0.896762 0.620859
Si Si5 0.912313 0.439180 0.374195
Si Si6 0.085062 0.313531 0.629926
O O1 0.250000 0.932737 0.762151
O O2 0.096133 0.886375 0.926842
O O3 0.978065 0.929771 0.734545
O O4 0.096775 0.000000 0.885882
O O5 0.929702 0.803958 0.894859
O O6 0.250000 0.245487 0.250500
O O7 0.085280 0.169049 0.336525
O O8 0.980484 0.267252 0.279600
O O9 0.500000 0.905627 0.500000
O O10 0.750000 0.912111 0.602246
O O11 0.750000 0.439048 0.404973
O O12 0.940674 0.500000 0.309284
O O13 0.937800 0.377342 0.316962
O O14 0.000000 0.439634 0.500000
O O15 0.250000 0.305305 0.610977
O O16 0.000000 0.309475 0.500000
#
# Coordination Sequence:
#
# PCOD9400503 Si02
#       6
#     8   4   8   8   8   8
#     4  10  21  37  58  81 102 126 158 199 247 297
#     4  10  21  38  58  76  97 126 164 206 248 296
#     4  10  21  35  52  74 100 131 166 206 250 295
#     4  10  21  36  54  76 103 135 167 199 240 291
#     4   8  14  25  41  64  96 132 167 201 239 285
#     4  10  19  30  48  74 104 137 170 205 246 293
#
# _framework density 17.792183999999999
#
# number of rings (size 3 to 8) (size 9 to 14) (size 15 to 20)
#    0.000    2.364    0.000    2.455    0.000    8.000 
#    0.000    0.000    0.000    0.000    0.000    0.636 
#    0.000    0.000    0.000    0.000    0.000    0.000 
#
# Total GULP energy -245008.008660 kJ/mol
# GULP energy per Si atom -5568.363833 kJ/mol
# Density = 1.775169 g / cm^3
# Si number density = 17.792184 Si / 1000 Ang^3
#
#
#
# Elastic Constant Matrix: (Units=GPa)
#
#
# Indices 1 2 3 4 5 6 
#
# 1 123.1900 49.5167 36.0498 0.0000 0.0000 0.0000
# 2 49.5167 106.3947 27.0693 0.0000 0.0000 0.0000
# 3 36.0498 27.0693 63.6020 0.0000 0.0000 0.0000
# 4 0.0000 0.0000 0.0000 22.5730 0.0000 0.0000
# 5 0.0000 0.0000 0.0000 0.0000 13.0638 0.0000
# 6 0.0000 0.0000 0.0000 0.0000 0.0000 23.7810
#
#
#
# Elastic Compliance Matrix: (Units=1/GPa)
#
#
# Indices 1 2 3 4 5 6 
#
# 1 0.011056 -0.003982 -0.004572 0.000000 0.000000 0.000000
# 2 -0.003982 0.011975 -0.002839 0.000000 0.000000 0.000000
# 3 -0.004572 -0.002839 0.019522 0.000000 0.000000 0.000000
# 4 0.000000 0.000000 0.000000 0.044301 0.000000 0.000000
# 5 0.000000 0.000000 0.000000 0.000000 0.076547 0.000000
# 6 0.000000 0.000000 0.000000 0.000000 0.000000 0.042050
#
#
# Mechanical properties :
#
#
# Convention : Reuss Voigt Hill
#
# Bulk Modulus (GPa) = 50.59052 57.60648 54.09850
# Shear Modulus (GPa) = 21.29224 23.92029 22.60626
#
# Velocity S-wave (km/s) = 3.46312 3.67062 3.56838
# Velocity P-wave (km/s) = 6.66984 7.10016 6.88836
#
# Compressibility (1/GPa) = 0.01976655
#
# Stress axis : x y z
#
# Youngs Moduli (GPa) = 90.44738 83.50880 51.22307
#
# Poissons Ratio (x) = 0.33257 0.23418
# Poissons Ratio (y) = 0.36020 0.14544
# Poissons Ratio (z) = 0.41350 0.23710
#
# Static dielectric constant tensor:
#      x y z
#    x 1.619030 0.000000 0.000000 
#    y 0.000000 1.655220 0.000000 
#    z 0.000000 0.000000 1.584390 
# 
# From -- ./inp_files/14455.got.cif
#   From: 2010.05.17/outbox.cif.g08.bks.cpg/sg51_8_cif.got.tgz:14455.got - 2010.06.03 11:52:47.
