data_PCOD9400134
_publ_section_title
;
Structure prediction by ZEFSAII (Michael W. Deem and Ramdas Pophale) SiO2 
 PCOD9400134
Probable space group: P M M A
;
_chemical_formula_sum "Si O2"
_cell_formula_units_Z 64
_cell_length_a 8.648729
_cell_length_b 19.606456
_cell_length_c 24.379485
_cell_angle_alpha 90.000000
_cell_angle_beta 90.000000
_cell_angle_gamma 90.000000
_cell_volume 4134.051813
_symmetry_space_group_name_H-M "P M M A"
_symmetry_group_IT_number 51
_symmetry_cell_setting 'orthorhombic'
loop_
_space_group_symop_operation_xyz
x,y,z
1/2-x,-y,z
1/2+x,-y,-z
-x,y,-z
-x,-y,-z
1/2+x,y,-z
1/2-x,y,z
x,-y,z
loop_
_atom_site_type_symbol
_atom_site_label
_atom_site_fract_x
_atom_site_fract_y
_atom_site_fract_z
Si Si1 0.936703 0.921405 0.276629
Si Si2 0.563319 0.920982 0.059496
Si Si3 0.436411 0.159344 0.833392
Si Si4 0.565554 0.715662 0.772374
Si Si5 0.563728 0.423383 0.260869
Si Si6 0.437964 0.575525 0.610974
Si Si7 0.564587 0.716558 0.440668
Si Si8 0.564978 0.796167 0.662091
O O1 0.750000 0.918112 0.280415
O O2 0.980561 0.890502 0.217128
O O3 0.008941 0.871532 0.321730
O O4 0.983814 0.000000 0.281454
O O5 0.750000 0.919378 0.058074
O O6 0.511034 0.873041 0.109300
O O7 0.517343 0.000000 0.069716
O O8 0.500000 0.900978 0.000000
O O9 0.250000 0.162578 0.834078
O O10 0.500629 0.233595 0.818413
O O11 0.750000 0.716507 0.774244
O O12 0.505261 0.638702 0.773149
O O13 0.515916 0.748571 0.713732
O O14 0.750000 0.419564 0.259136
O O15 0.518040 0.500000 0.243688
O O16 0.517630 0.415605 0.325086
O O17 0.250000 0.575316 0.609874
O O18 0.489939 0.500000 0.592771
O O19 0.490703 0.640107 0.576045
O O20 0.500000 0.734863 0.500000
O O21 0.750000 0.716417 0.441815
O O22 0.507830 0.766824 0.393041
O O23 0.750000 0.794189 0.658334
#
# Coordination Sequence:
#
# PCOD9400134 Si02
#       8
#     8   8   8   8   8   8   8   8
#     4   9  17  30  50  73  93 116 148 186 227 270
#     4   9  17  29  45  66  94 130 168 202 233 267
#     4   9  17  29  46  67  94 127 162 194 225 267
#     4  10  19  29  44  67  95 121 150 192 236 272
#     4   9  16  28  47  67  88 119 156 187 222 275
#     4   8  15  28  46  66  87 114 148 183 218 261
#     4  11  21  33  50  67  88 116 149 187 225 268
#     4  10  20  33  47  66  92 118 147 181 224 276
#
# _framework density 15.48118
#
# number of rings (size 3 to 8) (size 9 to 14) (size 15 to 20)
#    0.000    2.625    1.250    2.250    0.000    3.750 
#    0.000    0.000    0.000    3.750    0.000    0.000 
#    0.000    0.500    0.000    1.625    0.000    2.000 
#
# Total GULP energy -356782.101165 kJ/mol
# GULP energy per Si atom -5574.720331 kJ/mol
# Density = 1.544594 g / cm^3
# Si number density = 15.481180 Si / 1000 Ang^3
#
#
#
# Elastic Constant Matrix: (Units=GPa)
#
#
# Indices 1 2 3 4 5 6 
#
# 1 19.1776 29.1589 27.0767 0.0000 0.0000 0.0000
# 2 29.1589 124.7393 69.0216 0.0000 0.0000 0.0000
# 3 27.0767 69.0216 110.0582 0.0000 0.0000 0.0000
# 4 0.0000 0.0000 0.0000 26.3094 0.0000 0.0000
# 5 0.0000 0.0000 0.0000 0.0000 19.2390 0.0000
# 6 0.0000 0.0000 0.0000 0.0000 0.0000 15.2915
#
#
#
# Elastic Compliance Matrix: (Units=1/GPa)
#
#
# Indices 1 2 3 4 5 6 
#
# 1 0.093498 -0.013979 -0.014236 0.000000 0.000000 0.000000
# 2 -0.013979 0.014367 -0.005571 0.000000 0.000000 0.000000
# 3 -0.014236 -0.005571 0.016082 0.000000 0.000000 0.000000
# 4 0.000000 0.000000 0.000000 0.038009 0.000000 0.000000
# 5 0.000000 0.000000 0.000000 0.000000 0.051978 0.000000
# 6 0.000000 0.000000 0.000000 0.000000 0.000000 0.065396
#
#
# Mechanical properties :
#
#
# Convention : Reuss Voigt Hill
#
# Bulk Modulus (GPa) = 17.73811 56.05441 36.89626
# Shear Modulus (GPa) = 13.67266 20.74918 17.21092
#
# Velocity S-wave (km/s) = 2.97506 3.66496 3.33788
# Velocity P-wave (km/s) = 4.82535 7.36179 6.22415
#
# Compressibility (1/GPa) = 0.05637580
#
# Stress axis : x y z
#
# Youngs Moduli (GPa) = 10.69541 69.60407 62.18069
#
# Poissons Ratio (x) = 0.97299 0.88519
# Poissons Ratio (y) = 0.14951 0.34641
# Poissons Ratio (z) = 0.15226 0.38776
#
# Static dielectric constant tensor:
#      x y z
#    x 1.519100 0.000000 0.000000 
#    y 0.000000 1.520720 0.000000 
#    z 0.000000 0.000000 1.491720 
# 
# From -- ./inp_files/35109.got.cif
#   From: 2010.05.17/outbox.cif.g08.bks.cpg/sg51_18_cif.got.tgz:35109.got - 2010.06.03 11:52:47.
