data_PCOD9400743
_publ_section_title
;
Structure prediction by ZEFSAII (Michael W. Deem and Ramdas Pophale) SiO2 
 PCOD9400743
Probable space group: P M M A
;
_chemical_formula_sum "Si O2"
_cell_formula_units_Z 64
_cell_length_a 9.943740
_cell_length_b 20.526411
_cell_length_c 19.804111
_cell_angle_alpha 90.000000
_cell_angle_beta 90.000000
_cell_angle_gamma 90.000000
_cell_volume 4042.203117
_symmetry_space_group_name_H-M "P M M A"
_symmetry_group_IT_number 51
_symmetry_cell_setting 'orthorhombic'
loop_
_space_group_symop_operation_xyz
x,y,z
1/2-x,-y,z
1/2+x,-y,-z
-x,y,-z
-x,-y,-z
1/2+x,y,-z
1/2-x,y,z
x,-y,z
loop_
_atom_site_type_symbol
_atom_site_label
_atom_site_fract_x
_atom_site_fract_y
_atom_site_fract_z
Si Si1 0.091817 0.576927 0.063949
Si Si2 0.092657 0.072986 0.162075
Si Si3 0.095776 0.739342 0.559626
Si Si4 0.908505 0.192877 0.934424
Si Si5 0.091477 0.107084 0.713371
Si Si6 0.591914 0.312821 0.831261
Si Si7 0.404774 0.898038 0.560637
Si Si8 0.908379 0.264197 0.287983
O O1 0.250000 0.587920 0.048097
O O2 0.073334 0.500000 0.077147
O O3 0.059247 0.621195 0.128351
O O4 0.000000 0.594847 0.000000
O O5 0.250000 0.083579 0.180202
O O6 0.056441 0.128033 0.107903
O O7 0.001049 0.078854 0.228225
O O8 0.079760 0.000000 0.134068
O O9 0.250000 0.720020 0.547986
O O10 0.093764 0.818675 0.559773
O O11 0.055228 0.718300 0.634879
O O12 0.000000 0.716555 0.500000
O O13 0.750000 0.189926 0.952506
O O14 0.927055 0.253942 0.884486
O O15 0.000000 0.199127 0.000000
O O16 0.250000 0.092207 0.723045
O O17 0.054677 0.084637 0.637342
O O18 0.076704 0.185689 0.717257
O O19 0.750000 0.313670 0.812520
O O20 0.499738 0.298847 0.767106
O O21 0.500000 0.920507 0.500000
O O22 0.250000 0.918168 0.550257
O O23 0.750000 0.278206 0.278055
#
# Coordination Sequence:
#
# PCOD9400743 Si02
#       8
#     8   8   8   8   8   8   8   8
#     4   9  18  32  49  70  97 128 161 195 230 272
#     4  10  21  36  51  67  89 116 148 190 236 280
#     4   8  14  24  37  58  89 122 153 185 223 269
#     4  10  21  35  50  70  92 115 147 186 228 276
#     4   9  17  30  47  67  91 118 151 190 230 275
#     4  10  19  31  48  71  97 125 157 190 227 272
#     4   8  14  24  39  62  89 115 145 181 222 268
#     4   9  17  28  44  67  95 124 155 192 232 272
#
# _framework density 15.83295
#
# number of rings (size 3 to 8) (size 9 to 14) (size 15 to 20)
#    0.000    2.875    1.250    1.875    0.000    3.000 
#    0.000    2.500    0.000    0.375    0.000    0.000 
#    0.000    0.500    0.000    1.125    0.000    1.750 
#
# Total GULP energy -356703.912078 kJ/mol
# GULP energy per Si atom -5573.498626 kJ/mol
# Density = 1.579691 g / cm^3
# Si number density = 15.832950 Si / 1000 Ang^3
#
#
#
# Elastic Constant Matrix: (Units=GPa)
#
#
# Indices 1 2 3 4 5 6 
#
# 1 62.5856 30.8746 78.5802 0.0000 0.0000 0.0000
# 2 30.8746 44.3201 39.1020 0.0000 0.0000 0.0000
# 3 78.5802 39.1020 127.3968 0.0000 0.0000 0.0000
# 4 0.0000 0.0000 0.0000 -57.1686 0.0000 0.0000
# 5 0.0000 0.0000 0.0000 0.0000 38.8636 0.0000
# 6 0.0000 0.0000 0.0000 0.0000 0.0000 14.0623
#
#
#
# Elastic Compliance Matrix: (Units=1/GPa)
#
#
# Indices 1 2 3 4 5 6 
#
# 1 0.078716 -0.016455 -0.043503 0.000000 0.000000 0.000000
# 2 -0.016455 0.034382 -0.000403 0.000000 0.000000 0.000000
# 3 -0.043503 -0.000403 0.034806 0.000000 0.000000 0.000000
# 4 0.000000 0.000000 0.000000 -0.017492 0.000000 0.000000
# 5 0.000000 0.000000 0.000000 0.000000 0.025731 0.000000
# 6 0.000000 0.000000 0.000000 0.000000 0.000000 0.071112
#
#
# Mechanical properties :
#
#
# Convention : Reuss Voigt Hill
#
# Bulk Modulus (GPa) = 36.78829 59.04623 47.91726
# Shear Modulus (GPa) = 14.00416 4.86784 9.43600
#
# Velocity S-wave (km/s) = 2.97727 1.75533 2.44390
# Velocity P-wave (km/s) = 5.92491 6.44069 6.18818
#
# Compressibility (1/GPa) = 0.02718256
#
# Stress axis : x y z
#
# Youngs Moduli (GPa) = 12.70393 29.08516 28.73047
#
# Poissons Ratio (x) = 0.47859 1.24985
# Poissons Ratio (y) = 0.20904 0.01158
# Poissons Ratio (z) = 0.55265 0.01173
#
# Static dielectric constant tensor:
#      x y z
#    x 1.523850 0.000000 0.000000 
#    y 0.000000 1.535730 0.000000 
#    z 0.000000 0.000000 1.508910 
# 
# From -- ./inp_files/32638.got.cif
#   From: 2010.05.17/outbox.cif.g08.bks.cpg/sg51_17_cif.got.tgz:32638.got - 2010.06.03 11:52:47.
