data_PCOD9400987
_publ_section_title
;
Structure prediction by ZEFSAII (Michael W. Deem and Ramdas Pophale) SiO2 
 PCOD9400987
Probable space group: P M M A
;
_chemical_formula_sum "Si O2"
_cell_formula_units_Z 64
_cell_length_a 8.342124
_cell_length_b 21.063732
_cell_length_c 18.141805
_cell_angle_alpha 90.000000
_cell_angle_beta 90.000000
_cell_angle_gamma 90.000000
_cell_volume 3187.810201
_symmetry_space_group_name_H-M "P M M A"
_symmetry_group_IT_number 51
_symmetry_cell_setting 'orthorhombic'
loop_
_space_group_symop_operation_xyz
x,y,z
1/2-x,-y,z
1/2+x,-y,-z
-x,y,-z
-x,-y,-z
1/2+x,y,-z
1/2-x,y,z
x,-y,z
loop_
_atom_site_type_symbol
_atom_site_label
_atom_site_fract_x
_atom_site_fract_y
_atom_site_fract_z
Si Si1 0.440172 0.931634 0.887550
Si Si2 0.441791 0.206297 0.877590
Si Si3 0.559641 0.341531 0.922273
Si Si4 0.560135 0.426808 0.787965
Si Si5 0.056728 0.792996 0.291122
Si Si6 0.058185 0.068090 0.279152
Si Si7 0.560673 0.295563 0.578304
Si Si8 0.439079 0.429327 0.623163
O O1 0.250000 0.932138 0.902757
O O2 0.504583 0.861828 0.908386
O O3 0.468263 0.931723 0.799223
O O4 0.508245 0.000000 0.914000
O O5 0.250000 0.206143 0.884417
O O6 0.510786 0.268241 0.915830
O O7 0.486564 0.212596 0.790947
O O8 0.750000 0.346287 0.920634
O O9 0.498925 0.379934 0.851075
O O10 0.500000 0.367769 0.000000
O O11 0.750000 0.413880 0.774038
O O12 0.547070 0.500000 0.812770
O O13 0.470628 0.421116 0.710530
O O14 0.250000 0.785837 0.283839
O O15 0.021540 0.865190 0.317404
O O16 0.995848 0.742264 0.350421
O O17 0.250000 0.069318 0.263697
O O18 0.022651 0.000000 0.315825
O O19 0.500000 0.270926 0.500000
O O20 0.750000 0.287947 0.579886
O O21 0.519883 0.369720 0.584954
O O22 0.250000 0.427420 0.608579
O O23 0.500446 0.500000 0.603099
#
# Coordination Sequence:
#
# PCOD9400987 Si02
#       8
#     8   8   8   8   8   8   8   8
#     4   8  14  25  42  67  98 128 159 199 247 295
#     4  10  19  31  51  77 103 133 168 207 251 300
#     4  11  23  37  53  74 103 137 171 209 250 294
#     4   9  19  37  59  81 105 134 167 203 246 295
#     4   9  18  32  50  74 102 132 168 209 253 299
#     4   8  13  23  42  68  96 125 159 201 247 294
#     4  11  23  37  53  73 101 137 173 211 253 298
#     4  10  21  37  58  83 107 131 163 204 248 297
#
# _framework density 20.076478000000002
#
# number of rings (size 3 to 8) (size 9 to 14) (size 15 to 20)
#    0.000    2.500    0.000    2.250    0.000    6.750 
#    0.000    0.000    0.000    0.750    0.000    0.000 
#    0.000    0.000    0.000    0.000    0.000    0.125 
#
# Total GULP energy -356867.731502 kJ/mol
# GULP energy per Si atom -5576.058305 kJ/mol
# Density = 2.003078 g / cm^3
# Si number density = 20.076478 Si / 1000 Ang^3
#
#
#
# Elastic Constant Matrix: (Units=GPa)
#
#
# Indices 1 2 3 4 5 6 
#
# 1 17.7455 0.1759 -0.0193 0.0000 0.0000 0.0000
# 2 0.1759 66.7267 22.3741 0.0000 0.0000 0.0000
# 3 -0.0193 22.3741 57.1487 0.0000 0.0000 0.0000
# 4 0.0000 0.0000 0.0000 -74.3176 0.0000 0.0000
# 5 0.0000 0.0000 0.0000 0.0000 22.8659 0.0000
# 6 0.0000 0.0000 0.0000 0.0000 0.0000 19.1547
#
#
#
# Elastic Compliance Matrix: (Units=1/GPa)
#
#
# Indices 1 2 3 4 5 6 
#
# 1 0.056354 -0.000178 0.000089 0.000000 0.000000 0.000000
# 2 -0.000178 0.017252 -0.006754 0.000000 0.000000 0.000000
# 3 0.000089 -0.006754 0.020143 0.000000 0.000000 0.000000
# 4 0.000000 0.000000 0.000000 -0.013456 0.000000 0.000000
# 5 0.000000 0.000000 0.000000 0.000000 0.043733 0.000000
# 6 0.000000 0.000000 0.000000 0.000000 0.000000 0.052206
#
#
# Mechanical properties :
#
#
# Convention : Reuss Voigt Hill
#
# Bulk Modulus (GPa) = 12.49044 20.74247 16.61645
# Shear Modulus (GPa) = 23.08328 1.47995 12.28161
#
# Velocity S-wave (km/s) = 3.39450 0.85951 2.47602
# Velocity P-wave (km/s) = 4.64741 3.36737 4.05818
#
# Compressibility (1/GPa) = 0.08006122
#
# Stress axis : x y z
#
# Youngs Moduli (GPa) = 17.74487 57.96523 49.64617
#
# Poissons Ratio (x) = 0.01034 -0.00441
# Poissons Ratio (y) = 0.00317 0.33532
# Poissons Ratio (z) = -0.00158 0.39151
#
# Static dielectric constant tensor:
#      x y z
#    x 1.695540 0.000000 0.000000 
#    y 0.000000 1.774500 0.000000 
#    z 0.000000 0.000000 1.690680 
# 
# From -- ./inp_files/28340.got.cif
#   From: 2010.05.17/outbox.cif.g08.bks.cpg/sg51_15_cif.got.tgz:28340.got - 2010.06.03 11:52:47.
