data_PCOD9400074
_publ_section_title
;
Structure prediction by ZEFSAII (Michael W. Deem and Ramdas Pophale) SiO2 
 PCOD9400074
Probable space group: P M M A
;
_chemical_formula_sum "Si O2"
_cell_formula_units_Z 64
_cell_length_a 8.740177
_cell_length_b 23.614172
_cell_length_c 18.413335
_cell_angle_alpha 90.000000
_cell_angle_beta 90.000000
_cell_angle_gamma 90.000000
_cell_volume 3800.365829
_symmetry_space_group_name_H-M "P M M A"
_symmetry_group_IT_number 51
_symmetry_cell_setting 'orthorhombic'
loop_
_space_group_symop_operation_xyz
x,y,z
1/2-x,-y,z
1/2+x,-y,-z
-x,y,-z
-x,-y,-z
1/2+x,y,-z
1/2-x,y,z
x,-y,z
loop_
_atom_site_type_symbol
_atom_site_label
_atom_site_fract_x
_atom_site_fract_y
_atom_site_fract_z
Si Si1 0.430038 0.166459 0.327465
Si Si2 0.565435 0.060962 0.918190
Si Si3 0.922620 0.748363 0.428974
Si Si4 0.934632 0.065542 0.578425
Si Si5 0.066347 0.748205 0.789644
Si Si6 0.566089 0.814116 0.918744
Si Si7 0.932137 0.566263 0.578203
Si Si8 0.076808 0.650263 0.690563
O O1 0.250000 0.165533 0.310121
O O2 0.466023 0.203460 0.398912
O O3 0.481784 0.104379 0.353313
O O4 0.514945 0.201089 0.264548
O O5 0.750000 0.060907 0.921268
O O6 0.521690 0.122811 0.888205
O O7 0.518541 0.000000 0.884447
O O8 0.500000 0.060592 0.000000
O O9 0.750000 0.769770 0.441159
O O10 0.913677 0.699788 0.369408
O O11 0.000000 0.724162 0.500000
O O12 0.750000 0.069046 0.574373
O O13 0.000000 0.084000 0.500000
O O14 0.978747 0.000000 0.588682
O O15 0.250000 0.746245 0.790302
O O16 0.012522 0.686926 0.758448
O O17 0.000536 0.766008 0.867018
O O18 0.750000 0.811098 0.920690
O O19 0.500000 0.810054 0.000000
O O20 0.750000 0.571141 0.573096
O O21 0.974281 0.500000 0.586545
O O22 0.000000 0.585144 0.500000
O O23 0.988162 0.601136 0.648368
O O24 0.250000 0.631059 0.707509
#
# Coordination Sequence:
#
# PCOD9400074 Si02
#       8
#     8   8   8   8   8   8   8   8
#     4  10  19  31  47  64  84 113 148 187 236 288
#     4   8  14  25  42  65  91 117 146 181 222 272
#     4  10  19  29  42  63  89 116 150 190 230 272
#     4   9  18  31  46  64  85 111 147 192 239 287
#     4  10  21  36  51  69  95 124 157 197 240 287
#     4  10  19  32  52  75  98 126 159 196 243 296
#     4  10  20  32  48  72 102 136 172 208 242 277
#     4   9  19  33  48  66  91 126 162 198 238 276
#
# _framework density 16.840484
#
# number of rings (size 3 to 8) (size 9 to 14) (size 15 to 20)
#    0.000    2.500    0.000    3.375    0.000    7.250 
#    0.000    0.625    0.000    3.750    0.000    0.000 
#    0.000    0.500    0.000    1.625    0.000    2.375 
#
# Total GULP energy -356282.732155 kJ/mol
# GULP energy per Si atom -5566.917690 kJ/mol
# Density = 1.680215 g / cm^3
# Si number density = 16.840484 Si / 1000 Ang^3
#
#
#
# Elastic Constant Matrix: (Units=GPa)
#
#
# Indices 1 2 3 4 5 6 
#
# 1 25.8515 20.1381 21.4247 0.0000 0.0000 0.0000
# 2 20.1381 80.7351 42.2804 0.0000 0.0000 0.0000
# 3 21.4247 42.2804 60.4878 0.0000 0.0000 0.0000
# 4 0.0000 0.0000 0.0000 20.6368 0.0000 0.0000
# 5 0.0000 0.0000 0.0000 0.0000 23.2683 0.0000
# 6 0.0000 0.0000 0.0000 0.0000 0.0000 -20.1293
#
#
#
# Elastic Compliance Matrix: (Units=1/GPa)
#
#
# Indices 1 2 3 4 5 6 
#
# 1 0.056363 -0.005685 -0.015990 0.000000 0.000000 0.000000
# 2 -0.005685 0.020112 -0.012044 0.000000 0.000000 0.000000
# 3 -0.015990 -0.012044 0.030615 0.000000 0.000000 0.000000
# 4 0.000000 0.000000 0.000000 0.048457 0.000000 0.000000
# 5 0.000000 0.000000 0.000000 0.000000 0.042977 0.000000
# 6 0.000000 0.000000 0.000000 0.000000 0.000000 -0.049679
#
#
# Mechanical properties :
#
#
# Convention : Reuss Voigt Hill
#
# Bulk Modulus (GPa) = 25.22013 37.19564 31.20789
# Shear Modulus (GPa) = 21.78657 10.30393 16.04525
#
# Velocity S-wave (km/s) = 3.60071 2.47625 3.09006
# Velocity P-wave (km/s) = 5.68289 5.50552 5.59491
#
# Compressibility (1/GPa) = 0.03965086
#
# Stress axis : x y z
#
# Youngs Moduli (GPa) = 17.74224 49.72226 32.66411
#
# Poissons Ratio (x) = 0.28267 0.52229
# Poissons Ratio (y) = 0.10087 0.39342
# Poissons Ratio (z) = 0.28369 0.59887
#
# Static dielectric constant tensor:
#      x y z
#    x 1.566910 0.000000 0.000000 
#    y 0.000000 1.611070 0.000000 
#    z 0.000000 0.000000 1.614420 
# 
# From -- ./inp_files/28482.got.cif
#   From: 2010.05.17/outbox.cif.g08.bks.cpg/sg51_15_cif.got.tgz:28482.got - 2010.06.03 11:52:47.
