data_PCOD9400069
_publ_section_title
;
Structure prediction by ZEFSAII (Michael W. Deem and Ramdas Pophale) SiO2 
 PCOD9400069
Probable space group: P M M A
;
_chemical_formula_sum "Si O2"
_cell_formula_units_Z 48
_cell_length_a 24.040044
_cell_length_b 14.100318
_cell_length_c 8.850598
_cell_angle_alpha 90.000000
_cell_angle_beta 90.000000
_cell_angle_gamma 90.000000
_cell_volume 3000.107252
_symmetry_space_group_name_H-M "P M M A"
_symmetry_group_IT_number 51
_symmetry_cell_setting 'orthorhombic'
loop_
_space_group_symop_operation_xyz
x,y,z
1/2-x,-y,z
1/2+x,-y,-z
-x,y,-z
-x,-y,-z
1/2+x,y,-z
1/2-x,y,z
x,-y,z
loop_
_atom_site_type_symbol
_atom_site_label
_atom_site_fract_x
_atom_site_fract_y
_atom_site_fract_z
Si Si1 0.316509 0.888751 0.710345
Si Si2 0.579750 0.112666 0.824073
Si Si3 0.559302 0.391471 0.910959
Si Si4 0.097326 0.767023 0.890367
Si Si5 0.187440 0.885299 0.360096
Si Si6 0.494046 0.742994 0.324593
O O1 0.250000 0.883651 0.732170
O O2 0.349394 0.818237 0.819448
O O3 0.327498 0.863047 0.534299
O O4 0.332706 0.000000 0.733994
O O5 0.640195 0.142607 0.758103
O O6 0.535011 0.156555 0.710342
O O7 0.576880 0.000000 0.832174
O O8 0.571682 0.159842 0.987273
O O9 0.576038 0.500000 0.887863
O O10 0.544835 0.334691 0.758434
O O11 0.500000 0.391028 0.000000
O O12 0.601629 0.329799 0.012606
O O13 0.053344 0.746196 0.758390
O O14 0.250000 0.850203 0.327478
O O15 0.189706 0.000000 0.355365
O O16 0.500000 0.724719 0.500000
#
# Coordination Sequence:
#
# PCOD9400069 Si02
#       6
#     8   8   8   8   8   8
#     4   9  17  29  45  66  93 124 156 188 221 261
#     4  10  19  29  42  62  91 125 156 188 228 274
#     4   8  16  32  50  67  89 115 144 184 232 278
#     4  10  19  30  46  67  92 119 151 189 228 276
#     4   8  15  28  44  62  87 121 158 191 222 259
#     4  10  20  31  45  67  91 119 156 193 234 282
#
# _framework density 15.999427000000001
#
# number of rings (size 3 to 8) (size 9 to 14) (size 15 to 20)
#    0.000    2.833    0.000    4.000    0.000    3.333 
#    0.000    1.667    0.000    0.500    0.000    0.000 
#    0.000    5.333    0.000    0.000    0.000    0.000 
#
# Total GULP energy -267304.615617 kJ/mol
# GULP energy per Si atom -5568.846159 kJ/mol
# Density = 1.596301 g / cm^3
# Si number density = 15.999427 Si / 1000 Ang^3
#
#
#
# Elastic Constant Matrix: (Units=GPa)
#
#
# Indices 1 2 3 4 5 6 
#
# 1 27.8081 18.6184 29.7507 0.0000 0.0000 0.0000
# 2 18.6184 93.1918 39.5478 0.0000 0.0000 0.0000
# 3 29.7507 39.5478 109.4849 0.0000 0.0000 0.0000
# 4 0.0000 0.0000 0.0000 11.6293 0.0000 0.0000
# 5 0.0000 0.0000 0.0000 0.0000 10.7938 0.0000
# 6 0.0000 0.0000 0.0000 0.0000 0.0000 15.4506
#
#
#
# Elastic Compliance Matrix: (Units=1/GPa)
#
#
# Indices 1 2 3 4 5 6 
#
# 1 0.052803 -0.005268 -0.012445 0.000000 0.000000 0.000000
# 2 -0.005268 0.013199 -0.003336 0.000000 0.000000 0.000000
# 3 -0.012445 -0.003336 0.013721 0.000000 0.000000 0.000000
# 4 0.000000 0.000000 0.000000 0.085990 0.000000 0.000000
# 5 0.000000 0.000000 0.000000 0.000000 0.092646 0.000000
# 6 0.000000 0.000000 0.000000 0.000000 0.000000 0.064722
#
#
# Mechanical properties :
#
#
# Convention : Reuss Voigt Hill
#
# Bulk Modulus (GPa) = 26.57933 45.14651 35.86292
# Shear Modulus (GPa) = 13.23732 17.07926 15.15829
#
# Velocity S-wave (km/s) = 2.87951 3.27079 3.08137
# Velocity P-wave (km/s) = 5.26348 6.52250 5.92651
#
# Compressibility (1/GPa) = 0.03762321
#
# Stress axis : x y z
#
# Youngs Moduli (GPa) = 18.93849 75.76475 72.88304
#
# Poissons Ratio (x) = 0.39911 0.90706
# Poissons Ratio (y) = 0.09976 0.24315
# Poissons Ratio (z) = 0.23570 0.25277
#
# Static dielectric constant tensor:
#      x y z
#    x 1.545300 0.000000 0.000000 
#    y 0.000000 1.530910 0.000000 
#    z 0.000000 0.000000 1.547050 
# 
# From -- ./inp_files/10787.got.cif
#   From: 2010.05.17/outbox.cif.g08.bks.cpg/sg51_6_cif.got.tgz:10787.got - 2010.06.03 11:52:47.
