data_PCOD9400785
_publ_section_title
;
Structure prediction by ZEFSAII (Michael W. Deem and Ramdas Pophale) SiO2 
 PCOD9400785
Probable space group: P M M A
;
_chemical_formula_sum "Si O2"
_cell_formula_units_Z 64
_cell_length_a 9.319377
_cell_length_b 15.181802
_cell_length_c 21.985237
_cell_angle_alpha 90.000000
_cell_angle_beta 90.000000
_cell_angle_gamma 90.000000
_cell_volume 3110.579858
_symmetry_space_group_name_H-M "P M M A"
_symmetry_group_IT_number 51
_symmetry_cell_setting 'orthorhombic'
loop_
_space_group_symop_operation_xyz
x,y,z
1/2-x,-y,z
1/2+x,-y,-z
-x,y,-z
-x,-y,-z
1/2+x,y,-z
1/2-x,y,z
x,-y,z
loop_
_atom_site_type_symbol
_atom_site_label
_atom_site_fract_x
_atom_site_fract_y
_atom_site_fract_z
Si Si1 0.586052 0.361930 0.058531
Si Si2 0.577930 0.834504 0.687737
Si Si3 0.583280 0.146107 0.060611
Si Si4 0.576797 0.343413 0.189318
Si Si5 0.591331 0.895410 0.555407
Si Si6 0.579551 0.844933 0.819963
Si Si7 0.080168 0.650018 0.677975
Si Si8 0.410989 0.395758 0.442809
O O1 0.750000 0.386667 0.049659
O O2 0.578377 0.254089 0.060504
O O3 0.542080 0.391702 0.126152
O O4 0.500000 0.391719 0.000000
O O5 0.750000 0.812191 0.687767
O O6 0.543710 0.882574 0.624751
O O7 0.554956 0.883394 0.752184
O O8 0.477257 0.749300 0.685327
O O9 0.750000 0.120776 0.059536
O O10 0.504993 0.116586 0.122534
O O11 0.500000 0.117149 0.000000
O O12 0.750000 0.321866 0.186968
O O13 0.481222 0.254846 0.187048
O O14 0.553331 0.389261 0.254419
O O15 0.500000 0.858321 0.500000
O O16 0.750000 0.857396 0.550873
O O17 0.599809 0.000000 0.546312
O O18 0.750000 0.844842 0.832387
O O19 0.250000 0.645492 0.666206
O O20 0.994414 0.614016 0.620551
O O21 0.500000 0.358818 0.500000
O O22 0.250000 0.358652 0.438537
O O23 0.397359 0.500000 0.453694
#
# Coordination Sequence:
#
# PCOD9400785 Si02
#       8
#     8   8   8   8   8   8   8   8
#     4   8  13  20  30  46  71 104 141 176 209 249
#     4   9  18  31  46  66  94 125 156 191 231 277
#     4   9  15  22  32  48  73 106 143 180 217 262
#     4   8  15  26  37  53  81 115 147 180 219 262
#     4   9  18  33  51  69  90 118 152 190 231 274
#     4   9  15  23  36  54  78 110 145 181 222 265
#     4  10  19  31  49  71  95 124 156 190 229 273
#     4  10  21  37  55  73  94 120 150 186 228 274
#
# _framework density 20.574940999999999
#
# number of rings (size 3 to 8) (size 9 to 14) (size 15 to 20)
#    0.000    3.000    0.000    2.250    0.000    5.750 
#    0.000    1.250    0.000    0.000    0.000    0.000 
#    0.000    1.000    0.000    2.000    0.000    8.750 
#
# Total GULP energy -356425.441630 kJ/mol
# GULP energy per Si atom -5569.147525 kJ/mol
# Density = 2.052811 g / cm^3
# Si number density = 20.574941 Si / 1000 Ang^3
#
#
#
# Elastic Constant Matrix: (Units=GPa)
#
#
# Indices 1 2 3 4 5 6 
#
# 1 104.1635 9.8427 107.7179 0.0000 0.0000 0.0000
# 2 9.8427 29.5210 9.3796 0.0000 0.0000 0.0000
# 3 107.7179 9.3796 243.6492 0.0000 0.0000 0.0000
# 4 0.0000 0.0000 0.0000 45.6135 0.0000 0.0000
# 5 0.0000 0.0000 0.0000 0.0000 38.5553 0.0000
# 6 0.0000 0.0000 0.0000 0.0000 0.0000 -2.5866
#
#
#
# Elastic Compliance Matrix: (Units=1/GPa)
#
#
# Indices 1 2 3 4 5 6 
#
# 1 0.018041 -0.003524 -0.007840 0.000000 0.000000 0.000000
# 2 -0.003524 0.034982 0.000211 0.000000 0.000000 0.000000
# 3 -0.007840 0.000211 0.007562 0.000000 0.000000 0.000000
# 4 0.000000 0.000000 0.000000 0.021923 0.000000 0.000000
# 5 0.000000 0.000000 0.000000 0.000000 0.025937 0.000000
# 6 0.000000 0.000000 0.000000 0.000000 0.000000 -0.386610
#
#
# Mechanical properties :
#
#
# Convention : Reuss Voigt Hill
#
# Bulk Modulus (GPa) = 26.12374 70.13489 48.12932
# Shear Modulus (GPa) = -20.56786 33.00935 6.22074
#
# Velocity S-wave (km/s) = -3.16516 4.00978 1.74070
# Velocity P-wave (km/s) = 0.79577 7.45649 5.24242
#
# Compressibility (1/GPa) = 0.03827936
#
# Stress axis : x y z
#
# Youngs Moduli (GPa) = 55.42847 28.58606 132.23321
#
# Poissons Ratio (x) = 0.10074 1.03676
# Poissons Ratio (y) = 0.19534 -0.02795
# Poissons Ratio (z) = 0.43458 -0.00604
#
# Static dielectric constant tensor:
#      x y z
#    x 1.780010 0.000000 0.000000 
#    y 0.000000 1.748640 0.000000 
#    z 0.000000 0.000000 1.794730 
# 
# From -- ./inp_files/32310.got.cif
#   From: 2010.05.17/outbox.cif.g08.bks.cpg/sg51_17_cif.got.tgz:32310.got - 2010.06.03 11:52:47.
