data_PCOD9400775
_publ_section_title
;
Structure prediction by ZEFSAII (Michael W. Deem and Ramdas Pophale) SiO2 
 PCOD9400775
Probable space group: P M M A
;
_chemical_formula_sum "Si O2"
_cell_formula_units_Z 56
_cell_length_a 15.661719
_cell_length_b 14.118911
_cell_length_c 14.878727
_cell_angle_alpha 90.000000
_cell_angle_beta 90.000000
_cell_angle_gamma 90.000000
_cell_volume 3290.079586
_symmetry_space_group_name_H-M "P M M A"
_symmetry_group_IT_number 51
_symmetry_cell_setting 'orthorhombic'
loop_
_space_group_symop_operation_xyz
x,y,z
1/2-x,-y,z
1/2+x,-y,-z
-x,y,-z
-x,-y,-z
1/2+x,y,-z
1/2-x,y,z
x,-y,z
loop_
_atom_site_type_symbol
_atom_site_label
_atom_site_fract_x
_atom_site_fract_y
_atom_site_fract_z
Si Si1 0.652376 0.284048 0.606114
Si Si2 0.345226 0.392684 0.577206
Si Si3 0.652821 0.113794 0.083320
Si Si4 0.495534 0.390884 0.287961
Si Si5 0.513675 0.803134 0.216585
Si Si6 0.152468 0.886068 0.126854
Si Si7 0.534569 0.111903 0.602102
O O1 0.750000 0.292645 0.635770
O O2 0.646285 0.319720 0.503628
O O3 0.588262 0.350963 0.661614
O O4 0.618723 0.176696 0.609522
O O5 0.250000 0.381240 0.618194
O O6 0.348344 0.500000 0.539031
O O7 0.423469 0.385546 0.644949
O O8 0.750000 0.141944 0.105868
O O9 0.584394 0.156897 0.150079
O O10 0.647707 0.000000 0.089486
O O11 0.637831 0.137305 0.978451
O O12 0.485358 0.500000 0.260160
O O13 0.514195 0.310454 0.214981
O O14 0.420858 0.838955 0.185092
O O15 0.524516 0.843440 0.318635
O O16 0.250000 0.859109 0.150195
O O17 0.146196 0.000000 0.135448
O O18 0.500000 0.122864 0.500000
O O19 0.546809 0.000000 0.618752
#
# Coordination Sequence:
#
# PCOD9400775 Si02
#       7
#     8   8   8   8   8   8   8
#     4  10  19  31  49  70  92 126 172 218 264 305
#     4   9  17  31  52  72  88 115 163 222 274 307
#     4   9  18  33  55  84 110 127 154 205 263 312
#     4  10  21  34  47  69 100 130 166 215 261 300
#     4  11  20  32  54  76  99 138 176 207 250 303
#     4   9  18  33  55  83 108 127 157 207 261 309
#     4  10  21  35  48  68 104 146 182 210 238 287
#
# _framework density 17.020865000000001
#
# number of rings (size 3 to 8) (size 9 to 14) (size 15 to 20)
#    0.000    2.286    0.000    5.143    0.000    6.286 
#    0.000    0.714    0.000    2.571    0.000    2.000 
#    0.000    0.000    0.000    0.000    0.000    0.000 
#
# Total GULP energy -312179.814834 kJ/mol
# GULP energy per Si atom -5574.639551 kJ/mol
# Density = 1.698213 g / cm^3
# Si number density = 17.020865 Si / 1000 Ang^3
#
#
#
# Elastic Constant Matrix: (Units=GPa)
#
#
# Indices 1 2 3 4 5 6 
#
# 1 75.7282 37.5009 33.6660 0.0000 0.0000 0.0000
# 2 37.5009 102.0847 29.7775 0.0000 0.0000 0.0000
# 3 33.6660 29.7775 58.5407 0.0000 0.0000 0.0000
# 4 0.0000 0.0000 0.0000 18.8314 0.0000 0.0000
# 5 0.0000 0.0000 0.0000 0.0000 0.1936 0.0000
# 6 0.0000 0.0000 0.0000 0.0000 0.0000 17.3758
#
#
#
# Elastic Compliance Matrix: (Units=1/GPa)
#
#
# Indices 1 2 3 4 5 6 
#
# 1 0.019383 -0.004543 -0.008836 0.000000 0.000000 0.000000
# 2 -0.004543 0.012567 -0.003780 0.000000 0.000000 0.000000
# 3 -0.008836 -0.003780 0.024086 0.000000 0.000000 0.000000
# 4 0.000000 0.000000 0.000000 0.053103 0.000000 0.000000
# 5 0.000000 0.000000 0.000000 0.000000 5.166387 0.000000
# 6 0.000000 0.000000 0.000000 0.000000 0.000000 0.057551
#
#
# Mechanical properties :
#
#
# Convention : Reuss Voigt Hill
#
# Bulk Modulus (GPa) = 46.04322 48.69359 47.36841
# Shear Modulus (GPa) = 0.93030 16.30741 8.61886
#
# Velocity S-wave (km/s) = 0.74010 3.09865 2.25271
# Velocity P-wave (km/s) = 5.27637 6.43991 5.88696
#
# Compressibility (1/GPa) = 0.02171873
#
# Stress axis : x y z
#
# Youngs Moduli (GPa) = 51.59160 79.57215 41.51721
#
# Poissons Ratio (x) = 0.36149 0.36685
# Poissons Ratio (y) = 0.23438 0.15693
# Poissons Ratio (z) = 0.45587 0.30078
#
# Static dielectric constant tensor:
#      x y z
#    x 1.584360 0.000000 0.000000 
#    y 0.000000 1.576560 0.000000 
#    z 0.000000 0.000000 1.578020 
# 
# From -- ./inp_files/24328.got.cif
#   From: 2010.05.17/outbox.cif.g08.bks.cpg/sg51_13_cif.got.tgz:24328.got - 2010.06.03 11:52:47.
