data_PCOD9400679
_publ_section_title
;
Structure prediction by ZEFSAII (Michael W. Deem and Ramdas Pophale) SiO2 
 PCOD9400679
Probable space group: P M M A
;
_chemical_formula_sum "Si O2"
_cell_formula_units_Z 64
_cell_length_a 8.749077
_cell_length_b 24.111800
_cell_length_c 19.496369
_cell_angle_alpha 90.000000
_cell_angle_beta 90.000000
_cell_angle_gamma 90.000000
_cell_volume 4112.875918
_symmetry_space_group_name_H-M "P M M A"
_symmetry_group_IT_number 51
_symmetry_cell_setting 'orthorhombic'
loop_
_space_group_symop_operation_xyz
x,y,z
1/2-x,-y,z
1/2+x,-y,-z
-x,y,-z
-x,-y,-z
1/2+x,y,-z
1/2-x,y,z
x,-y,z
loop_
_atom_site_type_symbol
_atom_site_label
_atom_site_fract_x
_atom_site_fract_y
_atom_site_fract_z
Si Si1 0.433712 0.776051 0.424285
Si Si2 0.067763 0.165726 0.704567
Si Si3 0.932478 0.563558 0.425371
Si Si4 0.432469 0.757782 0.927871
Si Si5 0.932930 0.663365 0.655773
Si Si6 0.066338 0.936053 0.216611
Si Si7 0.066525 0.269231 0.212115
Si Si8 0.066787 0.118010 0.071371
O O1 0.500000 0.782363 0.500000
O O2 0.250000 0.780600 0.424317
O O3 0.503674 0.819715 0.370592
O O4 0.473629 0.715106 0.393891
O O5 0.250000 0.171023 0.705827
O O6 0.015866 0.106288 0.732492
O O7 0.994283 0.212018 0.754710
O O8 0.750000 0.565318 0.429658
O O9 0.979594 0.500000 0.410016
O O10 0.000000 0.578158 0.500000
O O11 0.989626 0.607791 0.370433
O O12 0.250000 0.758949 0.930192
O O13 0.492377 0.724604 0.862125
O O14 0.495383 0.820737 0.919731
O O15 0.500000 0.737125 0.000000
O O16 0.750000 0.656855 0.652468
O O17 0.972675 0.683369 0.732499
O O18 0.250000 0.930178 0.224745
O O19 0.030718 0.917915 0.138394
O O20 0.025304 0.000000 0.227758
O O21 0.250000 0.265718 0.206588
O O22 0.250000 0.123347 0.065736
O O23 0.000000 0.095197 0.000000
#
# Coordination Sequence:
#
# PCOD9400679 Si02
#       8
#     8   8   8   8   8   8   8   8
#     4  10  20  34  52  75 101 126 155 194 240 288
#     4  11  21  33  51  73  95 122 156 193 238 290
#     4  10  20  32  47  68  98 137 176 210 242 279
#     4  11  20  30  47  70  96 128 161 195 238 289
#     4   9  19  32  49  72  99 131 164 202 243 280
#     4  10  21  36  52  68  91 125 159 195 240 286
#     4  10  19  33  50  70  97 127 160 201 245 289
#     4  10  19  31  48  67  93 124 157 195 234 280
#
# _framework density 15.560888
#
# number of rings (size 3 to 8) (size 9 to 14) (size 15 to 20)
#    0.000    1.875    1.250    5.625    0.000    5.750 
#    0.000    0.000    0.000    0.375    0.000    0.000 
#    0.000    0.500    0.000    1.625    0.000    2.375 
#
# Total GULP energy -357269.095828 kJ/mol
# GULP energy per Si atom -5582.329622 kJ/mol
# Density = 1.552547 g / cm^3
# Si number density = 15.560888 Si / 1000 Ang^3
#
#
#
# Elastic Constant Matrix: (Units=GPa)
#
#
# Indices 1 2 3 4 5 6 
#
# 1 74.7910 40.2484 55.1345 0.0000 0.0000 0.0000
# 2 40.2484 80.3181 58.4159 0.0000 0.0000 0.0000
# 3 55.1345 58.4159 139.7721 0.0000 0.0000 0.0000
# 4 0.0000 0.0000 0.0000 22.4849 0.0000 0.0000
# 5 0.0000 0.0000 0.0000 0.0000 30.5142 0.0000
# 6 0.0000 0.0000 0.0000 0.0000 0.0000 18.4555
#
#
#
# Elastic Compliance Matrix: (Units=1/GPa)
#
#
# Indices 1 2 3 4 5 6 
#
# 1 0.020944 -0.006446 -0.005567 0.000000 0.000000 0.000000
# 2 -0.006446 0.019872 -0.005762 0.000000 0.000000 0.000000
# 3 -0.005567 -0.005762 0.011759 0.000000 0.000000 0.000000
# 4 0.000000 0.000000 0.000000 0.044474 0.000000 0.000000
# 5 0.000000 0.000000 0.000000 0.000000 0.032772 0.000000
# 6 0.000000 0.000000 0.000000 0.000000 0.000000 0.054184
#
#
# Mechanical properties :
#
#
# Convention : Reuss Voigt Hill
#
# Bulk Modulus (GPa) = 58.74502 66.94209 62.84356
# Shear Modulus (GPa) = 22.19947 23.69640 22.94793
#
# Velocity S-wave (km/s) = 3.78116 3.90656 3.84437
# Velocity P-wave (km/s) = 7.54298 7.96625 7.75750
#
# Compressibility (1/GPa) = 0.01702272
#
# Stress axis : x y z
#
# Youngs Moduli (GPa) = 47.74719 50.32283 85.04126
#
# Poissons Ratio (x) = 0.32437 0.47346
# Poissons Ratio (y) = 0.30777 0.49005
# Poissons Ratio (z) = 0.26583 0.28998
#
# Static dielectric constant tensor:
#      x y z
#    x 1.519510 0.000000 0.000000 
#    y 0.000000 1.498990 0.000000 
#    z 0.000000 0.000000 1.525920 
# 
# From -- ./inp_files/28333.got.cif
#   From: 2010.05.17/outbox.cif.g08.bks.cpg/sg51_15_cif.got.tgz:28333.got - 2010.06.03 11:52:47.
