data_PCOD9400515
_publ_section_title
;
Structure prediction by ZEFSAII (Michael W. Deem and Ramdas Pophale) SiO2 
 PCOD9400515
Probable space group: P M M A
;
_chemical_formula_sum "Si O2"
_cell_formula_units_Z 64
_cell_length_a 30.441216
_cell_length_b 7.447109
_cell_length_c 12.756092
_cell_angle_alpha 90.000000
_cell_angle_beta 90.000000
_cell_angle_gamma 90.000000
_cell_volume 2891.793985
_symmetry_space_group_name_H-M "P M M A"
_symmetry_group_IT_number 51
_symmetry_cell_setting 'orthorhombic'
loop_
_space_group_symop_operation_xyz
x,y,z
1/2-x,-y,z
1/2+x,-y,-z
-x,y,-z
-x,-y,-z
1/2+x,y,-z
1/2-x,y,z
x,-y,z
loop_
_atom_site_type_symbol
_atom_site_label
_atom_site_fract_x
_atom_site_fract_y
_atom_site_fract_z
Si Si1 0.555121 0.707046 0.136383
Si Si2 0.607238 0.279386 0.934196
Si Si3 0.797919 0.291343 0.876684
Si Si4 0.606855 0.781930 0.344167
Si Si5 0.325913 0.217228 0.356018
Si Si6 0.420780 0.213849 0.430869
Si Si7 0.535106 0.285325 0.772101
Si Si8 0.297326 0.781746 0.585710
O O1 0.546121 0.500000 0.107118
O O2 0.585386 0.712741 0.238799
O O3 0.508504 0.787032 0.171780
O O4 0.581381 0.782001 0.037523
O O5 0.608847 0.500000 0.933507
O O6 0.657361 0.214999 0.925937
O O7 0.578137 0.221819 0.834599
O O8 0.750000 0.211598 0.900803
O O9 0.796293 0.500000 0.907923
O O10 0.805601 0.284827 0.751343
O O11 0.580631 0.722464 0.449142
O O12 0.657609 0.724840 0.358990
O O13 0.605787 0.000000 0.339863
O O14 0.376026 0.279831 0.374794
O O15 0.301390 0.267719 0.463095
O O16 0.325513 0.000000 0.349751
O O17 0.460340 0.248580 0.351462
O O18 0.416383 0.000000 0.438295
O O19 0.534000 0.500000 0.781616
O O20 0.250000 0.721553 0.627443
O O21 0.297899 0.000000 0.588926
#
# Coordination Sequence:
#
# PCOD9400515 Si02
#       8
#     8   8   8   8   8   8   8   8
#     4  10  21  36  54  74  96 131 178 217 250 295
#     4   9  18  35  54  72 100 133 165 207 253 296
#     4  10  19  30  48  75 103 131 162 197 248 308
#     4   9  19  35  52  73 104 138 168 203 253 304
#     4   9  16  28  48  74 103 132 161 197 244 297
#     4   9  18  32  51  77 108 136 160 197 254 310
#     4  10  19  33  56  79  97 127 171 214 256 300
#     4   8  14  27  49  73  96 129 171 205 238 291
#
# _framework density 22.131591
#
# number of rings (size 3 to 8) (size 9 to 14) (size 15 to 20)
#    0.000    2.750    1.250    2.250    0.000    3.750 
#    0.000    6.250    0.000    3.375    0.000    0.000 
#    0.000    0.000    0.000    0.000    0.000    0.000 
#
# Total GULP energy -357171.558962 kJ/mol
# GULP energy per Si atom -5580.805609 kJ/mol
# Density = 2.208122 g / cm^3
# Si number density = 22.131591 Si / 1000 Ang^3
#
#
#
# Elastic Constant Matrix: (Units=GPa)
#
#
# Indices 1 2 3 4 5 6 
#
# 1 57.2723 -5.5723 1.6014 0.0000 0.0000 0.0000
# 2 -5.5723 66.8815 -10.7303 0.0000 0.0000 0.0000
# 3 1.6014 -10.7303 66.9849 0.0000 0.0000 0.0000
# 4 0.0000 0.0000 0.0000 19.9791 0.0000 0.0000
# 5 0.0000 0.0000 0.0000 0.0000 13.1445 0.0000
# 6 0.0000 0.0000 0.0000 0.0000 0.0000 7.0885
#
#
#
# Elastic Compliance Matrix: (Units=1/GPa)
#
#
# Indices 1 2 3 4 5 6 
#
# 1 0.017606 0.001436 -0.000191 0.000000 0.000000 0.000000
# 2 0.001436 0.015463 0.002443 0.000000 0.000000 0.000000
# 3 -0.000191 0.002443 0.015325 0.000000 0.000000 0.000000
# 4 0.000000 0.000000 0.000000 0.050052 0.000000 0.000000
# 5 0.000000 0.000000 0.000000 0.000000 0.076077 0.000000
# 6 0.000000 0.000000 0.000000 0.000000 0.000000 0.141073
#
#
# Mechanical properties :
#
#
# Convention : Reuss Voigt Hill
#
# Bulk Modulus (GPa) = 17.93085 17.97068 17.95077
# Shear Modulus (GPa) = 15.29940 21.76509 18.53224
#
# Velocity S-wave (km/s) = 2.63210 3.13939 2.89687
# Velocity P-wave (km/s) = 4.16614 4.61287 4.39518
#
# Compressibility (1/GPa) = 0.05576980
#
# Stress axis : x y z
#
# Youngs Moduli (GPa) = 56.80042 64.66884 65.25451
#
# Poissons Ratio (x) = -0.09288 0.01245
# Poissons Ratio (y) = -0.08158 -0.15940
# Poissons Ratio (z) = 0.01084 -0.15797
#
# Static dielectric constant tensor:
#      x y z
#    x 1.847160 0.000000 0.000000 
#    y 0.000000 1.852870 0.000000 
#    z 0.000000 0.000000 1.768600 
# 
# From -- ./inp_files/19659.got.cif
#   From: 2010.05.17/outbox.cif.g08.bks.cpg/sg51_10_cif.got.tgz:19659.got - 2010.06.03 11:52:47.
