data_PCOD9400390
_publ_section_title
;
Structure prediction by ZEFSAII (Michael W. Deem and Ramdas Pophale) SiO2 
 PCOD9400390
Probable space group: P M M A
;
_chemical_formula_sum "Si O2"
_cell_formula_units_Z 56
_cell_length_a 17.877631
_cell_length_b 9.192488
_cell_length_c 19.587313
_cell_angle_alpha 90.000000
_cell_angle_beta 90.000000
_cell_angle_gamma 90.000000
_cell_volume 3218.977225
_symmetry_space_group_name_H-M "P M M A"
_symmetry_group_IT_number 51
_symmetry_cell_setting 'orthorhombic'
loop_
_space_group_symop_operation_xyz
x,y,z
1/2-x,-y,z
1/2+x,-y,-z
-x,y,-z
-x,-y,-z
1/2+x,y,-z
1/2-x,y,z
x,-y,z
loop_
_atom_site_type_symbol
_atom_site_label
_atom_site_fract_x
_atom_site_fract_y
_atom_site_fract_z
Si Si1 0.556234 0.171517 0.205498
Si Si2 0.660119 0.327539 0.585838
Si Si3 0.158962 0.167243 0.553614
Si Si4 0.159968 0.330456 0.691772
Si Si5 0.166849 0.672057 0.152582
Si Si6 0.485476 0.325760 0.078012
Si Si7 0.398221 0.828830 0.281115
O O1 0.622935 0.251854 0.244078
O O2 0.536427 0.243172 0.132949
O O3 0.482525 0.190092 0.253137
O O4 0.570292 0.000000 0.198328
O O5 0.750000 0.305352 0.594465
O O6 0.647068 0.500000 0.582664
O O7 0.637074 0.251292 0.515048
O O8 0.618434 0.255765 0.649496
O O9 0.250000 0.166223 0.554207
O O10 0.135345 0.250000 0.622210
O O11 0.133498 0.000000 0.553480
O O12 0.250000 0.321748 0.695273
O O13 0.138869 0.500000 0.689586
O O14 0.250000 0.699578 0.125485
O O15 0.161353 0.500000 0.169641
O O16 0.100167 0.704483 0.100188
O O17 0.152896 0.762953 0.221027
O O18 0.497664 0.500000 0.084143
O O19 0.500000 0.283545 0.000000
O O20 0.383858 0.000000 0.290302
#
# Coordination Sequence:
#
# PCOD9400390 Si02
#       7
#     8   8   8   8   8   8   8
#     4  10  21  36  54  76 102 132 166 205 251 304
#     4  10  19  30  46  70 100 134 172 212 253 298
#     4   9  17  30  49  72  99 132 168 208 255 302
#     4  10  20  35  56  79 101 128 166 211 255 301
#     4   9  17  30  49  73 100 132 170 209 249 296
#     4   9  18  34  55  77 104 138 172 207 252 304
#     4  10  20  32  47  70 100 133 168 207 251 298
#
# _framework density 17.396829
#
# number of rings (size 3 to 8) (size 9 to 14) (size 15 to 20)
#    0.000    2.429    0.000    2.571    0.000    7.429 
#    0.000    1.429    0.000    6.857    0.000    0.000 
#    0.000    0.000    0.000    0.000    0.000    0.000 
#
# Total GULP energy -312469.095082 kJ/mol
# GULP energy per Si atom -5579.805269 kJ/mol
# Density = 1.735723 g / cm^3
# Si number density = 17.396829 Si / 1000 Ang^3
#
#
#
# Elastic Constant Matrix: (Units=GPa)
#
#
# Indices 1 2 3 4 5 6 
#
# 1 25.8462 37.5917 40.7063 0.0000 0.0000 0.0000
# 2 37.5917 109.8690 86.6725 0.0000 0.0000 0.0000
# 3 40.7063 86.6725 160.5341 0.0000 0.0000 0.0000
# 4 0.0000 0.0000 0.0000 13.7456 0.0000 0.0000
# 5 0.0000 0.0000 0.0000 0.0000 14.5507 0.0000
# 6 0.0000 0.0000 0.0000 0.0000 0.0000 19.5000
#
#
#
# Elastic Compliance Matrix: (Units=1/GPa)
#
#
# Indices 1 2 3 4 5 6 
#
# 1 0.085770 -0.021233 -0.010285 0.000000 0.000000 0.000000
# 2 -0.021233 0.021111 -0.006014 0.000000 0.000000 0.000000
# 3 -0.010285 -0.006014 0.012084 0.000000 0.000000 0.000000
# 4 0.000000 0.000000 0.000000 0.072751 0.000000 0.000000
# 5 0.000000 0.000000 0.000000 0.000000 0.068725 0.000000
# 6 0.000000 0.000000 0.000000 0.000000 0.000000 0.051282
#
#
# Mechanical properties :
#
#
# Convention : Reuss Voigt Hill
#
# Bulk Modulus (GPa) = 22.77804 69.57671 46.17738
# Shear Modulus (GPa) = 12.45580 18.31118 15.38349
#
# Velocity S-wave (km/s) = 2.67868 3.24784 2.97689
# Velocity P-wave (km/s) = 4.76327 7.35835 6.19815
#
# Compressibility (1/GPa) = 0.04390193
#
# Stress axis : x y z
#
# Youngs Moduli (GPa) = 11.65905 47.36972 82.75461
#
# Poissons Ratio (x) = 1.00579 0.85113
# Poissons Ratio (y) = 0.24755 0.49766
# Poissons Ratio (z) = 0.11991 0.28487
#
# Static dielectric constant tensor:
#      x y z
#    x 1.599130 0.000000 0.000000 
#    y 0.000000 1.580760 0.000000 
#    z 0.000000 0.000000 1.553560 
# 
# From -- ./inp_files/33731.got.cif
#   From: 2010.05.17/outbox.cif.g08.bks.cpg/sg51_17_cif.got.tgz:33731.got - 2010.06.03 11:52:47.
