data_PCOD9400231
_publ_section_title
;
Structure prediction by ZEFSAII (Michael W. Deem and Ramdas Pophale) SiO2 
 PCOD9400231
Probable space group: P M M A
;
_chemical_formula_sum "Si O2"
_cell_formula_units_Z 64
_cell_length_a 26.503189
_cell_length_b 7.503618
_cell_length_c 17.797741
_cell_angle_alpha 90.000000
_cell_angle_beta 90.000000
_cell_angle_gamma 90.000000
_cell_volume 3539.433301
_symmetry_space_group_name_H-M "P M M A"
_symmetry_group_IT_number 51
_symmetry_cell_setting 'orthorhombic'
loop_
_space_group_symop_operation_xyz
x,y,z
1/2-x,-y,z
1/2+x,-y,-z
-x,y,-z
-x,-y,-z
1/2+x,y,-z
1/2-x,y,z
x,-y,z
loop_
_atom_site_type_symbol
_atom_site_label
_atom_site_fract_x
_atom_site_fract_y
_atom_site_fract_z
Si Si1 0.561280 0.208693 0.497138
Si Si2 0.899774 0.218547 0.818320
Si Si3 0.306780 0.785117 0.082285
Si Si4 0.061216 0.781857 0.339421
Si Si5 0.094037 0.290876 0.828480
Si Si6 0.444091 0.784380 0.666162
Si Si7 0.806676 0.288422 0.091725
Si Si8 0.993585 0.206811 0.916926
O O1 0.500000 0.215905 0.500000
O O2 0.577938 0.282105 0.577910
O O3 0.575296 0.281865 0.415158
O O4 0.575514 0.000000 0.496480
O O5 0.849274 0.277402 0.860276
O O6 0.906467 0.274499 0.732086
O O7 0.948318 0.280448 0.866191
O O8 0.900133 0.000000 0.817435
O O9 0.250000 0.720871 0.098239
O O10 0.306142 0.000000 0.085846
O O11 0.319014 0.737014 0.996240
O O12 0.002785 0.729067 0.325938
O O13 0.061157 0.000000 0.341963
O O14 0.092785 0.500000 0.846423
O O15 0.086446 0.268983 0.739584
O O16 0.147118 0.217121 0.858899
O O17 0.045710 0.212208 0.871293
O O18 0.444494 0.000000 0.663478
O O19 0.750000 0.215232 0.104525
O O20 0.803792 0.500000 0.105963
O O21 0.979438 0.000000 0.928695
O O22 0.000000 0.286752 0.000000
#
# Coordination Sequence:
#
# PCOD9400231 Si02
#       8
#     8   8   8   8   8   8   8   8
#     4   7  11  19  36  61  82 105 142 179 200 229
#     4   9  15  24  40  63  88 113 138 168 207 250
#     4   9  17  29  46  67  86 105 139 185 219 241
#     4   8  12  21  39  62  85 110 144 176 200 239
#     4  11  21  30  43  64  88 111 138 175 218 256
#     4   9  15  26  43  62  85 112 143 174 206 249
#     4   9  19  35  49  59  77 109 146 179 212 252
#     4  10  19  30  44  61  84 116 147 169 201 254
#
# _framework density 18.081990999999999
#
# number of rings (size 3 to 8) (size 9 to 14) (size 15 to 20)
#    0.000    3.000    1.250    2.625    0.000    2.250 
#    0.000    0.625    0.000    3.375    0.000    0.875 
#    0.000    3.000    0.000    0.000    0.000    0.000 
#
# Total GULP energy -356640.391200 kJ/mol
# GULP energy per Si atom -5572.506113 kJ/mol
# Density = 1.804084 g / cm^3
# Si number density = 18.081991 Si / 1000 Ang^3
#
#
#
# Elastic Constant Matrix: (Units=GPa)
#
#
# Indices 1 2 3 4 5 6 
#
# 1 99.0241 -3.2808 85.5063 0.0000 0.0000 0.0000
# 2 -3.2808 44.0923 -7.5289 0.0000 0.0000 0.0000
# 3 85.5063 -7.5289 175.3554 0.0000 0.0000 0.0000
# 4 0.0000 0.0000 0.0000 49.4783 0.0000 0.0000
# 5 0.0000 0.0000 0.0000 0.0000 13.8457 0.0000
# 6 0.0000 0.0000 0.0000 0.0000 0.0000 26.3041
#
#
#
# Elastic Compliance Matrix: (Units=1/GPa)
#
#
# Indices 1 2 3 4 5 6 
#
# 1 0.017444 -0.000156 -0.008513 0.000000 0.000000 0.000000
# 2 -0.000156 0.022849 0.001057 0.000000 0.000000 0.000000
# 3 -0.008513 0.001057 0.009899 0.000000 0.000000 0.000000
# 4 0.000000 0.000000 0.000000 0.020211 0.000000 0.000000
# 5 0.000000 0.000000 0.000000 0.000000 0.072225 0.000000
# 6 0.000000 0.000000 0.000000 0.000000 0.000000 0.038017
#
#
# Mechanical properties :
#
#
# Convention : Reuss Voigt Hill
#
# Bulk Modulus (GPa) = 28.59693 51.98500 40.29096
# Shear Modulus (GPa) = 24.09372 34.17731 29.13552
#
# Velocity S-wave (km/s) = 3.65426 4.35228 4.01846
# Velocity P-wave (km/s) = 5.80123 7.35313 6.62279
#
# Compressibility (1/GPa) = 0.03496879
#
# Stress axis : x y z
#
# Youngs Moduli (GPa) = 57.32631 43.76642 101.02024
#
# Poissons Ratio (x) = 0.00681 0.85995
# Poissons Ratio (y) = 0.00892 -0.10677
# Poissons Ratio (z) = 0.48800 -0.04626
#
# Static dielectric constant tensor:
#      x y z
#    x 1.600910 0.000000 0.000000 
#    y 0.000000 1.684700 0.000000 
#    z 0.000000 0.000000 1.643460 
# 
# From -- ./inp_files/30873.got.cif
#   From: 2010.05.17/outbox.cif.g08.bks.cpg/sg51_16_cif.got.tgz:30873.got - 2010.06.03 11:52:47.
