data_PCOD9400172
_publ_section_title
;
Structure prediction by ZEFSAII (Michael W. Deem and Ramdas Pophale) SiO2 
 PCOD9400172
Probable space group: P M M A
;
_chemical_formula_sum "Si O2"
_cell_formula_units_Z 52
_cell_length_a 8.978738
_cell_length_b 13.488088
_cell_length_c 22.630950
_cell_angle_alpha 90.000000
_cell_angle_beta 90.000000
_cell_angle_gamma 90.000000
_cell_volume 2740.744018
_symmetry_space_group_name_H-M "P M M A"
_symmetry_group_IT_number 51
_symmetry_cell_setting 'orthorhombic'
loop_
_space_group_symop_operation_xyz
x,y,z
1/2-x,-y,z
1/2+x,-y,-z
-x,y,-z
-x,-y,-z
1/2+x,y,-z
1/2-x,y,z
x,-y,z
loop_
_atom_site_type_symbol
_atom_site_label
_atom_site_fract_x
_atom_site_fract_y
_atom_site_fract_z
Si Si1 0.575450 0.686627 0.440084
Si Si2 0.080261 0.618648 0.320118
Si Si3 0.918426 0.881083 0.737614
Si Si4 0.427523 0.814601 0.855090
Si Si5 0.568323 0.000000 0.064916
Si Si6 0.074687 0.886405 0.616672
Si Si7 0.069915 0.385013 0.805047
O O1 0.500000 0.650045 0.500000
O O2 0.750000 0.664537 0.441521
O O3 0.506160 0.645723 0.379696
O O4 0.554712 0.805631 0.433967
O O5 0.250000 0.655798 0.322509
O O6 0.085893 0.500000 0.318483
O O7 0.000413 0.645274 0.258279
O O8 0.750000 0.846298 0.748734
O O9 0.025978 0.851449 0.790379
O O10 0.980066 0.852726 0.673434
O O11 0.915392 0.000000 0.736413
O O12 0.250000 0.814085 0.861186
O O13 0.481398 0.899395 0.900557
O O14 0.475409 0.698450 0.853369
O O15 0.750000 0.000000 0.062802
O O16 0.500000 0.000000 0.000000
O O17 0.250000 0.884650 0.633321
O O18 0.036276 0.000000 0.601196
O O19 0.250000 0.382258 0.799408
O O20 0.028444 0.500000 0.818039
#
# Coordination Sequence:
#
# PCOD9400172 Si02
#       7
#     8   8   8   8   4   8   8
#     4  11  23  37  53  72  95 129 173 219 266 319
#     4  10  21  37  56  78 105 135 167 210 265 319
#     4  10  19  29  46  76 107 133 167 213 266 317
#     4  10  19  33  54  78 108 146 182 219 262 312
#     4  10  22  38  56  80 112 152 193 226 261 304
#     4   9  19  35  52  70  97 133 169 208 259 320
#     4   9  18  33  55  83 111 139 174 217 267 321
#
# _framework density 18.972951999999999
#
# number of rings (size 3 to 8) (size 9 to 14) (size 15 to 20)
#    0.000    2.154    0.769    2.308    0.000    8.308 
#    0.000    0.000    0.000    0.462    0.000    0.000 
#    0.000    0.000    0.000    0.000    0.000    0.000 
#
# Total GULP energy -289942.699438 kJ/mol
# GULP energy per Si atom -5575.821143 kJ/mol
# Density = 1.892977 g / cm^3
# Si number density = 18.972952 Si / 1000 Ang^3
#
#
#
# Elastic Constant Matrix: (Units=GPa)
#
#
# Indices 1 2 3 4 5 6 
#
# 1 17.7737 30.9998 25.6580 0.0000 0.0000 0.0000
# 2 30.9998 97.7462 62.7456 0.0000 0.0000 0.0000
# 3 25.6580 62.7456 87.1183 0.0000 0.0000 0.0000
# 4 0.0000 0.0000 0.0000 15.6730 0.0000 0.0000
# 5 0.0000 0.0000 0.0000 0.0000 26.3689 0.0000
# 6 0.0000 0.0000 0.0000 0.0000 0.0000 17.1309
#
#
#
# Elastic Compliance Matrix: (Units=1/GPa)
#
#
# Indices 1 2 3 4 5 6 
#
# 1 0.138231 -0.032931 -0.016994 0.000000 0.000000 0.000000
# 2 -0.032931 0.026873 -0.009656 0.000000 0.000000 0.000000
# 3 -0.016994 -0.009656 0.023438 0.000000 0.000000 0.000000
# 4 0.000000 0.000000 0.000000 0.063804 0.000000 0.000000
# 5 0.000000 0.000000 0.000000 0.000000 0.037923 0.000000
# 6 0.000000 0.000000 0.000000 0.000000 0.000000 0.058374
#
#
# Mechanical properties :
#
#
# Convention : Reuss Voigt Hill
#
# Bulk Modulus (GPa) = 14.41317 49.04947 31.73132
# Shear Modulus (GPa) = 10.18471 17.38355 13.78413
#
# Velocity S-wave (km/s) = 2.31941 3.03021 2.69832
# Velocity P-wave (km/s) = 3.84527 6.17668 5.14477
#
# Compressibility (1/GPa) = 0.06938100
#
# Stress axis : x y z
#
# Youngs Moduli (GPa) = 7.23426 37.21225 42.66523
#
# Poissons Ratio (x) = 1.22542 0.72505
# Poissons Ratio (y) = 0.23823 0.41198
# Poissons Ratio (z) = 0.12294 0.35932
#
# Static dielectric constant tensor:
#      x y z
#    x 1.646220 0.000000 0.000000 
#    y 0.000000 1.758730 0.000000 
#    z 0.000000 0.000000 1.596790 
# 
# From -- ./inp_files/31738.got.cif
#   From: 2010.05.17/outbox.cif.g08.bks.cpg/sg51_16_cif.got.tgz:31738.got - 2010.06.03 11:52:47.
