data_PCOD9400352
_publ_section_title
;
Structure prediction by ZEFSAII (Michael W. Deem and Ramdas Pophale) SiO2 
 PCOD9400352
Probable space group: P M M A
;
_chemical_formula_sum "Si O2"
_cell_formula_units_Z 64
_cell_length_a 9.046293
_cell_length_b 14.609409
_cell_length_c 29.674418
_cell_angle_alpha 90.000000
_cell_angle_beta 90.000000
_cell_angle_gamma 90.000000
_cell_volume 3921.800590
_symmetry_space_group_name_H-M "P M M A"
_symmetry_group_IT_number 51
_symmetry_cell_setting 'orthorhombic'
loop_
_space_group_symop_operation_xyz
x,y,z
1/2-x,-y,z
1/2+x,-y,-z
-x,y,-z
-x,-y,-z
1/2+x,y,-z
1/2-x,y,z
x,-y,z
loop_
_atom_site_type_symbol
_atom_site_label
_atom_site_fract_x
_atom_site_fract_y
_atom_site_fract_z
Si Si1 0.578232 0.109769 0.687725
Si Si2 0.425405 0.891964 0.592360
Si Si3 0.079944 0.111367 0.045606
Si Si4 0.074128 0.607562 0.367520
Si Si5 0.572911 0.271745 0.546051
Si Si6 0.927667 0.107076 0.138829
Si Si7 0.427565 0.395795 0.727071
Si Si8 0.571593 0.787890 0.229012
O O1 0.750000 0.137059 0.682768
O O2 0.490669 0.130336 0.641785
O O3 0.504127 0.157555 0.730324
O O4 0.572856 0.000000 0.693987
O O5 0.250000 0.874591 0.591189
O O6 0.509744 0.828553 0.557096
O O7 0.450071 0.000000 0.584485
O O8 0.250000 0.140056 0.045886
O O9 0.999385 0.137485 0.091845
O O10 0.076578 0.000000 0.044724
O O11 0.000000 0.142874 0.000000
O O12 0.250000 0.618972 0.360841
O O13 0.044789 0.500000 0.375595
O O14 0.031045 0.665996 0.410992
O O15 0.992823 0.633095 0.321317
O O16 0.500000 0.305749 0.500000
O O17 0.750000 0.270419 0.542206
O O18 0.750000 0.110971 0.134488
O O19 0.972587 0.168448 0.181358
O O20 0.967096 0.000000 0.147028
O O21 0.250000 0.397344 0.723466
O O22 0.477852 0.500000 0.736634
O O23 0.466366 0.318797 0.763610
O O24 0.750000 0.797545 0.232806
#
# Coordination Sequence:
#
# PCOD9400352 Si02
#       8
#     8   8   8   8   8   8   8   8
#     4  10  20  32  47  69  96 124 154 189 228 271
#     4  10  21  37  55  72  92 121 156 191 225 264
#     4   9  16  26  41  60  84 118 159 199 236 274
#     4   9  19  36  55  74  96 121 149 182 223 272
#     4  11  23  37  54  75  98 122 148 182 224 270
#     4   9  17  28  41  60  89 124 161 198 234 273
#     4   9  18  32  50  72  95 120 153 191 229 271
#     4  10  19  30  46  67  94 128 161 194 233 277
#
# _framework density 16.319035
#
# number of rings (size 3 to 8) (size 9 to 14) (size 15 to 20)
#    0.000    2.375    0.000    2.625    0.000    8.000 
#    0.000    1.250    0.000    0.000    0.000    0.000 
#    0.000    0.500    0.000    0.875    0.000    1.250 
#
# Total GULP energy -357082.035020 kJ/mol
# GULP energy per Si atom -5579.406797 kJ/mol
# Density = 1.628189 g / cm^3
# Si number density = 16.319035 Si / 1000 Ang^3
#
#
#
# Elastic Constant Matrix: (Units=GPa)
#
#
# Indices 1 2 3 4 5 6 
#
# 1 37.3134 29.9810 35.8926 0.0000 0.0000 0.0000
# 2 29.9810 60.0598 59.1234 0.0000 0.0000 0.0000
# 3 35.8926 59.1234 112.5873 0.0000 0.0000 0.0000
# 4 0.0000 0.0000 0.0000 17.7567 0.0000 0.0000
# 5 0.0000 0.0000 0.0000 0.0000 28.1013 0.0000
# 6 0.0000 0.0000 0.0000 0.0000 0.0000 15.7019
#
#
#
# Elastic Compliance Matrix: (Units=1/GPa)
#
#
# Indices 1 2 3 4 5 6 
#
# 1 0.046298 -0.017766 -0.005430 0.000000 0.000000 0.000000
# 2 -0.017766 0.041286 -0.016017 0.000000 0.000000 0.000000
# 3 -0.005430 -0.016017 0.019024 0.000000 0.000000 0.000000
# 4 0.000000 0.000000 0.000000 0.056317 0.000000 0.000000
# 5 0.000000 0.000000 0.000000 0.000000 0.035586 0.000000
# 6 0.000000 0.000000 0.000000 0.000000 0.000000 0.063687
#
#
# Mechanical properties :
#
#
# Convention : Reuss Voigt Hill
#
# Bulk Modulus (GPa) = 35.48340 51.10607 43.29473
# Shear Modulus (GPa) = 14.28502 17.97619 16.13061
#
# Velocity S-wave (km/s) = 2.96186 3.32256 3.14738
# Velocity P-wave (km/s) = 5.78684 6.78999 6.30839
#
# Compressibility (1/GPa) = 0.02818219
#
# Stress axis : x y z
#
# Youngs Moduli (GPa) = 21.59905 24.22157 52.56474
#
# Poissons Ratio (x) = 0.43031 0.28545
# Poissons Ratio (y) = 0.38372 0.84192
# Poissons Ratio (z) = 0.11729 0.38795
#
# Static dielectric constant tensor:
#      x y z
#    x 1.544140 0.000000 0.000000 
#    y 0.000000 1.561740 0.000000 
#    z 0.000000 0.000000 1.524420 
# 
# From -- ./inp_files/34980.got.cif
#   From: 2010.05.17/outbox.cif.g08.bks.cpg/sg51_18_cif.got.tgz:34980.got - 2010.06.03 11:52:47.
