data_PCOD9400871
_publ_section_title
;
Structure prediction by ZEFSAII (Michael W. Deem and Ramdas Pophale) SiO2 
 PCOD9400871
Probable space group: P M M A
;
_chemical_formula_sum "Si O2"
_cell_formula_units_Z 48
_cell_length_a 19.073824
_cell_length_b 15.853477
_cell_length_c 9.353587
_cell_angle_alpha 90.000000
_cell_angle_beta 90.000000
_cell_angle_gamma 90.000000
_cell_volume 2828.397781
_symmetry_space_group_name_H-M "P M M A"
_symmetry_group_IT_number 51
_symmetry_cell_setting 'orthorhombic'
loop_
_space_group_symop_operation_xyz
x,y,z
1/2-x,-y,z
1/2+x,-y,-z
-x,y,-z
-x,-y,-z
1/2+x,y,-z
1/2-x,y,z
x,-y,z
loop_
_atom_site_type_symbol
_atom_site_label
_atom_site_fract_x
_atom_site_fract_y
_atom_site_fract_z
Si Si1 0.168404 0.095699 0.706299
Si Si2 0.589627 0.742344 0.643996
Si Si3 0.831373 0.091363 0.641004
Si Si4 0.427239 0.403009 0.914496
Si Si5 0.924711 0.254484 0.308143
Si Si6 0.667464 0.402986 0.812365
O O1 0.250000 0.112370 0.745283
O O2 0.165854 0.092971 0.532506
O O3 0.116405 0.171521 0.748171
O O4 0.150324 0.000000 0.754946
O O5 0.628835 0.826876 0.693027
O O6 0.598259 0.732467 0.472876
O O7 0.508456 0.755616 0.681562
O O8 0.623148 0.661543 0.718262
O O9 0.750000 0.095841 0.681426
O O10 0.859947 0.000000 0.686912
O O11 0.433203 0.500000 0.862068
O O12 0.413679 0.335691 0.790946
O O13 0.500000 0.384528 0.000000
O O14 0.364716 0.398625 0.029051
O O15 0.750000 0.383075 0.809628
O O16 0.658323 0.500000 0.763547
#
# Coordination Sequence:
#
# PCOD9400871 Si02
#       6
#     8   8   8   8   8   8
#     4   8  15  29  48  71 102 138 172 209 256 308
#     4  10  19  31  49  80 111 134 165 215 266 309
#     4   8  14  26  45  69 100 138 172 203 249 307
#     4  10  20  37  56  73 100 139 178 216 257 310
#     4  10  20  31  52  81 106 135 174 214 262 310
#     4  10  21  37  56  76 101 138 177 211 258 317
#
# _framework density 16.970738999999998
#
# number of rings (size 3 to 8) (size 9 to 14) (size 15 to 20)
#    0.000    2.667    1.667    1.500    0.000    2.667 
#    0.000    5.000    0.000    3.500    0.000    2.333 
#    0.000    0.000    0.000    0.000    0.000    0.000 
#
# Total GULP energy -267321.944046 kJ/mol
# GULP energy per Si atom -5569.207168 kJ/mol
# Density = 1.693211 g / cm^3
# Si number density = 16.970739 Si / 1000 Ang^3
#
#
#
# Elastic Constant Matrix: (Units=GPa)
#
#
# Indices 1 2 3 4 5 6 
#
# 1 75.5718 70.9883 29.4558 0.0000 0.0000 0.0000
# 2 70.9883 158.0619 57.0707 0.0000 0.0000 0.0000
# 3 29.4558 57.0707 31.4506 0.0000 0.0000 0.0000
# 4 0.0000 0.0000 0.0000 -21.9286 0.0000 0.0000
# 5 0.0000 0.0000 0.0000 0.0000 12.9740 0.0000
# 6 0.0000 0.0000 0.0000 0.0000 0.0000 31.3866
#
#
#
# Elastic Compliance Matrix: (Units=1/GPa)
#
#
# Indices 1 2 3 4 5 6 
#
# 1 0.023618 -0.007600 -0.008329 0.000000 0.000000 0.000000
# 2 -0.007600 0.020794 -0.030615 0.000000 0.000000 0.000000
# 3 -0.008329 -0.030615 0.095151 0.000000 0.000000 0.000000
# 4 0.000000 0.000000 0.000000 -0.045602 0.000000 0.000000
# 5 0.000000 0.000000 0.000000 0.000000 0.077077 0.000000
# 6 0.000000 0.000000 0.000000 0.000000 0.000000 0.031861
#
#
# Mechanical properties :
#
#
# Convention : Reuss Voigt Hill
#
# Bulk Modulus (GPa) = 21.51697 64.45710 42.98704
# Shear Modulus (GPa) = 16.05249 11.65768 13.85508
#
# Velocity S-wave (km/s) = 3.07887 2.62378 2.86039
# Velocity P-wave (km/s) = 5.03445 6.87333 6.02447
#
# Compressibility (1/GPa) = 0.04647494
#
# Stress axis : x y z
#
# Youngs Moduli (GPa) = 42.34100 48.09099 10.50958
#
# Poissons Ratio (x) = 0.36548 0.08753
# Poissons Ratio (y) = 0.32178 0.32175
# Poissons Ratio (z) = 0.35266 1.47231
#
# Static dielectric constant tensor:
#      x y z
#    x 1.588970 0.000000 0.000000 
#    y 0.000000 1.581990 0.000000 
#    z 0.000000 0.000000 1.560420 
# 
# From -- ./inp_files/9596.got.cif
#   From: 2010.05.17/outbox.cif.g08.bks.cpg/sg51_5_cif.got.tgz:9596.got - 2010.06.03 11:52:47.
