data_PCOD9400046
_publ_section_title
;
Structure prediction by ZEFSAII (Michael W. Deem and Ramdas Pophale) SiO2 
 PCOD9400046
Probable space group: P M M A
;
_chemical_formula_sum "Si O2"
_cell_formula_units_Z 64
_cell_length_a 7.679010
_cell_length_b 14.939194
_cell_length_c 32.254927
_cell_angle_alpha 90.000000
_cell_angle_beta 90.000000
_cell_angle_gamma 90.000000
_cell_volume 3700.227815
_symmetry_space_group_name_H-M "P M M A"
_symmetry_group_IT_number 51
_symmetry_cell_setting 'orthorhombic'
loop_
_space_group_symop_operation_xyz
x,y,z
1/2-x,-y,z
1/2+x,-y,-z
-x,y,-z
-x,-y,-z
1/2+x,y,-z
1/2-x,y,z
x,-y,z
loop_
_atom_site_type_symbol
_atom_site_label
_atom_site_fract_x
_atom_site_fract_y
_atom_site_fract_z
Si Si1 0.542904 0.602322 0.365339
Si Si2 0.043541 0.601866 0.455590
Si Si3 0.541295 0.098886 0.843714
Si Si4 0.536363 0.712538 0.874371
Si Si5 0.457477 0.283494 0.711173
Si Si6 0.540892 0.397812 0.953459
Si Si7 0.960622 0.397152 0.792815
Si Si8 0.460322 0.099537 0.746579
O O1 0.750000 0.595348 0.358881
O O2 0.472219 0.500000 0.363749
O O3 0.516292 0.640083 0.411659
O O4 0.471062 0.664634 0.328891
O O5 0.250000 0.596143 0.453495
O O6 0.968346 0.500000 0.456757
O O7 0.000000 0.644662 0.500000
O O8 0.750000 0.096426 0.848880
O O9 0.476373 0.185419 0.868272
O O10 0.506107 0.113246 0.794894
O O11 0.472386 0.000000 0.854800
O O12 0.750000 0.713195 0.874392
O O13 0.477455 0.665395 0.916584
O O14 0.482599 0.654618 0.834291
O O15 0.250000 0.273654 0.705028
O O16 0.484154 0.343881 0.751920
O O17 0.527332 0.184164 0.720709
O O18 0.750000 0.401715 0.949762
O O19 0.474598 0.500000 0.949014
O O20 0.500000 0.366911 0.000000
O O21 0.750000 0.398262 0.793346
O O22 0.021130 0.500000 0.792163
O O23 0.250000 0.099009 0.743984
O O24 0.522617 0.000000 0.734562
#
# Coordination Sequence:
#
# PCOD9400046 Si02
#       8
#     8   8   8   8   8   8   8   8
#     4   9  17  28  40  55  80 115 149 177 208 249
#     4   9  16  26  41  60  81 107 142 182 219 253
#     4   9  16  27  45  66  84 105 138 177 213 252
#     4   9  16  28  45  64  85 109 138 172 212 255
#     4  10  19  30  43  60  86 119 149 178 215 256
#     4   9  17  30  47  64  83 108 137 170 209 252
#     4  10  19  29  42  61  85 114 146 177 208 248
#     4   9  17  29  44  62  85 113 145 181 220 258
#
# _framework density 17.296230999999999
#
# number of rings (size 3 to 8) (size 9 to 14) (size 15 to 20)
#    0.000    2.750    1.250    1.125    0.000    4.250 
#    0.000    2.500    0.000    1.875    0.000    0.000 
#    0.000    0.500    0.000    0.875    0.000    1.250 
#
# Total GULP energy -356698.269669 kJ/mol
# GULP energy per Si atom -5573.410464 kJ/mol
# Density = 1.725686 g / cm^3
# Si number density = 17.296231 Si / 1000 Ang^3
#
#
#
# Elastic Constant Matrix: (Units=GPa)
#
#
# Indices 1 2 3 4 5 6 
#
# 1 29.4405 4.4761 -2.5924 0.0000 0.0000 0.0000
# 2 4.4761 133.8483 86.9871 0.0000 0.0000 0.0000
# 3 -2.5924 86.9871 152.4745 0.0000 0.0000 0.0000
# 4 0.0000 0.0000 0.0000 10.0946 0.0000 0.0000
# 5 0.0000 0.0000 0.0000 0.0000 19.4310 0.0000
# 6 0.0000 0.0000 0.0000 0.0000 0.0000 6.8785
#
#
#
# Elastic Compliance Matrix: (Units=1/GPa)
#
#
# Indices 1 2 3 4 5 6 
#
# 1 0.034512 -0.002440 0.001979 0.000000 0.000000 0.000000
# 2 -0.002440 0.012046 -0.006914 0.000000 0.000000 0.000000
# 3 0.001979 -0.006914 0.010536 0.000000 0.000000 0.000000
# 4 0.000000 0.000000 0.000000 0.099063 0.000000 0.000000
# 5 0.000000 0.000000 0.000000 0.000000 0.051464 0.000000
# 6 0.000000 0.000000 0.000000 0.000000 0.000000 0.145381
#
#
# Mechanical properties :
#
#
# Convention : Reuss Voigt Hill
#
# Bulk Modulus (GPa) = 23.61585 54.83388 39.22487
# Shear Modulus (GPa) = 13.09355 22.40697 17.75026
#
# Velocity S-wave (km/s) = 2.75438 3.60319 3.20699
# Velocity P-wave (km/s) = 4.87841 7.00587 6.03660
#
# Compressibility (1/GPa) = 0.04234444
#
# Stress axis : x y z
#
# Youngs Moduli (GPa) = 28.97531 83.01555 94.90893
#
# Poissons Ratio (x) = 0.20258 -0.18782
# Poissons Ratio (y) = 0.07071 0.65617
# Poissons Ratio (z) = -0.05734 0.57395
#
# Static dielectric constant tensor:
#      x y z
#    x 1.639640 0.000000 0.000000 
#    y 0.000000 1.606880 0.000000 
#    z 0.000000 0.000000 1.581310 
# 
# From -- ./inp_files/37616.got.cif
#   From: 2010.05.17/outbox.cif.g08.bks.cpg/sg51_19_cif.got.tgz:37616.got - 2010.06.03 11:52:47.
