data_PCOD9400354
_publ_section_title
;
Structure prediction by ZEFSAII (Michael W. Deem and Ramdas Pophale) SiO2 
 PCOD9400354
Probable space group: P M M A
;
_chemical_formula_sum "Si O2"
_cell_formula_units_Z 64
_cell_length_a 14.786967
_cell_length_b 8.002055
_cell_length_c 26.214659
_cell_angle_alpha 90.000000
_cell_angle_beta 90.000000
_cell_angle_gamma 90.000000
_cell_volume 3101.878971
_symmetry_space_group_name_H-M "P M M A"
_symmetry_group_IT_number 51
_symmetry_cell_setting 'orthorhombic'
loop_
_space_group_symop_operation_xyz
x,y,z
1/2-x,-y,z
1/2+x,-y,-z
-x,y,-z
-x,-y,-z
1/2+x,y,-z
1/2-x,y,z
x,-y,z
loop_
_atom_site_type_symbol
_atom_site_label
_atom_site_fract_x
_atom_site_fract_y
_atom_site_fract_z
Si Si1 0.648361 0.807047 0.704676
Si Si2 0.956846 0.794052 0.275128
Si Si3 0.036358 0.298849 0.923789
Si Si4 0.105779 0.187993 0.510785
Si Si5 0.644239 0.321972 0.598887
Si Si6 0.354132 0.296001 0.024721
Si Si7 0.352352 0.798937 0.825294
Si Si8 0.645285 0.202876 0.376173
O O1 0.750000 0.734861 0.712086
O O2 0.560217 0.733691 0.731828
O O3 0.619165 0.801801 0.644440
O O4 0.655012 0.000000 0.719429
O O5 0.893353 0.741477 0.228607
O O6 0.915617 0.738608 0.329329
O O7 0.958258 0.000000 0.275807
O O8 0.034429 0.500000 0.925533
O O9 0.080228 0.245649 0.870914
O O10 0.933078 0.242835 0.935535
O O11 0.103260 0.245521 0.969968
O O12 0.138554 0.276721 0.460043
O O13 0.121947 0.263780 0.566603
O O14 0.000000 0.176608 0.500000
O O15 0.144279 0.000000 0.511133
O O16 0.750000 0.337752 0.607856
O O17 0.597947 0.500000 0.607663
O O18 0.250000 0.239039 0.031848
O O19 0.351451 0.500000 0.025602
O O20 0.250000 0.735694 0.833882
O O21 0.347604 0.000000 0.822875
O O22 0.750000 0.239600 0.365796
O O23 0.634999 0.000000 0.378329
#
# Coordination Sequence:
#
# PCOD9400354 Si02
#       8
#     8   8   8   8   8   8   8   8
#     4   9  17  31  52  72  88 113 153 199 241 281
#     4   9  17  31  49  68  91 119 155 196 236 283
#     4   9  17  30  51  77 102 133 174 214 248 287
#     4  10  19  30  46  68  91 115 148 191 234 278
#     4  10  20  32  46  66  93 122 148 179 229 294
#     4   8  14  27  49  76 105 137 173 211 249 289
#     4  10  20  33  50  73 102 134 165 202 251 301
#     4   9  16  26  43  66  88 112 146 188 229 269
#
# _framework density 20.632653999999999
#
# number of rings (size 3 to 8) (size 9 to 14) (size 15 to 20)
#    0.000    2.750    0.000    3.000    0.000    5.750 
#    0.000    2.500    0.000    2.625    0.000    0.000 
#    0.000    0.000    0.000    0.000    0.000    0.000 
#
# Total GULP energy -356387.914188 kJ/mol
# GULP energy per Si atom -5568.561159 kJ/mol
# Density = 2.058569 g / cm^3
# Si number density = 20.632654 Si / 1000 Ang^3
#
#
#
# Elastic Constant Matrix: (Units=GPa)
#
#
# Indices 1 2 3 4 5 6 
#
# 1 164.5993 4.7030 49.9919 0.0000 0.0000 0.0000
# 2 4.7030 12.6178 -5.4418 0.0000 0.0000 0.0000
# 3 49.9919 -5.4418 52.6797 0.0000 0.0000 0.0000
# 4 0.0000 0.0000 0.0000 34.3499 0.0000 0.0000
# 5 0.0000 0.0000 0.0000 0.0000 31.5046 0.0000
# 6 0.0000 0.0000 0.0000 0.0000 0.0000 8.1201
#
#
#
# Elastic Compliance Matrix: (Units=1/GPa)
#
#
# Indices 1 2 3 4 5 6 
#
# 1 0.009167 -0.007503 -0.009475 0.000000 0.000000 0.000000
# 2 -0.007503 0.089090 0.016323 0.000000 0.000000 0.000000
# 3 -0.009475 0.016323 0.029660 0.000000 0.000000 0.000000
# 4 0.000000 0.000000 0.000000 0.029112 0.000000 0.000000
# 5 0.000000 0.000000 0.000000 0.000000 0.031741 0.000000
# 6 0.000000 0.000000 0.000000 0.000000 0.000000 0.123151
#
#
# Mechanical properties :
#
#
# Convention : Reuss Voigt Hill
#
# Bulk Modulus (GPa) = 7.89838 36.48922 22.19380
# Shear Modulus (GPa) = 14.06729 26.83783 20.45256
#
# Velocity S-wave (km/s) = 2.61396 3.61050 3.15186
# Velocity P-wave (km/s) = 3.59816 5.92490 4.90160
#
# Compressibility (1/GPa) = 0.12660825
#
# Stress axis : x y z
#
# Youngs Moduli (GPa) = 109.08219 11.22461 33.71529
#
# Poissons Ratio (x) = 0.08422 0.31944
# Poissons Ratio (y) = 0.81847 -0.55035
# Poissons Ratio (z) = 1.03352 -0.18322
#
# Static dielectric constant tensor:
#      x y z
#    x 1.759150 0.000000 0.000000 
#    y 0.000000 1.830590 0.000000 
#    z 0.000000 0.000000 1.760370 
# 
# From -- ./inp_files/35765.got.cif
#   From: 2010.05.17/outbox.cif.g08.bks.cpg/sg51_18_cif.got.tgz:35765.got - 2010.06.03 11:52:47.
