data_PCOD9400396
_publ_section_title
;
Structure prediction by ZEFSAII (Michael W. Deem and Ramdas Pophale) SiO2 
 PCOD9400396
Probable space group: P M M A
;
_chemical_formula_sum "Si O2"
_cell_formula_units_Z 64
_cell_length_a 8.675899
_cell_length_b 20.739747
_cell_length_c 18.239322
_cell_angle_alpha 90.000000
_cell_angle_beta 90.000000
_cell_angle_gamma 90.000000
_cell_volume 3281.909736
_symmetry_space_group_name_H-M "P M M A"
_symmetry_group_IT_number 51
_symmetry_cell_setting 'orthorhombic'
loop_
_space_group_symop_operation_xyz
x,y,z
1/2-x,-y,z
1/2+x,-y,-z
-x,y,-z
-x,-y,-z
1/2+x,y,-z
1/2-x,y,z
x,-y,z
loop_
_atom_site_type_symbol
_atom_site_label
_atom_site_fract_x
_atom_site_fract_y
_atom_site_fract_z
Si Si1 0.929149 0.127465 0.424805
Si Si2 0.933338 0.293778 0.211730
Si Si3 0.074909 0.923985 0.725506
Si Si4 0.429575 0.401979 0.423367
Si Si5 0.435260 0.787253 0.076012
Si Si6 0.071237 0.727320 0.619598
Si Si7 0.563509 0.571205 0.741441
Si Si8 0.566160 0.927715 0.882775
O O1 0.750000 0.108488 0.423180
O O2 0.997657 0.103282 0.348388
O O3 0.939501 0.204539 0.419673
O O4 0.000000 0.103547 0.500000
O O5 0.750000 0.292924 0.201165
O O6 0.965071 0.265830 0.293627
O O7 0.009689 0.252452 0.147124
O O8 0.992665 0.367616 0.217105
O O9 0.250000 0.896862 0.736751
O O10 0.975006 0.915992 0.797823
O O11 0.090225 0.000000 0.714715
O O12 0.500000 0.424548 0.500000
O O13 0.250000 0.416351 0.425922
O O14 0.461729 0.325615 0.415905
O O15 0.488547 0.426561 0.344270
O O16 0.250000 0.787452 0.074840
O O17 0.492220 0.862023 0.080391
O O18 0.500000 0.759358 0.000000
O O19 0.250000 0.704567 0.614590
O O20 0.750000 0.578120 0.741492
O O21 0.525336 0.500000 0.770810
O O22 0.750000 0.930119 0.892776
O O23 0.504805 0.000000 0.902851
#
# Coordination Sequence:
#
# PCOD9400396 Si02
#       8
#     8   8   8   8   8   8   8   8
#     4  10  20  31  43  63  91 124 166 216 268 317
#     4  10  20  36  59  84 110 141 180 225 270 320
#     4   9  18  33  51  69  92 126 168 213 262 317
#     4  10  19  30  46  70 102 139 178 221 269 318
#     4  11  23  38  58  85 117 149 179 214 260 314
#     4   9  18  32  49  69  95 129 170 216 264 317
#     4   9  19  36  56  79 109 146 187 229 275 327
#     4   9  19  36  57  82 111 142 178 219 261 310
#
# _framework density 19.500841000000001
#
# number of rings (size 3 to 8) (size 9 to 14) (size 15 to 20)
#    0.000    2.375    0.000    2.250    0.000    6.000 
#    0.000    0.000    0.000    0.375    0.000    0.000 
#    0.000    0.000    0.000    0.000    0.000    0.000 
#
# Total GULP energy -356932.836637 kJ/mol
# GULP energy per Si atom -5577.075572 kJ/mol
# Density = 1.945646 g / cm^3
# Si number density = 19.500841 Si / 1000 Ang^3
#
#
#
# Elastic Constant Matrix: (Units=GPa)
#
#
# Indices 1 2 3 4 5 6 
#
# 1 21.7261 20.5272 21.2206 0.0000 0.0000 0.0000
# 2 20.5272 59.3623 52.0482 0.0000 0.0000 0.0000
# 3 21.2206 52.0482 91.1502 0.0000 0.0000 0.0000
# 4 0.0000 0.0000 0.0000 -5.7732 0.0000 0.0000
# 5 0.0000 0.0000 0.0000 0.0000 24.8536 0.0000
# 6 0.0000 0.0000 0.0000 0.0000 0.0000 13.9401
#
#
#
# Elastic Compliance Matrix: (Units=1/GPa)
#
#
# Indices 1 2 3 4 5 6 
#
# 1 0.069446 -0.019703 -0.004917 0.000000 0.000000 0.000000
# 2 -0.019703 0.039326 -0.017869 0.000000 0.000000 0.000000
# 3 -0.004917 -0.017869 0.022319 0.000000 0.000000 0.000000
# 4 0.000000 0.000000 0.000000 -0.173215 0.000000 0.000000
# 5 0.000000 0.000000 0.000000 0.000000 0.040236 0.000000
# 6 0.000000 0.000000 0.000000 0.000000 0.000000 0.071735
#
#
# Mechanical properties :
#
#
# Convention : Reuss Voigt Hill
#
# Bulk Modulus (GPa) = 21.68563 39.98118 30.83341
# Shear Modulus (GPa) = 29.37801 11.83362 20.60582
#
# Velocity S-wave (km/s) = 3.88558 2.46606 3.25416
# Velocity P-wave (km/s) = 5.59238 5.35307 5.47404
#
# Compressibility (1/GPa) = 0.04611349
#
# Stress axis : x y z
#
# Youngs Moduli (GPa) = 14.39975 25.42842 44.80489
#
# Poissons Ratio (x) = 0.50101 0.22030
# Poissons Ratio (y) = 0.28372 0.80061
# Poissons Ratio (z) = 0.07080 0.45438
#
# Static dielectric constant tensor:
#      x y z
#    x 1.679900 0.000000 0.000000 
#    y 0.000000 1.713400 0.000000 
#    z 0.000000 0.000000 1.682090 
# 
# From -- ./inp_files/28497.got.cif
#   From: 2010.05.17/outbox.cif.g08.bks.cpg/sg51_15_cif.got.tgz:28497.got - 2010.06.03 11:52:47.
