data_PCOD9400075
_publ_section_title
;
Structure prediction by ZEFSAII (Michael W. Deem and Ramdas Pophale) SiO2 
 PCOD9400075
Probable space group: P M M A
;
_chemical_formula_sum "Si O2"
_cell_formula_units_Z 64
_cell_length_a 14.084949
_cell_length_b 23.027921
_cell_length_c 9.601886
_cell_angle_alpha 90.000000
_cell_angle_beta 90.000000
_cell_angle_gamma 90.000000
_cell_volume 3114.343810
_symmetry_space_group_name_H-M "P M M A"
_symmetry_group_IT_number 51
_symmetry_cell_setting 'orthorhombic'
loop_
_space_group_symop_operation_xyz
x,y,z
1/2-x,-y,z
1/2+x,-y,-z
-x,y,-z
-x,-y,-z
1/2+x,y,-z
1/2-x,y,z
x,-y,z
loop_
_atom_site_type_symbol
_atom_site_label
_atom_site_fract_x
_atom_site_fract_y
_atom_site_fract_z
Si Si1 0.020652 0.566707 0.661809
Si Si2 0.861372 0.566071 0.889509
Si Si3 0.354387 0.840287 0.177373
Si Si4 0.860206 0.880052 0.295930
Si Si5 0.863625 0.647832 0.147736
Si Si6 0.366697 0.068343 0.408329
Si Si7 0.632879 0.221578 0.084849
Si Si8 0.611824 0.939088 0.025250
O O1 0.055271 0.500000 0.680592
O O2 0.092045 0.613636 0.723593
O O3 0.000000 0.575364 0.500000
O O4 0.925479 0.572632 0.753769
O O5 0.750000 0.573097 0.856946
O O6 0.875173 0.500000 0.942829
O O7 0.887687 0.611278 0.009133
O O8 0.250000 0.820342 0.228520
O O9 0.398650 0.882245 0.295949
O O10 0.399018 0.790925 0.076562
O O11 0.342745 0.887181 0.055312
O O12 0.750000 0.865049 0.321810
O O13 0.896005 0.905073 0.442138
O O14 0.898689 0.825763 0.202624
O O15 0.866878 0.932477 0.186491
O O16 0.750000 0.647554 0.159908
O O17 0.894911 0.714219 0.131763
O O18 0.250000 0.067246 0.400745
O O19 0.396259 0.000000 0.389263
O O20 0.750000 0.219646 0.079550
O O21 0.644703 0.000000 0.967519
O O22 0.500000 0.935011 0.000000
#
# Coordination Sequence:
#
# PCOD9400075 Si02
#       8
#     8   8   8   8   8   8   8   8
#     4  10  21  36  55  83 119 153 185 226 279 336
#     4   9  18  34  57  84 113 146 187 236 283 326
#     4   9  17  31  50  69  92 122 158 202 251 302
#     4   9  17  31  50  69  93 126 163 204 253 310
#     4  10  19  33  55  81 110 147 195 241 278 325
#     4   9  16  26  46  77 102 121 157 210 264 319
#     4   8  16  31  50  72  97 130 172 215 258 307
#     4  10  19  29  42  63  90 119 154 197 245 299
#
# _framework density 20.550076000000001
#
# number of rings (size 3 to 8) (size 9 to 14) (size 15 to 20)
#    0.000    2.750    0.000    2.625    0.000    4.250 
#    0.000    8.125    0.000    6.750    0.000    0.000 
#    0.000    0.000    0.000    0.000    0.000    0.000 
#
# Total GULP energy -356642.076938 kJ/mol
# GULP energy per Si atom -5572.532452 kJ/mol
# Density = 2.050330 g / cm^3
# Si number density = 20.550076 Si / 1000 Ang^3
#
#
#
# Elastic Constant Matrix: (Units=GPa)
#
#
# Indices 1 2 3 4 5 6 
#
# 1 55.4929 25.4589 11.2203 0.0000 0.0000 0.0000
# 2 25.4589 136.6194 59.8518 0.0000 0.0000 0.0000
# 3 11.2203 59.8518 139.7304 0.0000 0.0000 0.0000
# 4 0.0000 0.0000 0.0000 -90.0706 0.0000 0.0000
# 5 0.0000 0.0000 0.0000 0.0000 16.9796 0.0000
# 6 0.0000 0.0000 0.0000 0.0000 0.0000 45.4137
#
#
#
# Elastic Compliance Matrix: (Units=1/GPa)
#
#
# Indices 1 2 3 4 5 6 
#
# 1 0.019705 -0.003667 -0.000012 0.000000 0.000000 0.000000
# 2 -0.003667 0.009693 -0.003857 0.000000 0.000000 0.000000
# 3 -0.000012 -0.003857 0.008810 0.000000 0.000000 0.000000
# 4 0.000000 0.000000 0.000000 -0.011102 0.000000 0.000000
# 5 0.000000 0.000000 0.000000 0.000000 0.058894 0.000000
# 6 0.000000 0.000000 0.000000 0.000000 0.000000 0.022020
#
#
# Mechanical properties :
#
#
# Convention : Reuss Voigt Hill
#
# Bulk Modulus (GPa) = 43.22298 58.32274 50.77286
# Shear Modulus (GPa) = 38.22544 10.15199 24.18871
#
# Velocity S-wave (km/s) = 4.31758 2.22505 3.43456
# Velocity P-wave (km/s) = 6.77746 5.91976 6.36308
#
# Compressibility (1/GPa) = 0.02313584
#
# Stress axis : x y z
#
# Youngs Moduli (GPa) = 50.74858 103.16938 113.50972
#
# Poissons Ratio (x) = 0.37831 0.00132
# Poissons Ratio (y) = 0.18609 0.43785
# Poissons Ratio (z) = 0.00059 0.39796
#
# Static dielectric constant tensor:
#      x y z
#    x 1.803920 0.000000 0.000000 
#    y 0.000000 1.778000 0.000000 
#    z 0.000000 0.000000 1.731490 
# 
# From -- ./inp_files/8729.got.cif
#   From: 2010.05.17/outbox.cif.g08.bks.cpg/sg51_5_cif.got.tgz:8729.got - 2010.06.03 11:52:47.
