data_PCOD9400034
_publ_section_title
;
Structure prediction by ZEFSAII (Michael W. Deem and Ramdas Pophale) SiO2 
 PCOD9400034
Probable space group: P M M A
;
_chemical_formula_sum "Si O2"
_cell_formula_units_Z 64
_cell_length_a 8.910420
_cell_length_b 27.186591
_cell_length_c 18.913532
_cell_angle_alpha 90.000000
_cell_angle_beta 90.000000
_cell_angle_gamma 90.000000
_cell_volume 4581.688590
_symmetry_space_group_name_H-M "P M M A"
_symmetry_group_IT_number 51
_symmetry_cell_setting 'orthorhombic'
loop_
_space_group_symop_operation_xyz
x,y,z
1/2-x,-y,z
1/2+x,-y,-z
-x,y,-z
-x,-y,-z
1/2+x,y,-z
1/2-x,y,z
x,-y,z
loop_
_atom_site_type_symbol
_atom_site_label
_atom_site_fract_x
_atom_site_fract_y
_atom_site_fract_z
Si Si1 0.927417 0.851039 0.574967
Si Si2 0.926626 0.102761 0.206122
Si Si3 0.071560 0.850471 0.076847
Si Si4 0.427221 0.254557 0.151335
Si Si5 0.570184 0.554043 0.921199
Si Si6 0.571484 0.346740 0.078332
Si Si7 0.931035 0.945037 0.348019
Si Si8 0.073052 0.194148 0.281639
O O1 0.750000 0.857136 0.566403
O O2 0.952707 0.809175 0.634830
O O3 0.000000 0.839913 0.500000
O O4 0.993872 0.901779 0.606912
O O5 0.750000 0.098973 0.192627
O O6 0.970214 0.062401 0.264836
O O7 0.011595 0.109045 0.132294
O O8 0.967145 0.152917 0.247739
O O9 0.250000 0.853868 0.072247
O O10 0.036545 0.796140 0.109263
O O11 0.000000 0.855260 0.000000
O O12 0.250000 0.264668 0.139781
O O13 0.523372 0.299437 0.122973
O O14 0.450066 0.242337 0.234358
O O15 0.750000 0.559836 0.925832
O O16 0.539192 0.500000 0.888882
O O17 0.496575 0.602884 0.889310
O O18 0.500000 0.552407 0.000000
O O19 0.750000 0.350726 0.071991
O O20 0.500000 0.340912 0.000000
O O21 0.750000 0.939898 0.353078
O O22 0.972798 0.000000 0.371112
O O23 0.250000 0.180158 0.269715
#
# Coordination Sequence:
#
# PCOD9400034 Si02
#       8
#     8   8   8   8   8   8   8   8
#     4  10  19  31  47  67  88 109 133 159 189 224
#     4   9  16  27  44  62  79 100 126 157 192 232
#     4  10  19  29  42  59  79 102 128 161 199 238
#     4   9  17  29  42  56  76 101 129 162 198 235
#     4   9  16  26  39  52  68  95 132 172 211 248
#     4  11  20  27  37  54  77 104 134 171 211 246
#     4   9  18  32  48  65  84 106 131 158 190 228
#     4   8  16  30  45  59  78 105 133 159 188 228
#
# _framework density 13.968648999999999
#
# number of rings (size 3 to 8) (size 9 to 14) (size 15 to 20)
#    0.000    2.625    0.000    4.500    0.000    5.750 
#    0.000    0.000    0.000    0.375    0.000    0.000 
#    0.000    0.000    0.000    0.000    0.000    0.625 
#
# Total GULP energy -356278.038528 kJ/mol
# GULP energy per Si atom -5566.844352 kJ/mol
# Density = 1.393686 g / cm^3
# Si number density = 13.968649 Si / 1000 Ang^3
#
#
#
# Elastic Constant Matrix: (Units=GPa)
#
#
# Indices 1 2 3 4 5 6 
#
# 1 50.2025 21.2141 32.4102 0.0000 0.0000 0.0000
# 2 21.2141 38.6756 20.0639 0.0000 0.0000 0.0000
# 3 32.4102 20.0639 90.7353 0.0000 0.0000 0.0000
# 4 0.0000 0.0000 0.0000 8.0831 0.0000 0.0000
# 5 0.0000 0.0000 0.0000 0.0000 20.7808 0.0000
# 6 0.0000 0.0000 0.0000 0.0000 0.0000 17.4796
#
#
#
# Elastic Compliance Matrix: (Units=1/GPa)
#
#
# Indices 1 2 3 4 5 6 
#
# 1 0.030430 -0.012485 -0.008109 0.000000 0.000000 0.000000
# 2 -0.012485 0.034329 -0.003131 0.000000 0.000000 0.000000
# 3 -0.008109 -0.003131 0.014610 0.000000 0.000000 0.000000
# 4 0.000000 0.000000 0.000000 0.123715 0.000000 0.000000
# 5 0.000000 0.000000 0.000000 0.000000 0.048121 0.000000
# 6 0.000000 0.000000 0.000000 0.000000 0.000000 0.057210
#
#
# Mechanical properties :
#
#
# Convention : Reuss Voigt Hill
#
# Bulk Modulus (GPa) = 31.32955 36.33219 33.83087
# Shear Modulus (GPa) = 13.64243 16.33037 14.98640
#
# Velocity S-wave (km/s) = 3.12852 3.42288 3.27901
# Velocity P-wave (km/s) = 5.96049 6.45661 6.21350
#
# Compressibility (1/GPa) = 0.03191875
#
# Stress axis : x y z
#
# Youngs Moduli (GPa) = 32.86239 29.13016 68.44668
#
# Poissons Ratio (x) = 0.36368 0.55502
# Poissons Ratio (y) = 0.41028 0.21434
# Poissons Ratio (z) = 0.26647 0.09122
#
# Static dielectric constant tensor:
#      x y z
#    x 1.467010 0.000000 0.000000 
#    y 0.000000 1.469550 0.000000 
#    z 0.000000 0.000000 1.467210 
# 
# From -- ./inp_files/28665.got.cif
#   From: 2010.05.17/outbox.cif.g08.bks.cpg/sg51_15_cif.got.tgz:28665.got - 2010.06.03 11:52:47.
