data_PCOD9400456
_publ_section_title
;
Structure prediction by ZEFSAII (Michael W. Deem and Ramdas Pophale) SiO2 
 PCOD9400456
Probable space group: P M M A
;
_chemical_formula_sum "Si O2"
_cell_formula_units_Z 64
_cell_length_a 17.646049
_cell_length_b 9.284739
_cell_length_c 23.399601
_cell_angle_alpha 90.000000
_cell_angle_beta 90.000000
_cell_angle_gamma 90.000000
_cell_volume 3833.766277
_symmetry_space_group_name_H-M "P M M A"
_symmetry_group_IT_number 51
_symmetry_cell_setting 'orthorhombic'
loop_
_space_group_symop_operation_xyz
x,y,z
1/2-x,-y,z
1/2+x,-y,-z
-x,y,-z
-x,-y,-z
1/2+x,y,-z
1/2-x,y,z
x,-y,z
loop_
_atom_site_type_symbol
_atom_site_label
_atom_site_fract_x
_atom_site_fract_y
_atom_site_fract_z
Si Si1 0.668283 0.172127 0.201845
Si Si2 0.411123 0.166281 0.019963
Si Si3 0.627925 0.335593 0.088675
Si Si4 0.966791 0.171870 0.629913
Si Si5 0.547971 0.664863 0.871196
Si Si6 0.498519 0.172583 0.760154
Si Si7 0.662510 0.326907 0.558053
Si Si8 0.568551 0.335457 0.453566
O O1 0.750000 0.206093 0.229366
O O2 0.664818 0.250374 0.140856
O O3 0.591110 0.210894 0.234841
O O4 0.665216 0.000000 0.192884
O O5 0.407400 0.245854 0.080761
O O6 0.388001 0.000000 0.023715
O O7 0.500000 0.167091 0.000000
O O8 0.366569 0.251775 0.970890
O O9 0.654349 0.500000 0.084422
O O10 0.538597 0.339631 0.105322
O O11 0.894232 0.245471 0.600374
O O12 0.972211 0.205831 0.696956
O O13 0.040248 0.233995 0.596872
O O14 0.963498 0.000000 0.622900
O O15 0.574291 0.500000 0.866128
O O16 0.542117 0.744405 0.810439
O O17 0.504939 0.000000 0.769519
O O18 0.750000 0.294652 0.569206
O O19 0.650649 0.500000 0.563441
O O20 0.639362 0.290283 0.492610
O O21 0.500000 0.336195 0.500000
O O22 0.578434 0.500000 0.433426
#
# Coordination Sequence:
#
# PCOD9400456 Si02
#       8
#     8   8   8   8   8   8   8   8
#     4   9  17  30  46  60  79 115 160 198 233 279
#     4   9  15  23  37  57  82 110 137 169 215 271
#     4   9  16  25  38  58  83 107 136 181 232 275
#     4  10  19  30  47  72 100 128 159 196 236 278
#     4   9  16  25  39  60  84 111 145 185 226 266
#     4   9  18  31  44  62  91 125 159 194 233 278
#     4   9  18  33  52  73  97 125 157 193 234 281
#     4   8  15  29  48  68  92 124 157 188 227 275
#
# _framework density 16.693767000000001
#
# number of rings (size 3 to 8) (size 9 to 14) (size 15 to 20)
#    0.000    3.000    0.000    2.250    0.000    8.250 
#    0.000    0.625    0.000    0.750    0.000    0.875 
#    0.000    3.000    0.000    0.000    0.000    0.000 
#
# Total GULP energy -356392.057194 kJ/mol
# GULP energy per Si atom -5568.625894 kJ/mol
# Density = 1.665577 g / cm^3
# Si number density = 16.693767 Si / 1000 Ang^3
#
#
#
# Elastic Constant Matrix: (Units=GPa)
#
#
# Indices 1 2 3 4 5 6 
#
# 1 52.1091 26.9470 35.4180 0.0000 0.0000 0.0000
# 2 26.9470 70.7253 66.3699 0.0000 0.0000 0.0000
# 3 35.4180 66.3699 125.2299 0.0000 0.0000 0.0000
# 4 0.0000 0.0000 0.0000 -8.3485 0.0000 0.0000
# 5 0.0000 0.0000 0.0000 0.0000 9.7383 0.0000
# 6 0.0000 0.0000 0.0000 0.0000 0.0000 11.0625
#
#
#
# Elastic Compliance Matrix: (Units=1/GPa)
#
#
# Indices 1 2 3 4 5 6 
#
# 1 0.024868 -0.005719 -0.004002 0.000000 0.000000 0.000000
# 2 -0.005719 0.029445 -0.013988 0.000000 0.000000 0.000000
# 3 -0.004002 -0.013988 0.016530 0.000000 0.000000 0.000000
# 4 0.000000 0.000000 0.000000 -0.119782 0.000000 0.000000
# 5 0.000000 0.000000 0.000000 0.000000 0.102687 0.000000
# 6 0.000000 0.000000 0.000000 0.000000 0.000000 0.090396
#
#
# Mechanical properties :
#
#
# Convention : Reuss Voigt Hill
#
# Bulk Modulus (GPa) = 42.68926 56.17043 49.42985
# Shear Modulus (GPa) = 25.07886 10.44575 17.76230
#
# Velocity S-wave (km/s) = 3.88014 2.50417 3.26545
# Velocity P-wave (km/s) = 6.76029 6.48704 6.62507
#
# Compressibility (1/GPa) = 0.02342510
#
# Stress axis : x y z
#
# Youngs Moduli (GPa) = 40.21173 33.96218 60.49451
#
# Poissons Ratio (x) = 0.19424 0.24211
# Poissons Ratio (y) = 0.22998 0.84617
# Poissons Ratio (z) = 0.16094 0.47505
#
# Static dielectric constant tensor:
#      x y z
#    x 1.586330 0.000000 0.000000 
#    y 0.000000 1.562090 0.000000 
#    z 0.000000 0.000000 1.540930 
# 
# From -- ./inp_files/35901.got.cif
#   From: 2010.05.17/outbox.cif.g08.bks.cpg/sg51_18_cif.got.tgz:35901.got - 2010.06.03 11:52:47.
