data_PCOD9400080
_publ_section_title
;
Structure prediction by ZEFSAII (Michael W. Deem and Ramdas Pophale) SiO2 
 PCOD9400080
Probable space group: P M M A
;
_chemical_formula_sum "Si O2"
_cell_formula_units_Z 56
_cell_length_a 17.458083
_cell_length_b 14.056946
_cell_length_c 14.760279
_cell_angle_alpha 90.000000
_cell_angle_beta 90.000000
_cell_angle_gamma 90.000000
_cell_volume 3622.280659
_symmetry_space_group_name_H-M "P M M A"
_symmetry_group_IT_number 51
_symmetry_cell_setting 'orthorhombic'
loop_
_space_group_symop_operation_xyz
x,y,z
1/2-x,-y,z
1/2+x,-y,-z
-x,y,-z
-x,-y,-z
1/2+x,y,-z
1/2-x,y,z
x,-y,z
loop_
_atom_site_type_symbol
_atom_site_label
_atom_site_fract_x
_atom_site_fract_y
_atom_site_fract_z
Si Si1 0.911884 0.884812 0.999498
Si Si2 0.837042 0.884428 0.186476
Si Si3 0.839169 0.256061 0.468739
Si Si4 0.929222 0.112364 0.364741
Si Si5 0.965672 0.609018 0.397275
Si Si6 0.425162 0.763761 0.347844
Si Si7 0.658114 0.887701 0.803626
O O1 0.866529 0.851507 0.088464
O O2 0.914062 0.000000 0.005775
O O3 0.869827 0.864206 0.905242
O O4 0.000000 0.851657 0.000000
O O5 0.750000 0.851987 0.205545
O O6 0.897496 0.860332 0.264899
O O7 0.834588 0.000000 0.184918
O O8 0.750000 0.270583 0.458939
O O9 0.866301 0.153497 0.432797
O O10 0.887673 0.331778 0.409858
O O11 0.865383 0.259926 0.572953
O O12 0.009690 0.163163 0.383221
O O13 0.936885 0.000000 0.370206
O O14 0.955275 0.500000 0.369962
O O15 0.000000 0.610021 0.500000
O O16 0.024886 0.667690 0.334640
O O17 0.383881 0.816648 0.265361
O O18 0.750000 0.879839 0.796864
O O19 0.638023 0.000000 0.785963
#
# Coordination Sequence:
#
# PCOD9400080 Si02
#       7
#     8   8   8   8   8   8   8
#     4   9  16  26  40  58  82 115 155 193 226 262
#     4   9  16  26  40  57  79 110 149 193 233 260
#     4  10  20  31  44  65  90 115 145 183 224 266
#     4  10  19  30  43  60  86 122 159 189 218 257
#     4   8  16  32  51  67  83 107 140 180 226 271
#     4  10  19  31  46  63  88 119 151 184 218 265
#     4  10  19  29  42  63  93 127 158 187 221 263
#
# _framework density 15.459873
#
# number of rings (size 3 to 8) (size 9 to 14) (size 15 to 20)
#    0.000    2.571    0.000    3.857    0.000    6.857 
#    0.000    0.000    0.000    1.286    0.000    0.000 
#    0.000   14.286    0.000    6.286    0.000    0.571 
#
# Total GULP energy -311930.615174 kJ/mol
# GULP energy per Si atom -5570.189557 kJ/mol
# Density = 1.542469 g / cm^3
# Si number density = 15.459873 Si / 1000 Ang^3
#
#
#
# Elastic Constant Matrix: (Units=GPa)
#
#
# Indices 1 2 3 4 5 6 
#
# 1 88.0165 20.8239 10.5703 0.0000 0.0000 0.0000
# 2 20.8239 62.7539 6.9026 0.0000 0.0000 0.0000
# 3 10.5703 6.9026 31.6582 0.0000 0.0000 0.0000
# 4 0.0000 0.0000 0.0000 3.1826 0.0000 0.0000
# 5 0.0000 0.0000 0.0000 0.0000 24.3951 0.0000
# 6 0.0000 0.0000 0.0000 0.0000 0.0000 10.4287
#
#
#
# Elastic Compliance Matrix: (Units=1/GPa)
#
#
# Indices 1 2 3 4 5 6 
#
# 1 0.012676 -0.003833 -0.003397 0.000000 0.000000 0.000000
# 2 -0.003833 0.017486 -0.002533 0.000000 0.000000 0.000000
# 3 -0.003397 -0.002533 0.033274 0.000000 0.000000 0.000000
# 4 0.000000 0.000000 0.000000 0.314210 0.000000 0.000000
# 5 0.000000 0.000000 0.000000 0.000000 0.040992 0.000000
# 6 0.000000 0.000000 0.000000 0.000000 0.000000 0.095890
#
#
# Mechanical properties :
#
#
# Convention : Reuss Voigt Hill
#
# Bulk Modulus (GPa) = 22.77331 28.78024 25.77677
# Shear Modulus (GPa) = 9.11264 17.21006 13.16135
#
# Velocity S-wave (km/s) = 2.43047 3.34010 2.92091
# Velocity P-wave (km/s) = 4.75803 5.79064 5.29954
#
# Compressibility (1/GPa) = 0.04391105
#
# Stress axis : x y z
#
# Youngs Moduli (GPa) = 78.88773 57.18963 30.05375
#
# Poissons Ratio (x) = 0.21920 0.10209
# Poissons Ratio (y) = 0.30236 0.07612
# Poissons Ratio (z) = 0.26796 0.14485
#
# Static dielectric constant tensor:
#      x y z
#    x 1.528520 0.000000 0.000000 
#    y 0.000000 1.505220 0.000000 
#    z 0.000000 0.000000 1.526570 
# 
# From -- ./inp_files/25261.got.cif
#   From: 2010.05.17/outbox.cif.g08.bks.cpg/sg51_13_cif.got.tgz:25261.got - 2010.06.03 11:52:47.
