data_PCOD9400373
_publ_section_title
;
Structure prediction by ZEFSAII (Michael W. Deem and Ramdas Pophale) SiO2 
 PCOD9400373
Probable space group: P M M A
;
_chemical_formula_sum "Si O2"
_cell_formula_units_Z 64
_cell_length_a 9.376231
_cell_length_b 13.993751
_cell_length_c 35.052885
_cell_angle_alpha 90.000000
_cell_angle_beta 90.000000
_cell_angle_gamma 90.000000
_cell_volume 4599.241437
_symmetry_space_group_name_H-M "P M M A"
_symmetry_group_IT_number 51
_symmetry_cell_setting 'orthorhombic'
loop_
_space_group_symop_operation_xyz
x,y,z
1/2-x,-y,z
1/2+x,-y,-z
-x,y,-z
-x,-y,-z
1/2+x,y,-z
1/2-x,y,z
x,-y,z
loop_
_atom_site_type_symbol
_atom_site_label
_atom_site_fract_x
_atom_site_fract_y
_atom_site_fract_z
Si Si1 0.585529 0.616236 0.611918
Si Si2 0.418661 0.708110 0.766475
Si Si3 0.580114 0.611243 0.152459
Si Si4 0.913936 0.616525 0.462419
Si Si5 0.078690 0.785327 0.117264
Si Si6 0.080465 0.889562 0.814879
Si Si7 0.079716 0.888259 0.038663
Si Si8 0.921940 0.611900 0.697444
O O1 0.750000 0.645787 0.606283
O O2 0.585638 0.500000 0.611963
O O3 0.489228 0.647995 0.576696
O O4 0.537246 0.643582 0.654502
O O5 0.250000 0.701113 0.758277
O O6 0.448015 0.642297 0.803683
O O7 0.450848 0.815531 0.780787
O O8 0.507153 0.673142 0.730514
O O9 0.750000 0.625926 0.146175
O O10 0.547363 0.500000 0.146878
O O11 0.490122 0.682483 0.126164
O O12 0.750000 0.646588 0.464265
O O13 0.915779 0.500000 0.462232
O O14 0.000000 0.646745 0.500000
O O15 0.250000 0.782809 0.121206
O O16 0.042986 0.825089 0.075381
O O17 0.010363 0.855552 0.148845
O O18 0.250000 0.878221 0.823557
O O19 0.053804 0.000000 0.805799
O O20 0.250000 0.882429 0.032895
O O21 0.044801 0.000000 0.046427
O O22 0.000000 0.859737 0.000000
O O23 0.750000 0.616695 0.699459
O O24 0.962097 0.500000 0.702168
#
# Coordination Sequence:
#
# PCOD9400373 Si02
#       8
#     8   8   8   8   8   8   8   8
#     4   8  14  24  34  44  62  89 121 156 192 230
#     4   9  17  28  42  60  79 101 132 168 202 234
#     4   9  18  32  47  63  85 113 144 174 203 239
#     4   9  15  21  30  44  61  83 114 153 195 235
#     4  10  19  30  46  69  93 112 134 169 208 242
#     4   9  18  32  47  62  83 112 142 168 198 241
#     4   9  18  31  46  66  91 115 137 163 198 241
#     4   9  17  27  38  53  75 103 132 163 201 242
#
# _framework density 13.915338
#
# number of rings (size 3 to 8) (size 9 to 14) (size 15 to 20)
#    0.000    3.000    0.000    3.000    0.000    6.750 
#    0.000    2.500    0.000    0.375    0.000    0.000 
#    0.000    0.000    0.000    0.000    0.000    0.625 
#
# Total GULP energy -356417.213057 kJ/mol
# GULP energy per Si atom -5569.018954 kJ/mol
# Density = 1.388367 g / cm^3
# Si number density = 13.915338 Si / 1000 Ang^3
#
#
#
# Elastic Constant Matrix: (Units=GPa)
#
#
# Indices 1 2 3 4 5 6 
#
# 1 58.7784 38.0565 71.0217 0.0000 0.0000 0.0000
# 2 38.0565 76.6700 57.0030 0.0000 0.0000 0.0000
# 3 71.0217 57.0030 140.5470 0.0000 0.0000 0.0000
# 4 0.0000 0.0000 0.0000 11.9860 0.0000 0.0000
# 5 0.0000 0.0000 0.0000 0.0000 29.2886 0.0000
# 6 0.0000 0.0000 0.0000 0.0000 0.0000 16.7797
#
#
#
# Elastic Compliance Matrix: (Units=1/GPa)
#
#
# Indices 1 2 3 4 5 6 
#
# 1 0.046968 -0.008114 -0.020443 0.000000 0.000000 0.000000
# 2 -0.008114 0.020076 -0.004042 0.000000 0.000000 0.000000
# 3 -0.020443 -0.004042 0.019085 0.000000 0.000000 0.000000
# 4 0.000000 0.000000 0.000000 0.083431 0.000000 0.000000
# 5 0.000000 0.000000 0.000000 0.000000 0.034143 0.000000
# 6 0.000000 0.000000 0.000000 0.000000 0.000000 0.059596
#
#
# Mechanical properties :
#
#
# Convention : Reuss Voigt Hill
#
# Bulk Modulus (GPa) = 47.77865 67.57308 57.67586
# Shear Modulus (GPa) = 14.90435 18.93848 16.92141
#
# Velocity S-wave (km/s) = 3.27628 3.69315 3.49094
# Velocity P-wave (km/s) = 6.98010 8.17627 7.60175
#
# Compressibility (1/GPa) = 0.02092985
#
# Stress axis : x y z
#
# Youngs Moduli (GPa) = 21.29114 49.81138 52.39799
#
# Poissons Ratio (x) = 0.40419 1.07117
# Poissons Ratio (y) = 0.17276 0.21179
# Poissons Ratio (z) = 0.43525 0.20134
#
# Static dielectric constant tensor:
#      x y z
#    x 1.462790 0.000000 0.000000 
#    y 0.000000 1.441600 0.000000 
#    z 0.000000 0.000000 1.447420 
# 
# From -- ./inp_files/37562.got.cif
#   From: 2010.05.17/outbox.cif.g08.bks.cpg/sg51_19_cif.got.tgz:37562.got - 2010.06.03 11:52:47.
