data_PCOD9400560
_publ_section_title
;
Structure prediction by ZEFSAII (Michael W. Deem and Ramdas Pophale) SiO2 
 PCOD9400560
Probable space group: P M M A
;
_chemical_formula_sum "Si O2"
_cell_formula_units_Z 64
_cell_length_a 29.522491
_cell_length_b 8.782352
_cell_length_c 16.010759
_cell_angle_alpha 90.000000
_cell_angle_beta 90.000000
_cell_angle_gamma 90.000000
_cell_volume 4151.220086
_symmetry_space_group_name_H-M "P M M A"
_symmetry_group_IT_number 51
_symmetry_cell_setting 'orthorhombic'
loop_
_space_group_symop_operation_xyz
x,y,z
1/2-x,-y,z
1/2+x,-y,-z
-x,y,-z
-x,-y,-z
1/2+x,y,-z
1/2-x,y,z
x,-y,z
loop_
_atom_site_type_symbol
_atom_site_label
_atom_site_fract_x
_atom_site_fract_y
_atom_site_fract_z
Si Si1 0.050411 0.683803 0.176540
Si Si2 0.444519 0.317990 0.825463
Si Si3 0.605103 0.314659 0.661157
Si Si4 0.946948 0.683668 0.491932
Si Si5 0.605311 0.182460 0.333256
Si Si6 0.300502 0.683943 0.404812
Si Si7 0.445037 0.175700 0.001117
Si Si8 0.800813 0.183453 0.409777
O O1 0.051715 0.500000 0.172955
O O2 0.079495 0.737232 0.255730
O O3 0.997472 0.727385 0.187274
O O4 0.068005 0.748011 0.088626
O O5 0.442617 0.500000 0.823016
O O6 0.414710 0.249930 0.751532
O O7 0.430097 0.259950 0.916941
O O8 0.604149 0.500000 0.663132
O O9 0.578719 0.269885 0.576808
O O10 0.657281 0.266308 0.651551
O O11 0.943011 0.500000 0.483466
O O12 0.924198 0.759035 0.411552
O O13 0.000000 0.720430 0.500000
O O14 0.657357 0.229055 0.351537
O O15 0.603224 0.000000 0.329910
O O16 0.250000 0.731166 0.377326
O O17 0.301337 0.500000 0.408440
O O18 0.307498 0.745610 0.498480
O O19 0.431251 0.000000 0.998767
O O20 0.500000 0.182137 0.000000
O O21 0.750000 0.226131 0.381129
O O22 0.802100 0.000000 0.417865
#
# Coordination Sequence:
#
# PCOD9400560 Si02
#       8
#     8   8   8   8   8   8   8   8
#     4   9  17  30  47  66  89 121 156 185 220 272
#     4  10  19  31  48  67  90 122 157 187 222 274
#     4   9  16  27  43  64  89 117 151 188 222 262
#     4  10  19  31  45  61  88 127 163 189 219 265
#     4  11  21  31  45  67  93 121 154 193 234 273
#     4   9  16  27  45  66  86 112 150 195 235 266
#     4   9  17  30  47  68  93 117 145 188 235 269
#     4   9  18  32  47  63  87 119 153 190 234 280
#
# _framework density 15.417154
#
# number of rings (size 3 to 8) (size 9 to 14) (size 15 to 20)
#    0.000    2.500    1.250    1.875    0.000    4.750 
#    0.000    1.250    0.000    0.000    0.000    0.875 
#    0.000    3.000    0.000    0.000    0.000    0.000 
#
# Total GULP energy -356717.760093 kJ/mol
# GULP energy per Si atom -5573.715001 kJ/mol
# Density = 1.538206 g / cm^3
# Si number density = 15.417154 Si / 1000 Ang^3
#
#
#
# Elastic Constant Matrix: (Units=GPa)
#
#
# Indices 1 2 3 4 5 6 
#
# 1 106.3849 26.7062 66.1683 0.0000 0.0000 0.0000
# 2 26.7062 20.0283 28.4451 0.0000 0.0000 0.0000
# 3 66.1683 28.4451 125.4686 0.0000 0.0000 0.0000
# 4 0.0000 0.0000 0.0000 2.8740 0.0000 0.0000
# 5 0.0000 0.0000 0.0000 0.0000 9.7349 0.0000
# 6 0.0000 0.0000 0.0000 0.0000 0.0000 9.5222
#
#
#
# Elastic Compliance Matrix: (Units=1/GPa)
#
#
# Indices 1 2 3 4 5 6 
#
# 1 0.016287 -0.014039 -0.005406 0.000000 0.000000 0.000000
# 2 -0.014039 0.085741 -0.012035 0.000000 0.000000 0.000000
# 3 -0.005406 -0.012035 0.013550 0.000000 0.000000 0.000000
# 4 0.000000 0.000000 0.000000 0.347951 0.000000 0.000000
# 5 0.000000 0.000000 0.000000 0.000000 0.102723 0.000000
# 6 0.000000 0.000000 0.000000 0.000000 0.000000 0.105018
#
#
# Mechanical properties :
#
#
# Convention : Reuss Voigt Hill
#
# Bulk Modulus (GPa) = 19.00495 54.94677 36.97586
# Shear Modulus (GPa) = 6.65098 13.13036 9.89067
#
# Velocity S-wave (km/s) = 2.07927 2.92151 2.53561
# Velocity P-wave (km/s) = 4.25657 6.86277 5.71034
#
# Compressibility (1/GPa) = 0.05261788
#
# Stress axis : x y z
#
# Youngs Moduli (GPa) = 61.40033 11.66299 73.80233
#
# Poissons Ratio (x) = 0.16373 0.39900
# Poissons Ratio (y) = 0.86197 0.88821
# Poissons Ratio (z) = 0.33195 0.14036
#
# Static dielectric constant tensor:
#      x y z
#    x 1.525080 0.000000 0.000000 
#    y 0.000000 1.517350 0.000000 
#    z 0.000000 0.000000 1.487360 
# 
# From -- ./inp_files/26736.got.cif
#   From: 2010.05.17/outbox.cif.g08.bks.cpg/sg51_14_cif.got.tgz:26736.got - 2010.06.03 11:52:47.
