data_PCOD9400902
_publ_section_title
;
Structure prediction by ZEFSAII (Michael W. Deem and Ramdas Pophale) SiO2 
 PCOD9400902
Probable space group: P M M A
;
_chemical_formula_sum "Si O2"
_cell_formula_units_Z 56
_cell_length_a 8.790498
_cell_length_b 19.393273
_cell_length_c 19.206452
_cell_angle_alpha 90.000000
_cell_angle_beta 90.000000
_cell_angle_gamma 90.000000
_cell_volume 3274.249243
_symmetry_space_group_name_H-M "P M M A"
_symmetry_group_IT_number 51
_symmetry_cell_setting 'orthorhombic'
loop_
_space_group_symop_operation_xyz
x,y,z
1/2-x,-y,z
1/2+x,-y,-z
-x,y,-z
-x,-y,-z
1/2+x,y,-z
1/2-x,y,z
x,-y,z
loop_
_atom_site_type_symbol
_atom_site_label
_atom_site_fract_x
_atom_site_fract_y
_atom_site_fract_z
Si Si1 0.068364 0.295979 0.338685
Si Si2 0.568346 0.283726 0.076927
Si Si3 0.932338 0.574801 0.921838
Si Si4 0.066687 0.788301 0.786283
Si Si5 0.933649 0.077815 0.296829
Si Si6 0.432165 0.419929 0.576548
Si Si7 0.431466 0.841912 0.423918
O O1 0.250000 0.302877 0.334533
O O2 0.031851 0.233881 0.392786
O O3 0.004290 0.268371 0.265443
O O4 0.996916 0.366101 0.367758
O O5 0.750000 0.287750 0.070296
O O6 0.506849 0.356399 0.107459
O O7 0.526265 0.226678 0.133893
O O8 0.500000 0.273235 0.000000
O O9 0.750000 0.582137 0.925134
O O10 0.967013 0.500000 0.888967
O O11 0.000000 0.572208 0.000000
O O12 0.250000 0.783328 0.780575
O O13 0.019666 0.863550 0.758524
O O14 0.750000 0.078900 0.300749
O O15 0.999771 0.103048 0.370269
O O16 0.981741 0.000000 0.280072
O O17 0.500000 0.404219 0.500000
O O18 0.250000 0.413937 0.573365
O O19 0.470827 0.500000 0.592451
O O20 0.500000 0.849560 0.500000
O O21 0.250000 0.848645 0.425862
#
# Coordination Sequence:
#
# PCOD9400902 Si02
#       7
#     8   8   8   8   8   8   8
#     4  10  20  33  51  73  97 129 167 207 251 296
#     4  10  19  31  50  74  99 128 161 200 244 290
#     4   9  16  26  42  65  93 123 154 189 229 274
#     4   9  19  35  53  74  99 127 161 200 244 296
#     4   9  18  34  55  75  96 126 162 199 240 286
#     4  10  20  33  50  72  99 133 173 216 258 296
#     4  10  20  32  48  73 102 131 163 198 238 285
#
# _framework density 17.103155999999998
#
# number of rings (size 3 to 8) (size 9 to 14) (size 15 to 20)
#    0.000    2.429    0.000    3.429    0.000    6.286 
#    0.000    0.714    0.000    1.286    0.000    0.000 
#    0.000    0.000    0.000    0.000    0.000    0.571 
#
# Total GULP energy -312217.951716 kJ/mol
# GULP energy per Si atom -5575.320566 kJ/mol
# Density = 1.706423 g / cm^3
# Si number density = 17.103156 Si / 1000 Ang^3
#
#
#
# Elastic Constant Matrix: (Units=GPa)
#
#
# Indices 1 2 3 4 5 6 
#
# 1 38.8074 38.8291 34.9222 0.0000 0.0000 0.0000
# 2 38.8291 115.4661 71.3433 0.0000 0.0000 0.0000
# 3 34.9222 71.3433 105.9717 0.0000 0.0000 0.0000
# 4 0.0000 0.0000 0.0000 13.9499 0.0000 0.0000
# 5 0.0000 0.0000 0.0000 0.0000 20.4373 0.0000
# 6 0.0000 0.0000 0.0000 0.0000 0.0000 20.5839
#
#
#
# Elastic Compliance Matrix: (Units=1/GPa)
#
#
# Indices 1 2 3 4 5 6 
#
# 1 0.041983 -0.009537 -0.007415 0.000000 0.000000 0.000000
# 2 -0.009537 0.016995 -0.008299 0.000000 0.000000 0.000000
# 3 -0.007415 -0.008299 0.017467 0.000000 0.000000 0.000000
# 4 0.000000 0.000000 0.000000 0.071685 0.000000 0.000000
# 5 0.000000 0.000000 0.000000 0.000000 0.048930 0.000000
# 6 0.000000 0.000000 0.000000 0.000000 0.000000 0.048582
#
#
# Mechanical properties :
#
#
# Convention : Reuss Voigt Hill
#
# Bulk Modulus (GPa) = 38.54414 61.15937 49.85176
# Shear Modulus (GPa) = 16.40471 18.67093 17.53782
#
# Velocity S-wave (km/s) = 3.10039 3.30762 3.20568
# Velocity P-wave (km/s) = 5.94994 7.10098 6.55079
#
# Compressibility (1/GPa) = 0.02594428
#
# Stress axis : x y z
#
# Youngs Moduli (GPa) = 23.81941 58.83996 57.25061
#
# Poissons Ratio (x) = 0.56113 0.42450
# Poissons Ratio (y) = 0.22716 0.47512
# Poissons Ratio (z) = 0.17661 0.48831
#
# Static dielectric constant tensor:
#      x y z
#    x 1.563980 0.000000 0.000000 
#    y 0.000000 1.606030 0.000000 
#    z 0.000000 0.000000 1.567710 
# 
# From -- ./inp_files/32257.got.cif
#   From: 2010.05.17/outbox.cif.g08.bks.cpg/sg51_17_cif.got.tgz:32257.got - 2010.06.03 11:52:47.
