data_PCOD9400961
_publ_section_title
;
Structure prediction by ZEFSAII (Michael W. Deem and Ramdas Pophale) SiO2 
 PCOD9400961
Probable space group: P M M A
;
_chemical_formula_sum "Si O2"
_cell_formula_units_Z 56
_cell_length_a 23.437293
_cell_length_b 8.725524
_cell_length_c 14.654228
_cell_angle_alpha 90.000000
_cell_angle_beta 90.000000
_cell_angle_gamma 90.000000
_cell_volume 2996.828644
_symmetry_space_group_name_H-M "P M M A"
_symmetry_group_IT_number 51
_symmetry_cell_setting 'orthorhombic'
loop_
_space_group_symop_operation_xyz
x,y,z
1/2-x,-y,z
1/2+x,-y,-z
-x,y,-z
-x,-y,-z
1/2+x,y,-z
1/2-x,y,z
x,-y,z
loop_
_atom_site_type_symbol
_atom_site_label
_atom_site_fract_x
_atom_site_fract_y
_atom_site_fract_z
Si Si1 0.638752 0.684824 0.960446
Si Si2 0.750000 0.312744 0.850563
Si Si3 0.359034 0.816556 0.465188
Si Si4 0.250000 0.315946 0.361032
Si Si5 0.469238 0.179869 0.142571
Si Si6 0.526950 0.180776 0.641693
Si Si7 0.902967 0.682785 0.355634
Si Si8 0.093761 0.315228 0.851898
O O1 0.639197 0.500000 0.958093
O O2 0.693679 0.739180 0.904425
O O3 0.581346 0.741818 0.912331
O O4 0.635895 0.731598 0.066722
O O5 0.750000 0.500000 0.851038
O O6 0.750000 0.265052 0.744955
O O7 0.306008 0.744959 0.412071
O O8 0.418607 0.769966 0.416707
O O9 0.363528 0.761337 0.569218
O O10 0.355278 0.000000 0.460791
O O11 0.250000 0.500000 0.362723
O O12 0.458863 0.197522 0.251164
O O13 0.530927 0.252928 0.124563
O O14 0.471139 0.000000 0.121263
O O15 0.468655 0.271066 0.624072
O O16 0.515969 0.000000 0.623678
O O17 0.896810 0.500000 0.360930
O O18 0.891593 0.734332 0.251153
O O19 0.090822 0.500000 0.850214
#
# Coordination Sequence:
#
# PCOD9400961 Si02
#       8
#     8   4   8   4   8   8   8   8
#     4  10  19  34  54  75 103 139 177 215 260 313
#     4   9  20  37  58  81 102 130 171 217 258 301
#     4  11  22  37  56  77 105 142 179 215 263 318
#     4  11  23  39  58  81 106 132 171 219 262 307
#     4  10  19  31  50  78 109 139 173 215 263 313
#     4   9  19  34  52  77 109 143 176 213 264 324
#     4  10  20  34  53  80 110 139 176 221 265 310
#     4   9  19  34  52  76 107 141 175 213 260 313
#
# _framework density 18.686420999999999
#
# number of rings (size 3 to 8) (size 9 to 14) (size 15 to 20)
#    0.000    2.143    0.000    3.214    0.000    6.286 
#    0.000    1.786    0.000    2.571    0.000    0.000 
#    0.000    0.000    0.000    0.000    0.000    0.000 
#
# Total GULP energy -312708.191393 kJ/mol
# GULP energy per Si atom -5584.074846 kJ/mol
# Density = 1.864389 g / cm^3
# Si number density = 18.686421 Si / 1000 Ang^3
#
#
#
# Elastic Constant Matrix: (Units=GPa)
#
#
# Indices 1 2 3 4 5 6 
#
# 1 80.5201 23.7894 99.9079 0.0000 0.0000 0.0000
# 2 23.7894 23.6792 37.3034 0.0000 0.0000 0.0000
# 3 99.9079 37.3034 156.5460 0.0000 0.0000 0.0000
# 4 0.0000 0.0000 0.0000 20.3560 0.0000 0.0000
# 5 0.0000 0.0000 0.0000 0.0000 32.4078 0.0000
# 6 0.0000 0.0000 0.0000 0.0000 0.0000 11.3386
#
#
#
# Elastic Compliance Matrix: (Units=1/GPa)
#
#
# Indices 1 2 3 4 5 6 
#
# 1 0.059670 0.000071 -0.038099 0.000000 0.000000 0.000000
# 2 0.000071 0.067612 -0.016157 0.000000 0.000000 0.000000
# 3 -0.038099 -0.016157 0.034553 0.000000 0.000000 0.000000
# 4 0.000000 0.000000 0.000000 0.049126 0.000000 0.000000
# 5 0.000000 0.000000 0.000000 0.000000 0.030857 0.000000
# 6 0.000000 0.000000 0.000000 0.000000 0.000000 0.088194
#
#
# Mechanical properties :
#
#
# Convention : Reuss Voigt Hill
#
# Bulk Modulus (GPa) = 18.70317 64.74962 41.72640
# Shear Modulus (GPa) = 10.96004 19.47014 15.21509
#
# Velocity S-wave (km/s) = 2.42445 3.23141 2.85657
# Velocity P-wave (km/s) = 4.22705 6.97485 5.76700
#
# Compressibility (1/GPa) = 0.05346687
#
# Stress axis : x y z
#
# Youngs Moduli (GPa) = 16.75873 14.79019 28.94135
#
# Poissons Ratio (x) = -0.00106 1.10263
# Poissons Ratio (y) = -0.00120 0.46760
# Poissons Ratio (z) = 0.63849 0.23896
#
# Static dielectric constant tensor:
#      x y z
#    x 1.605550 0.000000 0.000000 
#    y 0.000000 1.625220 0.000000 
#    z 0.000000 0.000000 1.674880 
# 
# From -- ./inp_files/25850.got.cif
#   From: 2010.05.17/outbox.cif.g08.bks.cpg/sg51_13_cif.got.tgz:25850.got - 2010.06.03 11:52:47.
