data_PCOD9400372
_publ_section_title
;
Structure prediction by ZEFSAII (Michael W. Deem and Ramdas Pophale) SiO2 
 PCOD9400372
Probable space group: P M M A
;
_chemical_formula_sum "Si O2"
_cell_formula_units_Z 40
_cell_length_a 8.512149
_cell_length_b 19.443497
_cell_length_c 14.080956
_cell_angle_alpha 90.000000
_cell_angle_beta 90.000000
_cell_angle_gamma 90.000000
_cell_volume 2330.481909
_symmetry_space_group_name_H-M "P M M A"
_symmetry_group_IT_number 51
_symmetry_cell_setting 'orthorhombic'
loop_
_space_group_symop_operation_xyz
x,y,z
1/2-x,-y,z
1/2+x,-y,-z
-x,y,-z
-x,-y,-z
1/2+x,y,-z
1/2-x,y,z
x,-y,z
loop_
_atom_site_type_symbol
_atom_site_label
_atom_site_fract_x
_atom_site_fract_y
_atom_site_fract_z
Si Si1 0.058891 0.423326 0.706586
Si Si2 0.561744 0.285711 0.395960
Si Si3 0.438259 0.346035 0.896094
Si Si4 0.439781 0.922701 0.106591
Si Si5 0.438608 0.786324 0.210951
O O1 0.250000 0.424422 0.703756
O O2 0.002047 0.500000 0.684663
O O3 0.007612 0.362417 0.636299
O O4 0.014848 0.399386 0.813060
O O5 0.500000 0.269155 0.500000
O O6 0.750000 0.285203 0.395555
O O7 0.502350 0.234844 0.313918
O O8 0.250000 0.342905 0.897771
O O9 0.502277 0.272109 0.861966
O O10 0.500000 0.363771 0.000000
O O11 0.250000 0.921932 0.104477
O O12 0.491541 0.861123 0.174917
O O13 0.490305 0.000000 0.134579
O O14 0.500000 0.910008 0.000000
O O15 0.250000 0.784615 0.212795
#
# Coordination Sequence:
#
# PCOD9400372 Si02
#       5
#     8   8   8   8   8
#     4   8  16  31  48  67  93 124 157 195 239 285
#     4  10  20  34  53  74  96 122 156 198 242 289
#     4  10  19  30  46  68  96 129 164 200 236 280
#     4   9  18  31  48  73 103 133 162 192 229 274
#     4  10  19  32  51  72  97 127 160 199 239 282
#
# _framework density 17.163831999999999
#
# number of rings (size 3 to 8) (size 9 to 14) (size 15 to 20)
#    0.000    2.600    0.000    3.600    0.000    4.000 
#    0.000    0.000    0.000   21.000    0.000    0.000 
#    0.000    0.000    0.000    0.000    0.000    0.000 
#
# Total GULP energy -223067.188038 kJ/mol
# GULP energy per Si atom -5576.679701 kJ/mol
# Density = 1.712477 g / cm^3
# Si number density = 17.163832 Si / 1000 Ang^3
#
#
#
# Elastic Constant Matrix: (Units=GPa)
#
#
# Indices 1 2 3 4 5 6 
#
# 1 32.8558 16.4223 11.8468 0.0000 0.0000 0.0000
# 2 16.4223 125.6373 39.8245 0.0000 0.0000 0.0000
# 3 11.8468 39.8245 73.0657 0.0000 0.0000 0.0000
# 4 0.0000 0.0000 0.0000 -43.8634 0.0000 0.0000
# 5 0.0000 0.0000 0.0000 0.0000 27.1002 0.0000
# 6 0.0000 0.0000 0.0000 0.0000 0.0000 18.2633
#
#
#
# Elastic Compliance Matrix: (Units=1/GPa)
#
#
# Indices 1 2 3 4 5 6 
#
# 1 0.033356 -0.003198 -0.003665 0.000000 0.000000 0.000000
# 2 -0.003198 0.009928 -0.004893 0.000000 0.000000 0.000000
# 3 -0.003665 -0.004893 0.016947 0.000000 0.000000 0.000000
# 4 0.000000 0.000000 0.000000 -0.022798 0.000000 0.000000
# 5 0.000000 0.000000 0.000000 0.000000 0.036900 0.000000
# 6 0.000000 0.000000 0.000000 0.000000 0.000000 0.054755
#
#
# Mechanical properties :
#
#
# Convention : Reuss Voigt Hill
#
# Bulk Modulus (GPa) = 27.23357 40.86067 34.04712
# Shear Modulus (GPa) = 30.33220 11.19769 20.76494
#
# Velocity S-wave (km/s) = 4.20839 2.55698 3.48200
# Velocity P-wave (km/s) = 6.28612 5.70750 6.00378
#
# Compressibility (1/GPa) = 0.03671939
#
# Stress axis : x y z
#
# Youngs Moduli (GPa) = 29.97947 100.72086 59.00592
#
# Poissons Ratio (x) = 0.32213 0.21626
# Poissons Ratio (y) = 0.09588 0.28871
# Poissons Ratio (z) = 0.10988 0.49282
#
# Static dielectric constant tensor:
#      x y z
#    x 1.582620 0.000000 0.000000 
#    y 0.000000 1.595060 0.000000 
#    z 0.000000 0.000000 1.507600 
# 
# From -- ./inp_files/14017.got.cif
#   From: 2010.05.17/outbox.cif.g08.bks.cpg/sg51_8_cif.got.tgz:14017.got - 2010.06.03 11:52:47.
