data_PCOD9400045
_publ_section_title
;
Structure prediction by ZEFSAII (Michael W. Deem and Ramdas Pophale) SiO2 
 PCOD9400045
Probable space group: P M M A
;
_chemical_formula_sum "Si O2"
_cell_formula_units_Z 56
_cell_length_a 9.246475
_cell_length_b 17.838216
_cell_length_c 23.058668
_cell_angle_alpha 90.000000
_cell_angle_beta 90.000000
_cell_angle_gamma 90.000000
_cell_volume 3803.310957
_symmetry_space_group_name_H-M "P M M A"
_symmetry_group_IT_number 51
_symmetry_cell_setting 'orthorhombic'
loop_
_space_group_symop_operation_xyz
x,y,z
1/2-x,-y,z
1/2+x,-y,-z
-x,y,-z
-x,-y,-z
1/2+x,y,-z
1/2-x,y,z
x,-y,z
loop_
_atom_site_type_symbol
_atom_site_label
_atom_site_fract_x
_atom_site_fract_y
_atom_site_fract_z
Si Si1 0.083935 0.409522 0.442971
Si Si2 0.085440 0.583333 0.121282
Si Si3 0.918368 0.909964 0.938862
Si Si4 0.084109 0.810165 0.846811
Si Si5 0.081020 0.303783 0.229798
Si Si6 0.908548 0.310171 0.050696
Si Si7 0.575766 0.588525 0.321644
O O1 0.250000 0.382265 0.439008
O O2 0.092185 0.500000 0.448317
O O3 0.000000 0.381478 0.500000
O O4 0.992145 0.396057 0.384924
O O5 0.250000 0.583162 0.100072
O O6 0.045746 0.500000 0.140308
O O7 0.080687 0.639638 0.175103
O O8 0.982358 0.614120 0.071908
O O9 0.750000 0.885140 0.942401
O O10 0.996689 0.872749 0.883238
O O11 0.920296 0.000000 0.932125
O O12 0.000000 0.894354 0.000000
O O13 0.250000 0.832406 0.832210
O O14 0.095367 0.744145 0.894535
O O15 0.998946 0.771742 0.793031
O O16 0.250000 0.290109 0.245210
O O17 0.995750 0.351013 0.278523
O O18 0.750000 0.323924 0.028513
O O19 0.000000 0.274248 0.000000
O O20 0.750000 0.595249 0.321868
O O21 0.542214 0.500000 0.307198
#
# Coordination Sequence:
#
# PCOD9400045 Si02
#       7
#     8   8   8   8   8   8   8
#     4   9  16  26  40  58  81 109 142 181 225 268
#     4   9  18  31  44  56  71  93 123 161 203 244
#     4  10  20  33  50  72  94 114 137 166 203 249
#     4  10  20  33  48  65  85 108 134 165 203 248
#     4  10  19  31  46  62  81 106 138 174 212 254
#     4  10  20  31  43  58  74  95 123 155 194 240
#     4  10  19  29  42  61  85 113 147 187 226 263
#
# _framework density 14.724012999999999
#
# number of rings (size 3 to 8) (size 9 to 14) (size 15 to 20)
#    0.000    2.286    0.000    3.429    0.000    8.000 
#    0.000    0.000    0.000    0.000    0.000    0.000 
#    0.000    0.000    0.000    0.000    0.000    0.714 
#
# Total GULP energy -311901.140815 kJ/mol
# GULP energy per Si atom -5569.663229 kJ/mol
# Density = 1.469050 g / cm^3
# Si number density = 14.724013 Si / 1000 Ang^3
#
#
#
# Elastic Constant Matrix: (Units=GPa)
#
#
# Indices 1 2 3 4 5 6 
#
# 1 130.1575 35.7450 55.2833 0.0000 0.0000 0.0000
# 2 35.7450 45.7096 21.1795 0.0000 0.0000 0.0000
# 3 55.2833 21.1795 73.9153 0.0000 0.0000 0.0000
# 4 0.0000 0.0000 0.0000 7.8877 0.0000 0.0000
# 5 0.0000 0.0000 0.0000 0.0000 24.5432 0.0000
# 6 0.0000 0.0000 0.0000 0.0000 0.0000 -10.3861
#
#
#
# Elastic Compliance Matrix: (Units=1/GPa)
#
#
# Indices 1 2 3 4 5 6 
#
# 1 0.012688 -0.006371 -0.007664 0.000000 0.000000 0.000000
# 2 -0.006371 0.028425 -0.003380 0.000000 0.000000 0.000000
# 3 -0.007664 -0.003380 0.020230 0.000000 0.000000 0.000000
# 4 0.000000 0.000000 0.000000 0.126779 0.000000 0.000000
# 5 0.000000 0.000000 0.000000 0.000000 0.040744 0.000000
# 6 0.000000 0.000000 0.000000 0.000000 0.000000 -0.096283
#
#
# Mechanical properties :
#
#
# Convention : Reuss Voigt Hill
#
# Bulk Modulus (GPa) = 37.71735 52.68867 45.20301
# Shear Modulus (GPa) = 28.36851 13.58061 20.97456
#
# Velocity S-wave (km/s) = 4.39416 3.04031 3.77837
# Velocity P-wave (km/s) = 7.17054 6.94165 7.05702
#
# Compressibility (1/GPa) = 0.02651300
#
# Stress axis : x y z
#
# Youngs Moduli (GPa) = 78.81550 35.17988 49.43220
#
# Poissons Ratio (x) = 0.22412 0.37886
# Poissons Ratio (y) = 0.50211 0.16709
# Poissons Ratio (z) = 0.60405 0.11891
#
# Static dielectric constant tensor:
#      x y z
#    x 1.497420 0.000000 0.000000 
#    y 0.000000 1.483540 0.000000 
#    z 0.000000 0.000000 1.482980 
# 
# From -- ./inp_files/32223.got.cif
#   From: 2010.05.17/outbox.cif.g08.bks.cpg/sg51_17_cif.got.tgz:32223.got - 2010.06.03 11:52:47.
