data_PCOD9400702
_publ_section_title
;
Structure prediction by ZEFSAII (Michael W. Deem and Ramdas Pophale) SiO2 
 PCOD9400702
Probable space group: P M M A
;
_chemical_formula_sum "Si O2"
_cell_formula_units_Z 56
_cell_length_a 14.885702
_cell_length_b 9.107068
_cell_length_c 19.308404
_cell_angle_alpha 90.000000
_cell_angle_beta 90.000000
_cell_angle_gamma 90.000000
_cell_volume 2617.545726
_symmetry_space_group_name_H-M "P M M A"
_symmetry_group_IT_number 51
_symmetry_cell_setting 'orthorhombic'
loop_
_space_group_symop_operation_xyz
x,y,z
1/2-x,-y,z
1/2+x,-y,-z
-x,y,-z
-x,-y,-z
1/2+x,y,-z
1/2-x,y,z
x,-y,z
loop_
_atom_site_type_symbol
_atom_site_label
_atom_site_fract_x
_atom_site_fract_y
_atom_site_fract_z
Si Si1 0.108483 0.168062 0.210388
Si Si2 0.142905 0.336425 0.925973
Si Si3 0.598511 0.323227 0.353066
Si Si4 0.890221 0.670067 0.504849
Si Si5 0.357409 0.166628 0.060094
Si Si6 0.892202 0.832453 0.215614
Si Si7 0.400964 0.177393 0.358533
O O1 0.127767 0.237465 0.135824
O O2 0.142024 0.224449 0.284853
O O3 0.000829 0.164345 0.217258
O O4 0.142151 0.000000 0.204503
O O5 0.250000 0.349205 0.935660
O O6 0.104839 0.500000 0.917918
O O7 0.130668 0.243890 0.856436
O O8 0.107488 0.255954 0.994500
O O9 0.591906 0.500000 0.347986
O O10 0.642219 0.289292 0.427719
O O11 0.639666 0.256794 0.283153
O O12 0.499658 0.250814 0.357418
O O13 0.867823 0.500000 0.518198
O O14 0.859818 0.767505 0.569429
O O15 0.000000 0.677980 0.500000
O O16 0.250000 0.154945 0.052203
O O17 0.395167 0.000000 0.059766
O O18 0.860367 0.000000 0.217831
O O19 0.407412 0.000000 0.358070
#
# Coordination Sequence:
#
# PCOD9400702 Si02
#       7
#     8   8   8   8   8   8   8
#     4   8  16  29  44  68  97 120 147 189 235 269
#     4  10  21  36  51  68  92 118 147 186 227 268
#     4   9  16  26  39  58  88 120 150 186 228 271
#     4   8  14  23  35  54  83 118 151 184 224 269
#     4   9  17  32  53  70  87 118 157 189 220 266
#     4  10  19  31  48  69  94 121 150 186 228 275
#     4   9  15  23  37  58  87 120 152 187 227 271
#
# _framework density 21.394086000000001
#
# number of rings (size 3 to 8) (size 9 to 14) (size 15 to 20)
#    0.000    3.000    0.000    3.429    0.000    4.571 
#    0.000    7.143    0.000    0.000    0.000    1.000 
#    0.000    3.429    0.000    0.000    0.000    0.000 
#
# Total GULP energy -312065.054769 kJ/mol
# GULP energy per Si atom -5572.590264 kJ/mol
# Density = 2.134539 g / cm^3
# Si number density = 21.394086 Si / 1000 Ang^3
#
#
#
# Elastic Constant Matrix: (Units=GPa)
#
#
# Indices 1 2 3 4 5 6 
#
# 1 51.0469 5.4497 5.7896 0.0000 0.0000 0.0000
# 2 5.4497 105.0704 104.6311 0.0000 0.0000 0.0000
# 3 5.7896 104.6311 272.3381 0.0000 0.0000 0.0000
# 4 0.0000 0.0000 0.0000 70.7250 0.0000 0.0000
# 5 0.0000 0.0000 0.0000 0.0000 44.5930 0.0000
# 6 0.0000 0.0000 0.0000 0.0000 0.0000 9.7774
#
#
#
# Elastic Compliance Matrix: (Units=1/GPa)
#
#
# Indices 1 2 3 4 5 6 
#
# 1 0.019699 -0.000979 -0.000042 0.000000 0.000000 0.000000
# 2 -0.000979 0.015464 -0.005920 0.000000 0.000000 0.000000
# 3 -0.000042 -0.005920 0.005947 0.000000 0.000000 0.000000
# 4 0.000000 0.000000 0.000000 0.014139 0.000000 0.000000
# 5 0.000000 0.000000 0.000000 0.000000 0.022425 0.000000
# 6 0.000000 0.000000 0.000000 0.000000 0.000000 0.102277
#
#
# Mechanical properties :
#
#
# Convention : Reuss Voigt Hill
#
# Bulk Modulus (GPa) = 36.72970 73.35513 55.04241
# Shear Modulus (GPa) = 24.64133 45.85806 35.24969
#
# Velocity S-wave (km/s) = 3.39747 4.63481 4.06351
# Velocity P-wave (km/s) = 5.70928 7.93750 6.91375
#
# Compressibility (1/GPa) = 0.02722593
#
# Stress axis : x y z
#
# Youngs Moduli (GPa) = 50.76343 64.66730 168.14195
#
# Poissons Ratio (x) = 0.06334 0.00714
# Poissons Ratio (y) = 0.04972 0.99545
# Poissons Ratio (z) = 0.00216 0.38285
#
# Static dielectric constant tensor:
#      x y z
#    x 1.785420 0.000000 0.000000 
#    y 0.000000 1.745790 0.000000 
#    z 0.000000 0.000000 1.834950 
# 
# From -- ./inp_files/30428.got.cif
#   From: 2010.05.17/outbox.cif.g08.bks.cpg/sg51_16_cif.got.tgz:30428.got - 2010.06.03 11:52:47.
