data_PCOD9400854
_publ_section_title
;
Structure prediction by ZEFSAII (Michael W. Deem and Ramdas Pophale) SiO2 
 PCOD9400854
Probable space group: P M M A
;
_chemical_formula_sum "Si O2"
_cell_formula_units_Z 28
_cell_length_a 8.617819
_cell_length_b 19.000474
_cell_length_c 9.221647
_cell_angle_alpha 90.000000
_cell_angle_beta 90.000000
_cell_angle_gamma 90.000000
_cell_volume 1509.976879
_symmetry_space_group_name_H-M "P M M A"
_symmetry_group_IT_number 51
_symmetry_cell_setting 'orthorhombic'
loop_
_space_group_symop_operation_xyz
x,y,z
1/2-x,-y,z
1/2+x,-y,-z
-x,y,-z
-x,-y,-z
1/2+x,y,-z
1/2-x,y,z
x,-y,z
loop_
_atom_site_type_symbol
_atom_site_label
_atom_site_fract_x
_atom_site_fract_y
_atom_site_fract_z
Si Si1 0.437402 0.861354 0.337844
Si Si2 0.062449 0.000000 0.162398
Si Si3 0.936038 0.722511 0.836138
Si Si4 0.936043 0.423357 0.164935
O O1 0.500000 0.864093 0.500000
O O2 0.250000 0.861771 0.341965
O O3 0.486203 0.789798 0.256924
O O4 0.488097 0.929943 0.247665
O O5 0.250000 0.000000 0.157805
O O6 0.000000 0.000000 0.000000
O O7 0.750000 0.720597 0.843262
O O8 0.995518 0.648390 0.771335
O O9 0.000000 0.729270 0.000000
O O10 0.750000 0.418268 0.160575
O O11 0.977822 0.500000 0.229899
O O12 0.000000 0.424506 0.000000
#
# Coordination Sequence:
#
# PCOD9400854 Si02
#       4
#     8   4   8   8
#     4  10  22  37  54  77 105 137 173 210 251 302
#     4  10  21  38  58  82 108 134 169 210 252 300
#     4  10  19  31  49  75 103 133 171 212 255 303
#     4   9  16  26  43  69  99 131 167 208 255 303
#
# _framework density 18.543330999999998
#
# number of rings (size 3 to 8) (size 9 to 14) (size 15 to 20)
#    0.000    2.286    0.000    4.714    0.000    5.143 
#    0.000    0.000    0.000    0.857    0.000    0.000 
#    0.000    0.000    0.000    0.000    0.000    0.000 
#
# Total GULP energy -156179.359473 kJ/mol
# GULP energy per Si atom -5577.834267 kJ/mol
# Density = 1.850113 g / cm^3
# Si number density = 18.543331 Si / 1000 Ang^3
#
#
#
# Elastic Constant Matrix: (Units=GPa)
#
#
# Indices 1 2 3 4 5 6 
#
# 1 36.1962 45.6260 20.7392 0.0000 0.0000 0.0000
# 2 45.6260 241.7731 90.5912 0.0000 0.0000 0.0000
# 3 20.7392 90.5912 99.0668 0.0000 0.0000 0.0000
# 4 0.0000 0.0000 0.0000 -3.1377 0.0000 0.0000
# 5 0.0000 0.0000 0.0000 0.0000 26.0256 0.0000
# 6 0.0000 0.0000 0.0000 0.0000 0.0000 23.4460
#
#
#
# Elastic Compliance Matrix: (Units=1/GPa)
#
#
# Indices 1 2 3 4 5 6 
#
# 1 0.036520 -0.006126 -0.002043 0.000000 0.000000 0.000000
# 2 -0.006126 0.007320 -0.005411 0.000000 0.000000 0.000000
# 3 -0.002043 -0.005411 0.015470 0.000000 0.000000 0.000000
# 4 0.000000 0.000000 0.000000 -0.318701 0.000000 0.000000
# 5 0.000000 0.000000 0.000000 0.000000 0.038424 0.000000
# 6 0.000000 0.000000 0.000000 0.000000 0.000000 0.042651
#
#
# Mechanical properties :
#
#
# Convention : Reuss Voigt Hill
#
# Bulk Modulus (GPa) = 31.10519 76.77210 53.93864
# Shear Modulus (GPa) = -35.60271 23.93875 -5.83198
#
# Velocity S-wave (km/s) = -4.38650 3.59690 -1.77535
# Velocity P-wave (km/s) = 2.97397 7.66430 4.99485
#
# Compressibility (1/GPa) = 0.03214898
#
# Stress axis : x y z
#
# Youngs Moduli (GPa) = 27.38212 136.61795 64.64150
#
# Poissons Ratio (x) = 0.83696 0.13207
# Poissons Ratio (y) = 0.16775 0.34977
# Poissons Ratio (z) = 0.05595 0.73923
#
# Static dielectric constant tensor:
#      x y z
#    x 1.630240 0.000000 0.000000 
#    y 0.000000 1.696380 0.000000 
#    z 0.000000 0.000000 1.586980 
# 
# From -- ./inp_files/4663.got.cif
#   From: 2010.05.17/outbox.cif.g08.bks.cpg/sg51_3_cif.got.tgz:4663.got - 2010.06.03 11:52:47.
