data_PCOD9400986
_publ_section_title
;
Structure prediction by ZEFSAII (Michael W. Deem and Ramdas Pophale) SiO2 
 PCOD9400986
Probable space group: P M M A
;
_chemical_formula_sum "Si O2"
_cell_formula_units_Z 56
_cell_length_a 8.340571
_cell_length_b 14.816769
_cell_length_c 24.626564
_cell_angle_alpha 90.000000
_cell_angle_beta 90.000000
_cell_angle_gamma 90.000000
_cell_volume 3043.358508
_symmetry_space_group_name_H-M "P M M A"
_symmetry_group_IT_number 51
_symmetry_cell_setting 'orthorhombic'
loop_
_space_group_symop_operation_xyz
x,y,z
1/2-x,-y,z
1/2+x,-y,-z
-x,y,-z
-x,-y,-z
1/2+x,y,-z
1/2-x,y,z
x,-y,z
loop_
_atom_site_type_symbol
_atom_site_label
_atom_site_fract_x
_atom_site_fract_y
_atom_site_fract_z
Si Si1 0.556697 0.248260 0.356710
Si Si2 0.056446 0.603374 0.559129
Si Si3 0.058289 0.895749 0.441183
Si Si4 0.440621 0.251857 0.061547
Si Si5 0.054345 0.751985 0.766966
Si Si6 0.056151 0.396501 0.852953
Si Si7 0.056103 0.103533 0.855341
O O1 0.750000 0.252876 0.354417
O O2 0.499323 0.333460 0.392179
O O3 0.509237 0.161714 0.391782
O O4 0.497345 0.246893 0.294909
O O5 0.250000 0.603992 0.559208
O O6 0.001828 0.500000 0.565622
O O7 0.000000 0.635566 0.500000
O O8 0.250000 0.892293 0.440341
O O9 0.000000 0.861628 0.500000
O O10 0.005756 0.000000 0.436801
O O11 0.250000 0.252064 0.062617
O O12 0.502511 0.338763 0.094998
O O13 0.501851 0.163224 0.093508
O O14 0.500000 0.252982 0.000000
O O15 0.250000 0.752179 0.766180
O O16 0.004679 0.839231 0.802239
O O17 0.005045 0.663014 0.800748
O O18 0.750000 0.398055 0.147224
O O19 0.999343 0.500000 0.852546
O O20 0.250000 0.102228 0.855356
O O21 0.999612 0.000000 0.855957
#
# Coordination Sequence:
#
# PCOD9400986 Si02
#       7
#     8   8   8   8   8   8   8
#     4  10  19  31  51  77 103 132 166 206 252 303
#     4   9  18  31  46  67  96 128 162 201 246 296
#     4  10  21  36  52  71  97 129 166 210 260 312
#     4  11  22  36  55  80 111 141 173 215 258 306
#     4   8  16  31  51  78 106 132 168 210 252 299
#     4   9  18  35  58  80 105 140 179 217 257 301
#     4   9  18  35  57  78 104 139 176 214 256 303
#
# _framework density 18.400724
#
# number of rings (size 3 to 8) (size 9 to 14) (size 15 to 20)
#    0.000    2.571    0.000    3.000    0.000    4.857 
#    0.000    7.143    0.000    0.000    0.000    4.000 
#    0.000    0.000    0.000    0.000    0.000    0.000 
#
# Total GULP energy -312393.272856 kJ/mol
# GULP energy per Si atom -5578.451301 kJ/mol
# Density = 1.835884 g / cm^3
# Si number density = 18.400724 Si / 1000 Ang^3
#
#
#
# Elastic Constant Matrix: (Units=GPa)
#
#
# Indices 1 2 3 4 5 6 
#
# 1 12.0491 19.2591 16.2053 0.0000 0.0000 0.0000
# 2 19.2591 171.5789 106.5325 0.0000 0.0000 0.0000
# 3 16.2053 106.5325 206.0147 0.0000 0.0000 0.0000
# 4 0.0000 0.0000 0.0000 18.1028 0.0000 0.0000
# 5 0.0000 0.0000 0.0000 0.0000 24.1636 0.0000
# 6 0.0000 0.0000 0.0000 0.0000 0.0000 21.3104
#
#
#
# Elastic Compliance Matrix: (Units=1/GPa)
#
#
# Indices 1 2 3 4 5 6 
#
# 1 0.102476 -0.009570 -0.003112 0.000000 0.000000 0.000000
# 2 -0.009570 0.009478 -0.004148 0.000000 0.000000 0.000000
# 3 -0.003112 -0.004148 0.007244 0.000000 0.000000 0.000000
# 4 0.000000 0.000000 0.000000 0.055240 0.000000 0.000000
# 5 0.000000 0.000000 0.000000 0.000000 0.041384 0.000000
# 6 0.000000 0.000000 0.000000 0.000000 0.000000 0.046925
#
#
# Mechanical properties :
#
#
# Convention : Reuss Voigt Hill
#
# Bulk Modulus (GPa) = 11.69090 74.84851 43.26970
# Shear Modulus (GPa) = 15.38832 29.22511 22.30671
#
# Velocity S-wave (km/s) = 2.89500 3.98962 3.48555
# Velocity P-wave (km/s) = 4.18832 7.87325 6.30595
#
# Compressibility (1/GPa) = 0.08553662
#
# Stress axis : x y z
#
# Youngs Moduli (GPa) = 9.75840 105.50482 138.04459
#
# Poissons Ratio (x) = 1.00972 0.42958
# Poissons Ratio (y) = 0.09339 0.57268
# Poissons Ratio (z) = 0.03037 0.43769
#
# Static dielectric constant tensor:
#      x y z
#    x 1.638550 0.000000 0.000000 
#    y 0.000000 1.640070 0.000000 
#    z 0.000000 0.000000 1.612100 
# 
# From -- ./inp_files/31929.got.cif
#   From: 2010.05.17/outbox.cif.g08.bks.cpg/sg51_16_cif.got.tgz:31929.got - 2010.06.03 11:52:47.
