data_PCOD9400319
_publ_section_title
;
Structure prediction by ZEFSAII (Michael W. Deem and Ramdas Pophale) SiO2 
 PCOD9400319
Probable space group: P M M A
;
_chemical_formula_sum "Si O2"
_cell_formula_units_Z 52
_cell_length_a 8.458647
_cell_length_b 19.138294
_cell_length_c 19.131016
_cell_angle_alpha 90.000000
_cell_angle_beta 90.000000
_cell_angle_gamma 90.000000
_cell_volume 3097.006793
_symmetry_space_group_name_H-M "P M M A"
_symmetry_group_IT_number 51
_symmetry_cell_setting 'orthorhombic'
loop_
_space_group_symop_operation_xyz
x,y,z
1/2-x,-y,z
1/2+x,-y,-z
-x,y,-z
-x,-y,-z
1/2+x,y,-z
1/2-x,y,z
x,-y,z
loop_
_atom_site_type_symbol
_atom_site_label
_atom_site_fract_x
_atom_site_fract_y
_atom_site_fract_z
Si Si1 0.940164 0.360322 0.347855
Si Si2 0.937849 0.500000 0.579121
Si Si3 0.061138 0.846028 0.283092
Si Si4 0.940726 0.923004 0.157543
Si Si5 0.058599 0.217809 0.921863
Si Si6 0.938369 0.779962 0.577199
Si Si7 0.562570 0.706835 0.210663
O O1 0.750000 0.361714 0.347392
O O2 0.998671 0.348567 0.267620
O O3 0.002768 0.430803 0.381713
O O4 0.993174 0.293041 0.393004
O O5 0.750000 0.500000 0.577532
O O6 0.000000 0.500000 0.500000
O O7 0.250000 0.836476 0.275171
O O8 0.024117 0.839755 0.365256
O O9 0.006979 0.910137 0.235525
O O10 0.969992 0.780560 0.248810
O O11 0.750000 0.920309 0.160650
O O12 0.992999 0.857889 0.109213
O O13 0.987800 0.000000 0.131930
O O14 0.250000 0.218045 0.921349
O O15 0.001966 0.277944 0.867518
O O16 0.000000 0.227413 0.000000
O O17 0.750000 0.772359 0.574708
O O18 0.000000 0.794254 0.500000
O O19 0.750000 0.695097 0.204738
#
# Coordination Sequence:
#
# PCOD9400319 Si02
#       7
#     8   4   8   8   8   8   8
#     4  10  19  33  51  69  91 124 161 192 225 269
#     4  12  24  36  48  68 101 134 161 192 229 270
#     4   9  17  28  44  66  88 110 145 192 232 267
#     4   9  18  32  47  62  86 122 157 185 221 275
#     4   9  17  29  45  69  97 122 149 184 226 270
#     4  10  19  30  45  67  92 117 147 187 233 275
#     4   8  16  31  49  66  89 121 155 188 224 270
#
# _framework density 16.790405
#
# number of rings (size 3 to 8) (size 9 to 14) (size 15 to 20)
#    0.000    2.615    0.000    3.462    0.000    5.538 
#    0.000    0.000    0.000    0.462    0.000    0.538 
#    0.000    0.000    0.000    0.000    0.000    0.000 
#
# Total GULP energy -289493.832701 kJ/mol
# GULP energy per Si atom -5567.189090 kJ/mol
# Density = 1.675219 g / cm^3
# Si number density = 16.790405 Si / 1000 Ang^3
#
#
#
# Elastic Constant Matrix: (Units=GPa)
#
#
# Indices 1 2 3 4 5 6 
#
# 1 20.6675 7.0014 20.7575 0.0000 0.0000 0.0000
# 2 7.0014 45.7729 44.2648 0.0000 0.0000 0.0000
# 3 20.7575 44.2648 162.8051 0.0000 0.0000 0.0000
# 4 0.0000 0.0000 0.0000 22.0121 0.0000 0.0000
# 5 0.0000 0.0000 0.0000 0.0000 25.8095 0.0000
# 6 0.0000 0.0000 0.0000 0.0000 0.0000 17.0745
#
#
#
# Elastic Compliance Matrix: (Units=1/GPa)
#
#
# Indices 1 2 3 4 5 6 
#
# 1 0.055660 -0.002240 -0.006488 0.000000 0.000000 0.000000
# 2 -0.002240 0.029730 -0.007798 0.000000 0.000000 0.000000
# 3 -0.006488 -0.007798 0.009090 0.000000 0.000000 0.000000
# 4 0.000000 0.000000 0.000000 0.045430 0.000000 0.000000
# 5 0.000000 0.000000 0.000000 0.000000 0.038745 0.000000
# 6 0.000000 0.000000 0.000000 0.000000 0.000000 0.058567
#
#
# Mechanical properties :
#
#
# Convention : Reuss Voigt Hill
#
# Bulk Modulus (GPa) = 16.27885 41.47699 28.87792
# Shear Modulus (GPa) = 17.19697 23.46066 20.32882
#
# Velocity S-wave (km/s) = 3.20381 3.74206 3.48334
# Velocity P-wave (km/s) = 4.83758 6.58992 5.78054
#
# Compressibility (1/GPa) = 0.06142941
#
# Stress axis : x y z
#
# Youngs Moduli (GPa) = 17.96628 33.63552 110.01581
#
# Poissons Ratio (x) = 0.07534 0.71374
# Poissons Ratio (y) = 0.04024 0.85788
# Poissons Ratio (z) = 0.11656 0.26228
#
# Static dielectric constant tensor:
#      x y z
#    x 1.582840 0.000000 0.000000 
#    y 0.000000 1.569520 0.000000 
#    z 0.000000 0.000000 1.605410 
# 
# From -- ./inp_files/27979.got.cif
#   From: 2010.05.17/outbox.cif.g08.bks.cpg/sg51_14_cif.got.tgz:27979.got - 2010.06.03 11:52:47.
