data_PCOD9400011
_publ_section_title
;
Structure prediction by ZEFSAII (Michael W. Deem and Ramdas Pophale) SiO2 
 PCOD9400011
Probable space group: P M M A
;
_chemical_formula_sum "Si O2"
_cell_formula_units_Z 52
_cell_length_a 13.770168
_cell_length_b 11.583899
_cell_length_c 17.992171
_cell_angle_alpha 90.000000
_cell_angle_beta 90.000000
_cell_angle_gamma 90.000000
_cell_volume 2869.971415
_symmetry_space_group_name_H-M "P M M A"
_symmetry_group_IT_number 51
_symmetry_cell_setting 'orthorhombic'
loop_
_space_group_symop_operation_xyz
x,y,z
1/2-x,-y,z
1/2+x,-y,-z
-x,y,-z
-x,-y,-z
1/2+x,y,-z
1/2-x,y,z
x,-y,z
loop_
_atom_site_type_symbol
_atom_site_label
_atom_site_fract_x
_atom_site_fract_y
_atom_site_fract_z
Si Si1 0.931805 0.760234 0.106251
Si Si2 0.139920 0.500000 0.697873
Si Si3 0.454826 0.285482 0.619151
Si Si4 0.642235 0.242567 0.947056
Si Si5 0.145003 0.500000 0.110688
Si Si6 0.138505 0.137105 0.737636
Si Si7 0.063629 0.500000 0.855417
Si Si8 0.136082 0.361348 0.465513
O O1 0.892296 0.805161 0.184405
O O2 0.923024 0.620910 0.103914
O O3 0.045442 0.793855 0.097315
O O4 0.875335 0.797012 0.031883
O O5 0.250000 0.500000 0.669834
O O6 0.083730 0.610488 0.669281
O O7 0.134187 0.500000 0.785949
O O8 0.428782 0.175573 0.668838
O O9 0.566120 0.308166 0.597067
O O10 0.395515 0.299443 0.542148
O O11 0.750000 0.205509 0.922053
O O12 0.640688 0.382915 0.937729
O O13 0.250000 0.500000 0.149377
O O14 0.051798 0.500000 0.164272
O O15 0.250000 0.172920 0.720935
O O16 0.135655 0.000000 0.746813
O O17 0.250000 0.347091 0.451719
O O18 0.116312 0.500000 0.472674
#
# Coordination Sequence:
#
# PCOD9400011 Si02
#       8
#     8   4   8   8   4   8   4   8
#     4  10  19  32  52  77 107 136 176 224 272 329
#     4  12  20  28  49  81 112 139 171 220 272 323
#     4  11  20  36  56  84 116 145 179 218 266 322
#     4   9  17  30  49  74 104 140 176 217 271 329
#     4   8  15  29  45  67 106 146 174 204 260 336
#     4  11  24  40  57  77 105 144 186 230 277 317
#     4  10  19  28  46  80 110 135 169 217 272 330
#     4  10  19  34  58  89 122 148 172 209 262 323
#
# _framework density 18.118648
#
# number of rings (size 3 to 8) (size 9 to 14) (size 15 to 20)
#    0.000    1.846    3.077    2.769    0.000    2.462 
#    0.000    4.615    0.000    3.692    0.000    0.000 
#    0.000    0.000    0.000    0.000    0.000    0.000 
#
# Total GULP energy -289787.050683 kJ/mol
# GULP energy per Si atom -5572.827898 kJ/mol
# Density = 1.807741 g / cm^3
# Si number density = 18.118648 Si / 1000 Ang^3
#
#
#
# Elastic Constant Matrix: (Units=GPa)
#
#
# Indices 1 2 3 4 5 6 
#
# 1 117.6138 21.7148 34.4446 0.0000 0.0000 0.0000
# 2 21.7148 36.4120 15.2703 0.0000 0.0000 0.0000
# 3 34.4446 15.2703 57.6733 0.0000 0.0000 0.0000
# 4 0.0000 0.0000 0.0000 4.8486 0.0000 0.0000
# 5 0.0000 0.0000 0.0000 0.0000 20.2130 0.0000
# 6 0.0000 0.0000 0.0000 0.0000 0.0000 400.0495
#
#
#
# Elastic Compliance Matrix: (Units=1/GPa)
#
#
# Indices 1 2 3 4 5 6 
#
# 1 0.010853 -0.004223 -0.005364 0.000000 0.000000 0.000000
# 2 -0.004223 0.032537 -0.006093 0.000000 0.000000 0.000000
# 3 -0.005364 -0.006093 0.022156 0.000000 0.000000 0.000000
# 4 0.000000 0.000000 0.000000 0.206246 0.000000 0.000000
# 5 0.000000 0.000000 0.000000 0.000000 0.049473 0.000000
# 6 0.000000 0.000000 0.000000 0.000000 0.000000 0.002500
#
#
# Mechanical properties :
#
#
# Convention : Reuss Voigt Hill
#
# Bulk Modulus (GPa) = 29.25105 39.39538 34.32322
# Shear Modulus (GPa) = 13.64188 94.37352 54.00770
#
# Velocity S-wave (km/s) = 2.74691 7.22492 5.46557
# Velocity P-wave (km/s) = 5.12249 9.55979 7.66908
#
# Compressibility (1/GPa) = 0.03418680
#
# Stress axis : x y z
#
# Youngs Moduli (GPa) = 92.14160 30.73424 45.13531
#
# Poissons Ratio (x) = 0.12979 0.24209
# Poissons Ratio (y) = 0.38910 0.27500
# Poissons Ratio (z) = 0.49421 0.18726
#
# Static dielectric constant tensor:
#      x y z
#    x 1.659010 0.000000 0.000000 
#    y 0.000000 1.557580 0.000000 
#    z 0.000000 0.000000 1.614160 
# 
# From -- ./inp_files/29782.got.cif
#   From: 2010.05.17/outbox.cif.g08.bks.cpg/sg51_15_cif.got.tgz:29782.got - 2010.06.03 11:52:47.
