data_PCOD9400262
_publ_section_title
;
Structure prediction by ZEFSAII (Michael W. Deem and Ramdas Pophale) SiO2 
 PCOD9400262
Probable space group: P M M A
;
_chemical_formula_sum "Si O2"
_cell_formula_units_Z 64
_cell_length_a 28.204131
_cell_length_b 7.580308
_cell_length_c 14.972537
_cell_angle_alpha 90.000000
_cell_angle_beta 90.000000
_cell_angle_gamma 90.000000
_cell_volume 3201.068518
_symmetry_space_group_name_H-M "P M M A"
_symmetry_group_IT_number 51
_symmetry_cell_setting 'orthorhombic'
loop_
_space_group_symop_operation_xyz
x,y,z
1/2-x,-y,z
1/2+x,-y,-z
-x,y,-z
-x,-y,-z
1/2+x,y,-z
1/2-x,y,z
x,-y,z
loop_
_atom_site_type_symbol
_atom_site_label
_atom_site_fract_x
_atom_site_fract_y
_atom_site_fract_z
Si Si1 0.107718 0.213226 0.635775
Si Si2 0.071740 0.290189 0.266798
Si Si3 0.132443 0.300694 0.109997
Si Si4 0.465426 0.786644 0.784401
Si Si5 0.195738 0.790022 0.750711
Si Si6 0.449153 0.709496 0.463702
Si Si7 0.055074 0.206831 0.976599
Si Si8 0.195498 0.286979 0.951295
O O1 0.064912 0.273981 0.700123
O O2 0.157259 0.276724 0.678899
O O3 0.091806 0.264376 0.536807
O O4 0.108665 0.000000 0.639026
O O5 0.080631 0.500000 0.272281
O O6 0.112989 0.217715 0.201840
O O7 0.066076 0.218008 0.367093
O O8 0.020033 0.266234 0.222870
O O9 0.149290 0.500000 0.130008
O O10 0.085946 0.307765 0.047778
O O11 0.169358 0.218248 0.039827
O O12 0.441196 0.726068 0.875805
O O13 0.464841 0.000000 0.787003
O O14 0.250000 0.719029 0.744225
O O15 0.177550 0.763736 0.852513
O O16 0.198890 0.000000 0.737556
O O17 0.500000 0.780372 0.500000
O O18 0.456242 0.500000 0.451237
O O19 0.069142 0.000000 0.980666
O O20 0.000000 0.215750 0.000000
O O21 0.250000 0.230536 0.953365
O O22 0.193127 0.500000 0.954532
#
# Coordination Sequence:
#
# PCOD9400262 Si02
#       8
#     8   8   8   8   8   8   8   8
#     4  10  20  32  50  74  98 126 161 203 247 295
#     4  10  20  33  47  65  93 127 164 202 239 283
#     4  10  20  32  48  69  94 128 164 200 241 286
#     4  10  19  30  44  66  96 127 159 193 234 284
#     4   9  18  34  55  78 103 130 161 199 246 297
#     4  10  20  34  50  69  95 130 168 206 248 291
#     4  10  19  30  44  65  96 130 158 189 232 283
#     4   9  18  33  52  75 101 128 162 202 243 289
#
# _framework density 19.993323
#
# number of rings (size 3 to 8) (size 9 to 14) (size 15 to 20)
#    0.000    2.250    2.500    0.750    0.000    3.500 
#    0.000    0.000    0.000    0.750    0.000    1.750 
#    0.000    0.000    0.000    0.000    0.000    0.000 
#
# Total GULP energy -356959.030147 kJ/mol
# GULP energy per Si atom -5577.484846 kJ/mol
# Density = 1.994782 g / cm^3
# Si number density = 19.993323 Si / 1000 Ang^3
#
#
#
# Elastic Constant Matrix: (Units=GPa)
#
#
# Indices 1 2 3 4 5 6 
#
# 1 85.8619 -2.9123 53.6733 0.0000 0.0000 0.0000
# 2 -2.9123 43.3356 -1.2782 0.0000 0.0000 0.0000
# 3 53.6733 -1.2782 151.0935 0.0000 0.0000 0.0000
# 4 0.0000 0.0000 0.0000 -4.5536 0.0000 0.0000
# 5 0.0000 0.0000 0.0000 0.0000 31.1292 0.0000
# 6 0.0000 0.0000 0.0000 0.0000 0.0000 9.6973
#
#
#
# Elastic Compliance Matrix: (Units=1/GPa)
#
#
# Indices 1 2 3 4 5 6 
#
# 1 0.015002 0.000851 -0.005322 0.000000 0.000000 0.000000
# 2 0.000851 0.023130 -0.000107 0.000000 0.000000 0.000000
# 3 -0.005322 -0.000107 0.008508 0.000000 0.000000 0.000000
# 4 0.000000 0.000000 0.000000 -0.219609 0.000000 0.000000
# 5 0.000000 0.000000 0.000000 0.000000 0.032124 0.000000
# 6 0.000000 0.000000 0.000000 0.000000 0.000000 0.103122
#
#
# Mechanical properties :
#
#
# Convention : Reuss Voigt Hill
#
# Bulk Modulus (GPa) = 26.67731 42.13963 34.40847
# Shear Modulus (GPa) = -311.09159 22.64179 -144.22490
#
# Velocity S-wave (km/s) = -12.48741 3.36887 -8.50254
# Velocity P-wave (km/s) = 13.94783 6.02121 8.89626
#
# Compressibility (1/GPa) = 0.03748504
#
# Stress axis : x y z
#
# Youngs Moduli (GPa) = 66.65596 43.23429 117.53487
#
# Poissons Ratio (x) = -0.03680 0.62554
# Poissons Ratio (y) = -0.05674 0.01254
# Poissons Ratio (z) = 0.35475 0.00461
#
# Static dielectric constant tensor:
#      x y z
#    x 1.710230 0.000000 0.000000 
#    y 0.000000 1.769580 0.000000 
#    z 0.000000 0.000000 1.738490 
# 
# From -- ./inp_files/26729.got.cif
#   From: 2010.05.17/outbox.cif.g08.bks.cpg/sg51_14_cif.got.tgz:26729.got - 2010.06.03 11:52:47.
