data_PCOD9400966
_publ_section_title
;
Structure prediction by ZEFSAII (Michael W. Deem and Ramdas Pophale) SiO2 
 PCOD9400966
Probable space group: P M M A
;
_chemical_formula_sum "Si O2"
_cell_formula_units_Z 64
_cell_length_a 21.748320
_cell_length_b 9.071853
_cell_length_c 15.662358
_cell_angle_alpha 90.000000
_cell_angle_beta 90.000000
_cell_angle_gamma 90.000000
_cell_volume 3090.145049
_symmetry_space_group_name_H-M "P M M A"
_symmetry_group_IT_number 51
_symmetry_cell_setting 'orthorhombic'
loop_
_space_group_symop_operation_xyz
x,y,z
1/2-x,-y,z
1/2+x,-y,-z
-x,y,-z
-x,-y,-z
1/2+x,y,-z
1/2-x,y,z
x,-y,z
loop_
_atom_site_type_symbol
_atom_site_label
_atom_site_fract_x
_atom_site_fract_y
_atom_site_fract_z
Si Si1 0.346886 0.670372 0.721307
Si Si2 0.098176 0.675209 0.415444
Si Si3 0.680396 0.321197 0.748437
Si Si4 0.506534 0.330526 0.299962
Si Si5 0.991335 0.170028 0.871549
Si Si6 0.316943 0.175271 0.549034
Si Si7 0.861640 0.827532 0.103010
Si Si8 0.874473 0.324034 0.931390
O O1 0.327658 0.500000 0.722382
O O2 0.420185 0.673592 0.700960
O O3 0.318094 0.759375 0.643835
O O4 0.336928 0.744918 0.813191
O O5 0.105371 0.500000 0.430414
O O6 0.136895 0.718564 0.330609
O O7 0.027567 0.702421 0.388568
O O8 0.127801 0.758427 0.494203
O O9 0.750000 0.269167 0.735243
O O10 0.680910 0.500000 0.749708
O O11 0.655978 0.276373 0.841655
O O12 0.487899 0.500000 0.276699
O O13 0.484935 0.220061 0.226584
O O14 0.945391 0.272805 0.923947
O O15 0.063629 0.184657 0.891168
O O16 0.973825 0.000000 0.885503
O O17 0.250000 0.214294 0.509887
O O18 0.322170 0.000000 0.552591
O O19 0.845795 0.000000 0.104737
O O20 0.844615 0.751807 0.013859
O O21 0.870714 0.500000 0.939324
#
# Coordination Sequence:
#
# PCOD9400966 Si02
#       8
#     8   8   8   8   8   8   8   8
#     4  10  21  39  63  88 115 148 189 238 289 343
#     4  10  19  36  62  88 115 148 188 233 283 342
#     4   9  18  33  54  80 111 148 190 236 282 330
#     4   9  18  34  57  88 120 148 184 230 284 344
#     4  10  19  31  50  78 114 152 187 227 279 341
#     4  11  25  43  61  84 115 150 191 239 287 338
#     4  10  21  36  54  80 114 150 188 231 285 344
#     4  11  20  32  52  79 111 149 195 241 282 330
#
# _framework density 20.711003000000002
#
# number of rings (size 3 to 8) (size 9 to 14) (size 15 to 20)
#    0.000    2.000    1.250    2.625    0.000    6.000 
#    0.000    3.125    0.000    4.500    0.000    0.000 
#    0.000    0.000    0.000    0.000    0.000    0.000 
#
# Total GULP energy -357492.386371 kJ/mol
# GULP energy per Si atom -5585.818537 kJ/mol
# Density = 2.066386 g / cm^3
# Si number density = 20.711003 Si / 1000 Ang^3
#
#
#
# Elastic Constant Matrix: (Units=GPa)
#
#
# Indices 1 2 3 4 5 6 
#
# 1 31.0095 9.3446 2.0604 0.0000 0.0000 0.0000
# 2 9.3446 58.4706 28.4416 0.0000 0.0000 0.0000
# 3 2.0604 28.4416 98.4259 0.0000 0.0000 0.0000
# 4 0.0000 0.0000 0.0000 8.8407 0.0000 0.0000
# 5 0.0000 0.0000 0.0000 0.0000 13.4210 0.0000
# 6 0.0000 0.0000 0.0000 0.0000 0.0000 6.3852
#
#
#
# Elastic Compliance Matrix: (Units=1/GPa)
#
#
# Indices 1 2 3 4 5 6 
#
# 1 0.033964 -0.005913 0.000998 0.000000 0.000000 0.000000
# 2 -0.005913 0.020929 -0.005924 0.000000 0.000000 0.000000
# 3 0.000998 -0.005924 0.011851 0.000000 0.000000 0.000000
# 4 0.000000 0.000000 0.000000 0.113113 0.000000 0.000000
# 5 0.000000 0.000000 0.000000 0.000000 0.074510 0.000000
# 6 0.000000 0.000000 0.000000 0.000000 0.000000 0.156612
#
#
# Mechanical properties :
#
#
# Convention : Reuss Voigt Hill
#
# Bulk Modulus (GPa) = 22.19027 29.73325 25.96176
# Shear Modulus (GPa) = 11.16870 15.60002 13.38436
#
# Velocity S-wave (km/s) = 2.32473 2.74747 2.54489
# Velocity P-wave (km/s) = 4.23595 4.94492 4.60410
#
# Compressibility (1/GPa) = 0.04506480
#
# Stress axis : x y z
#
# Youngs Moduli (GPa) = 29.44306 47.78001 84.38194
#
# Poissons Ratio (x) = 0.28254 -0.08419
# Poissons Ratio (y) = 0.17411 0.49988
# Poissons Ratio (z) = -0.02938 0.28305
#
# Static dielectric constant tensor:
#      x y z
#    x 1.773150 0.000000 0.000000 
#    y 0.000000 1.692120 0.000000 
#    z 0.000000 0.000000 1.734810 
# 
# From -- ./inp_files/26357.got.cif
#   From: 2010.05.17/outbox.cif.g08.bks.cpg/sg51_14_cif.got.tgz:26357.got - 2010.06.03 11:52:47.
