data_PCOD9400965
_publ_section_title
;
Structure prediction by ZEFSAII (Michael W. Deem and Ramdas Pophale) SiO2 
 PCOD9400965
Probable space group: P M M A
;
_chemical_formula_sum "Si O2"
_cell_formula_units_Z 56
_cell_length_a 15.470789
_cell_length_b 13.688656
_cell_length_c 15.694895
_cell_angle_alpha 90.000000
_cell_angle_beta 90.000000
_cell_angle_gamma 90.000000
_cell_volume 3323.775538
_symmetry_space_group_name_H-M "P M M A"
_symmetry_group_IT_number 51
_symmetry_cell_setting 'orthorhombic'
loop_
_space_group_symop_operation_xyz
x,y,z
1/2-x,-y,z
1/2+x,-y,-z
-x,y,-z
-x,-y,-z
1/2+x,y,-z
1/2-x,y,z
x,-y,z
loop_
_atom_site_type_symbol
_atom_site_label
_atom_site_fract_x
_atom_site_fract_y
_atom_site_fract_z
Si Si1 0.101949 0.386485 0.187503
Si Si2 0.149998 0.254613 0.343342
Si Si3 0.146524 0.612302 0.999982
Si Si4 0.602002 0.386485 0.187560
Si Si5 0.000016 0.883803 0.397442
Si Si6 0.350001 0.745451 0.656611
Si Si7 0.645241 0.390728 0.500004
O O1 0.134459 0.500000 0.193442
O O2 0.143592 0.313662 0.255157
O O3 0.115987 0.348910 0.090980
O O4 0.999979 0.389108 0.204821
O O5 0.250000 0.226351 0.358478
O O6 0.121575 0.331417 0.416137
O O7 0.084038 0.165589 0.354492
O O8 0.250000 0.613090 0.000037
O O9 0.114723 0.500000 0.999957
O O10 0.116084 0.651096 0.908955
O O11 0.634508 0.500000 0.193519
O O12 0.643609 0.313658 0.255232
O O13 0.915968 0.834477 0.354483
O O14 0.000000 0.864120 0.500000
O O15 0.000049 0.000000 0.386441
O O16 0.250000 0.773720 0.641478
O O17 0.378444 0.668694 0.583787
O O18 0.750000 0.396299 0.499988
O O19 0.610594 0.500000 0.499956
#
# Coordination Sequence:
#
# PCOD9400965 Si02
#       7
#     8   8   8   8   8   8   8
#     4  10  19  31  50  78 114 152 187 221 260 312
#     4  11  21  36  56  80 108 142 182 220 268 324
#     4   9  17  29  45  71 109 152 191 223 257 301
#     4  10  19  31  50  78 114 152 187 221 260 312
#     4  11  24  42  60  79 104 135 179 234 287 329
#     4  11  21  36  56  80 108 142 182 220 268 324
#     4   9  18  31  49  76 111 145 176 210 250 308
#
# _framework density 16.848310000000001
#
# number of rings (size 3 to 8) (size 9 to 14) (size 15 to 20)
#    0.000    1.857    2.857    2.143    0.000    5.143 
#    0.000    2.143    0.000    0.000    0.000    2.000 
#    0.000    3.429    0.000    0.000    0.000    0.000 
#
# Total GULP energy -312363.723465 kJ/mol
# GULP energy per Si atom -5577.923633 kJ/mol
# Density = 1.680996 g / cm^3
# Si number density = 16.848310 Si / 1000 Ang^3
#
#
#
# Elastic Constant Matrix: (Units=GPa)
#
#
# Indices 1 2 3 4 5 6 
#
# 1 89.4233 43.0638 18.9440 0.0000 0.0000 0.0000
# 2 43.0638 93.8705 44.3550 0.0000 0.0000 0.0000
# 3 18.9440 44.3550 118.0105 0.0000 0.0000 0.0000
# 4 0.0000 0.0000 0.0000 1.5649 0.0000 0.0000
# 5 0.0000 0.0000 0.0000 0.0000 21.2580 0.0000
# 6 0.0000 0.0000 0.0000 0.0000 0.0000 14.7379
#
#
#
# Elastic Compliance Matrix: (Units=1/GPa)
#
#
# Indices 1 2 3 4 5 6 
#
# 1 0.014358 -0.006685 0.000208 0.000000 0.000000 0.000000
# 2 -0.006685 0.016066 -0.004965 0.000000 0.000000 0.000000
# 3 0.000208 -0.004965 0.010307 0.000000 0.000000 0.000000
# 4 0.000000 0.000000 0.000000 0.639030 0.000000 0.000000
# 5 0.000000 0.000000 0.000000 0.000000 0.047041 0.000000
# 6 0.000000 0.000000 0.000000 0.000000 0.000000 0.067852
#
#
# Mechanical properties :
#
#
# Convention : Reuss Voigt Hill
#
# Bulk Modulus (GPa) = 56.03661 57.11443 56.57552
# Shear Modulus (GPa) = 6.07173 20.50824 13.28999
#
# Velocity S-wave (km/s) = 1.90042 3.49267 2.81161
# Velocity P-wave (km/s) = 6.17634 7.08786 6.64774
#
# Compressibility (1/GPa) = 0.01784548
#
# Stress axis : x y z
#
# Youngs Moduli (GPa) = 69.64713 62.24325 97.02391
#
# Poissons Ratio (x) = 0.41610 -0.02016
# Poissons Ratio (y) = 0.46559 0.48176
# Poissons Ratio (z) = -0.01447 0.30906
#
# Static dielectric constant tensor:
#      x y z
#    x 1.597120 0.000000 0.000000 
#    y 0.000000 1.538470 0.000000 
#    z 0.000000 0.000000 1.586100 
# 
# From -- ./inp_files/24148.got.cif
#   From: 2010.05.17/outbox.cif.g08.bks.cpg/sg51_13_cif.got.tgz:24148.got - 2010.06.03 11:52:47.
