data_PCOD9400127
_publ_section_title
;
Structure prediction by ZEFSAII (Michael W. Deem and Ramdas Pophale) SiO2 
 PCOD9400127
Probable space group: P M M A
;
_chemical_formula_sum "Si O2"
_cell_formula_units_Z 48
_cell_length_a 27.207633
_cell_length_b 7.582768
_cell_length_c 12.391706
_cell_angle_alpha 90.000000
_cell_angle_beta 90.000000
_cell_angle_gamma 90.000000
_cell_volume 2556.522566
_symmetry_space_group_name_H-M "P M M A"
_symmetry_group_IT_number 51
_symmetry_cell_setting 'orthorhombic'
loop_
_space_group_symop_operation_xyz
x,y,z
1/2-x,-y,z
1/2+x,-y,-z
-x,y,-z
-x,-y,-z
1/2+x,y,-z
1/2-x,y,z
x,-y,z
loop_
_atom_site_type_symbol
_atom_site_label
_atom_site_fract_x
_atom_site_fract_y
_atom_site_fract_z
Si Si1 0.694485 0.288783 0.163887
Si Si2 0.959884 0.214171 0.159373
Si Si3 0.116953 0.787983 0.017555
Si Si4 0.568236 0.786914 0.775463
Si Si5 0.554851 0.708739 0.526987
Si Si6 0.881639 0.703978 0.338068
O O1 0.750000 0.220513 0.160303
O O2 0.696622 0.500000 0.176842
O O3 0.664217 0.259156 0.053602
O O4 0.662245 0.217916 0.264911
O O5 0.930485 0.269625 0.052756
O O6 0.928579 0.286803 0.258942
O O7 0.015971 0.267337 0.173047
O O8 0.958406 0.000000 0.163129
O O9 0.115640 0.000000 0.020361
O O10 0.110026 0.726079 0.140420
O O11 0.568319 0.728368 0.651961
O O12 0.569098 0.000000 0.772535
O O13 0.500000 0.780549 0.500000
O O14 0.552406 0.500000 0.502225
O O15 0.597467 0.783179 0.448893
O O16 0.868070 0.500000 0.358637
#
# Coordination Sequence:
#
# PCOD9400127 Si02
#       6
#     8   8   8   8   8   8
#     4   9  18  33  53  73  90 112 148 195 242 284
#     4   9  16  27  44  65  92 124 156 189 222 266
#     4   9  18  31  46  68  95 122 153 189 232 280
#     4  10  19  29  44  66  95 129 160 187 222 270
#     4  10  19  30  44  64  94 130 163 192 225 271
#     4   9  17  30  46  66  93 122 153 192 234 272
#
# _framework density 18.775504999999999
#
# number of rings (size 3 to 8) (size 9 to 14) (size 15 to 20)
#    0.000    2.667    1.667    0.500    0.000    4.000 
#    0.000    0.000    0.000    6.000    0.000    2.333 
#    0.000    0.000    0.000    0.000    0.000    0.000 
#
# Total GULP energy -267458.704169 kJ/mol
# GULP energy per Si atom -5572.056337 kJ/mol
# Density = 1.873277 g / cm^3
# Si number density = 18.775505 Si / 1000 Ang^3
#
#
#
# Elastic Constant Matrix: (Units=GPa)
#
#
# Indices 1 2 3 4 5 6 
#
# 1 120.0056 0.6873 81.2371 0.0000 0.0000 0.0000
# 2 0.6873 37.2015 2.0567 0.0000 0.0000 0.0000
# 3 81.2371 2.0567 154.7426 0.0000 0.0000 0.0000
# 4 0.0000 0.0000 0.0000 14.0627 0.0000 0.0000
# 5 0.0000 0.0000 0.0000 0.0000 7.3733 0.0000
# 6 0.0000 0.0000 0.0000 0.0000 0.0000 11.3535
#
#
#
# Elastic Compliance Matrix: (Units=1/GPa)
#
#
# Indices 1 2 3 4 5 6 
#
# 1 0.012928 0.000136 -0.006789 0.000000 0.000000 0.000000
# 2 0.000136 0.026902 -0.000429 0.000000 0.000000 0.000000
# 3 -0.006789 -0.000429 0.010032 0.000000 0.000000 0.000000
# 4 0.000000 0.000000 0.000000 0.071110 0.000000 0.000000
# 5 0.000000 0.000000 0.000000 0.000000 0.135624 0.000000
# 6 0.000000 0.000000 0.000000 0.000000 0.000000 0.088079
#
#
# Mechanical properties :
#
#
# Convention : Reuss Voigt Hill
#
# Bulk Modulus (GPa) = 28.01216 53.32354 40.66785
# Shear Modulus (GPa) = 13.48667 21.75580 17.62123
#
# Velocity S-wave (km/s) = 2.68304 3.40771 3.06686
# Velocity P-wave (km/s) = 4.95482 6.62914 5.85217
#
# Compressibility (1/GPa) = 0.03569878
#
# Stress axis : x y z
#
# Youngs Moduli (GPa) = 77.35338 37.17218 99.68151
#
# Poissons Ratio (x) = -0.00507 0.67670
# Poissons Ratio (y) = -0.01055 0.04278
# Poissons Ratio (z) = 0.52512 0.01595
#
# Static dielectric constant tensor:
#      x y z
#    x 1.647470 0.000000 0.000000 
#    y 0.000000 1.723790 0.000000 
#    z 0.000000 0.000000 1.676570 
# 
# From -- ./inp_files/11635.got.cif
#   From: 2010.05.17/outbox.cif.g08.bks.cpg/sg51_6_cif.got.tgz:11635.got - 2010.06.03 11:52:47.
