data_PCOD9400446
_publ_section_title
;
Structure prediction by ZEFSAII (Michael W. Deem and Ramdas Pophale) SiO2 
 PCOD9400446
Probable space group: P M M A
;
_chemical_formula_sum "Si O2"
_cell_formula_units_Z 64
_cell_length_a 17.714329
_cell_length_b 7.510398
_cell_length_c 22.769391
_cell_angle_alpha 90.000000
_cell_angle_beta 90.000000
_cell_angle_gamma 90.000000
_cell_volume 3029.277601
_symmetry_space_group_name_H-M "P M M A"
_symmetry_group_IT_number 51
_symmetry_cell_setting 'orthorhombic'
loop_
_space_group_symop_operation_xyz
x,y,z
1/2-x,-y,z
1/2+x,-y,-z
-x,y,-z
-x,-y,-z
1/2+x,y,-z
1/2-x,y,z
x,-y,z
loop_
_atom_site_type_symbol
_atom_site_label
_atom_site_fract_x
_atom_site_fract_y
_atom_site_fract_z
Si Si1 0.836165 0.204860 0.119339
Si Si2 0.525298 0.209588 0.437641
Si Si3 0.829542 0.214925 0.372597
Si Si4 0.968387 0.715517 0.685754
Si Si5 0.617440 0.705724 0.247902
Si Si6 0.165027 0.203870 0.101376
Si Si7 0.001463 0.207874 0.929894
Si Si8 0.167930 0.286143 0.236218
O O1 0.750000 0.278218 0.107681
O O2 0.849030 0.207513 0.189784
O O3 0.916444 0.279571 0.093039
O O4 0.833660 0.000000 0.098537
O O5 0.500000 0.285155 0.500000
O O6 0.602010 0.286856 0.410686
O O7 0.470476 0.226256 0.381748
O O8 0.539240 0.000000 0.447474
O O9 0.750000 0.259781 0.400277
O O10 0.832368 0.282847 0.306079
O O11 0.835990 0.000000 0.368378
O O12 0.972513 0.500000 0.685197
O O13 0.895348 0.775579 0.719947
O O14 0.039036 0.779188 0.725394
O O15 0.605713 0.500000 0.231491
O O16 0.250000 0.277051 0.084805
O O17 0.164324 0.204409 0.171857
O O18 0.082012 0.284270 0.086644
O O19 0.164116 0.000000 0.078600
O O20 0.000219 0.000000 0.909451
O O21 0.000000 0.212673 0.000000
O O22 0.250000 0.251239 0.261542
O O23 0.159798 0.500000 0.227873
#
# Coordination Sequence:
#
# PCOD9400446 Si02
#       8
#     8   8   8   8   8   8   8   8
#     4  10  20  32  47  69  96 125 155 186 225 277
#     4   9  18  32  48  66  89 119 155 190 224 265
#     4   9  17  30  48  68  91 120 152 186 224 267
#     4   9  18  31  47  68  92 120 154 189 227 272
#     4  10  19  30  47  71  97 122 149 186 231 276
#     4   9  17  29  48  73  95 116 149 194 237 274
#     4   9  18  32  49  69  93 122 157 195 231 268
#     4   9  17  30  48  69  94 122 150 183 227 279
#
# _framework density 21.127148999999999
#
# number of rings (size 3 to 8) (size 9 to 14) (size 15 to 20)
#    0.000    2.750    0.000    1.500    0.000    3.750 
#    0.000    3.125    0.000    2.250    0.000    1.750 
#    0.000    0.000    0.000    0.000    0.000    0.000 
#
# Total GULP energy -356288.884406 kJ/mol
# GULP energy per Si atom -5567.013819 kJ/mol
# Density = 2.107906 g / cm^3
# Si number density = 21.127149 Si / 1000 Ang^3
#
#
#
# Elastic Constant Matrix: (Units=GPa)
#
#
# Indices 1 2 3 4 5 6 
#
# 1 189.4375 9.4546 61.5227 0.0000 0.0000 0.0000
# 2 9.4546 51.8908 -1.8869 0.0000 0.0000 0.0000
# 3 61.5227 -1.8869 66.8923 0.0000 0.0000 0.0000
# 4 0.0000 0.0000 0.0000 2.0940 0.0000 0.0000
# 5 0.0000 0.0000 0.0000 0.0000 0.9882 0.0000
# 6 0.0000 0.0000 0.0000 0.0000 0.0000 0.9919
#
#
#
# Elastic Compliance Matrix: (Units=1/GPa)
#
#
# Indices 1 2 3 4 5 6 
#
# 1 0.007666 -0.001655 -0.007098 0.000000 0.000000 0.000000
# 2 -0.001655 0.019648 0.002076 0.000000 0.000000 0.000000
# 3 -0.007098 0.002076 0.021536 0.000000 0.000000 0.000000
# 4 0.000000 0.000000 0.000000 0.477556 0.000000 0.000000
# 5 0.000000 0.000000 0.000000 0.000000 1.011949 0.000000
# 6 0.000000 0.000000 0.000000 0.000000 0.000000 1.008189
#
#
# Mechanical properties :
#
#
# Convention : Reuss Voigt Hill
#
# Bulk Modulus (GPa) = 28.17059 49.60015 38.88537
# Shear Modulus (GPa) = 1.94422 16.75682 9.35052
#
# Velocity S-wave (km/s) = 0.96033 2.81933 2.10605
# Velocity P-wave (km/s) = 3.82001 5.84176 4.93551
#
# Compressibility (1/GPa) = 0.03549801
#
# Stress axis : x y z
#
# Youngs Moduli (GPa) = 130.43773 50.89509 46.43386
#
# Poissons Ratio (x) = 0.08423 0.32958
# Poissons Ratio (y) = 0.21587 -0.09641
# Poissons Ratio (z) = 0.92582 -0.10568
#
# Static dielectric constant tensor:
#      x y z
#    x 1.790770 0.000000 0.000000 
#    y 0.000000 1.814280 0.000000 
#    z 0.000000 0.000000 1.700640 
# 
# From -- ./inp_files/35820.got.cif
#   From: 2010.05.17/outbox.cif.g08.bks.cpg/sg51_18_cif.got.tgz:35820.got - 2010.06.03 11:52:47.
