data_PCOD9400004
_publ_section_title
;
Structure prediction by ZEFSAII (Michael W. Deem and Ramdas Pophale) SiO2 
 PCOD9400004
Probable space group: P M M A
;
_chemical_formula_sum "Si O2"
_cell_formula_units_Z 48
_cell_length_a 8.642967
_cell_length_b 24.959618
_cell_length_c 13.896297
_cell_angle_alpha 90.000000
_cell_angle_beta 90.000000
_cell_angle_gamma 90.000000
_cell_volume 2997.780820
_symmetry_space_group_name_H-M "P M M A"
_symmetry_group_IT_number 51
_symmetry_cell_setting 'orthorhombic'
loop_
_space_group_symop_operation_xyz
x,y,z
1/2-x,-y,z
1/2+x,-y,-z
-x,y,-z
-x,-y,-z
1/2+x,y,-z
1/2-x,y,z
x,-y,z
loop_
_atom_site_type_symbol
_atom_site_label
_atom_site_fract_x
_atom_site_fract_y
_atom_site_fract_z
Si Si1 0.064191 0.219527 0.295081
Si Si2 0.564632 0.441597 0.390878
Si Si3 0.435470 0.115540 0.603451
Si Si4 0.564105 0.168948 0.103916
Si Si5 0.064780 0.669074 0.391551
Si Si6 0.937932 0.940617 0.199828
O O1 0.250000 0.215792 0.294056
O O2 0.019700 0.278380 0.331866
O O3 0.998836 0.173918 0.366364
O O4 0.998526 0.205704 0.190053
O O5 0.500000 0.442415 0.500000
O O6 0.750000 0.437835 0.394302
O O7 0.523265 0.500000 0.347816
O O8 0.497174 0.386883 0.348347
O O9 0.500000 0.099538 0.500000
O O10 0.250000 0.117751 0.600064
O O11 0.480563 0.076219 0.691169
O O12 0.750000 0.170430 0.104403
O O13 0.512761 0.108140 0.131430
O O14 0.500000 0.183731 0.000000
O O15 0.250000 0.666443 0.397014
O O16 0.000000 0.674444 0.500000
O O17 0.750000 0.941555 0.196819
O O18 0.994706 0.000000 0.175295
#
# Coordination Sequence:
#
# PCOD9400004 Si02
#       6
#     8   8   8   8   8   8
#     4  10  20  33  48  67  91 117 151 191 228 270
#     4   9  16  25  38  57  84 120 158 192 223 256
#     4  10  19  30  46  66  90 122 154 185 224 266
#     4  10  20  34  53  72  91 116 143 178 227 276
#     4  10  19  28  42  64  90 123 157 190 225 261
#     4   8  16  31  48  67  91 117 147 182 219 264
#
# _framework density 16.011844
#
# number of rings (size 3 to 8) (size 9 to 14) (size 15 to 20)
#    0.000    2.500    0.000    5.000    0.000    5.667 
#    0.000    0.000    0.000   17.000    0.000    0.000 
#    0.000    0.667    0.000    2.167    0.000    3.500 
#
# Total GULP energy -267554.794091 kJ/mol
# GULP energy per Si atom -5574.058210 kJ/mol
# Density = 1.597540 g / cm^3
# Si number density = 16.011844 Si / 1000 Ang^3
#
#
#
# Elastic Constant Matrix: (Units=GPa)
#
#
# Indices 1 2 3 4 5 6 
#
# 1 43.5402 25.7530 13.4062 0.0000 0.0000 0.0000
# 2 25.7530 118.2137 17.1766 0.0000 0.0000 0.0000
# 3 13.4062 17.1766 57.3150 0.0000 0.0000 0.0000
# 4 0.0000 0.0000 0.0000 8.0088 0.0000 0.0000
# 5 0.0000 0.0000 0.0000 0.0000 21.3164 0.0000
# 6 0.0000 0.0000 0.0000 0.0000 0.0000 20.9591
#
#
#
# Elastic Compliance Matrix: (Units=1/GPa)
#
#
# Indices 1 2 3 4 5 6 
#
# 1 0.027604 -0.005307 -0.004866 0.000000 0.000000 0.000000
# 2 -0.005307 0.009864 -0.001715 0.000000 0.000000 0.000000
# 3 -0.004866 -0.001715 0.019100 0.000000 0.000000 0.000000
# 4 0.000000 0.000000 0.000000 0.124863 0.000000 0.000000
# 5 0.000000 0.000000 0.000000 0.000000 0.046912 0.000000
# 6 0.000000 0.000000 0.000000 0.000000 0.000000 0.047712
#
#
# Mechanical properties :
#
#
# Convention : Reuss Voigt Hill
#
# Bulk Modulus (GPa) = 30.49482 36.86006 33.67744
# Shear Modulus (GPa) = 16.08946 20.90573 18.49760
#
# Velocity S-wave (km/s) = 3.17337 3.61729 3.40258
# Velocity P-wave (km/s) = 5.70207 6.36528 6.04278
#
# Compressibility (1/GPa) = 0.03279245
#
# Stress axis : x y z
#
# Youngs Moduli (GPa) = 36.22612 101.37372 52.35686
#
# Poissons Ratio (x) = 0.53794 0.25479
# Poissons Ratio (y) = 0.19224 0.08979
# Poissons Ratio (z) = 0.17629 0.17386
#
# Static dielectric constant tensor:
#      x y z
#    x 1.536010 0.000000 0.000000 
#    y 0.000000 1.571040 0.000000 
#    z 0.000000 0.000000 1.504800 
# 
# From -- ./inp_files/21982.got.cif
#   From: 2010.05.17/outbox.cif.g08.bks.cpg/sg51_11_cif.got.tgz:21982.got - 2010.06.03 11:52:47.
