data_PCOD9400686
_publ_section_title
;
Structure prediction by ZEFSAII (Michael W. Deem and Ramdas Pophale) SiO2 
 PCOD9400686
Probable space group: P M M A
;
_chemical_formula_sum "Si O2"
_cell_formula_units_Z 64
_cell_length_a 30.093248
_cell_length_b 7.381318
_cell_length_c 14.203400
_cell_angle_alpha 90.000000
_cell_angle_beta 90.000000
_cell_angle_gamma 90.000000
_cell_volume 3154.970465
_symmetry_space_group_name_H-M "P M M A"
_symmetry_group_IT_number 51
_symmetry_cell_setting 'orthorhombic'
loop_
_space_group_symop_operation_xyz
x,y,z
1/2-x,-y,z
1/2+x,-y,-z
-x,y,-z
-x,-y,-z
1/2+x,y,-z
1/2-x,y,z
x,-y,z
loop_
_atom_site_type_symbol
_atom_site_label
_atom_site_fract_x
_atom_site_fract_y
_atom_site_fract_z
Si Si1 0.519802 0.211480 0.900326
Si Si2 0.884513 0.204914 0.851655
Si Si3 0.564627 0.281376 0.218732
Si Si4 0.863152 0.718954 0.060829
Si Si5 0.869369 0.719716 0.370996
Si Si6 0.700736 0.785006 0.743505
Si Si7 0.700208 0.717837 0.521028
Si Si8 0.201471 0.719835 0.787484
O O1 0.566374 0.290113 0.862630
O O2 0.483232 0.223451 0.818431
O O3 0.529298 0.000000 0.920713
O O4 0.500000 0.286054 0.000000
O O5 0.843693 0.288722 0.793187
O O6 0.890795 0.000000 0.813844
O O7 0.868671 0.199995 0.959301
O O8 0.565001 0.500000 0.220664
O O9 0.598251 0.227265 0.134358
O O10 0.584625 0.220509 0.319998
O O11 0.865072 0.500000 0.052389
O O12 0.817611 0.771142 0.111561
O O13 0.872913 0.500000 0.378042
O O14 0.843830 0.782413 0.465218
O O15 0.833300 0.769336 0.291856
O O16 0.750000 0.713706 0.771181
O O17 0.696910 0.760204 0.631283
O O18 0.701515 0.000000 0.763945
O O19 0.750000 0.780709 0.489018
O O20 0.700992 0.500000 0.509285
O O21 0.250000 0.788756 0.768406
O O22 0.202425 0.500000 0.785563
#
# Coordination Sequence:
#
# PCOD9400686 Si02
#       8
#     8   8   8   8   8   8   8   8
#     4  10  19  31  48  68  90 120 159 199 231 264
#     4  10  20  33  48  65  88 121 157 190 229 276
#     4   9  17  29  45  68  97 124 150 184 228 276
#     4   9  17  27  41  64  91 118 150 187 223 262
#     4   8  14  25  43  68  96 122 148 181 226 277
#     4   9  19  35  51  67  91 122 154 190 233 279
#     4   9  16  28  50  76  96 118 153 195 233 272
#     4   8  13  22  37  60  91 122 148 176 215 266
#
# _framework density 20.285450000000001
#
# number of rings (size 3 to 8) (size 9 to 14) (size 15 to 20)
#    0.000    3.000    1.250    1.875    0.000    3.250 
#    0.000    0.625    0.000    1.500    0.000    5.250 
#    0.000    0.000    0.000    0.000    0.000    0.000 
#
# Total GULP energy -356357.910336 kJ/mol
# GULP energy per Si atom -5568.092349 kJ/mol
# Density = 2.023928 g / cm^3
# Si number density = 20.285450 Si / 1000 Ang^3
#
#
#
# Elastic Constant Matrix: (Units=GPa)
#
#
# Indices 1 2 3 4 5 6 
#
# 1 151.9965 4.5162 64.5888 0.0000 0.0000 0.0000
# 2 4.5162 68.2729 -0.0898 0.0000 0.0000 0.0000
# 3 64.5888 -0.0898 70.6433 0.0000 0.0000 0.0000
# 4 0.0000 0.0000 0.0000 13.1530 0.0000 0.0000
# 5 0.0000 0.0000 0.0000 0.0000 12.6523 0.0000
# 6 0.0000 0.0000 0.0000 0.0000 0.0000 -175.5302
#
#
#
# Elastic Compliance Matrix: (Units=1/GPa)
#
#
# Indices 1 2 3 4 5 6 
#
# 1 0.010795 -0.000727 -0.009871 0.000000 0.000000 0.000000
# 2 -0.000727 0.014696 0.000683 0.000000 0.000000 0.000000
# 3 -0.009871 0.000683 0.023181 0.000000 0.000000 0.000000
# 4 0.000000 0.000000 0.000000 0.076028 0.000000 0.000000
# 5 0.000000 0.000000 0.000000 0.000000 0.079037 0.000000
# 6 0.000000 0.000000 0.000000 0.000000 0.000000 -0.005697
#
#
# Mechanical properties :
#
#
# Convention : Reuss Voigt Hill
#
# Bulk Modulus (GPa) = 34.66969 47.66032 41.16501
# Shear Modulus (GPa) = 21.97952 -15.15181 3.41385
#
# Velocity S-wave (km/s) = 3.29524 -2.73597 1.29868
# Velocity P-wave (km/s) = 5.62194 3.68309 4.75244
#
# Compressibility (1/GPa) = 0.02884363
#
# Stress axis : x y z
#
# Youngs Moduli (GPa) = 92.63367 68.04525 43.13799
#
# Poissons Ratio (x) = 0.04947 0.42581
# Poissons Ratio (y) = 0.06735 -0.02948
# Poissons Ratio (z) = 0.91438 -0.04651
#
# Static dielectric constant tensor:
#      x y z
#    x 1.767820 0.000000 0.000000 
#    y 0.000000 1.763590 0.000000 
#    z 0.000000 0.000000 1.693460 
# 
# From -- ./inp_files/19468.got.cif
#   From: 2010.05.17/outbox.cif.g08.bks.cpg/sg51_10_cif.got.tgz:19468.got - 2010.06.03 11:52:47.
