data_PCOD9400359
_publ_section_title
;
Structure prediction by ZEFSAII (Michael W. Deem and Ramdas Pophale) SiO2 
 PCOD9400359
Probable space group: P M M A
;
_chemical_formula_sum "Si O2"
_cell_formula_units_Z 48
_cell_length_a 18.853245
_cell_length_b 7.566374
_cell_length_c 17.111568
_cell_angle_alpha 90.000000
_cell_angle_beta 90.000000
_cell_angle_gamma 90.000000
_cell_volume 2440.977201
_symmetry_space_group_name_H-M "P M M A"
_symmetry_group_IT_number 51
_symmetry_cell_setting 'orthorhombic'
loop_
_space_group_symop_operation_xyz
x,y,z
1/2-x,-y,z
1/2+x,-y,-z
-x,y,-z
-x,-y,-z
1/2+x,y,-z
1/2-x,y,z
x,-y,z
loop_
_atom_site_type_symbol
_atom_site_label
_atom_site_fract_x
_atom_site_fract_y
_atom_site_fract_z
Si Si1 0.089072 0.708394 0.322467
Si Si2 0.830983 0.711682 0.526162
Si Si3 0.051847 0.203481 0.763887
Si Si4 0.169171 0.787181 0.649229
Si Si5 0.829549 0.786346 0.833773
Si Si6 0.527400 0.216701 0.915471
O O1 0.074483 0.500000 0.330397
O O2 0.120099 0.778490 0.403768
O O3 0.146456 0.733118 0.253397
O O4 0.016804 0.794121 0.292231
O O5 0.750000 0.780106 0.532195
O O6 0.827506 0.500000 0.535696
O O7 0.856816 0.747252 0.438473
O O8 0.117013 0.283037 0.715954
O O9 0.024341 0.279724 0.845805
O O10 0.070748 0.000000 0.780691
O O11 0.250000 0.721399 0.655828
O O12 0.170897 0.000000 0.655504
O O13 0.750000 0.723898 0.851455
O O14 0.892814 0.728159 0.891627
O O15 0.828905 0.000000 0.835761
O O16 0.527336 0.000000 0.914130
O O17 0.500000 0.272364 0.000000
#
# Coordination Sequence:
#
# PCOD9400359 Si02
#       6
#     8   8   8   8   8   8
#     4  10  19  30  46  68  93 121 154 190 228 272
#     4   9  18  31  45  63  89 120 153 189 227 266
#     4   9  18  32  48  67  92 120 151 188 230 275
#     4   9  18  32  48  65  87 118 155 191 226 266
#     4   9  17  29  46  69  96 124 154 188 228 275
#     4   8  14  27  47  68  91 119 148 181 223 269
#
# _framework density 19.664256000000002
#
# number of rings (size 3 to 8) (size 9 to 14) (size 15 to 20)
#    0.000    3.000    0.000    2.000    0.000    3.667 
#    0.000    5.833    0.000   13.000    0.000    0.000 
#    0.000    5.333    0.000    0.000    0.000    0.000 
#
# Total GULP energy -267631.106483 kJ/mol
# GULP energy per Si atom -5575.648052 kJ/mol
# Density = 1.961950 g / cm^3
# Si number density = 19.664256 Si / 1000 Ang^3
#
#
#
# Elastic Constant Matrix: (Units=GPa)
#
#
# Indices 1 2 3 4 5 6 
#
# 1 100.4847 -4.9956 100.6539 0.0000 0.0000 0.0000
# 2 -4.9956 46.9158 -2.6879 0.0000 0.0000 0.0000
# 3 100.6539 -2.6879 166.0439 0.0000 0.0000 0.0000
# 4 0.0000 0.0000 0.0000 31.2410 0.0000 0.0000
# 5 0.0000 0.0000 0.0000 0.0000 23.4498 0.0000
# 6 0.0000 0.0000 0.0000 0.0000 0.0000 -0.3570
#
#
#
# Elastic Compliance Matrix: (Units=1/GPa)
#
#
# Indices 1 2 3 4 5 6 
#
# 1 0.025492 0.001831 -0.015423 0.000000 0.000000 0.000000
# 2 0.001831 0.021466 -0.000762 0.000000 0.000000 0.000000
# 3 -0.015423 -0.000762 0.015360 0.000000 0.000000 0.000000
# 4 0.000000 0.000000 0.000000 0.032009 0.000000 0.000000
# 5 0.000000 0.000000 0.000000 0.000000 0.042644 0.000000
# 6 0.000000 0.000000 0.000000 0.000000 0.000000 -2.801340
#
#
# Mechanical properties :
#
#
# Convention : Reuss Voigt Hill
#
# Bulk Modulus (GPa) = 29.75482 55.48722 42.62102
# Shear Modulus (GPa) = -1.90516 25.56502 11.82993
#
# Velocity S-wave (km/s) = -0.98537 3.60957 2.45541
# Velocity P-wave (km/s) = 3.72420 6.75652 5.45528
#
# Compressibility (1/GPa) = 0.03360800
#
# Stress axis : x y z
#
# Youngs Moduli (GPa) = 39.22769 46.58519 65.10555
#
# Poissons Ratio (x) = -0.08529 1.00415
# Poissons Ratio (y) = -0.07182 0.04963
# Poissons Ratio (z) = 0.60503 0.03551
#
# Static dielectric constant tensor:
#      x y z
#    x 1.693610 0.000000 0.000000 
#    y 0.000000 1.731610 0.000000 
#    z 0.000000 0.000000 1.669800 
# 
# From -- ./inp_files/25501.got.cif
#   From: 2010.05.17/outbox.cif.g08.bks.cpg/sg51_13_cif.got.tgz:25501.got - 2010.06.03 11:52:47.
