data_PCOD9400070
_publ_section_title
;
Structure prediction by ZEFSAII (Michael W. Deem and Ramdas Pophale) SiO2 
 PCOD9400070
Probable space group: P M M A
;
_chemical_formula_sum "Si O2"
_cell_formula_units_Z 48
_cell_length_a 9.100347
_cell_length_b 13.890046
_cell_length_c 24.395268
_cell_angle_alpha 90.000000
_cell_angle_beta 90.000000
_cell_angle_gamma 90.000000
_cell_volume 3083.665273
_symmetry_space_group_name_H-M "P M M A"
_symmetry_group_IT_number 51
_symmetry_cell_setting 'orthorhombic'
loop_
_space_group_symop_operation_xyz
x,y,z
1/2-x,-y,z
1/2+x,-y,-z
-x,y,-z
-x,-y,-z
1/2+x,y,-z
1/2-x,y,z
x,-y,z
loop_
_atom_site_type_symbol
_atom_site_label
_atom_site_fract_x
_atom_site_fract_y
_atom_site_fract_z
Si Si1 0.425387 0.391438 0.619049
Si Si2 0.925030 0.108580 0.662330
Si Si3 0.074519 0.301619 0.275706
Si Si4 0.574881 0.802512 0.442503
Si Si5 0.080547 0.382863 0.055460
Si Si6 0.424329 0.615255 0.831464
O O1 0.250000 0.385803 0.630130
O O2 0.459445 0.500000 0.600905
O O3 0.510883 0.366159 0.674732
O O4 0.459536 0.307975 0.575376
O O5 0.750000 0.115387 0.651061
O O6 0.959150 0.191768 0.706235
O O7 0.011290 0.133543 0.606828
O O8 0.957613 0.000000 0.680508
O O9 0.250000 0.313256 0.272044
O O10 0.999321 0.331863 0.219361
O O11 0.500000 0.825394 0.500000
O O12 0.750000 0.813089 0.446221
O O13 0.250000 0.351984 0.056686
O O14 0.079753 0.500000 0.054351
O O15 0.995897 0.354997 0.110732
O O16 0.000000 0.350457 0.000000
O O17 0.250000 0.631787 0.832196
O O18 0.448089 0.500000 0.824997
#
# Coordination Sequence:
#
# PCOD9400070 Si02
#       6
#     8   8   8   8   8   8
#     4   9  18  32  47  63  87 119 149 177 213 257
#     4   9  19  36  54  69  87 112 141 177 224 273
#     4  10  19  30  46  68  90 112 144 185 224 264
#     4  10  20  33  49  69  91 114 143 178 215 259
#     4   9  16  26  40  59  86 121 160 197 228 258
#     4  10  19  29  42  62  91 127 160 187 218 257
#
# _framework density 15.565892
#
# number of rings (size 3 to 8) (size 9 to 14) (size 15 to 20)
#    0.000    2.500    0.000    2.500    0.000    7.667 
#    0.000    0.000    0.000    0.000    0.000    0.000 
#    0.000    0.667    0.000    1.833    0.000    2.667 
#
# Total GULP energy -267679.679467 kJ/mol
# GULP energy per Si atom -5576.659989 kJ/mol
# Density = 1.553046 g / cm^3
# Si number density = 15.565892 Si / 1000 Ang^3
#
#
#
# Elastic Constant Matrix: (Units=GPa)
#
#
# Indices 1 2 3 4 5 6 
#
# 1 63.3471 23.2664 54.1693 0.0000 0.0000 0.0000
# 2 23.2664 47.3949 10.4422 0.0000 0.0000 0.0000
# 3 54.1693 10.4422 107.0042 0.0000 0.0000 0.0000
# 4 0.0000 0.0000 0.0000 9.3840 0.0000 0.0000
# 5 0.0000 0.0000 0.0000 0.0000 29.9187 0.0000
# 6 0.0000 0.0000 0.0000 0.0000 0.0000 16.1570
#
#
#
# Elastic Compliance Matrix: (Units=1/GPa)
#
#
# Indices 1 2 3 4 5 6 
#
# 1 0.034538 -0.013391 -0.016178 0.000000 0.000000 0.000000
# 2 -0.013391 0.026754 0.004168 0.000000 0.000000 0.000000
# 3 -0.016178 0.004168 0.017128 0.000000 0.000000 0.000000
# 4 0.000000 0.000000 0.000000 0.106564 0.000000 0.000000
# 5 0.000000 0.000000 0.000000 0.000000 0.033424 0.000000
# 6 0.000000 0.000000 0.000000 0.000000 0.000000 0.061893
#
#
# Mechanical properties :
#
#
# Convention : Reuss Voigt Hill
#
# Bulk Modulus (GPa) = 36.20525 43.72245 39.96385
# Shear Modulus (GPa) = 14.69254 19.74982 17.22118
#
# Velocity S-wave (km/s) = 3.07562 3.56587 3.32978
# Velocity P-wave (km/s) = 5.99353 6.71591 6.36498
#
# Compressibility (1/GPa) = 0.02762030
#
# Stress axis : x y z
#
# Youngs Moduli (GPa) = 28.95369 37.37690 58.38273
#
# Poissons Ratio (x) = 0.50050 0.94449
# Poissons Ratio (y) = 0.38771 -0.24333
# Poissons Ratio (z) = 0.46840 -0.15578
#
# Static dielectric constant tensor:
#      x y z
#    x 1.518000 0.000000 0.000000 
#    y 0.000000 1.517090 0.000000 
#    z 0.000000 0.000000 1.489280 
# 
# From -- ./inp_files/31573.got.cif
#   From: 2010.05.17/outbox.cif.g08.bks.cpg/sg51_16_cif.got.tgz:31573.got - 2010.06.03 11:52:47.
