data_PCOD9400107
_publ_section_title
;
Structure prediction by ZEFSAII (Michael W. Deem and Ramdas Pophale) SiO2 
 PCOD9400107
Probable space group: P M M A
;
_chemical_formula_sum "Si O2"
_cell_formula_units_Z 64
_cell_length_a 17.605523
_cell_length_b 13.598960
_cell_length_c 15.311495
_cell_angle_alpha 90.000000
_cell_angle_beta 90.000000
_cell_angle_gamma 90.000000
_cell_volume 3665.829183
_symmetry_space_group_name_H-M "P M M A"
_symmetry_group_IT_number 51
_symmetry_cell_setting 'orthorhombic'
loop_
_space_group_symop_operation_xyz
x,y,z
1/2-x,-y,z
1/2+x,-y,-z
-x,y,-z
-x,-y,-z
1/2+x,y,-z
1/2-x,y,z
x,-y,z
loop_
_atom_site_type_symbol
_atom_site_label
_atom_site_fract_x
_atom_site_fract_y
_atom_site_fract_z
Si Si1 0.070367 0.114550 0.181989
Si Si2 0.163024 0.686854 0.791697
Si Si3 0.163580 0.118264 0.352242
Si Si4 0.836373 0.886821 0.990211
Si Si5 0.546036 0.256091 0.083666
Si Si6 0.912603 0.196002 0.474338
Si Si7 0.160787 0.612213 0.597198
Si Si8 0.838444 0.109802 0.305404
O O1 0.104592 0.143285 0.275345
O O2 0.009229 0.191935 0.145889
O O3 0.042749 0.000000 0.184726
O O4 0.138333 0.115448 0.110923
O O5 0.250000 0.671783 0.822103
O O6 0.097017 0.668645 0.861130
O O7 0.152960 0.628147 0.701475
O O8 0.154350 0.802012 0.763409
O O9 0.250000 0.148511 0.331018
O O10 0.137467 0.161814 0.443982
O O11 0.162840 0.000000 0.358802
O O12 0.750000 0.854245 0.001542
O O13 0.894576 0.820416 0.041979
O O14 0.842483 0.000000 0.019181
O O15 0.500000 0.296545 0.000000
O O16 0.890556 0.307513 0.449953
O O17 0.890669 0.133241 0.388483
O O18 0.000000 0.185125 0.500000
O O19 0.250000 0.632425 0.577860
O O20 0.143817 0.500000 0.574102
O O21 0.750000 0.113823 0.334938
O O22 0.852969 0.000000 0.271266
#
# Coordination Sequence:
#
# PCOD9400107 Si02
#       8
#     8   8   8   8   8   8   8   8
#     4   9  18  29  42  61  89 129 175 214 237 265
#     4   9  18  32  51  74  98 126 163 204 244 294
#     4  10  20  33  48  66  95 139 181 209 233 273
#     4   9  16  27  42  60  87 126 171 209 241 279
#     4  10  19  29  43  66  97 128 154 199 250 299
#     4  11  22  32  48  75 104 129 158 203 248 297
#     4   9  19  38  61  78  95 123 158 200 249 297
#     4   9  18  32  48  67  97 137 175 210 246 284
#
# _framework density 17.458532999999999
#
# number of rings (size 3 to 8) (size 9 to 14) (size 15 to 20)
#    0.000    2.500    0.000    3.375    3.500    6.250 
#    0.000    1.250    0.000    0.375    0.000    0.000 
#    0.000    0.000    0.000    0.000    0.000    0.000 
#
# Total GULP energy -357021.441150 kJ/mol
# GULP energy per Si atom -5578.460018 kJ/mol
# Density = 1.741880 g / cm^3
# Si number density = 17.458533 Si / 1000 Ang^3
#
#
#
# Elastic Constant Matrix: (Units=GPa)
#
#
# Indices 1 2 3 4 5 6 
#
# 1 82.5698 -2.9812 24.8159 0.0000 0.0000 0.0000
# 2 -2.9812 17.2552 -12.0069 0.0000 0.0000 0.0000
# 3 24.8159 -12.0069 53.9360 0.0000 0.0000 0.0000
# 4 0.0000 0.0000 0.0000 7.0151 0.0000 0.0000
# 5 0.0000 0.0000 0.0000 0.0000 26.3722 0.0000
# 6 0.0000 0.0000 0.0000 0.0000 0.0000 11.4545
#
#
#
# Elastic Compliance Matrix: (Units=1/GPa)
#
#
# Indices 1 2 3 4 5 6 
#
# 1 0.014143 -0.002466 -0.007056 0.000000 0.000000 0.000000
# 2 -0.002466 0.069006 0.016497 0.000000 0.000000 0.000000
# 3 -0.007056 0.016497 0.025459 0.000000 0.000000 0.000000
# 4 0.000000 0.000000 0.000000 0.142550 0.000000 0.000000
# 5 0.000000 0.000000 0.000000 0.000000 0.037919 0.000000
# 6 0.000000 0.000000 0.000000 0.000000 0.000000 0.087302
#
#
# Mechanical properties :
#
#
# Convention : Reuss Voigt Hill
#
# Bulk Modulus (GPa) = 8.15952 19.26852 13.71402
# Shear Modulus (GPa) = 12.39824 18.56389 15.48106
#
# Velocity S-wave (km/s) = 2.66776 3.26439 2.98104
# Velocity P-wave (km/s) = 3.76471 5.02683 4.44084
#
# Compressibility (1/GPa) = 0.12255615
#
# Stress axis : x y z
#
# Youngs Moduli (GPa) = 70.70847 14.49145 39.27832
#
# Poissons Ratio (x) = 0.03574 0.27715
# Poissons Ratio (y) = 0.17440 -0.64795
# Poissons Ratio (z) = 0.49892 -0.23906
#
# Static dielectric constant tensor:
#      x y z
#    x 1.612210 0.000000 0.000000 
#    y 0.000000 1.571180 0.000000 
#    z 0.000000 0.000000 1.609860 
# 
# From -- ./inp_files/25338.got.cif
#   From: 2010.05.17/outbox.cif.g08.bks.cpg/sg51_13_cif.got.tgz:25338.got - 2010.06.03 11:52:47.
