data_PCOD9400432
_publ_section_title
;
Structure prediction by ZEFSAII (Michael W. Deem and Ramdas Pophale) SiO2 
 PCOD9400432
Probable space group: P M M A
;
_chemical_formula_sum "Si O2"
_cell_formula_units_Z 48
_cell_length_a 25.777397
_cell_length_b 9.152023
_cell_length_c 12.879058
_cell_angle_alpha 90.000000
_cell_angle_beta 90.000000
_cell_angle_gamma 90.000000
_cell_volume 3038.367221
_symmetry_space_group_name_H-M "P M M A"
_symmetry_group_IT_number 51
_symmetry_cell_setting 'orthorhombic'
loop_
_space_group_symop_operation_xyz
x,y,z
1/2-x,-y,z
1/2+x,-y,-z
-x,y,-z
-x,-y,-z
1/2+x,y,-z
1/2-x,y,z
x,-y,z
loop_
_atom_site_type_symbol
_atom_site_label
_atom_site_fract_x
_atom_site_fract_y
_atom_site_fract_z
Si Si1 0.390602 0.825651 0.113616
Si Si2 0.496861 0.667885 0.125929
Si Si3 0.102981 0.824582 0.868910
Si Si4 0.809470 0.178022 0.293184
Si Si5 0.188239 0.673010 0.265602
Si Si6 0.812951 0.167881 0.523961
O O1 0.444846 0.756278 0.151607
O O2 0.344007 0.755582 0.177856
O O3 0.391511 0.000000 0.126169
O O4 0.385825 0.793664 0.990308
O O5 0.493735 0.500000 0.160542
O O6 0.549539 0.745846 0.161604
O O7 0.500000 0.667985 0.000000
O O8 0.150500 0.778089 0.795776
O O9 0.096327 0.000000 0.859785
O O10 0.750000 0.227165 0.275734
O O11 0.827774 0.221412 0.408901
O O12 0.808068 0.000000 0.294575
O O13 0.250000 0.700093 0.254186
O O14 0.179513 0.500000 0.259506
O O15 0.171948 0.734232 0.378527
O O16 0.750000 0.164764 0.521426
O O17 0.830456 0.000000 0.538789
#
# Coordination Sequence:
#
# PCOD9400432 Si02
#       6
#     8   8   8   8   8   8
#     4  10  19  30  47  70  94 121 155 192 227 268
#     4   9  17  30  47  65  89 122 157 190 226 270
#     4   9  17  29  47  71  96 121 152 189 227 270
#     4   8  14  26  46  71  96 121 149 184 226 269
#     4  10  20  32  46  66  94 125 154 187 229 273
#     4   8  14  27  47  67  87 116 155 190 219 261
#
# _framework density 15.797959000000001
#
# number of rings (size 3 to 8) (size 9 to 14) (size 15 to 20)
#    0.000    3.000    0.000    2.500    0.000    4.333 
#    0.000    2.500    0.000    2.500    0.000    7.000 
#    0.000    0.000    0.000    0.000    0.000    0.000 
#
# Total GULP energy -267307.076826 kJ/mol
# GULP energy per Si atom -5568.897434 kJ/mol
# Density = 1.576200 g / cm^3
# Si number density = 15.797959 Si / 1000 Ang^3
#
#
#
# Elastic Constant Matrix: (Units=GPa)
#
#
# Indices 1 2 3 4 5 6 
#
# 1 87.5943 56.2749 62.0619 0.0000 0.0000 0.0000
# 2 56.2749 65.0040 54.6220 0.0000 0.0000 0.0000
# 3 62.0619 54.6220 89.1003 0.0000 0.0000 0.0000
# 4 0.0000 0.0000 0.0000 12.0403 0.0000 0.0000
# 5 0.0000 0.0000 0.0000 0.0000 -2.7894 0.0000
# 6 0.0000 0.0000 0.0000 0.0000 0.0000 23.4925
#
#
#
# Elastic Compliance Matrix: (Units=1/GPa)
#
#
# Indices 1 2 3 4 5 6 
#
# 1 0.029565 -0.017099 -0.010111 0.000000 0.000000 0.000000
# 2 -0.017099 0.041616 -0.013602 0.000000 0.000000 0.000000
# 3 -0.010111 -0.013602 0.026605 0.000000 0.000000 0.000000
# 4 0.000000 0.000000 0.000000 0.083054 0.000000 0.000000
# 5 0.000000 0.000000 0.000000 0.000000 -0.358504 0.000000
# 6 0.000000 0.000000 0.000000 0.000000 0.000000 0.042567
#
#
# Mechanical properties :
#
#
# Convention : Reuss Voigt Hill
#
# Bulk Modulus (GPa) = 61.87449 65.29068 63.58259
# Shear Modulus (GPa) = -103.98454 11.13135 -46.42659
#
# Velocity S-wave (km/s) = -8.12185 2.65732 -5.42692
# Velocity P-wave (km/s) = 6.97864 7.12976 1.03249
#
# Compressibility (1/GPa) = 0.01616175
#
# Stress axis : x y z
#
# Youngs Moduli (GPa) = 33.82344 24.02900 37.58705
#
# Poissons Ratio (x) = 0.41087 0.38005
# Poissons Ratio (y) = 0.57834 0.51128
# Poissons Ratio (z) = 0.34199 0.32685
#
# Static dielectric constant tensor:
#      x y z
#    x 1.512070 0.000000 0.000000 
#    y 0.000000 1.526220 0.000000 
#    z 0.000000 0.000000 1.528340 
# 
# From -- ./inp_files/18587.got.cif
#   From: 2010.05.17/outbox.cif.g08.bks.cpg/sg51_10_cif.got.tgz:18587.got - 2010.06.03 11:52:47.
