data_PCOD9400819
_publ_section_title
;
Structure prediction by ZEFSAII (Michael W. Deem and Ramdas Pophale) SiO2 
 PCOD9400819
Probable space group: P M M A
;
_chemical_formula_sum "Si O2"
_cell_formula_units_Z 52
_cell_length_a 8.823034
_cell_length_b 23.244327
_cell_length_c 16.027164
_cell_angle_alpha 90.000000
_cell_angle_beta 90.000000
_cell_angle_gamma 90.000000
_cell_volume 3286.938741
_symmetry_space_group_name_H-M "P M M A"
_symmetry_group_IT_number 51
_symmetry_cell_setting 'orthorhombic'
loop_
_space_group_symop_operation_xyz
x,y,z
1/2-x,-y,z
1/2+x,-y,-z
-x,y,-z
-x,-y,-z
1/2+x,y,-z
1/2-x,y,z
x,-y,z
loop_
_atom_site_type_symbol
_atom_site_label
_atom_site_fract_x
_atom_site_fract_y
_atom_site_fract_z
Si Si1 0.932404 0.061561 0.407176
Si Si2 0.075415 0.564591 0.885113
Si Si3 0.429068 0.500000 0.410246
Si Si4 0.430636 0.688289 0.085580
Si Si5 0.066920 0.809800 0.594578
Si Si6 0.076033 0.400448 0.693990
Si Si7 0.431843 0.278625 0.270854
O O1 0.750000 0.061545 0.411684
O O2 0.975074 0.124997 0.375886
O O3 0.000000 0.060199 0.500000
O O4 0.978051 0.000000 0.366633
O O5 0.250000 0.569771 0.915405
O O6 0.019237 0.500000 0.906034
O O7 0.079657 0.570500 0.785154
O O8 0.982294 0.621134 0.910287
O O9 0.250000 0.500000 0.411810
O O10 0.500000 0.500000 0.500000
O O11 0.490867 0.555987 0.364651
O O12 0.250000 0.690048 0.081539
O O13 0.477837 0.720261 0.171935
O O14 0.500000 0.712471 0.000000
O O15 0.250000 0.805085 0.589005
O O16 0.000000 0.800899 0.500000
O O17 0.004574 0.766827 0.665183
O O18 0.250000 0.390624 0.668047
O O19 0.987047 0.341021 0.699177
O O20 0.250000 0.273679 0.274107
#
# Coordination Sequence:
#
# PCOD9400819 Si02
#       7
#     8   8   4   8   8   8   8
#     4   8  14  25  42  66  97 131 166 200 234 274
#     4   9  17  31  51  71  91 115 141 176 226 285
#     4  12  24  36  50  68  89 114 149 194 242 292
#     4  10  21  35  51  71  94 122 155 195 241 292
#     4  10  19  31  49  73 101 136 171 204 240 280
#     4  10  19  35  53  69  88 114 150 191 238 288
#     4  10  21  36  52  73  98 127 162 202 246 290
#
# _framework density 15.820192
#
# number of rings (size 3 to 8) (size 9 to 14) (size 15 to 20)
#    0.000    2.308    0.769    2.538    0.000    4.308 
#    0.000    3.077    0.000    0.000    0.000    0.000 
#    0.000    0.615    0.000    1.385    0.000    2.462 
#
# Total GULP energy -289564.221930 kJ/mol
# GULP energy per Si atom -5568.542729 kJ/mol
# Density = 1.578418 g / cm^3
# Si number density = 15.820192 Si / 1000 Ang^3
#
#
#
# Elastic Constant Matrix: (Units=GPa)
#
#
# Indices 1 2 3 4 5 6 
#
# 1 47.4505 20.6617 45.9971 0.0000 0.0000 0.0000
# 2 20.6617 113.8647 63.3036 0.0000 0.0000 0.0000
# 3 45.9971 63.3036 108.2679 0.0000 0.0000 0.0000
# 4 0.0000 0.0000 0.0000 -335.2283 0.0000 0.0000
# 5 0.0000 0.0000 0.0000 0.0000 23.6765 0.0000
# 6 0.0000 0.0000 0.0000 0.0000 0.0000 12.1959
#
#
#
# Elastic Compliance Matrix: (Units=1/GPa)
#
#
# Indices 1 2 3 4 5 6 
#
# 1 0.036492 0.002959 -0.017234 0.000000 0.000000 0.000000
# 2 0.002959 0.013252 -0.009006 0.000000 0.000000 0.000000
# 3 -0.017234 -0.009006 0.021824 0.000000 0.000000 0.000000
# 4 0.000000 0.000000 0.000000 -0.002983 0.000000 0.000000
# 5 0.000000 0.000000 0.000000 0.000000 0.042236 0.000000
# 6 0.000000 0.000000 0.000000 0.000000 0.000000 0.081995
#
#
# Mechanical properties :
#
#
# Convention : Reuss Voigt Hill
#
# Bulk Modulus (GPa) = 39.98805 58.83420 49.41113
# Shear Modulus (GPa) = 20.18478 -50.56313 -15.18917
#
# Velocity S-wave (km/s) = 3.57583 -5.65955 -3.10193
# Velocity P-wave (km/s) = 6.51001 2.33181 4.29784
#
# Compressibility (1/GPa) = 0.02500747
#
# Stress axis : x y z
#
# Youngs Moduli (GPa) = 27.40341 75.45960 45.82188
#
# Poissons Ratio (x) = -0.22332 0.78968
# Poissons Ratio (y) = -0.08110 0.41266
# Poissons Ratio (z) = 0.47226 0.67957
#
# Static dielectric constant tensor:
#      x y z
#    x 1.537650 0.000000 0.000000 
#    y 0.000000 1.540860 0.000000 
#    z 0.000000 0.000000 1.532350 
# 
# From -- ./inp_files/21645.got.cif
#   From: 2010.05.17/outbox.cif.g08.bks.cpg/sg51_11_cif.got.tgz:21645.got - 2010.06.03 11:52:47.
