data_PCOD9400971
_publ_section_title
;
Structure prediction by ZEFSAII (Michael W. Deem and Ramdas Pophale) SiO2 
 PCOD9400971
Probable space group: P M M A
;
_chemical_formula_sum "Si O2"
_cell_formula_units_Z 56
_cell_length_a 14.938517
_cell_length_b 9.790445
_cell_length_c 18.379615
_cell_angle_alpha 90.000000
_cell_angle_beta 90.000000
_cell_angle_gamma 90.000000
_cell_volume 2688.105612
_symmetry_space_group_name_H-M "P M M A"
_symmetry_group_IT_number 51
_symmetry_cell_setting 'orthorhombic'
loop_
_space_group_symop_operation_xyz
x,y,z
1/2-x,-y,z
1/2+x,-y,-z
-x,y,-z
-x,-y,-z
1/2+x,y,-z
1/2-x,y,z
x,-y,z
loop_
_atom_site_type_symbol
_atom_site_label
_atom_site_fract_x
_atom_site_fract_y
_atom_site_fract_z
Si Si1 0.920266 0.162556 0.341564
Si Si2 0.640071 0.845751 0.914593
Si Si3 0.859191 0.344669 0.046553
Si Si4 0.903000 0.660444 0.628472
Si Si5 0.890155 0.153864 0.500516
Si Si6 0.142701 0.345608 0.788693
Si Si7 0.853523 0.648193 0.792279
O O1 0.863968 0.177510 0.416580
O O2 0.880579 0.231048 0.269835
O O3 0.007983 0.252747 0.356367
O O4 0.937936 0.000000 0.333674
O O5 0.750000 0.850838 0.914898
O O6 0.609056 0.768609 0.841455
O O7 0.607670 0.000000 0.916917
O O8 0.611621 0.759199 0.984636
O O9 0.750000 0.341592 0.046661
O O10 0.885255 0.500000 0.028380
O O11 0.888669 0.314827 0.129112
O O12 0.918756 0.500000 0.613318
O O13 0.860018 0.734395 0.558746
O O14 0.854274 0.670140 0.705970
O O15 0.000000 0.155394 0.500000
O O16 0.863927 0.000000 0.522214
O O17 0.250000 0.352581 0.791978
O O18 0.111242 0.500000 0.767949
O O19 0.750000 0.638258 0.814472
O O20 0.896398 0.500000 0.806760
#
# Coordination Sequence:
#
# PCOD9400971 Si02
#       7
#     8   8   8   8   8   8   8
#     4  10  20  33  50  71  97 128 158 192 237 287
#     4   9  16  25  41  67  94 121 156 193 227 270
#     4   8  14  26  44  65  91 123 155 189 231 274
#     4  10  19  31  51  74  93 120 160 201 238 279
#     4   8  16  31  48  67  92 122 157 195 234 278
#     4   9  18  32  50  73  99 126 159 198 236 276
#     4   9  18  32  48  68  96 126 155 191 237 284
#
# _framework density 20.832514
#
# number of rings (size 3 to 8) (size 9 to 14) (size 15 to 20)
#    0.000    3.000    0.000    3.000    0.000    6.857 
#    0.000    2.143    0.000    3.429    0.000    6.000 
#    0.000    0.000    0.000    0.000    0.000    0.000 
#
# Total GULP energy -312159.322696 kJ/mol
# GULP energy per Si atom -5574.273620 kJ/mol
# Density = 2.078510 g / cm^3
# Si number density = 20.832514 Si / 1000 Ang^3
#
#
#
# Elastic Constant Matrix: (Units=GPa)
#
#
# Indices 1 2 3 4 5 6 
#
# 1 34.7529 15.9123 -2.2563 0.0000 0.0000 0.0000
# 2 15.9123 203.6292 133.7711 0.0000 0.0000 0.0000
# 3 -2.2563 133.7711 139.2167 0.0000 0.0000 0.0000
# 4 0.0000 0.0000 0.0000 70.9995 0.0000 0.0000
# 5 0.0000 0.0000 0.0000 0.0000 15.5854 0.0000
# 6 0.0000 0.0000 0.0000 0.0000 0.0000 1.1624
#
#
#
# Elastic Compliance Matrix: (Units=1/GPa)
#
#
# Indices 1 2 3 4 5 6 
#
# 1 0.032935 -0.007930 0.008154 0.000000 0.000000 0.000000
# 2 -0.007930 0.015227 -0.014760 0.000000 0.000000 0.000000
# 3 0.008154 -0.014760 0.021497 0.000000 0.000000 0.000000
# 4 0.000000 0.000000 0.000000 0.014085 0.000000 0.000000
# 5 0.000000 0.000000 0.000000 0.000000 0.064162 0.000000
# 6 0.000000 0.000000 0.000000 0.000000 0.000000 0.860298
#
#
# Mechanical properties :
#
#
# Convention : Reuss Voigt Hill
#
# Bulk Modulus (GPa) = 24.63844 74.71701 49.67772
# Shear Modulus (GPa) = 4.75826 32.89425 18.82625
#
# Velocity S-wave (km/s) = 1.51295 3.97796 3.00941
# Velocity P-wave (km/s) = 3.86065 7.55263 5.99779
#
# Compressibility (1/GPa) = 0.04058698
#
# Stress axis : x y z
#
# Youngs Moduli (GPa) = 30.36295 65.67448 46.51727
#
# Poissons Ratio (x) = 0.52080 -0.37928
# Poissons Ratio (y) = 0.24078 0.68657
# Poissons Ratio (z) = -0.24757 0.96932
#
# Static dielectric constant tensor:
#      x y z
#    x 1.814680 0.000000 0.000000 
#    y 0.000000 1.725270 0.000000 
#    z 0.000000 0.000000 1.767760 
# 
# From -- ./inp_files/25659.got.cif
#   From: 2010.05.17/outbox.cif.g08.bks.cpg/sg51_13_cif.got.tgz:25659.got - 2010.06.03 11:52:47.
