data_PCOD9400343
_publ_section_title
;
Structure prediction by ZEFSAII (Michael W. Deem and Ramdas Pophale) SiO2 
 PCOD9400343
Probable space group: P M M A
;
_chemical_formula_sum "Si O2"
_cell_formula_units_Z 60
_cell_length_a 8.914612
_cell_length_b 17.137902
_cell_length_c 23.812842
_cell_angle_alpha 90.000000
_cell_angle_beta 90.000000
_cell_angle_gamma 90.000000
_cell_volume 3638.072346
_symmetry_space_group_name_H-M "P M M A"
_symmetry_group_IT_number 51
_symmetry_cell_setting 'orthorhombic'
loop_
_space_group_symop_operation_xyz
x,y,z
1/2-x,-y,z
1/2+x,-y,-z
-x,y,-z
-x,-y,-z
1/2+x,y,-z
1/2-x,y,z
x,-y,z
loop_
_atom_site_type_symbol
_atom_site_label
_atom_site_fract_x
_atom_site_fract_y
_atom_site_fract_z
Si Si1 0.930534 0.672939 0.937763
Si Si2 0.422786 0.171557 0.264936
Si Si3 0.930319 0.912526 0.365413
Si Si4 0.930364 0.413371 0.242092
Si Si5 0.929591 0.737859 0.168386
Si Si6 0.570188 0.762592 0.438702
Si Si7 0.577154 0.671257 0.658726
Si Si8 0.070042 0.500000 0.061755
O O1 0.750000 0.677787 0.940806
O O2 0.973455 0.585169 0.915738
O O3 0.996470 0.732779 0.892695
O O4 0.000000 0.681986 0.000000
O O5 0.250000 0.152309 0.253511
O O6 0.499707 0.108352 0.305083
O O7 0.509420 0.193331 0.208098
O O8 0.426173 0.250586 0.302650
O O9 0.750000 0.908842 0.360452
O O10 0.974580 0.845224 0.409562
O O11 0.973162 0.000000 0.382898
O O12 0.750000 0.411735 0.246494
O O13 0.976763 0.500000 0.223066
O O14 0.972527 0.342909 0.200607
O O15 0.000011 0.393751 0.302700
O O16 0.750000 0.741132 0.164391
O O17 0.500000 0.756666 0.500000
O O18 0.750000 0.759819 0.441491
O O19 0.510032 0.695180 0.397372
O O20 0.750000 0.652337 0.646934
O O21 0.250000 0.500000 0.058547
O O22 0.000000 0.500000 0.000000
#
# Coordination Sequence:
#
# PCOD9400343 Si02
#       8
#     8   8   8   8   8   8   8   4
#     4  10  19  31  44  61  86 119 157 196 237 281
#     4   9  17  30  47  67  91 119 153 191 229 270
#     4   9  18  32  49  70  98 129 156 184 222 267
#     4   9  18  31  46  66  90 116 148 189 237 284
#     4  10  19  30  46  66  90 121 155 193 234 278
#     4  10  19  31  48  69  94 125 158 189 221 263
#     4   9  17  30  47  66  88 116 151 190 231 274
#     4   8  16  28  40  54  76 110 148 186 227 270
#
# _framework density 16.492251
#
# number of rings (size 3 to 8) (size 9 to 14) (size 15 to 20)
#    0.000    2.667    0.000    2.000    0.933    5.600 
#    0.000    0.000    0.000    0.400    0.000    0.000 
#    0.000    0.533    0.000    2.000    0.000    3.067 
#
# Total GULP energy -334260.217104 kJ/mol
# GULP energy per Si atom -5571.003618 kJ/mol
# Density = 1.645471 g / cm^3
# Si number density = 16.492251 Si / 1000 Ang^3
#
#
#
# Elastic Constant Matrix: (Units=GPa)
#
#
# Indices 1 2 3 4 5 6 
#
# 1 31.6786 2.0246 36.6682 0.0000 0.0000 0.0000
# 2 2.0246 11.7914 8.6176 0.0000 0.0000 0.0000
# 3 36.6682 8.6176 107.4027 0.0000 0.0000 0.0000
# 4 0.0000 0.0000 0.0000 18.5471 0.0000 0.0000
# 5 0.0000 0.0000 0.0000 0.0000 28.5809 0.0000
# 6 0.0000 0.0000 0.0000 0.0000 0.0000 14.6830
#
#
#
# Elastic Compliance Matrix: (Units=1/GPa)
#
#
# Indices 1 2 3 4 5 6 
#
# 1 0.052400 0.004331 -0.018237 0.000000 0.000000 0.000000
# 2 0.004331 0.090448 -0.008736 0.000000 0.000000 0.000000
# 3 -0.018237 -0.008736 0.016238 0.000000 0.000000 0.000000
# 4 0.000000 0.000000 0.000000 0.053917 0.000000 0.000000
# 5 0.000000 0.000000 0.000000 0.000000 0.034988 0.000000
# 6 0.000000 0.000000 0.000000 0.000000 0.000000 0.068106
#
#
# Mechanical properties :
#
#
# Convention : Reuss Voigt Hill
#
# Bulk Modulus (GPa) = 8.78713 27.27704 18.03208
# Shear Modulus (GPa) = 12.52142 19.26636 15.89389
#
# Velocity S-wave (km/s) = 2.75840 3.42161 3.10775
# Velocity P-wave (km/s) = 3.93505 5.67319 4.88210
#
# Compressibility (1/GPa) = 0.11380277
#
# Stress axis : x y z
#
# Youngs Moduli (GPa) = 19.08398 11.05602 61.58367
#
# Poissons Ratio (x) = -0.04789 1.12312
# Poissons Ratio (y) = -0.08266 0.53800
# Poissons Ratio (z) = 0.34804 0.09659
#
# Static dielectric constant tensor:
#      x y z
#    x 1.546810 0.000000 0.000000 
#    y 0.000000 1.562520 0.000000 
#    z 0.000000 0.000000 1.539650 
# 
# From -- ./inp_files/32427.got.cif
#   From: 2010.05.17/outbox.cif.g08.bks.cpg/sg51_17_cif.got.tgz:32427.got - 2010.06.03 11:52:47.
