data_PCOD9400444
_publ_section_title
;
Structure prediction by ZEFSAII (Michael W. Deem and Ramdas Pophale) SiO2 
 PCOD9400444
Probable space group: P M M A
;
_chemical_formula_sum "Si O2"
_cell_formula_units_Z 64
_cell_length_a 8.970408
_cell_length_b 16.660092
_cell_length_c 23.568543
_cell_angle_alpha 90.000000
_cell_angle_beta 90.000000
_cell_angle_gamma 90.000000
_cell_volume 3522.267432
_symmetry_space_group_name_H-M "P M M A"
_symmetry_group_IT_number 51
_symmetry_cell_setting 'orthorhombic'
loop_
_space_group_symop_operation_xyz
x,y,z
1/2-x,-y,z
1/2+x,-y,-z
-x,y,-z
-x,-y,-z
1/2+x,y,-z
1/2-x,y,z
x,-y,z
loop_
_atom_site_type_symbol
_atom_site_label
_atom_site_fract_x
_atom_site_fract_y
_atom_site_fract_z
Si Si1 0.073980 0.314186 0.151339
Si Si2 0.929699 0.254224 0.627770
Si Si3 0.074270 0.909421 0.835097
Si Si4 0.070467 0.910250 0.437643
Si Si5 0.425844 0.168470 0.062008
Si Si6 0.084516 0.594207 0.053151
Si Si7 0.570311 0.407142 0.437072
Si Si8 0.927412 0.230649 0.249946
O O1 0.250000 0.314292 0.167192
O O2 0.050606 0.246798 0.102193
O O3 0.026815 0.391936 0.116063
O O4 0.973802 0.299000 0.205383
O O5 0.750000 0.261616 0.625497
O O6 0.972855 0.170382 0.596238
O O7 0.002266 0.334113 0.599874
O O8 0.986854 0.243632 0.691822
O O9 0.250000 0.893114 0.844404
O O10 0.024136 0.848690 0.785634
O O11 0.993674 0.897521 0.895284
O O12 0.055356 0.000000 0.815370
O O13 0.250000 0.908906 0.441891
O O14 0.000000 0.905315 0.500000
O O15 0.029690 0.000000 0.414248
O O16 0.250000 0.157004 0.054631
O O17 0.500000 0.171714 0.000000
O O18 0.250000 0.628957 0.052372
O O19 0.094900 0.500000 0.043828
O O20 0.000000 0.630125 0.000000
O O21 0.500000 0.400137 0.500000
O O22 0.750000 0.398600 0.439657
O O23 0.538898 0.500000 0.417609
O O24 0.750000 0.227676 0.259587
#
# Coordination Sequence:
#
# PCOD9400444 Si02
#       8
#     8   8   8   8   8   8   8   8
#     4   9  18  33  50  68  94 128 165 205 251 304
#     4  11  22  36  57  83 113 150 189 229 272 320
#     4   9  19  36  54  71  95 128 167 214 266 318
#     4   9  19  35  54  80 114 149 184 222 266 316
#     4  10  19  30  47  71  96 124 160 203 255 315
#     4   9  17  29  47  72  99 125 155 194 242 297
#     4  10  21  38  61  89 120 151 184 225 273 324
#     4  10  21  36  54  75  99 131 174 219 262 310
#
# _framework density 18.170113000000001
#
# number of rings (size 3 to 8) (size 9 to 14) (size 15 to 20)
#    0.000    2.375    0.000    2.250    0.000    5.250 
#    0.000    0.625    0.000    2.250    0.000    0.000 
#    0.000    0.000    0.000    0.000    0.000    0.000 
#
# Total GULP energy -356347.480978 kJ/mol
# GULP energy per Si atom -5567.929390 kJ/mol
# Density = 1.812876 g / cm^3
# Si number density = 18.170113 Si / 1000 Ang^3
#
#
#
# Elastic Constant Matrix: (Units=GPa)
#
#
# Indices 1 2 3 4 5 6 
#
# 1 53.4172 44.4817 45.9649 0.0000 0.0000 0.0000
# 2 44.4817 96.3567 64.8274 0.0000 0.0000 0.0000
# 3 45.9649 64.8274 124.6220 0.0000 0.0000 0.0000
# 4 0.0000 0.0000 0.0000 18.9470 0.0000 0.0000
# 5 0.0000 0.0000 0.0000 0.0000 33.5454 0.0000
# 6 0.0000 0.0000 0.0000 0.0000 0.0000 22.7791
#
#
#
# Elastic Compliance Matrix: (Units=1/GPa)
#
#
# Indices 1 2 3 4 5 6 
#
# 1 0.033662 -0.011056 -0.006665 0.000000 0.000000 0.000000
# 2 -0.011056 0.019597 -0.006116 0.000000 0.000000 0.000000
# 3 -0.006665 -0.006116 0.013664 0.000000 0.000000 0.000000
# 4 0.000000 0.000000 0.000000 0.052779 0.000000 0.000000
# 5 0.000000 0.000000 0.000000 0.000000 0.029810 0.000000
# 6 0.000000 0.000000 0.000000 0.000000 0.000000 0.043900
#
#
# Mechanical properties :
#
#
# Convention : Reuss Voigt Hill
#
# Bulk Modulus (GPa) = 51.94974 64.99380 58.47177
# Shear Modulus (GPa) = 20.20196 22.99577 21.59886
#
# Velocity S-wave (km/s) = 3.33802 3.56136 3.45150
# Velocity P-wave (km/s) = 6.59616 7.26349 6.93785
#
# Compressibility (1/GPa) = 0.01924937
#
# Stress axis : x y z
#
# Youngs Moduli (GPa) = 29.70751 51.02875 73.18455
#
# Poissons Ratio (x) = 0.56415 0.48774
# Poissons Ratio (y) = 0.32843 0.44763
# Poissons Ratio (z) = 0.19799 0.31211
#
# Static dielectric constant tensor:
#      x y z
#    x 1.641210 0.000000 0.000000 
#    y 0.000000 1.704490 0.000000 
#    z 0.000000 0.000000 1.617990 
# 
# From -- ./inp_files/32420.got.cif
#   From: 2010.05.17/outbox.cif.g08.bks.cpg/sg51_17_cif.got.tgz:32420.got - 2010.06.03 11:52:47.
