data_PCOD9400310
_publ_section_title
;
Structure prediction by ZEFSAII (Michael W. Deem and Ramdas Pophale) SiO2 
 PCOD9400310
Probable space group: P M M A
;
_chemical_formula_sum "Si O2"
_cell_formula_units_Z 48
_cell_length_a 9.574264
_cell_length_b 15.155067
_cell_length_c 16.238470
_cell_angle_alpha 90.000000
_cell_angle_beta 90.000000
_cell_angle_gamma 90.000000
_cell_volume 2356.179464
_symmetry_space_group_name_H-M "P M M A"
_symmetry_group_IT_number 51
_symmetry_cell_setting 'orthorhombic'
loop_
_space_group_symop_operation_xyz
x,y,z
1/2-x,-y,z
1/2+x,-y,-z
-x,y,-z
-x,-y,-z
1/2+x,y,-z
1/2-x,y,z
x,-y,z
loop_
_atom_site_type_symbol
_atom_site_label
_atom_site_fract_x
_atom_site_fract_y
_atom_site_fract_z
Si Si1 0.092967 0.904118 0.121286
Si Si2 0.904755 0.895755 0.571177
Si Si3 0.590048 0.337596 0.241671
Si Si4 0.414736 0.698656 0.080469
Si Si5 0.909120 0.605716 0.422369
Si Si6 0.593916 0.129467 0.271790
O O1 0.250000 0.900854 0.159124
O O2 0.077800 0.807167 0.081185
O O3 0.972883 0.906949 0.188875
O O4 0.089141 0.000000 0.076284
O O5 0.750000 0.856942 0.575806
O O6 0.000000 0.855453 0.500000
O O7 0.988456 0.889349 0.655173
O O8 0.889664 0.000000 0.553202
O O9 0.750000 0.370557 0.225601
O O10 0.489330 0.341345 0.162107
O O11 0.538266 0.376385 0.329131
O O12 0.600460 0.233813 0.259179
O O13 0.250000 0.676723 0.077786
O O14 0.500000 0.669340 0.000000
O O15 0.750000 0.641272 0.426167
O O16 0.901859 0.500000 0.430527
O O17 0.000000 0.638117 0.500000
O O18 0.750000 0.097764 0.289267
#
# Coordination Sequence:
#
# PCOD9400310 Si02
#       6
#     8   8   8   8   8   8
#     4   9  18  32  48  67  93 127 168 212 258 308
#     4  10  20  32  44  58  80 114 157 204 251 298
#     4   9  19  35  53  76 106 138 172 209 251 303
#     4  10  20  34  53  76 103 138 178 221 268 314
#     4   9  18  34  57  84 113 143 172 205 249 302
#     4  10  19  30  45  66  92 122 158 202 251 301
#
# _framework density 20.371963999999998
#
# number of rings (size 3 to 8) (size 9 to 14) (size 15 to 20)
#    0.000    2.500    0.000    2.000    0.000    6.333 
#    0.000    1.667    0.000    0.500    0.000    0.000 
#    0.000    0.000    0.000    0.000    0.000    0.000 
#
# Total GULP energy -267321.927456 kJ/mol
# GULP energy per Si atom -5569.206822 kJ/mol
# Density = 2.032560 g / cm^3
# Si number density = 20.371964 Si / 1000 Ang^3
#
#
#
# Elastic Constant Matrix: (Units=GPa)
#
#
# Indices 1 2 3 4 5 6 
#
# 1 171.0913 5.5437 96.2283 0.0000 0.0000 0.0000
# 2 5.5437 11.4246 8.6714 0.0000 0.0000 0.0000
# 3 96.2283 8.6714 136.8669 0.0000 0.0000 0.0000
# 4 0.0000 0.0000 0.0000 5.3304 0.0000 0.0000
# 5 0.0000 0.0000 0.0000 0.0000 30.2942 0.0000
# 6 0.0000 0.0000 0.0000 0.0000 0.0000 8.6757
#
#
#
# Elastic Compliance Matrix: (Units=1/GPa)
#
#
# Indices 1 2 3 4 5 6 
#
# 1 0.009671 0.000492 -0.006830 0.000000 0.000000 0.000000
# 2 0.000492 0.091977 -0.006173 0.000000 0.000000 0.000000
# 3 -0.006830 -0.006173 0.012500 0.000000 0.000000 0.000000
# 4 0.000000 0.000000 0.000000 0.187604 0.000000 0.000000
# 5 0.000000 0.000000 0.000000 0.000000 0.033010 0.000000
# 6 0.000000 0.000000 0.000000 0.000000 0.000000 0.115264
#
#
# Mechanical properties :
#
#
# Convention : Reuss Voigt Hill
#
# Bulk Modulus (GPa) = 11.22033 60.02996 35.62514
# Shear Modulus (GPa) = 9.90578 22.78935 16.34756
#
# Velocity S-wave (km/s) = 2.20749 3.34827 2.83583
# Velocity P-wave (km/s) = 3.46656 6.66924 5.31488
#
# Compressibility (1/GPa) = 0.08912392
#
# Stress axis : x y z
#
# Youngs Moduli (GPa) = 103.40695 10.87229 80.00172
#
# Poissons Ratio (x) = -0.00535 0.54644
# Poissons Ratio (y) = -0.05085 0.49386
# Poissons Ratio (z) = 0.70630 0.06712
#
# Static dielectric constant tensor:
#      x y z
#    x 1.736970 0.000000 0.000000 
#    y 0.000000 1.820080 0.000000 
#    z 0.000000 0.000000 1.721930 
# 
# From -- ./inp_files/21131.got.cif
#   From: 2010.05.17/outbox.cif.g08.bks.cpg/sg51_11_cif.got.tgz:21131.got - 2010.06.03 11:52:47.
