data_PCOD9400507
_publ_section_title
;
Structure prediction by ZEFSAII (Michael W. Deem and Ramdas Pophale) SiO2 
 PCOD9400507
Probable space group: P M M A
;
_chemical_formula_sum "Si O2"
_cell_formula_units_Z 40
_cell_length_a 21.096065
_cell_length_b 10.028660
_cell_length_c 11.671383
_cell_angle_alpha 90.000000
_cell_angle_beta 90.000000
_cell_angle_gamma 90.000000
_cell_volume 2469.259217
_symmetry_space_group_name_H-M "P M M A"
_symmetry_group_IT_number 51
_symmetry_cell_setting 'orthorhombic'
loop_
_space_group_symop_operation_xyz
x,y,z
1/2-x,-y,z
1/2+x,-y,-z
-x,y,-z
-x,-y,-z
1/2+x,y,-z
1/2-x,y,z
x,-y,z
loop_
_atom_site_type_symbol
_atom_site_label
_atom_site_fract_x
_atom_site_fract_y
_atom_site_fract_z
Si Si1 0.322499 0.337994 0.961438
Si Si2 0.947189 0.340808 0.901518
Si Si3 0.467668 0.845371 0.315150
Si Si4 0.174092 0.348437 0.704141
Si Si5 0.399675 0.153653 0.547947
O O1 0.250000 0.293642 0.986227
O O2 0.320676 0.500000 0.958127
O O3 0.341659 0.297088 0.832208
O O4 0.377951 0.301599 0.048886
O O5 0.946916 0.500000 0.876912
O O6 0.962513 0.255059 0.789769
O O7 0.000000 0.318906 0.000000
O O8 0.535673 0.836467 0.377889
O O9 0.417416 0.816344 0.416497
O O10 0.459371 0.000000 0.279023
O O11 0.250000 0.353863 0.700728
O O12 0.149477 0.500000 0.692357
O O13 0.148257 0.254702 0.605732
O O14 0.378140 0.000000 0.554246
#
# Coordination Sequence:
#
# PCOD9400507 Si02
#       5
#     8   8   8   8   8
#     4   8  15  29  47  67  95 127 153 185 234 284
#     4  10  19  30  48  74  97 120 157 199 236 280
#     4   9  19  34  49  67  93 125 158 192 235 282
#     4   9  17  30  50  74  96 120 154 194 233 275
#     4   9  18  33  50  67  92 125 157 191 234 282
#
# _framework density 16.199189000000001
#
# number of rings (size 3 to 8) (size 9 to 14) (size 15 to 20)
#    0.000    3.000    0.000    3.600    0.000    4.000 
#    0.000    4.000    0.000    5.400    0.000    0.000 
#    0.000    0.000    0.000    0.000    0.000    0.000 
#
# Total GULP energy -222783.551671 kJ/mol
# GULP energy per Si atom -5569.588792 kJ/mol
# Density = 1.616232 g / cm^3
# Si number density = 16.199189 Si / 1000 Ang^3
#
#
#
# Elastic Constant Matrix: (Units=GPa)
#
#
# Indices 1 2 3 4 5 6 
#
# 1 35.7315 25.1205 32.6396 0.0000 0.0000 0.0000
# 2 25.1205 63.2244 73.7838 0.0000 0.0000 0.0000
# 3 32.6396 73.7838 115.9814 0.0000 0.0000 0.0000
# 4 0.0000 0.0000 0.0000 32.3158 0.0000 0.0000
# 5 0.0000 0.0000 0.0000 0.0000 25.8763 0.0000
# 6 0.0000 0.0000 0.0000 0.0000 0.0000 20.8136
#
#
#
# Elastic Compliance Matrix: (Units=1/GPa)
#
#
# Indices 1 2 3 4 5 6 
#
# 1 0.039400 -0.010539 -0.004383 0.000000 0.000000 0.000000
# 2 -0.010539 0.064224 -0.037891 0.000000 0.000000 0.000000
# 3 -0.004383 -0.037891 0.033961 0.000000 0.000000 0.000000
# 4 0.000000 0.000000 0.000000 0.030945 0.000000 0.000000
# 5 0.000000 0.000000 0.000000 0.000000 0.038645 0.000000
# 6 0.000000 0.000000 0.000000 0.000000 0.000000 0.048045
#
#
# Mechanical properties :
#
#
# Convention : Reuss Voigt Hill
#
# Bulk Modulus (GPa) = 31.29185 53.11389 42.20287
# Shear Modulus (GPa) = 13.45896 21.36070 17.40983
#
# Velocity S-wave (km/s) = 2.88556 3.63523 3.28187
# Velocity P-wave (km/s) = 5.51913 7.10486 6.36160
#
# Compressibility (1/GPa) = 0.03195721
#
# Stress axis : x y z
#
# Youngs Moduli (GPa) = 25.38086 15.57054 29.44556
#
# Poissons Ratio (x) = 0.16410 0.12907
# Poissons Ratio (y) = 0.26749 1.11573
# Poissons Ratio (z) = 0.11125 0.58999
#
# Static dielectric constant tensor:
#      x y z
#    x 1.558440 0.000000 0.000000 
#    y 0.000000 1.529510 0.000000 
#    z 0.000000 0.000000 1.531360 
# 
# From -- ./inp_files/10625.got.cif
#   From: 2010.05.17/outbox.cif.g08.bks.cpg/sg51_6_cif.got.tgz:10625.got - 2010.06.03 11:52:47.
