data_PCOD9400131
_publ_section_title
;
Structure prediction by ZEFSAII (Michael W. Deem and Ramdas Pophale) SiO2 
 PCOD9400131
Probable space group: P M M A
;
_chemical_formula_sum "Si O2"
_cell_formula_units_Z 64
_cell_length_a 28.797023
_cell_length_b 9.078699
_cell_length_c 14.865435
_cell_angle_alpha 90.000000
_cell_angle_beta 90.000000
_cell_angle_gamma 90.000000
_cell_volume 3886.411952
_symmetry_space_group_name_H-M "P M M A"
_symmetry_group_IT_number 51
_symmetry_cell_setting 'orthorhombic'
loop_
_space_group_symop_operation_xyz
x,y,z
1/2-x,-y,z
1/2+x,-y,-z
-x,y,-z
-x,-y,-z
1/2+x,y,-z
1/2-x,y,z
x,-y,z
loop_
_atom_site_type_symbol
_atom_site_label
_atom_site_fract_x
_atom_site_fract_y
_atom_site_fract_z
Si Si1 0.421630 0.674780 0.644991
Si Si2 0.302924 0.677355 0.148229
Si Si3 0.572451 0.322978 0.159297
Si Si4 0.608552 0.677321 0.964098
Si Si5 0.519126 0.832968 0.897676
Si Si6 0.611157 0.177685 0.537158
Si Si7 0.696730 0.177130 0.659149
Si Si8 0.986101 0.166559 0.605183
O O1 0.418438 0.500000 0.632870
O O2 0.404249 0.714938 0.745209
O O3 0.397049 0.753075 0.560889
O O4 0.475571 0.725043 0.644128
O O5 0.250000 0.718409 0.123240
O O6 0.304492 0.500000 0.157172
O O7 0.341668 0.720603 0.075690
O O8 0.313221 0.748978 0.244844
O O9 0.566878 0.500000 0.157173
O O10 0.521691 0.249908 0.154240
O O11 0.599828 0.279781 0.068420
O O12 0.604401 0.500000 0.959650
O O13 0.567645 0.748088 0.904480
O O14 0.525529 0.000000 0.865911
O O15 0.500000 0.837695 0.000000
O O16 0.658927 0.221167 0.584923
O O17 0.567300 0.216740 0.601585
O O18 0.609492 0.000000 0.527925
O O19 0.750000 0.214069 0.634336
O O20 0.693796 0.000000 0.669094
O O21 0.000000 0.156397 0.500000
O O22 0.989784 0.000000 0.642560
#
# Coordination Sequence:
#
# PCOD9400131 Si02
#       8
#     8   8   8   8   8   8   8   8
#     4  10  19  29  44  67  93 122 157 192 222 258
#     4   9  18  32  50  72  93 114 147 190 232 273
#     4   9  18  31  45  64  94 129 159 186 222 269
#     4   9  17  31  49  66  91 126 155 183 226 277
#     4   9  17  28  43  65  90 116 152 193 224 256
#     4   9  18  32  48  66  90 121 153 184 224 274
#     4   9  18  33  52  72  93 118 148 184 231 284
#     4   8  15  28  43  60  86 118 149 182 221 262
#
# _framework density 16.467631000000001
#
# number of rings (size 3 to 8) (size 9 to 14) (size 15 to 20)
#    0.000    3.000    0.000    1.500    0.000    6.750 
#    0.000    2.500    0.000    0.750    0.000    1.750 
#    0.000    0.000    0.000    0.000    0.000    0.000 
#
# Total GULP energy -356382.481754 kJ/mol
# GULP energy per Si atom -5568.476277 kJ/mol
# Density = 1.643015 g / cm^3
# Si number density = 16.467631 Si / 1000 Ang^3
#
#
#
# Elastic Constant Matrix: (Units=GPa)
#
#
# Indices 1 2 3 4 5 6 
#
# 1 118.4850 30.2828 72.3011 0.0000 0.0000 0.0000
# 2 30.2828 19.3754 30.2124 0.0000 0.0000 0.0000
# 3 72.3011 30.2124 101.9712 0.0000 0.0000 0.0000
# 4 0.0000 0.0000 0.0000 6.0998 0.0000 0.0000
# 5 0.0000 0.0000 0.0000 0.0000 23.2115 0.0000
# 6 0.0000 0.0000 0.0000 0.0000 0.0000 13.7581
#
#
#
# Elastic Compliance Matrix: (Units=1/GPa)
#
#
# Indices 1 2 3 4 5 6 
#
# 1 0.016754 -0.014242 -0.007659 0.000000 0.000000 0.000000
# 2 -0.014242 0.108039 -0.021912 0.000000 0.000000 0.000000
# 3 -0.007659 -0.021912 0.021730 0.000000 0.000000 0.000000
# 4 0.000000 0.000000 0.000000 0.163941 0.000000 0.000000
# 5 0.000000 0.000000 0.000000 0.000000 0.043082 0.000000
# 6 0.000000 0.000000 0.000000 0.000000 0.000000 0.072685
#
#
# Mechanical properties :
#
#
# Convention : Reuss Voigt Hill
#
# Bulk Modulus (GPa) = 16.97916 56.15824 36.56870
# Shear Modulus (GPa) = 9.37226 15.74957 12.56092
#
# Velocity S-wave (km/s) = 2.38824 3.09592 2.76481
# Velocity P-wave (km/s) = 4.23532 6.85243 5.69622
#
# Compressibility (1/GPa) = 0.05889573
#
# Stress axis : x y z
#
# Youngs Moduli (GPa) = 59.68838 9.25589 46.02014
#
# Poissons Ratio (x) = 0.13182 0.35248
# Poissons Ratio (y) = 0.85008 1.00840
# Poissons Ratio (z) = 0.45717 0.20282
#
# Static dielectric constant tensor:
#      x y z
#    x 1.553840 0.000000 0.000000 
#    y 0.000000 1.553730 0.000000 
#    z 0.000000 0.000000 1.570840 
# 
# From -- ./inp_files/26661.got.cif
#   From: 2010.05.17/outbox.cif.g08.bks.cpg/sg51_14_cif.got.tgz:26661.got - 2010.06.03 11:52:47.
