data_PCOD9400090
_publ_section_title
;
Structure prediction by ZEFSAII (Michael W. Deem and Ramdas Pophale) SiO2 
 PCOD9400090
Probable space group: P M M A
;
_chemical_formula_sum "Si O2"
_cell_formula_units_Z 56
_cell_length_a 9.105051
_cell_length_b 21.742265
_cell_length_c 18.521254
_cell_angle_alpha 90.000000
_cell_angle_beta 90.000000
_cell_angle_gamma 90.000000
_cell_volume 3666.549522
_symmetry_space_group_name_H-M "P M M A"
_symmetry_group_IT_number 51
_symmetry_cell_setting 'orthorhombic'
loop_
_space_group_symop_operation_xyz
x,y,z
1/2-x,-y,z
1/2+x,-y,-z
-x,y,-z
-x,-y,-z
1/2+x,y,-z
1/2-x,y,z
x,-y,z
loop_
_atom_site_type_symbol
_atom_site_label
_atom_site_fract_x
_atom_site_fract_y
_atom_site_fract_z
Si Si1 0.419428 0.259177 0.798430
Si Si2 0.926387 0.813040 0.922012
Si Si3 0.076345 0.792712 0.422609
Si Si4 0.424132 0.329257 0.324918
Si Si5 0.918324 0.136059 0.300846
Si Si6 0.074462 0.930736 0.175145
Si Si7 0.076796 0.426788 0.576317
O O1 0.250000 0.275047 0.813842
O O2 0.507496 0.239190 0.869551
O O3 0.500438 0.310086 0.750211
O O4 0.418514 0.198027 0.748133
O O5 0.750000 0.807988 0.926401
O O6 0.962824 0.878524 0.883621
O O7 0.000000 0.810166 0.000000
O O8 0.250000 0.802219 0.430335
O O9 0.054478 0.728328 0.379883
O O10 0.000000 0.789938 0.500000
O O11 0.006051 0.845541 0.372480
O O12 0.250000 0.337956 0.315928
O O13 0.500039 0.387616 0.361515
O O14 0.750000 0.120056 0.316826
O O15 0.995552 0.086150 0.250030
O O16 0.250000 0.927024 0.186233
O O17 0.037107 0.000000 0.152038
O O18 0.250000 0.412453 0.572315
O O19 0.060461 0.500000 0.587873
O O20 0.000000 0.411722 0.500000
#
# Coordination Sequence:
#
# PCOD9400090 Si02
#       7
#     8   8   8   8   8   8   8
#     4   9  17  30  47  66  89 117 149 185 225 268
#     4  10  19  31  47  68  95 123 150 181 221 267
#     4  10  19  29  43  64  88 113 143 182 227 272
#     4  10  19  30  46  67  91 120 154 191 229 270
#     4   9  17  29  45  64  85 110 142 181 223 266
#     4   9  18  32  48  65  87 117 150 181 215 260
#     4  10  20  32  45  63  91 128 166 201 236 272
#
# _framework density 15.273215
#
# number of rings (size 3 to 8) (size 9 to 14) (size 15 to 20)
#    0.000    2.429    0.000    3.000    0.000    8.286 
#    0.000    0.000    0.000    0.429    0.000    0.000 
#    0.000    0.571    0.000    2.143    0.000    3.286 
#
# Total GULP energy -312266.718173 kJ/mol
# GULP energy per Si atom -5576.191396 kJ/mol
# Density = 1.523845 g / cm^3
# Si number density = 15.273215 Si / 1000 Ang^3
#
#
#
# Elastic Constant Matrix: (Units=GPa)
#
#
# Indices 1 2 3 4 5 6 
#
# 1 103.2767 44.6843 76.4782 0.0000 0.0000 0.0000
# 2 44.6843 53.4524 39.0372 0.0000 0.0000 0.0000
# 3 76.4782 39.0372 98.7368 0.0000 0.0000 0.0000
# 4 0.0000 0.0000 0.0000 18.4434 0.0000 0.0000
# 5 0.0000 0.0000 0.0000 0.0000 30.5318 0.0000
# 6 0.0000 0.0000 0.0000 0.0000 0.0000 21.2981
#
#
#
# Elastic Compliance Matrix: (Units=1/GPa)
#
#
# Indices 1 2 3 4 5 6 
#
# 1 0.025941 -0.009858 -0.016195 0.000000 0.000000 0.000000
# 2 -0.009858 0.030049 -0.004245 0.000000 0.000000 0.000000
# 3 -0.016195 -0.004245 0.024351 0.000000 0.000000 0.000000
# 4 0.000000 0.000000 0.000000 0.054220 0.000000 0.000000
# 5 0.000000 0.000000 0.000000 0.000000 0.032753 0.000000
# 6 0.000000 0.000000 0.000000 0.000000 0.000000 0.046953
#
#
# Mechanical properties :
#
#
# Convention : Reuss Voigt Hill
#
# Bulk Modulus (GPa) = 50.64742 63.98501 57.31622
# Shear Modulus (GPa) = 17.76554 20.40574 19.08564
#
# Velocity S-wave (km/s) = 3.41425 3.65916 3.53882
# Velocity P-wave (km/s) = 6.98396 7.73545 7.36929
#
# Compressibility (1/GPa) = 0.01974434
#
# Stress axis : x y z
#
# Youngs Moduli (GPa) = 38.54915 33.27886 41.06660
#
# Poissons Ratio (x) = 0.32806 0.66509
# Poissons Ratio (y) = 0.38001 0.17432
# Poissons Ratio (z) = 0.62432 0.14126
#
# Static dielectric constant tensor:
#      x y z
#    x 1.510190 0.000000 0.000000 
#    y 0.000000 1.497920 0.000000 
#    z 0.000000 0.000000 1.483060 
# 
# From -- ./inp_files/21838.got.cif
#   From: 2010.05.17/outbox.cif.g08.bks.cpg/sg51_11_cif.got.tgz:21838.got - 2010.06.03 11:52:47.
