data_PCOD9400997
_publ_section_title
;
Structure prediction by ZEFSAII (Michael W. Deem and Ramdas Pophale) SiO2 
 PCOD9400997
Probable space group: P M M A
;
_chemical_formula_sum "Si O2"
_cell_formula_units_Z 64
_cell_length_a 9.806825
_cell_length_b 22.187971
_cell_length_c 15.930251
_cell_angle_alpha 90.000000
_cell_angle_beta 90.000000
_cell_angle_gamma 90.000000
_cell_volume 3466.319847
_symmetry_space_group_name_H-M "P M M A"
_symmetry_group_IT_number 51
_symmetry_cell_setting 'orthorhombic'
loop_
_space_group_symop_operation_xyz
x,y,z
1/2-x,-y,z
1/2+x,-y,-z
-x,y,-z
-x,-y,-z
1/2+x,y,-z
1/2-x,y,z
x,-y,z
loop_
_atom_site_type_symbol
_atom_site_label
_atom_site_fract_x
_atom_site_fract_y
_atom_site_fract_z
Si Si1 0.088538 0.068105 0.734070
Si Si2 0.900355 0.735136 0.567961
Si Si3 0.911995 0.406430 0.580987
Si Si4 0.597829 0.906896 0.071285
Si Si5 0.402531 0.774824 0.868421
Si Si6 0.413297 0.363366 0.916947
Si Si7 0.594920 0.178148 0.724998
Si Si8 0.910180 0.569939 0.775469
O O1 0.250000 0.080573 0.721407
O O2 0.064149 0.072636 0.834563
O O3 0.992128 0.119815 0.698326
O O4 0.060405 0.000000 0.705849
O O5 0.750000 0.734796 0.530614
O O6 0.934511 0.665660 0.585873
O O7 0.901707 0.773846 0.650966
O O8 0.000000 0.761571 0.500000
O O9 0.750000 0.418472 0.567146
O O10 0.945344 0.428152 0.675585
O O11 0.000000 0.427628 0.500000
O O12 0.750000 0.926815 0.053529
O O13 0.596351 0.833624 0.072721
O O14 0.500000 0.929174 0.000000
O O15 0.250000 0.774956 0.828633
O O16 0.420773 0.709529 0.908886
O O17 0.517858 0.789352 0.801101
O O18 0.250000 0.378782 0.921337
O O19 0.489181 0.392032 0.835453
O O20 0.500000 0.381306 0.000000
O O21 0.750000 0.161372 0.747606
O O22 0.750000 0.590090 0.782580
O O23 0.916510 0.500000 0.801821
#
# Coordination Sequence:
#
# PCOD9400997 Si02
#       8
#     8   8   8   8   8   8   8   8
#     4   9  19  35  50  65  92 132 173 210 252 303
#     4   9  18  31  49  76 107 134 160 196 246 304
#     4   9  18  34  56  83 114 145 176 213 263 323
#     4   9  17  29  45  67  95 124 156 196 242 295
#     4   9  19  34  51  74 103 134 167 204 256 319
#     4  11  23  38  58  82 108 141 183 232 281 327
#     4  10  19  31  51  78 104 131 167 213 257 299
#     4  10  22  40  59  79 108 147 187 226 270 322
#
# _framework density 18.463386
#
# number of rings (size 3 to 8) (size 9 to 14) (size 15 to 20)
#    0.000    2.500    0.000    2.625    0.000    6.750 
#    0.000    2.500    0.000    0.375    0.000    0.000 
#    0.000    0.000    0.000    0.000    0.000    0.000 
#
# Total GULP energy -356601.556723 kJ/mol
# GULP energy per Si atom -5571.899324 kJ/mol
# Density = 1.842136 g / cm^3
# Si number density = 18.463386 Si / 1000 Ang^3
#
#
#
# Elastic Constant Matrix: (Units=GPa)
#
#
# Indices 1 2 3 4 5 6 
#
# 1 83.0452 41.4793 52.0229 0.0000 0.0000 0.0000
# 2 41.4793 72.3529 23.1313 0.0000 0.0000 0.0000
# 3 52.0229 23.1313 68.5589 0.0000 0.0000 0.0000
# 4 0.0000 0.0000 0.0000 2.2177 0.0000 0.0000
# 5 0.0000 0.0000 0.0000 0.0000 33.3411 0.0000
# 6 0.0000 0.0000 0.0000 0.0000 0.0000 14.5753
#
#
#
# Elastic Compliance Matrix: (Units=1/GPa)
#
#
# Indices 1 2 3 4 5 6 
#
# 1 0.028818 -0.010682 -0.018263 0.000000 0.000000 0.000000
# 2 -0.010682 0.019452 0.001543 0.000000 0.000000 0.000000
# 3 -0.018263 0.001543 0.027924 0.000000 0.000000 0.000000
# 4 0.000000 0.000000 0.000000 0.450918 0.000000 0.000000
# 5 0.000000 0.000000 0.000000 0.000000 0.029993 0.000000
# 6 0.000000 0.000000 0.000000 0.000000 0.000000 0.068609
#
#
# Mechanical properties :
#
#
# Convention : Reuss Voigt Hill
#
# Bulk Modulus (GPa) = 46.75437 50.80268 48.77852
# Shear Modulus (GPa) = 7.27116 17.18172 12.22644
#
# Velocity S-wave (km/s) = 1.98663 3.05386 2.57611
# Velocity P-wave (km/s) = 5.53534 6.32533 5.94348
#
# Compressibility (1/GPa) = 0.02138837
#
# Stress axis : x y z
#
# Youngs Moduli (GPa) = 34.70050 51.40858 35.81199
#
# Poissons Ratio (x) = 0.54917 0.65404
# Poissons Ratio (y) = 0.37068 -0.05525
# Poissons Ratio (z) = 0.63374 -0.07932
#
# Static dielectric constant tensor:
#      x y z
#    x 1.654260 0.000000 0.000000 
#    y 0.000000 1.657760 0.000000 
#    z 0.000000 0.000000 1.631610 
# 
# From -- ./inp_files/22283.got.cif
#   From: 2010.05.17/outbox.cif.g08.bks.cpg/sg51_12_cif.got.tgz:22283.got - 2010.06.03 11:52:47.
