data_PCOD9400501
_publ_section_title
;
Structure prediction by ZEFSAII (Michael W. Deem and Ramdas Pophale) SiO2 
 PCOD9400501
Probable space group: P M M A
;
_chemical_formula_sum "Si O2"
_cell_formula_units_Z 40
_cell_length_a 15.463614
_cell_length_b 7.638476
_cell_length_c 15.002696
_cell_angle_alpha 90.000000
_cell_angle_beta 90.000000
_cell_angle_gamma 90.000000
_cell_volume 1772.095114
_symmetry_space_group_name_H-M "P M M A"
_symmetry_group_IT_number 51
_symmetry_cell_setting 'orthorhombic'
loop_
_space_group_symop_operation_xyz
x,y,z
1/2-x,-y,z
1/2+x,-y,-z
-x,y,-z
-x,-y,-z
1/2+x,y,-z
1/2-x,y,z
x,-y,z
loop_
_atom_site_type_symbol
_atom_site_label
_atom_site_fract_x
_atom_site_fract_y
_atom_site_fract_z
Si Si1 0.651097 0.800180 0.089274
Si Si2 0.569389 0.303028 0.928158
Si Si3 0.851266 0.715008 0.744310
Si Si4 0.990187 0.292648 0.599400
Si Si5 0.650399 0.787744 0.277809
O O1 0.750000 0.809402 0.117128
O O2 0.611722 0.728016 0.181037
O O3 0.623661 0.000000 0.073829
O O4 0.647468 0.696708 0.998054
O O5 0.539585 0.500000 0.909409
O O6 0.602126 0.223575 0.836165
O O7 0.500000 0.227211 0.000000
O O8 0.750000 0.767433 0.739818
O O9 0.851302 0.500000 0.747546
O O10 0.911329 0.773240 0.661681
O O11 0.973428 0.500000 0.590771
O O12 0.000000 0.218168 0.500000
O O13 0.081187 0.268272 0.649457
O O14 0.750000 0.728663 0.295107
O O15 0.651488 0.000000 0.274516
#
# Coordination Sequence:
#
# PCOD9400501 Si02
#       5
#     8   8   8   8   8
#     4   9  18  32  49  71 100 132 166 205 249 299
#     4  10  19  30  48  74 102 135 175 213 252 308
#     4   9  18  33  51  73 107 146 177 214 272 332
#     4  10  21  36  56  81 104 132 178 232 278 321
#     4   9  19  36  56  78 107 142 175 212 268 331
#
# _framework density 22.572151999999999
#
# number of rings (size 3 to 8) (size 9 to 14) (size 15 to 20)
#    0.000    2.600    0.000    3.000    0.000    5.600 
#    0.000    5.000    0.000    1.800    0.000    0.000 
#    0.000    0.000    0.000    0.000    0.000    0.000 
#
# Total GULP energy -222749.947515 kJ/mol
# GULP energy per Si atom -5568.748688 kJ/mol
# Density = 2.252078 g / cm^3
# Si number density = 22.572152 Si / 1000 Ang^3
#
#
#
# Elastic Constant Matrix: (Units=GPa)
#
#
# Indices 1 2 3 4 5 6 
#
# 1 146.9301 11.8483 84.5462 0.0000 0.0000 0.0000
# 2 11.8483 39.2429 19.9737 0.0000 0.0000 0.0000
# 3 84.5462 19.9737 217.3188 0.0000 0.0000 0.0000
# 4 0.0000 0.0000 0.0000 12.3325 0.0000 0.0000
# 5 0.0000 0.0000 0.0000 0.0000 26.5104 0.0000
# 6 0.0000 0.0000 0.0000 0.0000 0.0000 39.7809
#
#
#
# Elastic Compliance Matrix: (Units=1/GPa)
#
#
# Indices 1 2 3 4 5 6 
#
# 1 0.008803 -0.000960 -0.003337 0.000000 0.000000 0.000000
# 2 -0.000960 0.026838 -0.002093 0.000000 0.000000 0.000000
# 3 -0.003337 -0.002093 0.006092 0.000000 0.000000 0.000000
# 4 0.000000 0.000000 0.000000 0.081087 0.000000 0.000000
# 5 0.000000 0.000000 0.000000 0.000000 0.037721 0.000000
# 6 0.000000 0.000000 0.000000 0.000000 0.000000 0.025138
#
#
# Mechanical properties :
#
#
# Convention : Reuss Voigt Hill
#
# Bulk Modulus (GPa) = 34.53792 70.69203 52.61498
# Shear Modulus (GPa) = 24.02591 34.86633 29.44612
#
# Velocity S-wave (km/s) = 3.26606 3.93448 3.61575
# Velocity P-wave (km/s) = 5.43665 7.21294 6.38685
#
# Compressibility (1/GPa) = 0.02895368
#
# Stress axis : x y z
#
# Youngs Moduli (GPa) = 113.59357 37.26126 164.14890
#
# Poissons Ratio (x) = 0.03576 0.54771
# Poissons Ratio (y) = 0.10901 0.34361
# Poissons Ratio (z) = 0.37902 0.07800
#
# Static dielectric constant tensor:
#      x y z
#    x 7.940670 0.000000 0.000000 
#    y 0.000000 1.857140 0.000000 
#    z 0.000000 0.000000 1.982880 
# 
# From -- ./inp_files/16187.got.cif
#   From: 2010.05.17/outbox.cif.g08.bks.cpg/sg51_9_cif.got.tgz:16187.got - 2010.06.03 11:52:47.
