data_PCOD9400063
_publ_section_title
;
Structure prediction by ZEFSAII (Michael W. Deem and Ramdas Pophale) SiO2 
 PCOD9400063
Probable space group: P M M A
;
_chemical_formula_sum "Si O2"
_cell_formula_units_Z 64
_cell_length_a 14.453219
_cell_length_b 9.091528
_cell_length_c 31.979746
_cell_angle_alpha 90.000000
_cell_angle_beta 90.000000
_cell_angle_gamma 90.000000
_cell_volume 4202.197634
_symmetry_space_group_name_H-M "P M M A"
_symmetry_group_IT_number 51
_symmetry_cell_setting 'orthorhombic'
loop_
_space_group_symop_operation_xyz
x,y,z
1/2-x,-y,z
1/2+x,-y,-z
-x,y,-z
-x,-y,-z
1/2+x,y,-z
1/2-x,y,z
x,-y,z
loop_
_atom_site_type_symbol
_atom_site_label
_atom_site_fract_x
_atom_site_fract_y
_atom_site_fract_z
Si Si1 0.550994 0.677628 0.402415
Si Si2 0.637638 0.831030 0.229438
Si Si3 0.106562 0.166901 0.515112
Si Si4 0.651523 0.676382 0.568939
Si Si5 0.359953 0.324765 0.685505
Si Si6 0.040691 0.177854 0.934621
Si Si7 0.644847 0.821563 0.979603
Si Si8 0.640587 0.324237 0.143191
O O1 0.558140 0.500000 0.406449
O O2 0.606762 0.751914 0.440426
O O3 0.443148 0.721188 0.408187
O O4 0.589273 0.719508 0.357120
O O5 0.750000 0.828950 0.230544
O O6 0.607169 0.758406 0.272961
O O7 0.611716 0.740371 0.188197
O O8 0.607766 0.000000 0.226121
O O9 0.151194 0.257074 0.477499
O O10 0.000000 0.160451 0.500000
O O11 0.140800 0.000000 0.518313
O O12 0.750000 0.717286 0.589264
O O13 0.647738 0.500000 0.565660
O O14 0.250000 0.298564 0.680367
O O15 0.372414 0.500000 0.691410
O O16 0.080873 0.252717 0.893557
O O17 0.935754 0.222454 0.947093
O O18 0.042847 0.000000 0.930326
O O19 0.105818 0.216590 0.974369
O O20 0.750000 0.768629 0.972848
O O21 0.647196 0.000000 0.978303
O O22 0.750000 0.288091 0.136925
O O23 0.632026 0.500000 0.143133
#
# Coordination Sequence:
#
# PCOD9400063 Si02
#       8
#     8   8   8   8   8   8   8   8
#     4   9  17  29  44  62  84 110 139 168 200 244
#     4   9  17  29  45  64  85 109 137 169 206 252
#     4   9  17  28  41  58  81 107 135 170 209 243
#     4   9  17  29  44  60  80 109 143 174 202 236
#     4   9  17  29  44  62  85 110 133 161 203 253
#     4   9  16  26  43  65  86 114 153 188 216 253
#     4   8  14  25  41  62  89 119 150 185 222 256
#     4  10  19  29  42  62  89 117 142 174 218 261
#
# _framework density 15.230126
#
# number of rings (size 3 to 8) (size 9 to 14) (size 15 to 20)
#    0.000    3.000    0.000    2.250    0.000    5.500 
#    0.000    2.500    0.000    1.125    0.000    0.875 
#    0.000    3.000    0.000    0.000    0.000    0.000 
#
# Total GULP energy -356343.535878 kJ/mol
# GULP energy per Si atom -5567.867748 kJ/mol
# Density = 1.519546 g / cm^3
# Si number density = 15.230126 Si / 1000 Ang^3
#
#
#
# Elastic Constant Matrix: (Units=GPa)
#
#
# Indices 1 2 3 4 5 6 
#
# 1 83.7237 27.3464 53.1542 0.0000 0.0000 0.0000
# 2 27.3464 31.3989 46.6853 0.0000 0.0000 0.0000
# 3 53.1542 46.6853 139.7649 0.0000 0.0000 0.0000
# 4 0.0000 0.0000 0.0000 31.0137 0.0000 0.0000
# 5 0.0000 0.0000 0.0000 0.0000 21.6099 0.0000
# 6 0.0000 0.0000 0.0000 0.0000 0.0000 8.5349
#
#
#
# Elastic Compliance Matrix: (Units=1/GPa)
#
#
# Indices 1 2 3 4 5 6 
#
# 1 0.017335 -0.010520 -0.003079 0.000000 0.000000 0.000000
# 2 -0.010520 0.069656 -0.019266 0.000000 0.000000 0.000000
# 3 -0.003079 -0.019266 0.014761 0.000000 0.000000 0.000000
# 4 0.000000 0.000000 0.000000 0.032244 0.000000 0.000000
# 5 0.000000 0.000000 0.000000 0.000000 0.046275 0.000000
# 6 0.000000 0.000000 0.000000 0.000000 0.000000 0.117166
#
#
# Mechanical properties :
#
#
# Convention : Reuss Voigt Hill
#
# Bulk Modulus (GPa) = 27.76042 56.58437 42.17240
# Shear Modulus (GPa) = 13.32714 20.74514 17.03614
#
# Velocity S-wave (km/s) = 2.96134 3.69468 3.34815
# Velocity P-wave (km/s) = 5.47353 7.44543 6.53430
#
# Compressibility (1/GPa) = 0.03602251
#
# Stress axis : x y z
#
# Youngs Moduli (GPa) = 57.68780 14.35621 67.74540
#
# Poissons Ratio (x) = 0.15103 0.20856
# Poissons Ratio (y) = 0.60687 1.30520
# Poissons Ratio (z) = 0.17760 0.27659
#
# Static dielectric constant tensor:
#      x y z
#    x 1.533060 0.000000 0.000000 
#    y 0.000000 1.511070 0.000000 
#    z 0.000000 0.000000 1.479590 
# 
# From -- ./inp_files/37846.got.cif
#   From: 2010.05.17/outbox.cif.g08.bks.cpg/sg51_19_cif.got.tgz:37846.got - 2010.06.03 11:52:47.
