data_PCOD9400561
_publ_section_title
;
Structure prediction by ZEFSAII (Michael W. Deem and Ramdas Pophale) SiO2 
 PCOD9400561
Probable space group: P M M A
;
_chemical_formula_sum "Si O2"
_cell_formula_units_Z 64
_cell_length_a 15.588406
_cell_length_b 13.936871
_cell_length_c 17.878348
_cell_angle_alpha 90.000000
_cell_angle_beta 90.000000
_cell_angle_gamma 90.000000
_cell_volume 3884.135528
_symmetry_space_group_name_H-M "P M M A"
_symmetry_group_IT_number 51
_symmetry_cell_setting 'orthorhombic'
loop_
_space_group_symop_operation_xyz
x,y,z
1/2-x,-y,z
1/2+x,-y,-z
-x,y,-z
-x,-y,-z
1/2+x,y,-z
1/2-x,y,z
x,-y,z
loop_
_atom_site_type_symbol
_atom_site_label
_atom_site_fract_x
_atom_site_fract_y
_atom_site_fract_z
Si Si1 0.655828 0.116777 0.307536
Si Si2 0.155725 0.886145 0.312275
Si Si3 0.351944 0.890107 0.013295
Si Si4 0.002393 0.116881 0.585623
Si Si5 0.649635 0.386174 0.029214
Si Si6 0.403759 0.112553 0.850854
Si Si7 0.976722 0.612810 0.885350
Si Si8 0.085536 0.803997 0.166205
O O1 0.750000 0.141379 0.335539
O O2 0.582478 0.149576 0.364068
O O3 0.645539 0.151277 0.221718
O O4 0.649367 0.000000 0.303701
O O5 0.250000 0.871565 0.344301
O O6 0.146033 0.832753 0.233762
O O7 0.082740 0.855951 0.369573
O O8 0.145025 0.000000 0.297375
O O9 0.250000 0.894435 0.005993
O O10 0.375479 0.827972 0.085095
O O11 0.384225 0.000000 0.024679
O O12 0.387503 0.850139 0.934774
O O13 0.000000 0.149923 0.500000
O O14 0.005736 0.000000 0.583626
O O15 0.750000 0.347075 0.029250
O O16 0.660254 0.500000 0.039707
O O17 0.574206 0.360221 0.089029
O O18 0.594050 0.377317 0.952407
O O19 0.502187 0.128095 0.829915
O O20 0.381550 0.000000 0.857322
O O21 0.976365 0.500000 0.864026
O O22 0.945974 0.694530 0.828710
#
# Coordination Sequence:
#
# PCOD9400561 Si02
#       8
#     8   8   8   8   8   8   8   8
#     4   9  16  28  46  65  90 125 157 189 233 277
#     4  10  20  34  51  72 100 132 165 199 235 280
#     4  10  21  33  44  63  90 123 168 210 239 276
#     4   9  17  30  48  70  96 126 160 194 228 273
#     4   8  15  31  51  65  83 113 150 201 257 296
#     4  10  19  31  45  62  88 122 161 201 238 273
#     4   9  20  34  47  68  91 115 156 202 247 300
#     4  12  21  31  48  66  91 129 161 198 244 284
#
# _framework density 16.477283
#
# number of rings (size 3 to 8) (size 9 to 14) (size 15 to 20)
#    0.000    2.375    1.250    3.000    3.500    5.000 
#    0.000    3.125    0.000    0.000    0.000    0.000 
#    0.000    0.500    0.000    0.000    0.000    0.000 
#
# Total GULP energy -356347.635704 kJ/mol
# GULP energy per Si atom -5567.931808 kJ/mol
# Density = 1.643978 g / cm^3
# Si number density = 16.477283 Si / 1000 Ang^3
#
#
#
# Elastic Constant Matrix: (Units=GPa)
#
#
# Indices 1 2 3 4 5 6 
#
# 1 102.2326 9.3671 33.0676 0.0000 0.0000 0.0000
# 2 9.3671 49.7796 18.0825 0.0000 0.0000 0.0000
# 3 33.0676 18.0825 87.9410 0.0000 0.0000 0.0000
# 4 0.0000 0.0000 0.0000 1.8215 0.0000 0.0000
# 5 0.0000 0.0000 0.0000 0.0000 -33.7728 0.0000
# 6 0.0000 0.0000 0.0000 0.0000 0.0000 -0.0278
#
#
#
# Elastic Compliance Matrix: (Units=1/GPa)
#
#
# Indices 1 2 3 4 5 6 
#
# 1 0.011154 -0.000622 -0.004066 0.000000 0.000000 0.000000
# 2 -0.000622 0.021745 -0.004237 0.000000 0.000000 0.000000
# 3 -0.004066 -0.004237 0.013772 0.000000 0.000000 0.000000
# 4 0.000000 0.000000 0.000000 0.549001 0.000000 0.000000
# 5 0.000000 0.000000 0.000000 0.000000 -0.029610 0.000000
# 6 0.000000 0.000000 0.000000 0.000000 0.000000-35.919789
#
#
# Mechanical properties :
#
#
# Convention : Reuss Voigt Hill
#
# Bulk Modulus (GPa) = 34.69882 40.10971 37.40427
# Shear Modulus (GPa) = -0.14154 5.56658 2.71252
#
# Velocity S-wave (km/s) = -0.29340 1.84002 1.28444
# Velocity P-wave (km/s) = 4.58143 5.37676 4.99495
#
# Compressibility (1/GPa) = 0.02881942
#
# Stress axis : x y z
#
# Youngs Moduli (GPa) = 89.65538 45.98803 72.61359
#
# Poissons Ratio (x) = 0.02859 0.29526
# Poissons Ratio (y) = 0.05575 0.30769
# Poissons Ratio (z) = 0.36456 0.19487
#
# Static dielectric constant tensor:
#      x y z
#    x 1.602040 0.000000 0.000000 
#    y 0.000000 1.559120 0.000000 
#    z 0.000000 0.000000 1.569600 
# 
# From -- ./inp_files/29935.got.cif
#   From: 2010.05.17/outbox.cif.g08.bks.cpg/sg51_15_cif.got.tgz:29935.got - 2010.06.03 11:52:47.
