data_PCOD9400345
_publ_section_title
;
Structure prediction by ZEFSAII (Michael W. Deem and Ramdas Pophale) SiO2 
 PCOD9400345
Probable space group: P M M A
;
_chemical_formula_sum "Si O2"
_cell_formula_units_Z 64
_cell_length_a 14.214064
_cell_length_b 8.791938
_cell_length_c 32.641469
_cell_angle_alpha 90.000000
_cell_angle_beta 90.000000
_cell_angle_gamma 90.000000
_cell_volume 4079.177269
_symmetry_space_group_name_H-M "P M M A"
_symmetry_group_IT_number 51
_symmetry_cell_setting 'orthorhombic'
loop_
_space_group_symop_operation_xyz
x,y,z
1/2-x,-y,z
1/2+x,-y,-z
-x,y,-z
-x,-y,-z
1/2+x,y,-z
1/2-x,y,z
x,-y,z
loop_
_atom_site_type_symbol
_atom_site_label
_atom_site_fract_x
_atom_site_fract_y
_atom_site_fract_z
Si Si1 0.858726 0.682962 0.184887
Si Si2 0.358856 0.181182 0.063397
Si Si3 0.360013 0.816974 0.481996
Si Si4 0.362086 0.320384 0.976483
Si Si5 0.028936 0.316317 0.894829
Si Si6 0.861116 0.815690 0.361300
Si Si7 0.135878 0.824240 0.729994
Si Si8 0.036093 0.317818 0.560805
O O1 0.750000 0.734351 0.179621
O O2 0.857699 0.500000 0.184139
O O3 0.921615 0.736356 0.146883
O O4 0.893602 0.735778 0.229408
O O5 0.250000 0.227558 0.068191
O O6 0.425242 0.254604 0.097276
O O7 0.364719 0.000000 0.065099
O O8 0.389847 0.236901 0.018220
O O9 0.250000 0.780959 0.475394
O O10 0.396444 0.749190 0.525118
O O11 0.432347 0.748038 0.448928
O O12 0.370010 0.000000 0.483013
O O13 0.250000 0.302223 0.971375
O O14 0.381801 0.500000 0.981965
O O15 0.411786 0.268136 0.934956
O O16 0.028170 0.500000 0.894448
O O17 0.750000 0.778740 0.366756
O O18 0.891685 0.768816 0.315289
O O19 0.922592 0.738717 0.396248
O O20 0.868356 0.000000 0.363695
O O21 0.250000 0.820323 0.729362
O O22 0.107408 0.000000 0.733935
O O23 0.034744 0.500000 0.558210
#
# Coordination Sequence:
#
# PCOD9400345 Si02
#       8
#     8   8   8   8   8   8   8   8
#     4   9  17  29  45  67  95 120 141 172 215 263
#     4  10  21  34  45  60  84 112 144 184 224 255
#     4  10  20  34  50  65  88 126 165 197 231 274
#     4   9  17  30  47  65  87 115 144 173 207 252
#     4  10  19  30  46  67  88 114 147 176 208 256
#     4   9  17  30  47  66  92 126 160 191 222 263
#     4   8  15  28  45  65  90 121 153 182 215 258
#     4  11  21  30  45  70  97 123 154 196 239 276
#
# _framework density 15.689439
#
# number of rings (size 3 to 8) (size 9 to 14) (size 15 to 20)
#    0.000    2.500    0.000    4.500    0.000    8.000 
#    0.000    1.250    0.000    3.750    0.000    0.875 
#    0.000    5.000    0.000    0.000    0.000    0.000 
#
# Total GULP energy -356822.911946 kJ/mol
# GULP energy per Si atom -5575.357999 kJ/mol
# Density = 1.565373 g / cm^3
# Si number density = 15.689439 Si / 1000 Ang^3
#
#
#
# Elastic Constant Matrix: (Units=GPa)
#
#
# Indices 1 2 3 4 5 6 
#
# 1 92.2894 36.1801 71.9660 0.0000 0.0000 0.0000
# 2 36.1801 39.8425 41.7072 0.0000 0.0000 0.0000
# 3 71.9660 41.7072 143.9729 0.0000 0.0000 0.0000
# 4 0.0000 0.0000 0.0000 25.5514 0.0000 0.0000
# 5 0.0000 0.0000 0.0000 0.0000 25.9866 0.0000
# 6 0.0000 0.0000 0.0000 0.0000 0.0000 14.2226
#
#
#
# Elastic Compliance Matrix: (Units=1/GPa)
#
#
# Indices 1 2 3 4 5 6 
#
# 1 0.020899 -0.011543 -0.007103 0.000000 0.000000 0.000000
# 2 -0.011543 0.042398 -0.006512 0.000000 0.000000 0.000000
# 3 -0.007103 -0.006512 0.012383 0.000000 0.000000 0.000000
# 4 0.000000 0.000000 0.000000 0.039137 0.000000 0.000000
# 5 0.000000 0.000000 0.000000 0.000000 0.038481 0.000000
# 6 0.000000 0.000000 0.000000 0.000000 0.000000 0.070310
#
#
# Mechanical properties :
#
#
# Convention : Reuss Voigt Hill
#
# Bulk Modulus (GPa) = 39.42654 63.97906 51.70280
# Shear Modulus (GPa) = 17.70669 21.56891 19.63780
#
# Velocity S-wave (km/s) = 3.36307 3.71177 3.54171
# Velocity P-wave (km/s) = 6.34541 7.69653 7.05340
#
# Compressibility (1/GPa) = 0.02536363
#
# Stress axis : x y z
#
# Youngs Moduli (GPa) = 47.84827 23.58615 80.75789
#
# Poissons Ratio (x) = 0.27225 0.57361
# Poissons Ratio (y) = 0.55231 0.52591
# Poissons Ratio (z) = 0.33986 0.15360
#
# Static dielectric constant tensor:
#      x y z
#    x 1.522930 0.000000 0.000000 
#    y 0.000000 1.529290 0.000000 
#    z 0.000000 0.000000 1.520160 
# 
# From -- ./inp_files/37806.got.cif
#   From: 2010.05.17/outbox.cif.g08.bks.cpg/sg51_19_cif.got.tgz:37806.got - 2010.06.03 11:52:47.
