data_PCOD9400659
_publ_section_title
;
Structure prediction by ZEFSAII (Michael W. Deem and Ramdas Pophale) SiO2 
 PCOD9400659
Probable space group: P M M A
;
_chemical_formula_sum "Si O2"
_cell_formula_units_Z 64
_cell_length_a 8.697506
_cell_length_b 23.029933
_cell_length_c 16.682903
_cell_angle_alpha 90.000000
_cell_angle_beta 90.000000
_cell_angle_gamma 90.000000
_cell_volume 3341.635193
_symmetry_space_group_name_H-M "P M M A"
_symmetry_group_IT_number 51
_symmetry_cell_setting 'orthorhombic'
loop_
_space_group_symop_operation_xyz
x,y,z
1/2-x,-y,z
1/2+x,-y,-z
-x,y,-z
-x,-y,-z
1/2+x,y,-z
1/2-x,y,z
x,-y,z
loop_
_atom_site_type_symbol
_atom_site_label
_atom_site_fract_x
_atom_site_fract_y
_atom_site_fract_z
Si Si1 0.573147 0.682529 0.704702
Si Si2 0.927373 0.276152 0.887192
Si Si3 0.064977 0.563120 0.745126
Si Si4 0.435254 0.775333 0.416933
Si Si5 0.566126 0.066384 0.771533
Si Si6 0.432158 0.600269 0.920022
Si Si7 0.565510 0.147966 0.086751
Si Si8 0.564669 0.910055 0.587064
O O1 0.750000 0.672279 0.681494
O O2 0.574442 0.710248 0.792749
O O3 0.490715 0.620898 0.701712
O O4 0.503917 0.732415 0.649921
O O5 0.750000 0.275971 0.916285
O O6 0.018775 0.332127 0.918238
O O7 0.003764 0.214140 0.903654
O O8 0.250000 0.563375 0.745087
O O9 0.012527 0.500000 0.715303
O O10 0.012527 0.571612 0.837463
O O11 0.500000 0.753522 0.500000
O O12 0.250000 0.775483 0.415444
O O13 0.480736 0.842240 0.408319
O O14 0.750000 0.078704 0.771435
O O15 0.490378 0.110272 0.835917
O O16 0.518147 0.068345 0.676607
O O17 0.541246 0.000000 0.798622
O O18 0.250000 0.596175 0.922090
O O19 0.500000 0.573353 0.000000
O O20 0.750000 0.147646 0.083997
O O21 0.500000 0.126829 0.000000
O O22 0.500000 0.931404 0.500000
O O23 0.750000 0.916879 0.582406
#
# Coordination Sequence:
#
# PCOD9400659 Si02
#       8
#     8   8   8   8   8   8   8   8
#     4   9  18  32  52  76 102 134 170 212 258 307
#     4  10  19  34  55  78 105 135 170 213 265 321
#     4   9  19  34  49  67  94 129 169 212 256 302
#     4   9  17  30  49  76 108 136 164 200 248 305
#     4  10  22  41  62  83 111 149 190 230 273 321
#     4  10  19  31  47  70 100 131 165 206 254 307
#     4  12  25  40  59  82 109 143 185 233 283 332
#     4   9  18  34  57  86 119 151 180 216 265 323
#
# _framework density 19.1523
#
# number of rings (size 3 to 8) (size 9 to 14) (size 15 to 20)
#    0.000    2.250    0.000    3.000    0.000    5.250 
#    0.000    2.500    0.000    0.375    0.000    0.000 
#    0.000    0.000    0.000    0.000    0.000    0.000 
#
# Total GULP energy -356678.693716 kJ/mol
# GULP energy per Si atom -5573.104589 kJ/mol
# Density = 1.910871 g / cm^3
# Si number density = 19.152300 Si / 1000 Ang^3
#
#
#
# Elastic Constant Matrix: (Units=GPa)
#
#
# Indices 1 2 3 4 5 6 
#
# 1 39.6959 22.6022 9.7151 0.0000 0.0000 0.0000
# 2 22.6022 95.5567 37.3622 0.0000 0.0000 0.0000
# 3 9.7151 37.3622 65.8890 0.0000 0.0000 0.0000
# 4 0.0000 0.0000 0.0000 -82.0606 0.0000 0.0000
# 5 0.0000 0.0000 0.0000 0.0000 28.3670 0.0000
# 6 0.0000 0.0000 0.0000 0.0000 0.0000 8.1310
#
#
#
# Elastic Compliance Matrix: (Units=1/GPa)
#
#
# Indices 1 2 3 4 5 6 
#
# 1 0.029125 -0.006694 -0.000499 0.000000 0.000000 0.000000
# 2 -0.006694 0.014985 -0.007510 0.000000 0.000000 0.000000
# 3 -0.000499 -0.007510 0.019509 0.000000 0.000000 0.000000
# 4 0.000000 0.000000 0.000000 -0.012186 0.000000 0.000000
# 5 0.000000 0.000000 0.000000 0.000000 0.035252 0.000000
# 6 0.000000 0.000000 0.000000 0.000000 0.000000 0.122986
#
#
# Mechanical properties :
#
#
# Convention : Reuss Voigt Hill
#
# Bulk Modulus (GPa) = 29.22816 37.83340 33.53078
# Shear Modulus (GPa) = 19.96162 -0.34839 9.80661
#
# Velocity S-wave (km/s) = 3.23190 -0.42697 2.26527
# Velocity P-wave (km/s) = 5.40564 4.42197 4.93836
#
# Compressibility (1/GPa) = 0.03421358
#
# Stress axis : x y z
#
# Youngs Moduli (GPa) = 34.33470 66.73455 51.25812
#
# Poissons Ratio (x) = 0.44673 0.02555
# Poissons Ratio (y) = 0.22984 0.38495
# Poissons Ratio (z) = 0.01712 0.50118
#
# Static dielectric constant tensor:
#      x y z
#    x 1.660660 0.000000 0.000000 
#    y 0.000000 1.669530 0.000000 
#    z 0.000000 0.000000 1.705550 
# 
# From -- ./inp_files/28454.got.cif
#   From: 2010.05.17/outbox.cif.g08.bks.cpg/sg51_15_cif.got.tgz:28454.got - 2010.06.03 11:52:47.
