data_PCOD9400528
_publ_section_title
;
Structure prediction by ZEFSAII (Michael W. Deem and Ramdas Pophale) SiO2 
 PCOD9400528
Probable space group: P M M A
;
_chemical_formula_sum "Si O2"
_cell_formula_units_Z 48
_cell_length_a 15.480468
_cell_length_b 19.466414
_cell_length_c 6.864918
_cell_angle_alpha 90.000000
_cell_angle_beta 90.000000
_cell_angle_gamma 90.000000
_cell_volume 2068.737541
_symmetry_space_group_name_H-M "P M M A"
_symmetry_group_IT_number 51
_symmetry_cell_setting 'orthorhombic'
loop_
_space_group_symop_operation_xyz
x,y,z
1/2-x,-y,z
1/2+x,-y,-z
-x,y,-z
-x,-y,-z
1/2+x,y,-z
1/2-x,y,z
x,-y,z
loop_
_atom_site_type_symbol
_atom_site_label
_atom_site_fract_x
_atom_site_fract_y
_atom_site_fract_z
Si Si1 0.527012 0.183815 0.731094
Si Si2 0.344841 0.342547 0.711383
Si Si3 0.345449 0.920623 0.378270
Si Si4 0.517030 0.421125 0.765887
Si Si5 0.343169 0.188970 0.725740
Si Si6 0.349045 0.310470 0.174659
O O1 0.500000 0.190371 0.500000
O O2 0.579868 0.113563 0.747653
O O3 0.434034 0.183219 0.835069
O O4 0.588417 0.246685 0.784706
O O5 0.250000 0.373603 0.667566
O O6 0.430910 0.386383 0.676902
O O7 0.346986 0.264973 0.627766
O O8 0.346489 0.325960 0.943498
O O9 0.250000 0.915693 0.286381
O O10 0.341761 0.872799 0.570527
O O11 0.361984 0.000000 0.424610
O O12 0.527644 0.500000 0.708982
O O13 0.602445 0.375893 0.733573
O O14 0.500000 0.420247 0.000000
O O15 0.250000 0.187052 0.831932
O O16 0.250000 0.300530 0.236692
#
# Coordination Sequence:
#
# PCOD9400528 Si02
#       6
#     8   8   8   8   8   8
#     4  10  19  30  49  72  96 129 167 205 245 287
#     4   9  17  30  49  73 101 131 164 202 245 297
#     4   9  18  32  50  74 101 127 162 209 251 288
#     4   9  17  29  47  73 101 127 158 199 249 298
#     4   9  17  29  46  69  95 126 160 197 244 294
#     4  10  19  31  49  73 100 130 166 207 248 293
#
# _framework density 23.202558
#
# number of rings (size 3 to 8) (size 9 to 14) (size 15 to 20)
#    0.000    2.667    1.667    0.500    0.000    4.333 
#    0.000    3.333    0.000    1.500    0.000   10.500 
#    0.000    0.000    0.000    0.000    0.000    0.000 
#
# Total GULP energy -268045.352168 kJ/mol
# GULP energy per Si atom -5584.278170 kJ/mol
# Density = 2.314975 g / cm^3
# Si number density = 23.202558 Si / 1000 Ang^3
#
#
#
# Elastic Constant Matrix: (Units=GPa)
#
#
# Indices 1 2 3 4 5 6 
#
# 1 262.2920 102.7858 7.5832 0.0000 0.0000 0.0000
# 2 102.7858 177.7870 6.0999 0.0000 0.0000 0.0000
# 3 7.5832 6.0999 75.7776 0.0000 0.0000 0.0000
# 4 0.0000 0.0000 0.0000 -11.4598 0.0000 0.0000
# 5 0.0000 0.0000 0.0000 0.0000 21.3165 0.0000
# 6 0.0000 0.0000 0.0000 0.0000 0.0000 32.4185
#
#
#
# Elastic Compliance Matrix: (Units=1/GPa)
#
#
# Indices 1 2 3 4 5 6 
#
# 1 0.004935 -0.002844 -0.000265 0.000000 0.000000 0.000000
# 2 -0.002844 0.007279 -0.000301 0.000000 0.000000 0.000000
# 3 -0.000265 -0.000301 0.013247 0.000000 0.000000 0.000000
# 4 0.000000 0.000000 0.000000 -0.087262 0.000000 0.000000
# 5 0.000000 0.000000 0.000000 0.000000 0.046912 0.000000
# 6 0.000000 0.000000 0.000000 0.000000 0.000000 0.030847
#
#
# Mechanical properties :
#
#
# Convention : Reuss Voigt Hill
#
# Bulk Modulus (GPa) = 53.64544 83.19938 68.42241
# Shear Modulus (GPa) = 172.46258 35.08090 103.77174
#
# Velocity S-wave (km/s) = 8.63079 3.89259 6.69488
# Velocity P-wave (km/s) = 11.06758 7.49257 9.45066
#
# Compressibility (1/GPa) = 0.01864091
#
# Stress axis : x y z
#
# Youngs Moduli (GPa) = 202.64971 137.37829 75.48719
#
# Poissons Ratio (x) = 0.39068 0.02000
# Poissons Ratio (y) = 0.57630 0.02275
# Poissons Ratio (z) = 0.05368 0.04140
#
# Static dielectric constant tensor:
#      x y z
#    x 1.919950 0.000000 0.000000 
#    y 0.000000 1.805840 0.000000 
#    z 0.000000 0.000000 2.029190 
# 
# From -- ./inp_files/8252.got.cif
#   From: 2010.05.17/outbox.cif.g08.bks.cpg/sg51_5_cif.got.tgz:8252.got - 2010.06.03 11:52:47.
