data_PCOD9400650
_publ_section_title
;
Structure prediction by ZEFSAII (Michael W. Deem and Ramdas Pophale) SiO2 
 PCOD9400650
Probable space group: P M M A
;
_chemical_formula_sum "Si O2"
_cell_formula_units_Z 64
_cell_length_a 8.152373
_cell_length_b 20.367379
_cell_length_c 20.306268
_cell_angle_alpha 90.000000
_cell_angle_beta 90.000000
_cell_angle_gamma 90.000000
_cell_volume 3371.702908
_symmetry_space_group_name_H-M "P M M A"
_symmetry_group_IT_number 51
_symmetry_cell_setting 'orthorhombic'
loop_
_space_group_symop_operation_xyz
x,y,z
1/2-x,-y,z
1/2+x,-y,-z
-x,y,-z
-x,-y,-z
1/2+x,y,-z
1/2-x,y,z
x,-y,z
loop_
_atom_site_type_symbol
_atom_site_label
_atom_site_fract_x
_atom_site_fract_y
_atom_site_fract_z
Si Si1 0.941909 0.313036 0.715166
Si Si2 0.052228 0.840286 0.568727
Si Si3 0.557646 0.073557 0.312414
Si Si4 0.055502 0.425085 0.813029
Si Si5 0.053798 0.336103 0.075102
Si Si6 0.444460 0.691527 0.569478
Si Si7 0.450621 0.217875 0.171753
Si Si8 0.559096 0.072324 0.833358
O O1 0.750000 0.301563 0.705651
O O2 0.006619 0.249505 0.757630
O O3 0.969238 0.374627 0.763440
O O4 0.013157 0.330536 0.643482
O O5 0.250000 0.839312 0.571445
O O6 0.993945 0.877138 0.633221
O O7 0.987244 0.766049 0.568838
O O8 0.000000 0.871857 0.500000
O O9 0.750000 0.087669 0.296313
O O10 0.456208 0.073883 0.245715
O O11 0.553666 0.000000 0.340230
O O12 0.250000 0.422249 0.800325
O O13 0.999751 0.500000 0.805661
O O14 0.021402 0.397545 0.885904
O O15 0.250000 0.340835 0.078990
O O16 0.004356 0.271218 0.116481
O O17 0.000000 0.332457 0.000000
O O18 0.500000 0.659425 0.500000
O O19 0.250000 0.693853 0.565445
O O20 0.250000 0.214752 0.175095
O O21 0.510287 0.145036 0.151223
O O22 0.750000 0.071783 0.853358
O O23 0.488618 0.000000 0.853560
#
# Coordination Sequence:
#
# PCOD9400650 Si02
#       8
#     8   8   8   8   8   8   8   8
#     4  10  19  32  52  76 103 135 171 212 256 303
#     4   9  18  29  40  56  79 111 150 194 245 299
#     4   9  17  28  39  54  80 111 144 188 244 301
#     4  10  21  37  57  82 111 141 172 204 240 288
#     4  10  20  35  55  79 109 142 175 210 247 291
#     4  10  19  31  47  68  95 126 165 212 261 310
#     4   8  16  30  48  72 100 130 166 209 255 300
#     4   9  16  27  45  67  89 117 157 203 249 297
#
# _framework density 18.981508000000002
#
# number of rings (size 3 to 8) (size 9 to 14) (size 15 to 20)
#    0.000    2.625    0.000    3.000    0.000    2.500 
#    0.000    3.125    0.000    0.750    0.000    0.000 
#    0.000    0.000    0.000    0.000    0.000    0.500 
#
# Total GULP energy -356337.875551 kJ/mol
# GULP energy per Si atom -5567.779305 kJ/mol
# Density = 1.893831 g / cm^3
# Si number density = 18.981508 Si / 1000 Ang^3
#
#
#
# Elastic Constant Matrix: (Units=GPa)
#
#
# Indices 1 2 3 4 5 6 
#
# 1 20.9731 -1.3395 2.8188 0.0000 0.0000 0.0000
# 2 -1.3395 82.0899 8.6174 0.0000 0.0000 0.0000
# 3 2.8188 8.6174 85.2150 0.0000 0.0000 0.0000
# 4 0.0000 0.0000 0.0000 13.3769 0.0000 0.0000
# 5 0.0000 0.0000 0.0000 0.0000 24.4679 0.0000
# 6 0.0000 0.0000 0.0000 0.0000 0.0000 12.6618
#
#
#
# Elastic Compliance Matrix: (Units=1/GPa)
#
#
# Indices 1 2 3 4 5 6 
#
# 1 0.047968 0.000959 -0.001684 0.000000 0.000000 0.000000
# 2 0.000959 0.012332 -0.001279 0.000000 0.000000 0.000000
# 3 -0.001684 -0.001279 0.011920 0.000000 0.000000 0.000000
# 4 0.000000 0.000000 0.000000 0.074756 0.000000 0.000000
# 5 0.000000 0.000000 0.000000 0.000000 0.040870 0.000000
# 6 0.000000 0.000000 0.000000 0.000000 0.000000 0.078978
#
#
# Mechanical properties :
#
#
# Convention : Reuss Voigt Hill
#
# Bulk Modulus (GPa) = 14.65989 23.16347 18.91168
# Shear Modulus (GPa) = 17.03189 21.98006 19.50598
#
# Velocity S-wave (km/s) = 2.99873 3.40659 3.20915
# Velocity P-wave (km/s) = 4.44183 5.26335 4.86994
#
# Compressibility (1/GPa) = 0.06821333
#
# Stress axis : x y z
#
# Youngs Moduli (GPa) = 20.84738 81.09207 83.89236
#
# Poissons Ratio (x) = -0.07781 0.14125
# Poissons Ratio (y) = -0.02000 0.10728
# Poissons Ratio (z) = 0.03510 0.10370
#
# Static dielectric constant tensor:
#      x y z
#    x 1.669790 0.000000 0.000000 
#    y 0.000000 1.703800 0.000000 
#    z 0.000000 0.000000 1.666420 
# 
# From -- ./inp_files/32600.got.cif
#   From: 2010.05.17/outbox.cif.g08.bks.cpg/sg51_17_cif.got.tgz:32600.got - 2010.06.03 11:52:47.
