data_PCOD9400222
_publ_section_title
;
Structure prediction by ZEFSAII (Michael W. Deem and Ramdas Pophale) SiO2 
 PCOD9400222
Probable space group: P M M A
;
_chemical_formula_sum "Si O2"
_cell_formula_units_Z 52
_cell_length_a 7.678591
_cell_length_b 19.614423
_cell_length_c 19.295064
_cell_angle_alpha 90.000000
_cell_angle_beta 90.000000
_cell_angle_gamma 90.000000
_cell_volume 2906.051429
_symmetry_space_group_name_H-M "P M M A"
_symmetry_group_IT_number 51
_symmetry_cell_setting 'orthorhombic'
loop_
_space_group_symop_operation_xyz
x,y,z
1/2-x,-y,z
1/2+x,-y,-z
-x,y,-z
-x,-y,-z
1/2+x,y,-z
1/2-x,y,z
x,-y,z
loop_
_atom_site_type_symbol
_atom_site_label
_atom_site_fract_x
_atom_site_fract_y
_atom_site_fract_z
Si Si1 0.959687 0.575947 0.580807
Si Si2 0.460736 0.787619 0.784039
Si Si3 0.453977 0.074400 0.711633
Si Si4 0.958464 0.000000 0.081820
Si Si5 0.042115 0.849775 0.419662
Si Si6 0.956214 0.288786 0.652309
Si Si7 0.459260 0.149923 0.919350
O O1 0.750000 0.573801 0.588042
O O2 0.026204 0.500000 0.598505
O O3 0.027535 0.639248 0.625756
O O4 0.000000 0.588487 0.500000
O O5 0.250000 0.786780 0.781810
O O6 0.525285 0.858419 0.749090
O O7 0.518862 0.727689 0.733271
O O8 0.517291 0.793689 0.863913
O O9 0.250000 0.071779 0.730677
O O10 0.468579 0.091700 0.630277
O O11 0.529284 0.000000 0.727818
O O12 0.024135 0.074404 0.104389
O O13 0.750000 0.000000 0.093132
O O14 0.000000 0.000000 0.000000
O O15 0.250000 0.850958 0.411149
O O16 0.974167 0.776775 0.390371
O O17 0.000000 0.857486 0.500000
O O18 0.750000 0.290111 0.638544
O O19 0.250000 0.146773 0.915315
O O20 0.500000 0.161275 0.000000
#
# Coordination Sequence:
#
# PCOD9400222 Si02
#       7
#     8   8   8   4   8   8   8
#     4   9  17  29  46  69  95 121 148 177 210 250
#     4   9  18  30  45  64  84 111 145 179 214 255
#     4   9  18  31  45  59  76 102 138 178 219 257
#     4   8  14  24  38  56  80 106 133 168 211 256
#     4  10  19  30  44  60  79 104 137 175 214 254
#     4   9  18  31  45  63  88 116 143 173 210 252
#     4   9  17  28  43  63  86 111 141 177 217 260
#
# _framework density 17.893695000000001
#
# number of rings (size 3 to 8) (size 9 to 14) (size 15 to 20)
#    0.000    2.923    0.000    0.923    1.077    2.462 
#    0.000    0.000    0.000    0.000    0.000    0.000 
#    0.000    0.615    0.000    1.385    0.000    2.154 
#
# Total GULP energy -289734.514601 kJ/mol
# GULP energy per Si atom -5571.817588 kJ/mol
# Density = 1.785297 g / cm^3
# Si number density = 17.893695 Si / 1000 Ang^3
#
#
#
# Elastic Constant Matrix: (Units=GPa)
#
#
# Indices 1 2 3 4 5 6 
#
# 1 30.9930 3.2694 -12.4761 0.0000 0.0000 0.0000
# 2 3.2694 104.4927 38.7949 0.0000 0.0000 0.0000
# 3 -12.4761 38.7949 83.0343 0.0000 0.0000 0.0000
# 4 0.0000 0.0000 0.0000 25.9276 0.0000 0.0000
# 5 0.0000 0.0000 0.0000 0.0000 14.4879 0.0000
# 6 0.0000 0.0000 0.0000 0.0000 0.0000 8.1713
#
#
#
# Elastic Compliance Matrix: (Units=1/GPa)
#
#
# Indices 1 2 3 4 5 6 
#
# 1 0.035511 -0.003741 0.007084 0.000000 0.000000 0.000000
# 2 -0.003741 0.011973 -0.006156 0.000000 0.000000 0.000000
# 3 0.007084 -0.006156 0.015984 0.000000 0.000000 0.000000
# 4 0.000000 0.000000 0.000000 0.038569 0.000000 0.000000
# 5 0.000000 0.000000 0.000000 0.000000 0.069023 0.000000
# 6 0.000000 0.000000 0.000000 0.000000 0.000000 0.122380
#
#
# Mechanical properties :
#
#
# Convention : Reuss Voigt Hill
#
# Bulk Modulus (GPa) = 17.28879 30.85517 24.07198
# Shear Modulus (GPa) = 15.70616 22.31282 19.00949
#
# Velocity S-wave (km/s) = 2.96590 3.53507 3.26292
# Velocity P-wave (km/s) = 4.62727 5.82609 5.26094
#
# Compressibility (1/GPa) = 0.05784095
#
# Stress axis : x y z
#
# Youngs Moduli (GPa) = 28.15997 83.52418 62.56397
#
# Poissons Ratio (x) = 0.31246 -0.44317
# Poissons Ratio (y) = 0.10535 0.38514
# Poissons Ratio (z) = -0.19947 0.51416
#
# Static dielectric constant tensor:
#      x y z
#    x 1.667990 0.000000 0.000000 
#    y 0.000000 1.631470 0.000000 
#    z 0.000000 0.000000 1.631250 
# 
# From -- ./inp_files/28206.got.cif
#   From: 2010.05.17/outbox.cif.g08.bks.cpg/sg51_15_cif.got.tgz:28206.got - 2010.06.03 11:52:47.
