data_PCOD9400351
_publ_section_title
;
Structure prediction by ZEFSAII (Michael W. Deem and Ramdas Pophale) SiO2 
 PCOD9400351
Probable space group: P M M A
;
_chemical_formula_sum "Si O2"
_cell_formula_units_Z 56
_cell_length_a 8.885504
_cell_length_b 22.053028
_cell_length_c 18.680530
_cell_angle_alpha 90.000000
_cell_angle_beta 90.000000
_cell_angle_gamma 90.000000
_cell_volume 3660.492230
_symmetry_space_group_name_H-M "P M M A"
_symmetry_group_IT_number 51
_symmetry_cell_setting 'orthorhombic'
loop_
_space_group_symop_operation_xyz
x,y,z
1/2-x,-y,z
1/2+x,-y,-z
-x,y,-z
-x,-y,-z
1/2+x,y,-z
1/2-x,y,z
x,-y,z
loop_
_atom_site_type_symbol
_atom_site_label
_atom_site_fract_x
_atom_site_fract_y
_atom_site_fract_z
Si Si1 0.576863 0.634645 0.699770
Si Si2 0.930071 0.291806 0.421541
Si Si3 0.068901 0.568271 0.827179
Si Si4 0.929150 0.683188 0.077846
Si Si5 0.422482 0.754635 0.199495
Si Si6 0.931552 0.177986 0.663632
Si Si7 0.571012 0.928550 0.422231
O O1 0.750000 0.620721 0.682098
O O2 0.484031 0.653481 0.629870
O O3 0.503302 0.584439 0.750643
O O4 0.576529 0.695196 0.749312
O O5 0.750000 0.288673 0.424384
O O6 0.000000 0.298134 0.500000
O O7 0.995413 0.230351 0.385711
O O8 0.250000 0.572161 0.820519
O O9 0.028791 0.500000 0.849256
O O10 0.021941 0.619923 0.883924
O O11 0.750000 0.682371 0.072167
O O12 0.979877 0.736759 0.131302
O O13 0.000000 0.688847 0.000000
O O14 0.250000 0.765387 0.177291
O O15 0.472660 0.807310 0.253828
O O16 0.750000 0.182137 0.658154
O O17 0.991843 0.114388 0.635190
O O18 0.500000 0.914966 0.500000
O O19 0.750000 0.917151 0.424208
O O20 0.546923 0.000000 0.408120
#
# Coordination Sequence:
#
# PCOD9400351 Si02
#       7
#     8   8   8   8   8   8   8
#     4   9  17  30  46  65  87 111 143 182 225 269
#     4  11  20  30  45  65  89 115 145 184 229 273
#     4   9  18  32  48  66  88 117 152 183 214 259
#     4  10  19  30  46  67  93 122 148 179 219 263
#     4   8  16  30  46  64  87 114 145 182 222 266
#     4  10  19  31  47  67  91 119 153 192 230 269
#     4  10  20  32  45  63  91 128 166 200 233 269
#
# _framework density 15.298489
#
# number of rings (size 3 to 8) (size 9 to 14) (size 15 to 20)
#    0.000    2.429    0.000    4.286    0.000    6.000 
#    0.000    0.000    0.000    0.429    0.000    0.000 
#    0.000    0.571    0.000    1.857    0.000    2.714 
#
# Total GULP energy -312165.002806 kJ/mol
# GULP energy per Si atom -5574.375050 kJ/mol
# Density = 1.526367 g / cm^3
# Si number density = 15.298489 Si / 1000 Ang^3
#
#
#
# Elastic Constant Matrix: (Units=GPa)
#
#
# Indices 1 2 3 4 5 6 
#
# 1 80.5743 32.9747 62.8121 0.0000 0.0000 0.0000
# 2 32.9747 60.5275 50.1443 0.0000 0.0000 0.0000
# 3 62.8121 50.1443 121.1405 0.0000 0.0000 0.0000
# 4 0.0000 0.0000 0.0000 18.4052 0.0000 0.0000
# 5 0.0000 0.0000 0.0000 0.0000 23.3519 0.0000
# 6 0.0000 0.0000 0.0000 0.0000 0.0000 20.1868
#
#
#
# Elastic Compliance Matrix: (Units=1/GPa)
#
#
# Indices 1 2 3 4 5 6 
#
# 1 0.021375 -0.003749 -0.009532 0.000000 0.000000 0.000000
# 2 -0.003749 0.025801 -0.008736 0.000000 0.000000 0.000000
# 3 -0.009532 -0.008736 0.016813 0.000000 0.000000 0.000000
# 4 0.000000 0.000000 0.000000 0.054333 0.000000 0.000000
# 5 0.000000 0.000000 0.000000 0.000000 0.042823 0.000000
# 6 0.000000 0.000000 0.000000 0.000000 0.000000 0.049537
#
#
# Mechanical properties :
#
#
# Convention : Reuss Voigt Hill
#
# Bulk Modulus (GPa) = 50.10796 61.56717 55.83756
# Shear Modulus (GPa) = 19.13006 20.14283 19.63644
#
# Velocity S-wave (km/s) = 3.54001 3.63251 3.58656
# Velocity P-wave (km/s) = 7.03801 7.61084 7.33002
#
# Compressibility (1/GPa) = 0.01995691
#
# Stress axis : x y z
#
# Youngs Moduli (GPa) = 46.78267 38.75768 59.47639
#
# Poissons Ratio (x) = 0.14529 0.56691
# Poissons Ratio (y) = 0.17537 0.51961
# Poissons Ratio (z) = 0.44591 0.33860
#
# Static dielectric constant tensor:
#      x y z
#    x 1.513570 0.000000 0.000000 
#    y 0.000000 1.510400 0.000000 
#    z 0.000000 0.000000 1.496230 
# 
# From -- ./inp_files/28195.got.cif
#   From: 2010.05.17/outbox.cif.g08.bks.cpg/sg51_15_cif.got.tgz:28195.got - 2010.06.03 11:52:47.
