data_PCOD9400038
_publ_section_title
;
Structure prediction by ZEFSAII (Michael W. Deem and Ramdas Pophale) SiO2 
 PCOD9400038
Probable space group: P M M A
;
_chemical_formula_sum "Si O2"
_cell_formula_units_Z 64
_cell_length_a 9.166710
_cell_length_b 21.673128
_cell_length_c 21.990118
_cell_angle_alpha 90.000000
_cell_angle_beta 90.000000
_cell_angle_gamma 90.000000
_cell_volume 4368.804872
_symmetry_space_group_name_H-M "P M M A"
_symmetry_group_IT_number 51
_symmetry_cell_setting 'orthorhombic'
loop_
_space_group_symop_operation_xyz
x,y,z
1/2-x,-y,z
1/2+x,-y,-z
-x,y,-z
-x,-y,-z
1/2+x,y,-z
1/2-x,y,z
x,-y,z
loop_
_atom_site_type_symbol
_atom_site_label
_atom_site_fract_x
_atom_site_fract_y
_atom_site_fract_z
Si Si1 0.080916 0.925866 0.063832
Si Si2 0.925075 0.428981 0.434029
Si Si3 0.085443 0.739209 0.943808
Si Si4 0.574340 0.351497 0.669158
Si Si5 0.582124 0.650840 0.862536
Si Si6 0.915536 0.156394 0.159481
Si Si7 0.082858 0.426934 0.772913
Si Si8 0.418259 0.244506 0.244154
O O1 0.250000 0.906218 0.059410
O O2 0.007037 0.894559 0.122581
O O3 0.075765 0.000000 0.070347
O O4 0.000000 0.911420 0.000000
O O5 0.750000 0.421228 0.437779
O O6 0.951007 0.500000 0.411272
O O7 0.000000 0.425286 0.500000
O O8 0.996254 0.377386 0.390827
O O9 0.250000 0.722671 0.960533
O O10 0.091198 0.787834 0.889255
O O11 0.992989 0.681330 0.920457
O O12 0.000000 0.767609 0.000000
O O13 0.750000 0.353745 0.663596
O O14 0.518233 0.398318 0.720898
O O15 0.535153 0.283388 0.695920
O O16 0.750000 0.633865 0.872352
O O17 0.484903 0.596200 0.835913
O O18 0.579974 0.703771 0.809639
O O19 0.750000 0.135659 0.171523
O O20 0.988393 0.187253 0.219064
O O21 0.250000 0.404259 0.766030
O O22 0.083489 0.500000 0.768642
O O23 0.250000 0.225429 0.251900
#
# Coordination Sequence:
#
# PCOD9400038 Si02
#       8
#     8   8   8   8   8   8   8   8
#     4  10  20  32  45  61  84 115 148 181 215 252
#     4  10  20  32  45  62  86 117 151 185 219 256
#     4  10  19  29  42  60  79  99 124 155 195 241
#     4  10  19  30  45  64  85 109 138 173 211 249
#     4   9  17  29  43  58  76  97 122 155 195 238
#     4  10  19  29  44  64  84 107 135 170 208 245
#     4  10  19  29  42  60  80 101 125 156 196 241
#     4   8  16  29  43  60  82 106 132 166 207 249
#
# _framework density 14.649316000000001
#
# number of rings (size 3 to 8) (size 9 to 14) (size 15 to 20)
#    0.000    2.375    0.000    4.125    0.000   10.000 
#    0.000    0.000    0.000    0.375    0.000    0.000 
#    0.000    0.000    0.000    0.000    0.000    0.625 
#
# Total GULP energy -356501.585545 kJ/mol
# GULP energy per Si atom -5570.337274 kJ/mol
# Density = 1.461597 g / cm^3
# Si number density = 14.649316 Si / 1000 Ang^3
#
#
#
# Elastic Constant Matrix: (Units=GPa)
#
#
# Indices 1 2 3 4 5 6 
#
# 1 97.5987 33.1707 36.3890 0.0000 0.0000 0.0000
# 2 33.1707 42.1498 28.7463 0.0000 0.0000 0.0000
# 3 36.3890 28.7463 49.0157 0.0000 0.0000 0.0000
# 4 0.0000 0.0000 0.0000 26.5275 0.0000 0.0000
# 5 0.0000 0.0000 0.0000 0.0000 23.6822 0.0000
# 6 0.0000 0.0000 0.0000 0.0000 0.0000 18.8765
#
#
#
# Elastic Compliance Matrix: (Units=1/GPa)
#
#
# Indices 1 2 3 4 5 6 
#
# 1 0.015373 -0.007190 -0.007196 0.000000 0.000000 0.000000
# 2 -0.007190 0.042903 -0.019823 0.000000 0.000000 0.000000
# 3 -0.007196 -0.019823 0.037369 0.000000 0.000000 0.000000
# 4 0.000000 0.000000 0.000000 0.037697 0.000000 0.000000
# 5 0.000000 0.000000 0.000000 0.000000 0.042226 0.000000
# 6 0.000000 0.000000 0.000000 0.000000 0.000000 0.052976
#
#
# Mechanical properties :
#
#
# Convention : Reuss Voigt Hill
#
# Bulk Modulus (GPa) = 36.72891 42.81957 39.77424
# Shear Modulus (GPa) = 16.33785 19.84779 18.09282
#
# Velocity S-wave (km/s) = 3.34318 3.68484 3.51816
# Velocity P-wave (km/s) = 6.32685 6.88456 6.61159
#
# Compressibility (1/GPa) = 0.02722651
#
# Stress axis : x y z
#
# Youngs Moduli (GPa) = 65.05049 23.30830 26.75987
#
# Poissons Ratio (x) = 0.16760 0.19255
# Poissons Ratio (y) = 0.46774 0.53047
# Poissons Ratio (z) = 0.46808 0.46205
#
# Static dielectric constant tensor:
#      x y z
#    x 1.508290 0.000000 0.000000 
#    y 0.000000 1.487110 0.000000 
#    z 0.000000 0.000000 1.498960 
# 
# From -- ./inp_files/32568.got.cif
#   From: 2010.05.17/outbox.cif.g08.bks.cpg/sg51_17_cif.got.tgz:32568.got - 2010.06.03 11:52:47.
