data_PCOD9400442
_publ_section_title
;
Structure prediction by ZEFSAII (Michael W. Deem and Ramdas Pophale) SiO2 
 PCOD9400442
Probable space group: P M M A
;
_chemical_formula_sum "Si O2"
_cell_formula_units_Z 64
_cell_length_a 24.136516
_cell_length_b 7.995695
_cell_length_c 19.709110
_cell_angle_alpha 90.000000
_cell_angle_beta 90.000000
_cell_angle_gamma 90.000000
_cell_volume 3803.626063
_symmetry_space_group_name_H-M "P M M A"
_symmetry_group_IT_number 51
_symmetry_cell_setting 'orthorhombic'
loop_
_space_group_symop_operation_xyz
x,y,z
1/2-x,-y,z
1/2+x,-y,-z
-x,y,-z
-x,-y,-z
1/2+x,y,-z
1/2-x,y,z
x,-y,z
loop_
_atom_site_type_symbol
_atom_site_label
_atom_site_fract_x
_atom_site_fract_y
_atom_site_fract_z
Si Si1 0.130819 0.702428 0.753056
Si Si2 0.812154 0.798704 0.386984
Si Si3 0.031068 0.694945 0.398663
Si Si4 0.418453 0.803597 0.533322
Si Si5 0.980989 0.798122 0.893052
Si Si6 0.503829 0.700513 0.255577
Si Si7 0.812659 0.700936 0.107648
Si Si8 0.913057 0.798531 0.020681
O O1 0.129279 0.500000 0.755283
O O2 0.166013 0.754054 0.687796
O O3 0.159025 0.763035 0.822608
O O4 0.067435 0.763675 0.746505
O O5 0.750000 0.733214 0.397964
O O6 0.859350 0.741707 0.439761
O O7 0.809837 0.000000 0.392019
O O8 0.046245 0.500000 0.397496
O O9 0.070348 0.781874 0.453542
O O10 0.027848 0.763939 0.322311
O O11 0.968553 0.711693 0.428089
O O12 0.423856 0.000000 0.549999
O O13 0.976346 0.738784 0.816375
O O14 0.039803 0.741585 0.925482
O O15 0.981474 0.000000 0.892759
O O16 0.934032 0.743123 0.946546
O O17 0.507008 0.500000 0.263429
O O18 0.750000 0.764360 0.100387
O O19 0.810066 0.500000 0.112812
O O20 0.853500 0.742773 0.046131
O O21 0.914323 0.000000 0.020836
#
# Coordination Sequence:
#
# PCOD9400442 Si02
#       8
#     8   8   8   8   8   8   8   8
#     4  10  19  32  46  65  95 129 163 192 223 267
#     4  10  21  34  47  66  93 125 161 197 230 268
#     4  10  19  31  47  67  94 121 151 191 232 276
#     4  10  19  31  47  67  90 120 157 193 232 275
#     4   9  18  31  48  68  93 121 152 192 234 277
#     4  10  19  30  47  71  95 123 155 187 231 278
#     4  10  20  32  46  66  93 126 162 196 227 265
#     4   9  18  32  47  67  92 121 156 193 233 273
#
# _framework density 16.826049999999999
#
# number of rings (size 3 to 8) (size 9 to 14) (size 15 to 20)
#    0.000    2.250    2.500    2.625    0.000    4.000 
#    0.000    1.250    0.000    0.000    0.000    0.875 
#    0.000    3.000    0.000    0.000    0.000    0.000 
#
# Total GULP energy -356956.996623 kJ/mol
# GULP energy per Si atom -5577.453072 kJ/mol
# Density = 1.678775 g / cm^3
# Si number density = 16.826050 Si / 1000 Ang^3
#
#
#
# Elastic Constant Matrix: (Units=GPa)
#
#
# Indices 1 2 3 4 5 6 
#
# 1 95.2248 -1.0455 59.2756 0.0000 0.0000 0.0000
# 2 -1.0455 8.6634 -6.0902 0.0000 0.0000 0.0000
# 3 59.2756 -6.0902 128.3859 0.0000 0.0000 0.0000
# 4 0.0000 0.0000 0.0000 22.5071 0.0000 0.0000
# 5 0.0000 0.0000 0.0000 0.0000 18.4033 0.0000
# 6 0.0000 0.0000 0.0000 0.0000 0.0000 16.4604
#
#
#
# Elastic Compliance Matrix: (Units=1/GPa)
#
#
# Indices 1 2 3 4 5 6 
#
# 1 0.014818 -0.003125 -0.006990 0.000000 0.000000 0.000000
# 2 -0.003125 0.120069 0.007139 0.000000 0.000000 0.000000
# 3 -0.006990 0.007139 0.011355 0.000000 0.000000 0.000000
# 4 0.000000 0.000000 0.000000 0.044430 0.000000 0.000000
# 5 0.000000 0.000000 0.000000 0.000000 0.054338 0.000000
# 6 0.000000 0.000000 0.000000 0.000000 0.000000 0.060752
#
#
# Mechanical properties :
#
#
# Convention : Reuss Voigt Hill
#
# Bulk Modulus (GPa) = 7.12812 37.39486 22.26149
# Shear Modulus (GPa) = 13.94782 23.48310 18.71546
#
# Velocity S-wave (km/s) = 2.88226 3.73988 3.33872
# Velocity P-wave (km/s) = 3.91435 6.39700 5.30300
#
# Compressibility (1/GPa) = 0.14028935
#
# Stress axis : x y z
#
# Youngs Moduli (GPa) = 67.48485 8.32852 88.06837
#
# Poissons Ratio (x) = 0.02603 0.61558
# Poissons Ratio (y) = 0.21091 -0.62869
# Poissons Ratio (z) = 0.47170 -0.05945
#
# Static dielectric constant tensor:
#      x y z
#    x 1.562440 0.000000 0.000000 
#    y 0.000000 1.601200 0.000000 
#    z 0.000000 0.000000 1.576570 
# 
# From -- ./inp_files/34054.got.cif
#   From: 2010.05.17/outbox.cif.g08.bks.cpg/sg51_18_cif.got.tgz:34054.got - 2010.06.03 11:52:47.
