data_PCOD9400752
_publ_section_title
;
Structure prediction by ZEFSAII (Michael W. Deem and Ramdas Pophale) SiO2 
 PCOD9400752
Probable space group: P M M A
;
_chemical_formula_sum "Si O2"
_cell_formula_units_Z 64
_cell_length_a 20.121029
_cell_length_b 9.272773
_cell_length_c 19.978832
_cell_angle_alpha 90.000000
_cell_angle_beta 90.000000
_cell_angle_gamma 90.000000
_cell_volume 3727.605211
_symmetry_space_group_name_H-M "P M M A"
_symmetry_group_IT_number 51
_symmetry_cell_setting 'orthorhombic'
loop_
_space_group_symop_operation_xyz
x,y,z
1/2-x,-y,z
1/2+x,-y,-z
-x,y,-z
-x,-y,-z
1/2+x,y,-z
1/2-x,y,z
x,-y,z
loop_
_atom_site_type_symbol
_atom_site_label
_atom_site_fract_x
_atom_site_fract_y
_atom_site_fract_z
Si Si1 0.826610 0.328900 0.393114
Si Si2 0.577077 0.333857 0.024843
Si Si3 0.114802 0.168096 0.103523
Si Si4 0.912774 0.327471 0.645983
Si Si5 0.038015 0.169170 0.846203
Si Si6 0.327400 0.172350 0.466266
Si Si7 0.326079 0.668133 0.224708
Si Si8 0.945822 0.327496 0.294785
O O1 0.750000 0.304392 0.372588
O O2 0.833895 0.500000 0.408171
O O3 0.839029 0.239141 0.460418
O O4 0.879137 0.293158 0.335539
O O5 0.597268 0.500000 0.032242
O O6 0.577836 0.249942 0.094913
O O7 0.500000 0.332782 0.000000
O O8 0.616572 0.253265 0.966223
O O9 0.161174 0.237640 0.159484
O O10 0.039732 0.181109 0.133017
O O11 0.128627 0.000000 0.093075
O O12 0.905836 0.500000 0.635043
O O13 0.877566 0.243252 0.586275
O O14 0.874459 0.291014 0.714828
O O15 0.990016 0.294619 0.659063
O O16 0.048791 0.243639 0.774854
O O17 0.054515 0.000000 0.844073
O O18 0.250000 0.205535 0.448315
O O19 0.334676 0.000000 0.467418
O O20 0.250000 0.680739 0.247242
O O21 0.339332 0.500000 0.208225
O O22 0.947764 0.500000 0.281324
#
# Coordination Sequence:
#
# PCOD9400752 Si02
#       8
#     8   8   8   8   8   8   8   8
#     4   9  19  37  59  80 102 132 172 215 261 316
#     4   9  17  29  49  73  99 133 172 213 255 303
#     4  10  19  31  48  72 103 136 172 216 263 309
#     4  10  20  34  53  76 105 138 176 219 261 309
#     4  10  19  31  49  76 108 137 167 210 264 314
#     4  10  21  36  54  76 104 139 177 216 259 310
#     4  10  20  33  50  72 101 141 183 218 258 311
#     4  10  20  34  55  80 106 137 173 216 264 315
#
# _framework density 17.1692
#
# number of rings (size 3 to 8) (size 9 to 14) (size 15 to 20)
#    0.000    2.250    1.250    1.875    0.000    6.000 
#    0.000    2.500    0.000    0.750    0.000    1.750 
#    0.000    0.000    0.000    0.000    0.000    0.000 
#
# Total GULP energy -357101.601039 kJ/mol
# GULP energy per Si atom -5579.712516 kJ/mol
# Density = 1.713012 g / cm^3
# Si number density = 17.169200 Si / 1000 Ang^3
#
#
#
# Elastic Constant Matrix: (Units=GPa)
#
#
# Indices 1 2 3 4 5 6 
#
# 1 64.6684 45.9116 54.5928 0.0000 0.0000 0.0000
# 2 45.9116 83.2031 71.6700 0.0000 0.0000 0.0000
# 3 54.5928 71.6700 113.5820 0.0000 0.0000 0.0000
# 4 0.0000 0.0000 0.0000 -20.4416 0.0000 0.0000
# 5 0.0000 0.0000 0.0000 0.0000 22.3768 0.0000
# 6 0.0000 0.0000 0.0000 0.0000 0.0000 14.7121
#
#
#
# Elastic Compliance Matrix: (Units=1/GPa)
#
#
# Indices 1 2 3 4 5 6 
#
# 1 0.028597 -0.008632 -0.008299 0.000000 0.000000 0.000000
# 2 -0.008632 0.028935 -0.014109 0.000000 0.000000 0.000000
# 3 -0.008299 -0.014109 0.021696 0.000000 0.000000 0.000000
# 4 0.000000 0.000000 0.000000 -0.048920 0.000000 0.000000
# 5 0.000000 0.000000 0.000000 0.000000 0.044689 0.000000
# 6 0.000000 0.000000 0.000000 0.000000 0.000000 0.067971
#
#
# Mechanical properties :
#
#
# Convention : Reuss Voigt Hill
#
# Bulk Modulus (GPa) = 58.31178 67.31138 62.81158
# Shear Modulus (GPa) = 23.72312 9.28140 16.50226
#
# Velocity S-wave (km/s) = 3.72119 2.32757 3.10361
# Velocity P-wave (km/s) = 7.24567 6.82006 7.03609
#
# Compressibility (1/GPa) = 0.01714919
#
# Stress axis : x y z
#
# Youngs Moduli (GPa) = 34.96840 34.55978 46.09175
#
# Poissons Ratio (x) = 0.29831 0.38250
# Poissons Ratio (y) = 0.30184 0.65032
# Poissons Ratio (z) = 0.29019 0.48762
#
# Static dielectric constant tensor:
#      x y z
#    x 1.577290 0.000000 0.000000 
#    y 0.000000 1.573790 0.000000 
#    z 0.000000 0.000000 1.547420 
# 
# From -- ./inp_files/30543.got.cif
#   From: 2010.05.17/outbox.cif.g08.bks.cpg/sg51_16_cif.got.tgz:30543.got - 2010.06.03 11:52:47.
