data_PCOD9400121
_publ_section_title
;
Structure prediction by ZEFSAII (Michael W. Deem and Ramdas Pophale) SiO2 
 PCOD9400121
Probable space group: P M M A
;
_chemical_formula_sum "Si O2"
_cell_formula_units_Z 64
_cell_length_a 19.682500
_cell_length_b 9.507437
_cell_length_c 20.787328
_cell_angle_alpha 90.000000
_cell_angle_beta 90.000000
_cell_angle_gamma 90.000000
_cell_volume 3889.935365
_symmetry_space_group_name_H-M "P M M A"
_symmetry_group_IT_number 51
_symmetry_cell_setting 'orthorhombic'
loop_
_space_group_symop_operation_xyz
x,y,z
1/2-x,-y,z
1/2+x,-y,-z
-x,y,-z
-x,-y,-z
1/2+x,y,-z
1/2-x,y,z
x,-y,z
loop_
_atom_site_type_symbol
_atom_site_label
_atom_site_fract_x
_atom_site_fract_y
_atom_site_fract_z
Si Si1 0.605194 0.161784 0.813742
Si Si2 0.432697 0.166296 0.542790
Si Si3 0.953444 0.663310 0.327735
Si Si4 0.926396 0.337158 0.080105
Si Si5 0.330067 0.161817 0.430723
Si Si6 0.559748 0.838100 0.202604
Si Si7 0.117204 0.337226 0.311112
Si Si8 0.090833 0.662773 0.063796
O O1 0.522670 0.162271 0.806075
O O2 0.632607 0.251403 0.753840
O O3 0.620319 0.236929 0.881473
O O4 0.627550 0.000000 0.811872
O O5 0.500000 0.191200 0.500000
O O6 0.434071 0.259310 0.606447
O O7 0.370297 0.198191 0.495510
O O8 0.431682 0.000000 0.559730
O O9 0.932901 0.500000 0.327143
O O10 0.925753 0.747567 0.266131
O O11 0.035622 0.667096 0.321573
O O12 0.908571 0.500000 0.093644
O O13 0.910245 0.236185 0.139294
O O14 0.008632 0.334268 0.072120
O O15 0.896346 0.297177 0.010448
O O16 0.250000 0.166304 0.441357
O O17 0.350021 0.262085 0.372298
O O18 0.349908 0.000000 0.414115
O O19 0.580794 0.000000 0.209053
O O20 0.137435 0.500000 0.305417
O O21 0.111406 0.500000 0.073385
#
# Coordination Sequence:
#
# PCOD9400121 Si02
#       8
#     8   8   8   8   8   8   8   8
#     4   9  16  24  36  54  77 106 143 185 224 263
#     4  10  19  32  51  71  91 117 149 187 228 274
#     4  10  19  29  44  65  88 114 148 189 229 270
#     4   8  13  21  32  46  70 105 142 179 220 266
#     4  10  21  36  52  70  93 120 149 184 230 280
#     4   9  16  24  35  53  78 108 143 183 225 268
#     4  10  19  30  45  64  87 115 148 187 227 269
#     4   8  13  21  32  47  70 103 142 181 220 263
#
# _framework density 16.452715000000001
#
# number of rings (size 3 to 8) (size 9 to 14) (size 15 to 20)
#    0.000    2.750    1.250    2.250    0.000    5.500 
#    0.000    2.500    0.000    0.000    0.000    0.000 
#    0.000    0.000    0.000    1.125    0.000   18.750 
#
# Total GULP energy -356620.849100 kJ/mol
# GULP energy per Si atom -5572.200767 kJ/mol
# Density = 1.641527 g / cm^3
# Si number density = 16.452715 Si / 1000 Ang^3
#
#
#
# Elastic Constant Matrix: (Units=GPa)
#
#
# Indices 1 2 3 4 5 6 
#
# 1 11.4281 22.4938 20.8611 0.0000 0.0000 0.0000
# 2 22.4938 146.8098 124.3388 0.0000 0.0000 0.0000
# 3 20.8611 124.3388 172.8726 0.0000 0.0000 0.0000
# 4 0.0000 0.0000 0.0000 33.0788 0.0000 0.0000
# 5 0.0000 0.0000 0.0000 0.0000 3.1267 0.0000
# 6 0.0000 0.0000 0.0000 0.0000 0.0000 5.9638
#
#
#
# Elastic Compliance Matrix: (Units=1/GPa)
#
#
# Indices 1 2 3 4 5 6 
#
# 1 0.126053 -0.016453 -0.003377 0.000000 0.000000 0.000000
# 2 -0.016453 0.019575 -0.012094 0.000000 0.000000 0.000000
# 3 -0.003377 -0.012094 0.014891 0.000000 0.000000 0.000000
# 4 0.000000 0.000000 0.000000 0.030231 0.000000 0.000000
# 5 0.000000 0.000000 0.000000 0.000000 0.319826 0.000000
# 6 0.000000 0.000000 0.000000 0.000000 0.000000 0.167679
#
#
# Mechanical properties :
#
#
# Convention : Reuss Voigt Hill
#
# Bulk Modulus (GPa) = 10.34445 74.05533 42.19989
# Shear Modulus (GPa) = 6.45721 19.32831 12.89276
#
# Velocity S-wave (km/s) = 1.98324 3.43122 2.80237
# Velocity P-wave (km/s) = 3.39784 7.79785 6.01464
#
# Compressibility (1/GPa) = 0.09667024
#
# Stress axis : x y z
#
# Youngs Moduli (GPa) = 7.93316 51.08432 67.15487
#
# Poissons Ratio (x) = 0.84049 0.22681
# Poissons Ratio (y) = 0.13052 0.81219
# Poissons Ratio (z) = 0.02679 0.61783
#
# Static dielectric constant tensor:
#      x y z
#    x 1.526950 0.000000 0.000000 
#    y 0.000000 1.555800 0.000000 
#    z 0.000000 0.000000 1.551180 
# 
# From -- ./inp_files/34050.got.cif
#   From: 2010.05.17/outbox.cif.g08.bks.cpg/sg51_18_cif.got.tgz:34050.got - 2010.06.03 11:52:47.
