data_PCOD9400590
_publ_section_title
;
Structure prediction by ZEFSAII (Michael W. Deem and Ramdas Pophale) SiO2 
 PCOD9400590
Probable space group: P M M A
;
_chemical_formula_sum "Si O2"
_cell_formula_units_Z 64
_cell_length_a 8.141405
_cell_length_b 21.362219
_cell_length_c 18.070020
_cell_angle_alpha 90.000000
_cell_angle_beta 90.000000
_cell_angle_gamma 90.000000
_cell_volume 3142.710350
_symmetry_space_group_name_H-M "P M M A"
_symmetry_group_IT_number 51
_symmetry_cell_setting 'orthorhombic'
loop_
_space_group_symop_operation_xyz
x,y,z
1/2-x,-y,z
1/2+x,-y,-z
-x,y,-z
-x,-y,-z
1/2+x,y,-z
1/2-x,y,z
x,-y,z
loop_
_atom_site_type_symbol
_atom_site_label
_atom_site_fract_x
_atom_site_fract_y
_atom_site_fract_z
Si Si1 0.442798 0.067274 0.613488
Si Si2 0.051550 0.569538 0.873921
Si Si3 0.051995 0.335546 0.578846
Si Si4 0.443634 0.932152 0.218823
Si Si5 0.549932 0.430352 0.297419
Si Si6 0.443049 0.295806 0.079832
Si Si7 0.444723 0.198777 0.798211
Si Si8 0.951419 0.201482 0.373429
O O1 0.250000 0.066268 0.594273
O O2 0.459907 0.068871 0.703085
O O3 0.511978 0.135456 0.592825
O O4 0.516212 0.000000 0.589515
O O5 0.250000 0.569543 0.876492
O O6 0.996305 0.500000 0.899192
O O7 0.000210 0.577022 0.787868
O O8 0.991414 0.631224 0.914455
O O9 0.250000 0.334488 0.582551
O O10 0.991349 0.377201 0.647158
O O11 0.992554 0.264186 0.586547
O O12 0.000000 0.361974 0.500000
O O13 0.250000 0.930546 0.236537
O O14 0.486460 0.868652 0.176524
O O15 0.478879 0.000000 0.183268
O O16 0.750000 0.428387 0.297033
O O17 0.501359 0.500000 0.322183
O O18 0.250000 0.290854 0.084374
O O19 0.514074 0.255421 0.147453
O O20 0.500000 0.271529 0.000000
O O21 0.250000 0.193440 0.794838
O O22 0.502004 0.207807 0.713069
O O23 0.750000 0.199533 0.374649
#
# Coordination Sequence:
#
# PCOD9400590 Si02
#       8
#     8   8   8   8   8   8   8   8
#     4   8  13  23  41  65  90 118 158 206 252 298
#     4   9  18  36  62  86 105 130 168 211 255 305
#     4  10  19  31  46  66  95 129 165 203 246 296
#     4   9  16  26  43  72 108 138 164 202 256 312
#     4   8  15  30  53  76  97 126 163 201 244 297
#     4  12  25  39  55  77 108 142 174 209 253 303
#     4  10  19  34  56  78 100 131 176 222 261 304
#     4   8  15  28  48  70  92 123 161 203 250 300
#
# _framework density 20.364588000000001
#
# number of rings (size 3 to 8) (size 9 to 14) (size 15 to 20)
#    0.000    2.750    0.000    4.125    0.000    3.500 
#    0.000    5.000    0.000    1.500    0.000    0.000 
#    0.000    0.000    0.000    0.000    0.000    0.000 
#
# Total GULP energy -356781.982593 kJ/mol
# GULP energy per Si atom -5574.718478 kJ/mol
# Density = 2.031824 g / cm^3
# Si number density = 20.364588 Si / 1000 Ang^3
#
#
#
# Elastic Constant Matrix: (Units=GPa)
#
#
# Indices 1 2 3 4 5 6 
#
# 1 26.9997 3.7665 -0.2852 0.0000 0.0000 0.0000
# 2 3.7665 108.4180 30.7355 0.0000 0.0000 0.0000
# 3 -0.2852 30.7355 57.1959 0.0000 0.0000 0.0000
# 4 0.0000 0.0000 0.0000 -26.5769 0.0000 0.0000
# 5 0.0000 0.0000 0.0000 0.0000 11.6388 0.0000
# 6 0.0000 0.0000 0.0000 0.0000 0.0000 15.9452
#
#
#
# Elastic Compliance Matrix: (Units=1/GPa)
#
#
# Indices 1 2 3 4 5 6 
#
# 1 0.037270 -0.001590 0.001040 0.000000 0.000000 0.000000
# 2 -0.001590 0.010949 -0.005892 0.000000 0.000000 0.000000
# 3 0.001040 -0.005892 0.020655 0.000000 0.000000 0.000000
# 4 0.000000 0.000000 0.000000 -0.037627 0.000000 0.000000
# 5 0.000000 0.000000 0.000000 0.000000 0.085919 0.000000
# 6 0.000000 0.000000 0.000000 0.000000 0.000000 0.062715
#
#
# Mechanical properties :
#
#
# Convention : Reuss Voigt Hill
#
# Bulk Modulus (GPa) = 17.85979 29.00525 23.43252
# Shear Modulus (GPa) = 23.64873 10.76122 17.20498
#
# Velocity S-wave (km/s) = 3.41143 2.30125 2.90978
# Velocity P-wave (km/s) = 4.93014 4.61897 4.77709
#
# Compressibility (1/GPa) = 0.05599169
#
# Stress axis : x y z
#
# Youngs Moduli (GPa) = 26.83114 91.33257 48.41457
#
# Poissons Ratio (x) = 0.14519 -0.05035
# Poissons Ratio (y) = 0.04265 0.28524
# Poissons Ratio (z) = -0.02791 0.53810
#
# Static dielectric constant tensor:
#      x y z
#    x 1.713030 0.000000 0.000000 
#    y 0.000000 1.794220 0.000000 
#    z 0.000000 0.000000 1.683860 
# 
# From -- ./inp_files/28337.got.cif
#   From: 2010.05.17/outbox.cif.g08.bks.cpg/sg51_15_cif.got.tgz:28337.got - 2010.06.03 11:52:47.
