data_PCOD9400174
_publ_section_title
;
Structure prediction by ZEFSAII (Michael W. Deem and Ramdas Pophale) SiO2 
 PCOD9400174
Probable space group: P M M A
;
_chemical_formula_sum "Si O2"
_cell_formula_units_Z 44
_cell_length_a 16.180117
_cell_length_b 14.210698
_cell_length_c 10.692172
_cell_angle_alpha 90.000000
_cell_angle_beta 90.000000
_cell_angle_gamma 90.000000
_cell_volume 2458.459194
_symmetry_space_group_name_H-M "P M M A"
_symmetry_group_IT_number 51
_symmetry_cell_setting 'orthorhombic'
loop_
_space_group_symop_operation_xyz
x,y,z
1/2-x,-y,z
1/2+x,-y,-z
-x,y,-z
-x,-y,-z
1/2+x,y,-z
1/2-x,y,z
x,-y,z
loop_
_atom_site_type_symbol
_atom_site_label
_atom_site_fract_x
_atom_site_fract_y
_atom_site_fract_z
Si Si1 0.656678 0.234212 0.928252
Si Si2 0.554014 0.106700 0.753099
Si Si3 0.655360 0.271280 0.354861
Si Si4 0.130519 0.892933 0.834588
Si Si5 0.000000 0.796645 0.500000
Si Si6 0.149406 0.607281 0.889426
O O1 0.750000 0.256748 0.890064
O O2 0.609814 0.186522 0.814642
O O3 0.658302 0.156648 0.038742
O O4 0.619218 0.325620 0.997980
O O5 0.468876 0.106759 0.830805
O O6 0.530197 0.137823 0.613698
O O7 0.588242 0.000000 0.756644
O O8 0.750000 0.290748 0.399425
O O9 0.657732 0.171649 0.281076
O O10 0.579969 0.262429 0.452394
O O11 0.631980 0.345236 0.244936
O O12 0.157862 0.000000 0.824542
O O13 0.250000 0.608503 0.897555
O O14 0.121128 0.500000 0.897420
#
# Coordination Sequence:
#
# PCOD9400174 Si02
#       6
#     8   8   8   8   4   8
#     4  10  19  29  47  77 104 125 157 205 263 320
#     4  10  20  33  48  67  98 141 176 202 242 296
#     4   9  18  32  52  76  99 131 175 219 261 303
#     4   9  17  30  48  69  96 130 166 205 252 307
#     4  10  21  36  51  68 102 142 183 222 247 288
#     4   8  15  31  55  79 102 130 166 211 266 322
#
# _framework density 17.897387999999999
#
# number of rings (size 3 to 8) (size 9 to 14) (size 15 to 20)
#    0.000    2.727    0.000    3.000    0.000    5.455 
#    0.000    0.455    0.000   20.727    0.000    5.091 
#    0.000    0.000    0.000    0.000    0.000    0.182 
#
# Total GULP energy -245123.124388 kJ/mol
# GULP energy per Si atom -5570.980100 kJ/mol
# Density = 1.785665 g / cm^3
# Si number density = 17.897388 Si / 1000 Ang^3
#
#
#
# Elastic Constant Matrix: (Units=GPa)
#
#
# Indices 1 2 3 4 5 6 
#
# 1 47.2178 24.5108 15.7056 0.0000 0.0000 0.0000
# 2 24.5108 133.0611 32.0233 0.0000 0.0000 0.0000
# 3 15.7056 32.0233 54.0775 0.0000 0.0000 0.0000
# 4 0.0000 0.0000 0.0000 9.6477 0.0000 0.0000
# 5 0.0000 0.0000 0.0000 0.0000 13.2904 0.0000
# 6 0.0000 0.0000 0.0000 0.0000 0.0000 16.7245
#
#
#
# Elastic Compliance Matrix: (Units=1/GPa)
#
#
# Indices 1 2 3 4 5 6 
#
# 1 0.024613 -0.003281 -0.005205 0.000000 0.000000 0.000000
# 2 -0.003281 0.009202 -0.004496 0.000000 0.000000 0.000000
# 3 -0.005205 -0.004496 0.022666 0.000000 0.000000 0.000000
# 4 0.000000 0.000000 0.000000 0.103651 0.000000 0.000000
# 5 0.000000 0.000000 0.000000 0.000000 0.075242 0.000000
# 6 0.000000 0.000000 0.000000 0.000000 0.000000 0.059793
#
#
# Mechanical properties :
#
#
# Convention : Reuss Voigt Hill
#
# Bulk Modulus (GPa) = 32.76977 42.09288 37.43133
# Shear Modulus (GPa) = 15.09184 18.74029 16.91606
#
# Velocity S-wave (km/s) = 2.90701 3.23940 3.07770
# Velocity P-wave (km/s) = 5.44217 6.12876 5.79564
#
# Compressibility (1/GPa) = 0.03051593
#
# Stress axis : x y z
#
# Youngs Moduli (GPa) = 40.62875 108.67408 44.11844
#
# Poissons Ratio (x) = 0.35658 0.22965
# Poissons Ratio (y) = 0.13331 0.19836
# Poissons Ratio (z) = 0.21149 0.48861
#
# Static dielectric constant tensor:
#      x y z
#    x 1.664940 0.000000 0.000000 
#    y 0.000000 1.616360 0.000000 
#    z 0.000000 0.000000 1.598060 
# 
# From -- ./inp_files/9490.got.cif
#   From: 2010.05.17/outbox.cif.g08.bks.cpg/sg51_5_cif.got.tgz:9490.got - 2010.06.03 11:52:47.
