data_PCOD9400417
_publ_section_title
;
Structure prediction by ZEFSAII (Michael W. Deem and Ramdas Pophale) SiO2 
 PCOD9400417
Probable space group: P M M A
;
_chemical_formula_sum "Si O2"
_cell_formula_units_Z 64
_cell_length_a 24.811712
_cell_length_b 7.592492
_cell_length_c 16.838645
_cell_angle_alpha 90.000000
_cell_angle_beta 90.000000
_cell_angle_gamma 90.000000
_cell_volume 3172.109828
_symmetry_space_group_name_H-M "P M M A"
_symmetry_group_IT_number 51
_symmetry_cell_setting 'orthorhombic'
loop_
_space_group_symop_operation_xyz
x,y,z
1/2-x,-y,z
1/2+x,-y,-z
-x,y,-z
-x,-y,-z
1/2+x,y,-z
1/2-x,y,z
x,-y,z
loop_
_atom_site_type_symbol
_atom_site_label
_atom_site_fract_x
_atom_site_fract_y
_atom_site_fract_z
Si Si1 0.188131 0.285274 0.733498
Si Si2 0.611300 0.705561 0.133732
Si Si3 0.419803 0.705986 0.202124
Si Si4 0.810541 0.215364 0.528471
Si Si5 0.060563 0.715616 0.024299
Si Si6 0.809522 0.787601 0.712909
Si Si7 0.530078 0.205414 0.271352
Si Si8 0.106351 0.200690 0.596956
O O1 0.250000 0.238301 0.727300
O O2 0.183200 0.500000 0.728398
O O3 0.161165 0.224397 0.815696
O O4 0.153038 0.204532 0.663473
O O5 0.622367 0.500000 0.120833
O O6 0.560231 0.716733 0.194012
O O7 0.597722 0.781066 0.047870
O O8 0.432121 0.500000 0.197490
O O9 0.425348 0.777968 0.112545
O O10 0.360228 0.729088 0.236071
O O11 0.466430 0.780162 0.259129
O O12 0.750000 0.269985 0.500740
O O13 0.815580 0.265467 0.620673
O O14 0.861625 0.280735 0.477763
O O15 0.810979 0.000000 0.523976
O O16 0.062850 0.500000 0.024783
O O17 0.000000 0.763664 0.000000
O O18 0.750000 0.728054 0.740246
O O19 0.809398 0.000000 0.713731
O O20 0.555758 0.278731 0.353451
O O21 0.544777 0.000000 0.270870
O O22 0.091605 0.000000 0.574507
#
# Coordination Sequence:
#
# PCOD9400417 Si02
#       8
#     8   8   8   8   8   8   8   8
#     4   9  17  27  41  65  97 130 159 190 238 295
#     4   9  16  30  48  65  92 128 164 203 243 286
#     4  11  21  34  54  76  99 130 166 204 247 296
#     4   8  14  28  52  76  95 123 166 208 244 286
#     4   9  16  29  50  73  94 121 164 207 241 280
#     4   9  19  37  58  77  99 127 160 203 252 295
#     4  10  19  30  46  73 105 131 159 199 247 295
#     4   9  17  29  48  73  98 127 166 205 238 281
#
# _framework density 20.175847000000001
#
# number of rings (size 3 to 8) (size 9 to 14) (size 15 to 20)
#    0.000    2.750    1.250    1.875    0.000    1.500 
#    0.000    3.750    0.000    6.750    0.000    0.000 
#    0.000    0.000    0.000    0.000    0.000    0.000 
#
# Total GULP energy -356711.874691 kJ/mol
# GULP energy per Si atom -5573.623042 kJ/mol
# Density = 2.012993 g / cm^3
# Si number density = 20.175847 Si / 1000 Ang^3
#
#
#
# Elastic Constant Matrix: (Units=GPa)
#
#
# Indices 1 2 3 4 5 6 
#
# 1 94.4746 -7.7908 39.8167 0.0000 0.0000 0.0000
# 2 -7.7908 44.2099 -2.8994 0.0000 0.0000 0.0000
# 3 39.8167 -2.8994 80.3671 0.0000 0.0000 0.0000
# 4 0.0000 0.0000 0.0000 11.7711 0.0000 0.0000
# 5 0.0000 0.0000 0.0000 0.0000 30.1761 0.0000
# 6 0.0000 0.0000 0.0000 0.0000 0.0000 31.0386
#
#
#
# Elastic Compliance Matrix: (Units=1/GPa)
#
#
# Indices 1 2 3 4 5 6 
#
# 1 0.013544 0.001951 -0.006640 0.000000 0.000000 0.000000
# 2 0.001951 0.022954 -0.000139 0.000000 0.000000 0.000000
# 3 -0.006640 -0.000139 0.015728 0.000000 0.000000 0.000000
# 4 0.000000 0.000000 0.000000 0.084954 0.000000 0.000000
# 5 0.000000 0.000000 0.000000 0.000000 0.033139 0.000000
# 6 0.000000 0.000000 0.000000 0.000000 0.000000 0.032218
#
#
# Mechanical properties :
#
#
# Convention : Reuss Voigt Hill
#
# Bulk Modulus (GPa) = 23.48990 30.81163 27.15076
# Shear Modulus (GPa) = 22.08661 27.25883 24.67272
#
# Velocity S-wave (km/s) = 3.31222 3.67967 3.50077
# Velocity P-wave (km/s) = 5.12793 5.77564 5.46139
#
# Compressibility (1/GPa) = 0.04257149
#
# Stress axis : x y z
#
# Youngs Moduli (GPa) = 73.83249 43.56514 63.58276
#
# Poissons Ratio (x) = -0.08501 0.42218
# Poissons Ratio (y) = -0.14407 0.00881
# Poissons Ratio (z) = 0.49024 0.00604
#
# Static dielectric constant tensor:
#      x y z
#    x 1.709410 0.000000 0.000000 
#    y 0.000000 1.766540 0.000000 
#    z 0.000000 0.000000 1.731080 
# 
# From -- ./inp_files/30604.got.cif
#   From: 2010.05.17/outbox.cif.g08.bks.cpg/sg51_16_cif.got.tgz:30604.got - 2010.06.03 11:52:47.
