data_PCOD9400189
_publ_section_title
;
Structure prediction by ZEFSAII (Michael W. Deem and Ramdas Pophale) SiO2 
 PCOD9400189
Probable space group: P M M A
;
_chemical_formula_sum "Si O2"
_cell_formula_units_Z 64
_cell_length_a 7.813011
_cell_length_b 32.350092
_cell_length_c 14.934855
_cell_angle_alpha 90.000000
_cell_angle_beta 90.000000
_cell_angle_gamma 90.000000
_cell_volume 3774.808865
_symmetry_space_group_name_H-M "P M M A"
_symmetry_group_IT_number 51
_symmetry_cell_setting 'orthorhombic'
loop_
_space_group_symop_operation_xyz
x,y,z
1/2-x,-y,z
1/2+x,-y,-z
-x,y,-z
-x,-y,-z
1/2+x,y,-z
1/2-x,y,z
x,-y,z
loop_
_atom_site_type_symbol
_atom_site_label
_atom_site_fract_x
_atom_site_fract_y
_atom_site_fract_z
Si Si1 0.543888 0.955597 0.894441
Si Si2 0.043444 0.865250 0.105022
Si Si3 0.544730 0.624680 0.784533
Si Si4 0.455753 0.341696 0.401384
Si Si5 0.046713 0.546461 0.898859
Si Si6 0.955943 0.703653 0.895827
Si Si7 0.959887 0.785093 0.788019
Si Si8 0.955549 0.246580 0.598949
O O1 0.750000 0.955676 0.885357
O O2 0.480950 0.910627 0.862963
O O3 0.480434 0.000000 0.857752
O O4 0.500000 0.955793 0.000000
O O5 0.250000 0.865643 0.110541
O O6 0.980831 0.826869 0.163782
O O7 0.000000 0.859808 0.000000
O O8 0.750000 0.628593 0.782056
O O9 0.481308 0.632302 0.683494
O O10 0.507564 0.580709 0.828134
O O11 0.479507 0.662140 0.847190
O O12 0.500000 0.357581 0.500000
O O13 0.250000 0.339962 0.396474
O O14 0.519193 0.294147 0.394128
O O15 0.250000 0.543881 0.894899
O O16 0.975421 0.500000 0.884535
O O17 0.000000 0.559462 0.000000
O O18 0.750000 0.703442 0.888617
O O19 0.015105 0.744805 0.844338
O O20 0.000000 0.704491 0.000000
O O21 0.750000 0.785595 0.789105
O O22 0.015061 0.778944 0.685194
O O23 0.750000 0.248319 0.604418
O O24 0.000000 0.230823 0.500000
#
# Coordination Sequence:
#
# PCOD9400189 Si02
#       8
#     8   8   8   8   8   8   8   8
#     4   8  13  21  33  50  72  98 133 176 213 244
#     4   9  16  25  38  55  77 111 146 172 206 251
#     4  10  19  32  50  70  93 119 147 178 216 257
#     4   9  17  30  48  69  91 116 144 178 218 258
#     4  10  21  36  53  73  96 121 149 182 218 254
#     4  10  19  30  42  60  87 117 145 173 203 241
#     4   9  16  28  43  57  81 115 143 168 206 254
#     4   9  16  29  46  62  82 109 140 176 214 252
#
# _framework density 16.954501
#
# number of rings (size 3 to 8) (size 9 to 14) (size 15 to 20)
#    0.000    2.750    1.250    1.125    0.000    2.750 
#    0.000    1.250    0.000    0.375    0.000    0.000 
#    0.000    0.500    0.000    0.375    0.000    1.000 
#
# Total GULP energy -356578.343804 kJ/mol
# GULP energy per Si atom -5571.536622 kJ/mol
# Density = 1.691591 g / cm^3
# Si number density = 16.954501 Si / 1000 Ang^3
#
#
#
# Elastic Constant Matrix: (Units=GPa)
#
#
# Indices 1 2 3 4 5 6 
#
# 1 20.5240 7.3844 5.3827 0.0000 0.0000 0.0000
# 2 7.3844 126.6577 87.2681 0.0000 0.0000 0.0000
# 3 5.3827 87.2681 146.7418 0.0000 0.0000 0.0000
# 4 0.0000 0.0000 0.0000 8.6352 0.0000 0.0000
# 5 0.0000 0.0000 0.0000 0.0000 19.9937 0.0000
# 6 0.0000 0.0000 0.0000 0.0000 0.0000 3.5444
#
#
#
# Elastic Compliance Matrix: (Units=1/GPa)
#
#
# Indices 1 2 3 4 5 6 
#
# 1 0.049770 -0.002785 -0.000169 0.000000 0.000000 0.000000
# 2 -0.002785 0.013532 -0.007945 0.000000 0.000000 0.000000
# 3 -0.000169 -0.007945 0.011546 0.000000 0.000000 0.000000
# 4 0.000000 0.000000 0.000000 0.115805 0.000000 0.000000
# 5 0.000000 0.000000 0.000000 0.000000 0.050016 0.000000
# 6 0.000000 0.000000 0.000000 0.000000 0.000000 0.282139
#
#
# Mechanical properties :
#
#
# Convention : Reuss Voigt Hill
#
# Bulk Modulus (GPa) = 18.85067 54.88819 36.86943
# Shear Modulus (GPa) = 8.89221 19.36054 14.12637
#
# Velocity S-wave (km/s) = 2.29263 3.38288 2.88964
# Velocity P-wave (km/s) = 4.26036 6.90671 5.73818
#
# Compressibility (1/GPa) = 0.05304852
#
# Stress axis : x y z
#
# Youngs Moduli (GPa) = 20.09245 73.89795 86.60912
#
# Poissons Ratio (x) = 0.20581 0.01467
# Poissons Ratio (y) = 0.05596 0.68815
# Poissons Ratio (z) = 0.00340 0.58716
#
# Static dielectric constant tensor:
#      x y z
#    x 1.621730 0.000000 0.000000 
#    y 0.000000 1.609850 0.000000 
#    z 0.000000 0.000000 5.630560 
# 
# From -- ./inp_files/22618.got.cif
#   From: 2010.05.17/outbox.cif.g08.bks.cpg/sg51_12_cif.got.tgz:22618.got - 2010.06.03 11:52:47.
