data_PCOD9400392
_publ_section_title
;
Structure prediction by ZEFSAII (Michael W. Deem and Ramdas Pophale) SiO2 
 PCOD9400392
Probable space group: P M M A
;
_chemical_formula_sum "Si O2"
_cell_formula_units_Z 64
_cell_length_a 19.687094
_cell_length_b 7.355661
_cell_length_c 20.295721
_cell_angle_alpha 90.000000
_cell_angle_beta 90.000000
_cell_angle_gamma 90.000000
_cell_volume 2939.055619
_symmetry_space_group_name_H-M "P M M A"
_symmetry_group_IT_number 51
_symmetry_cell_setting 'orthorhombic'
loop_
_space_group_symop_operation_xyz
x,y,z
1/2-x,-y,z
1/2+x,-y,-z
-x,y,-z
-x,-y,-z
1/2+x,y,-z
1/2-x,y,z
x,-y,z
loop_
_atom_site_type_symbol
_atom_site_label
_atom_site_fract_x
_atom_site_fract_y
_atom_site_fract_z
Si Si1 0.328072 0.721088 0.533638
Si Si2 0.061988 0.218429 0.137353
Si Si3 0.327226 0.719963 0.793330
Si Si4 0.327421 0.721863 0.384308
Si Si5 0.672162 0.777733 0.963611
Si Si6 0.947680 0.284753 0.707553
Si Si7 0.578939 0.790256 0.082807
Si Si8 0.094922 0.722242 0.662543
O O1 0.250000 0.774814 0.546841
O O2 0.329044 0.500000 0.534076
O O3 0.345621 0.776416 0.459164
O O4 0.377058 0.782149 0.591968
O O5 0.130987 0.277001 0.101666
O O6 0.057638 0.261855 0.214224
O O7 0.995165 0.288450 0.098810
O O8 0.059723 0.000000 0.132902
O O9 0.250000 0.780234 0.804586
O O10 0.327897 0.500000 0.795229
O O11 0.377860 0.783856 0.850077
O O12 0.355043 0.775475 0.721948
O O13 0.250000 0.779453 0.370653
O O14 0.326638 0.500000 0.383462
O O15 0.382556 0.786288 0.331846
O O16 0.750000 0.716253 0.966632
O O17 0.674391 0.000000 0.965628
O O18 0.626372 0.714314 0.025177
O O19 0.949154 0.500000 0.694942
O O20 0.019449 0.214175 0.680563
O O21 0.567089 0.000000 0.063821
O O22 0.094458 0.500000 0.662063
#
# Coordination Sequence:
#
# PCOD9400392 Si02
#       8
#     8   8   8   8   8   8   8   8
#     4   8  13  23  40  63  93 126 158 195 239 282
#     4  10  20  34  52  73  97 127 161 196 237 287
#     4  10  19  30  46  70 101 132 159 190 232 283
#     4   8  15  27  43  66  95 125 158 199 245 284
#     4   9  18  33  53  75  96 120 158 205 243 277
#     4  10  19  31  48  70  98 128 158 196 239 284
#     4  10  19  33  53  74  96 124 157 196 239 285
#     4   9  16  26  41  64  95 128 159 190 231 281
#
# _framework density 21.775703
#
# number of rings (size 3 to 8) (size 9 to 14) (size 15 to 20)
#    0.000    2.750    1.250    1.875    0.000    4.750 
#    0.000    3.125    0.000    2.250    0.000    2.625 
#    0.000    2.000    0.000    0.000    0.000    0.000 
#
# Total GULP energy -357455.858198 kJ/mol
# GULP energy per Si atom -5585.247784 kJ/mol
# Density = 2.172614 g / cm^3
# Si number density = 21.775703 Si / 1000 Ang^3
#
#
#
# Elastic Constant Matrix: (Units=GPa)
#
#
# Indices 1 2 3 4 5 6 
#
# 1 129.4559 -2.4528 99.9891 0.0000 0.0000 0.0000
# 2 -2.4528 78.2916 -6.1371 0.0000 0.0000 0.0000
# 3 99.9891 -6.1371 127.9605 0.0000 0.0000 0.0000
# 4 0.0000 0.0000 0.0000 14.8863 0.0000 0.0000
# 5 0.0000 0.0000 0.0000 0.0000 44.0853 0.0000
# 6 0.0000 0.0000 0.0000 0.0000 0.0000 -1.8227
#
#
#
# Elastic Compliance Matrix: (Units=1/GPa)
#
#
# Indices 1 2 3 4 5 6 
#
# 1 0.019511 -0.000586 -0.015274 0.000000 0.000000 0.000000
# 2 -0.000586 0.012839 0.001074 0.000000 0.000000 0.000000
# 3 -0.015274 0.001074 0.019802 0.000000 0.000000 0.000000
# 4 0.000000 0.000000 0.000000 0.067176 0.000000 0.000000
# 5 0.000000 0.000000 0.000000 0.000000 0.022683 0.000000
# 6 0.000000 0.000000 0.000000 0.000000 0.000000 -0.548643
#
#
# Mechanical properties :
#
#
# Convention : Reuss Voigt Hill
#
# Bulk Modulus (GPa) = 44.29029 57.61180 50.95105
# Shear Modulus (GPa) = -13.53057 27.71702 7.09323
#
# Velocity S-wave (km/s) = -2.49542 3.57156 1.80679
# Velocity P-wave (km/s) = 3.47573 6.59715 5.27272
#
# Compressibility (1/GPa) = 0.02257831
#
# Stress axis : x y z
#
# Youngs Moduli (GPa) = 51.25346 77.89029 50.50093
#
# Poissons Ratio (x) = 0.04565 0.77135
# Poissons Ratio (y) = 0.03004 -0.05422
# Poissons Ratio (z) = 0.78285 -0.08363
#
# Static dielectric constant tensor:
#      x y z
#    x 1.764320 0.000000 0.000000 
#    y 0.000000 1.892580 0.000000 
#    z 0.000000 0.000000 1.742930 
# 
# From -- ./inp_files/30662.got.cif
#   From: 2010.05.17/outbox.cif.g08.bks.cpg/sg51_16_cif.got.tgz:30662.got - 2010.06.03 11:52:47.
