data_PCOD9400753
_publ_section_title
;
Structure prediction by ZEFSAII (Michael W. Deem and Ramdas Pophale) SiO2 
 PCOD9400753
Probable space group: P M M A
;
_chemical_formula_sum "Si O2"
_cell_formula_units_Z 64
_cell_length_a 9.014354
_cell_length_b 22.401124
_cell_length_c 16.343356
_cell_angle_alpha 90.000000
_cell_angle_beta 90.000000
_cell_angle_gamma 90.000000
_cell_volume 3300.241035
_symmetry_space_group_name_H-M "P M M A"
_symmetry_group_IT_number 51
_symmetry_cell_setting 'orthorhombic'
loop_
_space_group_symop_operation_xyz
x,y,z
1/2-x,-y,z
1/2+x,-y,-z
-x,y,-z
-x,-y,-z
1/2+x,y,-z
1/2-x,y,z
x,-y,z
loop_
_atom_site_type_symbol
_atom_site_label
_atom_site_fract_x
_atom_site_fract_y
_atom_site_fract_z
Si Si1 0.923628 0.088887 0.086638
Si Si2 0.927639 0.565909 0.237593
Si Si3 0.584976 0.312911 0.798051
Si Si4 0.925636 0.399343 0.421929
Si Si5 0.924952 0.069565 0.735826
Si Si6 0.069798 0.854438 0.587172
Si Si7 0.080523 0.274469 0.389685
Si Si8 0.418545 0.232176 0.919135
O O1 0.750000 0.070582 0.088085
O O2 0.927420 0.160837 0.085672
O O3 0.005192 0.072686 0.172097
O O4 0.000000 0.069715 0.000000
O O5 0.750000 0.571851 0.227686
O O6 0.972650 0.500000 0.208442
O O7 0.958679 0.570697 0.334932
O O8 0.007956 0.622641 0.199031
O O9 0.750000 0.317427 0.832161
O O10 0.593436 0.288962 0.706000
O O11 0.493787 0.263053 0.843770
O O12 0.750000 0.397642 0.432237
O O13 0.000000 0.429313 0.500000
O O14 0.990855 0.332413 0.418325
O O15 0.750000 0.087065 0.739687
O O16 0.008899 0.109011 0.666707
O O17 0.933129 0.000000 0.710973
O O18 0.250000 0.856061 0.584923
O O19 0.000000 0.876563 0.500000
O O20 0.008136 0.786627 0.595923
O O21 0.250000 0.270457 0.423038
O O22 0.250000 0.250204 0.923087
O O23 0.500000 0.252545 0.000000
#
# Coordination Sequence:
#
# PCOD9400753 Si02
#       8
#     8   8   8   8   8   8   8   8
#     4  10  21  38  63  94 126 159 193 232 283 341
#     4   9  19  35  52  70  96 135 181 224 266 315
#     4  10  20  33  53  80 109 142 178 221 272 325
#     4  10  19  31  48  72 103 136 173 218 269 324
#     4  11  25  44  64  87 117 154 197 243 288 338
#     4  12  25  41  62  86 114 150 193 242 295 348
#     4  10  20  35  55  80 110 142 179 224 276 333
#     4  10  20  34  55  84 116 146 176 214 262 320
#
# _framework density 19.392523000000001
#
# number of rings (size 3 to 8) (size 9 to 14) (size 15 to 20)
#    0.000    1.750    0.000    4.500    0.000    7.500 
#    0.000    0.000    0.000    0.375    0.000    0.000 
#    0.000    0.000    0.000    0.000    0.000    0.000 
#
# Total GULP energy -357161.431498 kJ/mol
# GULP energy per Si atom -5580.647367 kJ/mol
# Density = 1.934839 g / cm^3
# Si number density = 19.392523 Si / 1000 Ang^3
#
#
#
# Elastic Constant Matrix: (Units=GPa)
#
#
# Indices 1 2 3 4 5 6 
#
# 1 104.0755 42.6660 29.9003 0.0000 0.0000 0.0000
# 2 42.6660 67.8176 28.8637 0.0000 0.0000 0.0000
# 3 29.9003 28.8637 69.8900 0.0000 0.0000 0.0000
# 4 0.0000 0.0000 0.0000 -69.1186 0.0000 0.0000
# 5 0.0000 0.0000 0.0000 0.0000 35.1856 0.0000
# 6 0.0000 0.0000 0.0000 0.0000 0.0000 19.6113
#
#
#
# Elastic Compliance Matrix: (Units=1/GPa)
#
#
# Indices 1 2 3 4 5 6 
#
# 1 0.013362 -0.007247 -0.002723 0.000000 0.000000 0.000000
# 2 -0.007247 0.021821 -0.005911 0.000000 0.000000 0.000000
# 3 -0.002723 -0.005911 0.017915 0.000000 0.000000 0.000000
# 4 0.000000 0.000000 0.000000 -0.014468 0.000000 0.000000
# 5 0.000000 0.000000 0.000000 0.000000 0.028421 0.000000
# 6 0.000000 0.000000 0.000000 0.000000 0.000000 0.050991
#
#
# Mechanical properties :
#
#
# Convention : Reuss Voigt Hill
#
# Bulk Modulus (GPa) = 46.87473 49.40480 48.13977
# Shear Modulus (GPa) = 31.86422 6.49253 19.17837
#
# Velocity S-wave (km/s) = 4.05794 1.83173 3.14818
# Velocity P-wave (km/s) = 6.79557 5.47770 6.17191
#
# Compressibility (1/GPa) = 0.02133346
#
# Stress axis : x y z
#
# Youngs Moduli (GPa) = 74.83993 45.82802 55.82048
#
# Poissons Ratio (x) = 0.33213 0.15202
# Poissons Ratio (y) = 0.54238 0.32996
# Poissons Ratio (z) = 0.20382 0.27090
#
# Static dielectric constant tensor:
#      x y z
#    x 1.667300 0.000000 0.000000 
#    y 0.000000 1.662550 0.000000 
#    z 0.000000 0.000000 1.731090 
# 
# From -- ./inp_files/22277.got.cif
#   From: 2010.05.17/outbox.cif.g08.bks.cpg/sg51_12_cif.got.tgz:22277.got - 2010.06.03 11:52:47.
