data_PCOD9400780
_publ_section_title
;
Structure prediction by ZEFSAII (Michael W. Deem and Ramdas Pophale) SiO2 
 PCOD9400780
Probable space group: P M M A
;
_chemical_formula_sum "Si O2"
_cell_formula_units_Z 64
_cell_length_a 8.724211
_cell_length_b 14.778226
_cell_length_c 32.209026
_cell_angle_alpha 90.000000
_cell_angle_beta 90.000000
_cell_angle_gamma 90.000000
_cell_volume 4152.656958
_symmetry_space_group_name_H-M "P M M A"
_symmetry_group_IT_number 51
_symmetry_cell_setting 'orthorhombic'
loop_
_space_group_symop_operation_xyz
x,y,z
1/2-x,-y,z
1/2+x,-y,-z
-x,y,-z
-x,-y,-z
1/2+x,y,-z
1/2-x,y,z
x,-y,z
loop_
_atom_site_type_symbol
_atom_site_label
_atom_site_fract_x
_atom_site_fract_y
_atom_site_fract_z
Si Si1 0.434962 0.394962 0.955391
Si Si2 0.928145 0.390186 0.457088
Si Si3 0.565307 0.102101 0.843485
Si Si4 0.934885 0.715878 0.124989
Si Si5 0.564158 0.394111 0.365770
Si Si6 0.064823 0.606009 0.792550
Si Si7 0.934141 0.290578 0.712848
Si Si8 0.436337 0.100597 0.253282
O O1 0.250000 0.392100 0.956970
O O2 0.479551 0.500000 0.948276
O O3 0.486763 0.333429 0.917046
O O4 0.500000 0.366830 0.000000
O O5 0.750000 0.366359 0.457994
O O6 0.938653 0.500000 0.457258
O O7 0.990521 0.363622 0.411744
O O8 0.000000 0.356951 0.500000
O O9 0.750000 0.107303 0.845015
O O10 0.495147 0.182752 0.869836
O O11 0.519686 0.114243 0.795019
O O12 0.520482 0.000000 0.855873
O O13 0.750000 0.716737 0.124743
O O14 0.982600 0.658372 0.165602
O O15 0.750000 0.390866 0.365661
O O16 0.521752 0.500000 0.359765
O O17 0.499720 0.334393 0.328781
O O18 0.250000 0.612353 0.789034
O O19 0.025307 0.500000 0.795011
O O20 0.990921 0.652184 0.752444
O O21 0.750000 0.292442 0.711670
O O22 0.986273 0.186795 0.720229
O O23 0.250000 0.099691 0.253931
O O24 0.488070 0.000000 0.266268
#
# Coordination Sequence:
#
# PCOD9400780 Si02
#       8
#     8   8   8   8   8   8   8   8
#     4   9  18  33  51  71  95 122 151 183 222 267
#     4   8  14  25  41  59  79 108 147 187 223 259
#     4   9  17  31  50  69  91 119 148 181 226 274
#     4  10  19  31  49  71  93 117 149 187 222 260
#     4   9  18  31  43  57  86 127 157 177 217 273
#     4  10  20  32  44  60  88 125 153 174 211 262
#     4  11  20  29  44  65  87 114 152 191 219 252
#     4   8  15  29  46  62  84 114 145 181 227 269
#
# _framework density 15.411820000000001
#
# number of rings (size 3 to 8) (size 9 to 14) (size 15 to 20)
#    0.000    2.750    1.250    2.625    0.000    4.750 
#    0.000    1.250    0.000    4.125    0.000    0.000 
#    0.000    0.500    0.000    1.125    0.000    1.750 
#
# Total GULP energy -356553.038327 kJ/mol
# GULP energy per Si atom -5571.141224 kJ/mol
# Density = 1.537674 g / cm^3
# Si number density = 15.411820 Si / 1000 Ang^3
#
#
#
# Elastic Constant Matrix: (Units=GPa)
#
#
# Indices 1 2 3 4 5 6 
#
# 1 10.0346 22.8732 30.5520 0.0000 0.0000 0.0000
# 2 22.8732 115.0791 83.0741 0.0000 0.0000 0.0000
# 3 30.5520 83.0741 151.0743 0.0000 0.0000 0.0000
# 4 0.0000 0.0000 0.0000 8.3478 0.0000 0.0000
# 5 0.0000 0.0000 0.0000 0.0000 24.2313 0.0000
# 6 0.0000 0.0000 0.0000 0.0000 0.0000 19.5071
#
#
#
# Elastic Compliance Matrix: (Units=1/GPa)
#
#
# Indices 1 2 3 4 5 6 
#
# 1 0.300789 -0.026322 -0.046355 0.000000 0.000000 0.000000
# 2 -0.026322 0.016713 -0.003867 0.000000 0.000000 0.000000
# 3 -0.046355 -0.003867 0.018120 0.000000 0.000000 0.000000
# 4 0.000000 0.000000 0.000000 0.119791 0.000000 0.000000
# 5 0.000000 0.000000 0.000000 0.000000 0.041269 0.000000
# 6 0.000000 0.000000 0.000000 0.000000 0.000000 0.051263
#
#
# Mechanical properties :
#
#
# Convention : Reuss Voigt Hill
#
# Bulk Modulus (GPa) = 5.47842 61.02072 33.24957
# Shear Modulus (GPa) = 6.56272 19.72983 13.14627
#
# Velocity S-wave (km/s) = 2.06579 3.58183 2.92378
# Velocity P-wave (km/s) = 3.04177 7.53561 5.74621
#
# Compressibility (1/GPa) = 0.18253445
#
# Stress axis : x y z
#
# Youngs Moduli (GPa) = 3.32459 59.83298 55.18701
#
# Poissons Ratio (x) = 1.57493 2.55818
# Poissons Ratio (y) = 0.08751 0.21342
# Poissons Ratio (z) = 0.15411 0.23139
#
# Static dielectric constant tensor:
#      x y z
#    x 1.526970 0.000000 0.000000 
#    y 0.000000 1.507580 0.000000 
#    z 0.000000 0.000000 1.509120 
# 
# From -- ./inp_files/37588.got.cif
#   From: 2010.05.17/outbox.cif.g08.bks.cpg/sg51_19_cif.got.tgz:37588.got - 2010.06.03 11:52:47.
