data_PCOD9400493
_publ_section_title
;
Structure prediction by ZEFSAII (Michael W. Deem and Ramdas Pophale) SiO2 
 PCOD9400493
Probable space group: P M M A
;
_chemical_formula_sum "Si O2"
_cell_formula_units_Z 64
_cell_length_a 16.783556
_cell_length_b 9.398350
_cell_length_c 22.694251
_cell_angle_alpha 90.000000
_cell_angle_beta 90.000000
_cell_angle_gamma 90.000000
_cell_volume 3579.739717
_symmetry_space_group_name_H-M "P M M A"
_symmetry_group_IT_number 51
_symmetry_cell_setting 'orthorhombic'
loop_
_space_group_symop_operation_xyz
x,y,z
1/2-x,-y,z
1/2+x,-y,-z
-x,y,-z
-x,-y,-z
1/2+x,y,-z
1/2-x,y,z
x,-y,z
loop_
_atom_site_type_symbol
_atom_site_label
_atom_site_fract_x
_atom_site_fract_y
_atom_site_fract_z
Si Si1 0.034989 0.667599 0.310016
Si Si2 0.658108 0.171614 0.122210
Si Si3 0.024277 0.670517 0.564303
Si Si4 0.658132 0.845945 0.748543
Si Si5 0.498297 0.666192 0.929311
Si Si6 0.606955 0.833845 0.253865
Si Si7 0.840119 0.158165 0.384271
Si Si8 0.342212 0.166230 0.110003
O O1 0.023511 0.500000 0.308657
O O2 0.025287 0.717092 0.377819
O O3 0.117624 0.717574 0.284293
O O4 0.970147 0.740408 0.267507
O O5 0.750000 0.209421 0.104042
O O6 0.582440 0.252478 0.092726
O O7 0.649485 0.200386 0.192511
O O8 0.649715 0.000000 0.113180
O O9 0.021030 0.500000 0.562440
O O10 0.000000 0.724877 0.500000
O O11 0.111154 0.724867 0.581295
O O12 0.750000 0.850538 0.732758
O O13 0.653841 0.831262 0.818977
O O14 0.621013 0.000000 0.732844
O O15 0.496674 0.500000 0.909489
O O16 0.581575 0.742402 0.910593
O O17 0.500000 0.667677 0.000000
O O18 0.657197 0.816762 0.313818
O O19 0.584589 0.000000 0.249681
O O20 0.750000 0.157224 0.403937
O O21 0.875439 0.000000 0.393618
O O22 0.250000 0.209501 0.093553
O O23 0.351323 0.000000 0.091471
#
# Coordination Sequence:
#
# PCOD9400493 Si02
#       8
#     8   8   8   8   8   8   8   8
#     4  10  19  30  48  74 100 129 169 212 251 297
#     4  10  21  37  58  83 109 140 178 216 256 308
#     4   9  19  35  50  65  92 132 173 208 243 286
#     4   9  18  33  52  75 103 131 159 198 254 313
#     4  11  25  41  55  76 109 146 180 216 262 313
#     4   9  17  31  52  77 106 135 160 195 250 310
#     4   9  17  30  50  76 102 126 156 198 246 294
#     4   9  19  37  61  85 106 133 174 221 264 310
#
# _framework density 17.878395000000001
#
# number of rings (size 3 to 8) (size 9 to 14) (size 15 to 20)
#    0.000    2.500    0.000    2.625    0.000    8.750 
#    0.000    4.375    0.000    6.000    0.000    0.000 
#    0.000    0.000    0.000    0.000    0.000    0.000 
#
# Total GULP energy -356298.198223 kJ/mol
# GULP energy per Si atom -5567.159347 kJ/mol
# Density = 1.783770 g / cm^3
# Si number density = 17.878395 Si / 1000 Ang^3
#
#
#
# Elastic Constant Matrix: (Units=GPa)
#
#
# Indices 1 2 3 4 5 6 
#
# 1 123.2722 52.0486 40.0156 0.0000 0.0000 0.0000
# 2 52.0486 44.8112 27.3735 0.0000 0.0000 0.0000
# 3 40.0156 27.3735 46.9492 0.0000 0.0000 0.0000
# 4 0.0000 0.0000 0.0000 16.8533 0.0000 0.0000
# 5 0.0000 0.0000 0.0000 0.0000 0.2834 0.0000
# 6 0.0000 0.0000 0.0000 0.0000 0.0000 13.9559
#
#
#
# Elastic Compliance Matrix: (Units=1/GPa)
#
#
# Indices 1 2 3 4 5 6 
#
# 1 0.016507 -0.016430 -0.004489 0.000000 0.000000 0.000000
# 2 -0.016430 0.051015 -0.015740 0.000000 0.000000 0.000000
# 3 -0.004489 -0.015740 0.034303 0.000000 0.000000 0.000000
# 4 0.000000 0.000000 0.000000 0.059335 0.000000 0.000000
# 5 0.000000 0.000000 0.000000 0.000000 3.528981 0.000000
# 6 0.000000 0.000000 0.000000 0.000000 0.000000 0.071654
#
#
# Mechanical properties :
#
#
# Convention : Reuss Voigt Hill
#
# Bulk Modulus (GPa) = 35.08136 50.43422 42.75779
# Shear Modulus (GPa) = 1.30052 12.59151 6.94601
#
# Velocity S-wave (km/s) = 0.85382 2.65672 1.97322
# Velocity P-wave (km/s) = 4.54278 6.13854 5.39993
#
# Compressibility (1/GPa) = 0.02850516
#
# Stress axis : x y z
#
# Youngs Moduli (GPa) = 60.58144 19.60205 29.15178
#
# Poissons Ratio (x) = 0.32207 0.13087
# Poissons Ratio (y) = 0.99537 0.45886
# Poissons Ratio (z) = 0.27197 0.30854
#
# Static dielectric constant tensor:
#      x y z
#    x 1.649390 0.000000 0.000000 
#    y 0.000000 1.641040 0.000000 
#    z 0.000000 0.000000 1.608650 
# 
# From -- ./inp_files/35777.got.cif
#   From: 2010.05.17/outbox.cif.g08.bks.cpg/sg51_18_cif.got.tgz:35777.got - 2010.06.03 11:52:47.
