data_PCOD9400240
_publ_section_title
;
Structure prediction by ZEFSAII (Michael W. Deem and Ramdas Pophale) SiO2 
 PCOD9400240
Probable space group: P M M A
;
_chemical_formula_sum "Si O2"
_cell_formula_units_Z 52
_cell_length_a 9.156665
_cell_length_b 12.459580
_cell_length_c 30.866553
_cell_angle_alpha 90.000000
_cell_angle_beta 90.000000
_cell_angle_gamma 90.000000
_cell_volume 3521.509475
_symmetry_space_group_name_H-M "P M M A"
_symmetry_group_IT_number 51
_symmetry_cell_setting 'orthorhombic'
loop_
_space_group_symop_operation_xyz
x,y,z
1/2-x,-y,z
1/2+x,-y,-z
-x,y,-z
-x,-y,-z
1/2+x,y,-z
1/2-x,y,z
x,-y,z
loop_
_atom_site_type_symbol
_atom_site_label
_atom_site_fract_x
_atom_site_fract_y
_atom_site_fract_z
Si Si1 0.581231 0.130843 0.368511
Si Si2 0.422273 0.129466 0.807697
Si Si3 0.418668 0.869195 0.456189
Si Si4 0.924180 0.000000 0.953565
Si Si5 0.418438 0.130587 0.281048
Si Si6 0.078443 0.371545 0.954759
Si Si7 0.925352 0.793713 0.894315
O O1 0.750000 0.164149 0.367714
O O2 0.501563 0.165083 0.412623
O O3 0.496280 0.165756 0.325358
O O4 0.579863 0.000000 0.368441
O O5 0.250000 0.153648 0.808886
O O6 0.492624 0.161849 0.761799
O O7 0.506742 0.182657 0.847509
O O8 0.438440 0.000000 0.811645
O O9 0.500000 0.834775 0.500000
O O10 0.250000 0.835743 0.455928
O O11 0.420013 0.000000 0.456213
O O12 0.961416 0.895043 0.925390
O O13 0.750000 0.000000 0.960057
O O14 0.000000 0.000000 0.000000
O O15 0.250000 0.165270 0.279072
O O16 0.418256 0.000000 0.281767
O O17 0.250000 0.343270 0.956563
O O18 0.066862 0.500000 0.949531
O O19 0.997648 0.309188 0.916584
O O20 0.000000 0.342629 0.000000
O O21 0.750000 0.784551 0.891817
#
# Coordination Sequence:
#
# PCOD9400240 Si02
#       7
#     8   8   8   4   8   8   8
#     4   9  15  22  31  43  59  80 110 147 187 234
#     4  10  19  30  44  62  84 111 139 168 204 248
#     4   9  15  21  28  38  53  74 102 139 186 236
#     4  10  22  34  46  66  92 118 142 170 203 244
#     4   9  16  25  37  51  69  94 123 157 194 236
#     4  10  21  37  55  74  94 116 145 178 211 248
#     4  11  21  34  50  69  93 119 146 175 210 252
#
# _framework density 14.766394999999999
#
# number of rings (size 3 to 8) (size 9 to 14) (size 15 to 20)
#    0.000    2.308    0.769    3.231    0.000    9.538 
#    0.000    0.000    0.000    0.000    0.000    0.000 
#    0.000    0.000    0.000    0.000    0.000    0.000 
#
# Total GULP energy -289961.472409 kJ/mol
# GULP energy per Si atom -5576.182162 kJ/mol
# Density = 1.473279 g / cm^3
# Si number density = 14.766395 Si / 1000 Ang^3
#
#
#
# Elastic Constant Matrix: (Units=GPa)
#
#
# Indices 1 2 3 4 5 6 
#
# 1 138.4410 24.2716 93.9845 0.0000 0.0000 0.0000
# 2 24.2716 13.9057 23.0700 0.0000 0.0000 0.0000
# 3 93.9845 23.0700 167.7280 0.0000 0.0000 0.0000
# 4 0.0000 0.0000 0.0000 6.9772 0.0000 0.0000
# 5 0.0000 0.0000 0.0000 0.0000 34.2036 0.0000
# 6 0.0000 0.0000 0.0000 0.0000 0.0000 12.1168
#
#
#
# Elastic Compliance Matrix: (Units=1/GPa)
#
#
# Indices 1 2 3 4 5 6 
#
# 1 0.013553 -0.014326 -0.005624 0.000000 0.000000 0.000000
# 2 -0.014326 0.108318 -0.006871 0.000000 0.000000 0.000000
# 3 -0.005624 -0.006871 0.010058 0.000000 0.000000 0.000000
# 4 0.000000 0.000000 0.000000 0.143324 0.000000 0.000000
# 5 0.000000 0.000000 0.000000 0.000000 0.029237 0.000000
# 6 0.000000 0.000000 0.000000 0.000000 0.000000 0.082530
#
#
# Mechanical properties :
#
#
# Convention : Reuss Voigt Hill
#
# Bulk Modulus (GPa) = 12.77345 66.96967 39.87156
# Shear Modulus (GPa) = 10.71223 22.57609 16.64416
#
# Velocity S-wave (km/s) = 2.69633 3.91434 3.36097
# Velocity P-wave (km/s) = 4.28518 8.11669 6.49012
#
# Compressibility (1/GPa) = 0.07828741
#
# Stress axis : x y z
#
# Youngs Moduli (GPa) = 73.78619 9.23211 99.42033
#
# Poissons Ratio (x) = 0.13226 0.55911
# Poissons Ratio (y) = 1.05703 0.68314
# Poissons Ratio (z) = 0.41495 0.06344
#
# Static dielectric constant tensor:
#      x y z
#    x 1.491280 0.000000 0.000000 
#    y 0.000000 1.459180 0.000000 
#    z 0.000000 0.000000 1.480750 
# 
# From -- ./inp_files/36230.got.cif
#   From: 2010.05.17/outbox.cif.g08.bks.cpg/sg51_19_cif.got.tgz:36230.got - 2010.06.03 11:52:47.
