data_PCOD9400547
_publ_section_title
;
Structure prediction by ZEFSAII (Michael W. Deem and Ramdas Pophale) SiO2 
 PCOD9400547
Probable space group: P M M A
;
_chemical_formula_sum "Si O2"
_cell_formula_units_Z 64
_cell_length_a 8.823425
_cell_length_b 14.402981
_cell_length_c 26.988324
_cell_angle_alpha 90.000000
_cell_angle_beta 90.000000
_cell_angle_gamma 90.000000
_cell_volume 3429.773983
_symmetry_space_group_name_H-M "P M M A"
_symmetry_group_IT_number 51
_symmetry_cell_setting 'orthorhombic'
loop_
_space_group_symop_operation_xyz
x,y,z
1/2-x,-y,z
1/2+x,-y,-z
-x,y,-z
-x,-y,-z
1/2+x,y,-z
1/2-x,y,z
x,-y,z
loop_
_atom_site_type_symbol
_atom_site_label
_atom_site_fract_x
_atom_site_fract_y
_atom_site_fract_z
Si Si1 0.432960 0.607064 0.695222
Si Si2 0.571200 0.212760 0.050724
Si Si3 0.076842 0.387343 0.805286
Si Si4 0.928329 0.887823 0.855632
Si Si5 0.933142 0.221163 0.649295
Si Si6 0.429396 0.608073 0.091565
Si Si7 0.065378 0.107913 0.253840
Si Si8 0.567320 0.892089 0.552696
O O1 0.250000 0.610398 0.694699
O O2 0.478644 0.500000 0.688292
O O3 0.479884 0.639353 0.750759
O O4 0.502404 0.676140 0.655604
O O5 0.750000 0.209411 0.047374
O O6 0.514860 0.157295 0.098837
O O7 0.516169 0.318734 0.058000
O O8 0.500000 0.175162 0.000000
O O9 0.250000 0.354164 0.813523
O O10 0.084763 0.500000 0.803122
O O11 0.972059 0.365559 0.851773
O O12 0.750000 0.863873 0.860054
O O13 0.984159 0.858251 0.800721
O O14 0.939564 0.000000 0.857040
O O15 0.750000 0.223121 0.649789
O O16 0.984393 0.164452 0.698154
O O17 0.981689 0.169645 0.599229
O O18 0.250000 0.616211 0.084175
O O19 0.473184 0.500000 0.083906
O O20 0.250000 0.109867 0.252742
O O21 0.021363 0.000000 0.259158
O O22 0.500000 0.862372 0.500000
O O23 0.750000 0.888717 0.550061
O O24 0.523972 0.000000 0.560908
#
# Coordination Sequence:
#
# PCOD9400547 Si02
#       8
#     8   8   8   8   8   8   8   8
#     4   9  19  34  49  70 107 150 186 222 269 322
#     4  12  26  42  60  81 107 140 180 227 273 326
#     4   8  15  30  50  72 101 138 177 214 258 314
#     4   9  19  38  62  85 111 142 176 218 269 326
#     4  10  19  30  51  83 111 142 184 229 271 316
#     4  10  21  37  58  83 110 140 176 220 270 326
#     4   8  15  30  53  81 112 142 170 206 260 323
#     4   9  18  33  53  78 111 148 186 228 274 325
#
# _framework density 18.660122000000001
#
# number of rings (size 3 to 8) (size 9 to 14) (size 15 to 20)
#    0.000    2.625    0.000    3.375    1.750    4.250 
#    0.000    1.250    0.000    2.250    0.000    0.000 
#    0.000    0.000    0.000    0.000    0.000    0.000 
#
# Total GULP energy -357180.275730 kJ/mol
# GULP energy per Si atom -5580.941808 kJ/mol
# Density = 1.861765 g / cm^3
# Si number density = 18.660122 Si / 1000 Ang^3
#
#
#
# Elastic Constant Matrix: (Units=GPa)
#
#
# Indices 1 2 3 4 5 6 
#
# 1 40.4826 21.9072 39.4320 0.0000 0.0000 0.0000
# 2 21.9072 66.5969 64.8653 0.0000 0.0000 0.0000
# 3 39.4320 64.8653 151.6021 0.0000 0.0000 0.0000
# 4 0.0000 0.0000 0.0000 28.5323 0.0000 0.0000
# 5 0.0000 0.0000 0.0000 0.0000 26.4067 0.0000
# 6 0.0000 0.0000 0.0000 0.0000 0.0000 21.0745
#
#
#
# Elastic Compliance Matrix: (Units=1/GPa)
#
#
# Indices 1 2 3 4 5 6 
#
# 1 0.033814 -0.004384 -0.006920 0.000000 0.000000 0.000000
# 2 -0.004384 0.026313 -0.010118 0.000000 0.000000 0.000000
# 3 -0.006920 -0.010118 0.012725 0.000000 0.000000 0.000000
# 4 0.000000 0.000000 0.000000 0.035048 0.000000 0.000000
# 5 0.000000 0.000000 0.000000 0.000000 0.037869 0.000000
# 6 0.000000 0.000000 0.000000 0.000000 0.000000 0.047451
#
#
# Mechanical properties :
#
#
# Convention : Reuss Voigt Hill
#
# Bulk Modulus (GPa) = 33.32273 56.78785 45.05529
# Shear Modulus (GPa) = 20.31977 24.03449 22.17713
#
# Velocity S-wave (km/s) = 3.30349 3.59278 3.45117
# Velocity P-wave (km/s) = 5.69625 6.90721 6.33075
#
# Compressibility (1/GPa) = 0.03000955
#
# Stress axis : x y z
#
# Youngs Moduli (GPa) = 29.57343 38.00437 78.58422
#
# Poissons Ratio (x) = 0.16660 0.54377
# Poissons Ratio (y) = 0.12964 0.79513
# Poissons Ratio (z) = 0.20463 0.38453
#
# Static dielectric constant tensor:
#      x y z
#    x 1.629220 0.000000 0.000000 
#    y 0.000000 1.664260 0.000000 
#    z 0.000000 0.000000 1.646690 
# 
# From -- ./inp_files/34828.got.cif
#   From: 2010.05.17/outbox.cif.g08.bks.cpg/sg51_18_cif.got.tgz:34828.got - 2010.06.03 11:52:47.
