data_PCOD9400703
_publ_section_title
;
Structure prediction by ZEFSAII (Michael W. Deem and Ramdas Pophale) SiO2 
 PCOD9400703
Probable space group: P M M A
;
_chemical_formula_sum "Si O2"
_cell_formula_units_Z 32
_cell_length_a 14.531170
_cell_length_b 5.695616
_cell_length_c 13.624705
_cell_angle_alpha 90.000000
_cell_angle_beta 90.000000
_cell_angle_gamma 90.000000
_cell_volume 1127.634599
_symmetry_space_group_name_H-M "P M M A"
_symmetry_group_IT_number 51
_symmetry_cell_setting 'orthorhombic'
loop_
_space_group_symop_operation_xyz
x,y,z
1/2-x,-y,z
1/2+x,-y,-z
-x,y,-z
-x,-y,-z
1/2+x,y,-z
1/2-x,y,z
x,-y,z
loop_
_atom_site_type_symbol
_atom_site_label
_atom_site_fract_x
_atom_site_fract_y
_atom_site_fract_z
Si Si1 0.649204 0.500000 0.823725
Si Si2 0.881847 0.500000 0.594933
Si Si3 0.419124 0.500000 0.690084
Si Si4 0.904228 0.000000 0.558135
Si Si5 0.363811 0.000000 0.214935
Si Si6 0.092573 0.000000 0.936501
Si Si7 0.088264 0.500000 0.926835
Si Si8 0.645171 0.000000 0.273641
O O1 0.750000 0.500000 0.868286
O O2 0.657713 0.500000 0.704686
O O3 0.610448 0.759892 0.839479
O O4 0.858510 0.744976 0.543190
O O5 0.990977 0.500000 0.621376
O O6 0.435195 0.500000 0.809656
O O7 0.370467 0.248962 0.673553
O O8 0.000000 0.000000 0.500000
O O9 0.910792 0.000000 0.677880
O O10 0.250000 0.000000 0.226502
O O11 0.138587 0.254782 0.948510
O O12 0.077056 0.000000 0.818969
O O13 0.000000 0.000000 0.000000
O O14 0.000000 0.500000 0.000000
O O15 0.750000 0.000000 0.237338
#
# Coordination Sequence:
#
# PCOD9400703 Si02
#       8
#     4   4   4   4   4   4   4   4
#     4   8  14  25  42  65  88 110 139 179 222 270
#     4  10  19  31  48  71  95 123 160 198 244 291
#     4  10  19  31  48  71  97 127 163 210 249 291
#     4  10  19  31  48  69  94 122 155 200 243 291
#     4   8  14  25  42  62  84 109 141 180 221 267
#     4   8  14  25  42  65  89 114 149 198 246 284
#     4   8  14  25  42  65  90 116 148 185 230 278
#     4  10  19  31  48  70  95 129 173 216 251 292
#
# _framework density 28.377987000000001
#
# number of rings (size 3 to 8) (size 9 to 14) (size 15 to 20)
#    0.000    3.000    0.000    1.500    0.000    0.000 
#    0.000    0.000    0.000    4.500    0.000   28.000 
#    0.000   18.000    0.000    0.000    0.000    0.500 
#
# Total GULP energy -178746.086070 kJ/mol
# GULP energy per Si atom -5585.815190 kJ/mol
# Density = 2.831340 g / cm^3
# Si number density = 28.377987 Si / 1000 Ang^3
#
#
#
# Elastic Constant Matrix: (Units=GPa)
#
#
# Indices 1 2 3 4 5 6 
#
# 1 112.8193 57.0993 20.2810 0.0000 0.0000 0.0000
# 2 57.0993 412.8705 22.0751 0.0000 0.0000 0.0000
# 3 20.2810 22.0751 184.2543 0.0000 0.0000 0.0000
# 4 0.0000 0.0000 0.0000 -12.0822 0.0000 0.0000
# 5 0.0000 0.0000 0.0000 0.0000 2.5409 0.0000
# 6 0.0000 0.0000 0.0000 0.0000 0.0000 12.8265
#
#
#
# Elastic Compliance Matrix: (Units=1/GPa)
#
#
# Indices 1 2 3 4 5 6 
#
# 1 0.009680 -0.001290 -0.000911 0.000000 0.000000 0.000000
# 2 -0.001290 0.002610 -0.000171 0.000000 0.000000 0.000000
# 3 -0.000911 -0.000171 0.005548 0.000000 0.000000 0.000000
# 4 0.000000 0.000000 0.000000 -0.082766 0.000000 0.000000
# 5 0.000000 0.000000 0.000000 0.000000 0.393554 0.000000
# 6 0.000000 0.000000 0.000000 0.000000 0.000000 0.077963
#
#
# Mechanical properties :
#
#
# Convention : Reuss Voigt Hill
#
# Bulk Modulus (GPa) = 76.36723 100.98387 88.67555
# Shear Modulus (GPa) = 12.02799 41.35630 26.69214
#
# Velocity S-wave (km/s) = 2.06099 3.82165 3.07024
# Velocity P-wave (km/s) = 5.71251 7.42535 6.62452
#
# Compressibility (1/GPa) = 0.01309462
#
# Stress axis : x y z
#
# Youngs Moduli (GPa) = 103.30137 383.19949 180.24516
#
# Poissons Ratio (x) = 0.49436 0.16420
# Poissons Ratio (y) = 0.13327 0.03076
# Poissons Ratio (z) = 0.09410 0.06539
#
# Static dielectric constant tensor:
#      x y z
#    x 2.129690 0.000000 0.000000 
#    y 0.000000 2.266330 0.000000 
#    z 0.000000 0.000000 2.172330 
# 
# From -- ./inp_files/24490.got.cif
#   From: 2010.05.17/outbox.cif.g08.bks.cpg/sg51_13_cif.got.tgz:24490.got - 2010.06.03 11:52:47.
