data_PCOD9400930
_publ_section_title
;
Structure prediction by ZEFSAII (Michael W. Deem and Ramdas Pophale) SiO2 
 PCOD9400930
Probable space group: P M M A
;
_chemical_formula_sum "Si O2"
_cell_formula_units_Z 40
_cell_length_a 18.586597
_cell_length_b 7.455743
_cell_length_c 12.890854
_cell_angle_alpha 90.000000
_cell_angle_beta 90.000000
_cell_angle_gamma 90.000000
_cell_volume 1786.374463
_symmetry_space_group_name_H-M "P M M A"
_symmetry_group_IT_number 51
_symmetry_cell_setting 'orthorhombic'
loop_
_space_group_symop_operation_xyz
x,y,z
1/2-x,-y,z
1/2+x,-y,-z
-x,y,-z
-x,-y,-z
1/2+x,y,-z
1/2-x,y,z
x,-y,z
loop_
_atom_site_type_symbol
_atom_site_label
_atom_site_fract_x
_atom_site_fract_y
_atom_site_fract_z
Si Si1 0.169831 0.281104 0.017944
Si Si2 0.407328 0.719074 0.224762
Si Si3 0.438617 0.704378 0.846771
Si Si4 0.167738 0.789703 0.667430
Si Si5 0.167335 0.283604 0.432083
O O1 0.250000 0.220835 0.989093
O O2 0.170200 0.500000 0.011419
O O3 0.107826 0.215366 0.940409
O O4 0.149636 0.234304 0.135477
O O5 0.410178 0.500000 0.229572
O O6 0.485431 0.784241 0.187665
O O7 0.382056 0.780364 0.337835
O O8 0.455226 0.500000 0.879262
O O9 0.386213 0.701881 0.747793
O O10 0.250000 0.720767 0.675819
O O11 0.144591 0.768268 0.547948
O O12 0.168816 0.000000 0.692007
O O13 0.250000 0.222468 0.417789
O O14 0.168079 0.500000 0.428934
#
# Coordination Sequence:
#
# PCOD9400930 Si02
#       5
#     8   8   8   8   8
#     4   9  16  27  47  75 103 130 163 202 242 286
#     4   9  17  29  47  74 105 131 158 200 250 291
#     4  10  19  31  50  76 104 131 161 199 243 292
#     4  10  21  36  52  70  96 130 166 205 247 290
#     4   9  17  31  52  74  96 127 168 208 243 285
#
# _framework density 22.391722999999999
#
# number of rings (size 3 to 8) (size 9 to 14) (size 15 to 20)
#    0.000    2.600    0.000    2.400    0.000    7.600 
#    0.000    5.000    0.000    3.600    0.000    2.800 
#    0.000    0.000    0.000    0.000    0.000    0.000 
#
# Total GULP energy -223458.074239 kJ/mol
# GULP energy per Si atom -5586.451856 kJ/mol
# Density = 2.234076 g / cm^3
# Si number density = 22.391723 Si / 1000 Ang^3
#
#
#
# Elastic Constant Matrix: (Units=GPa)
#
#
# Indices 1 2 3 4 5 6 
#
# 1 52.5612 -2.5226 14.5552 0.0000 0.0000 0.0000
# 2 -2.5226 70.3485 -8.0200 0.0000 0.0000 0.0000
# 3 14.5552 -8.0200 80.9663 0.0000 0.0000 0.0000
# 4 0.0000 0.0000 0.0000 -114.7379 0.0000 0.0000
# 5 0.0000 0.0000 0.0000 0.0000 208.3529 0.0000
# 6 0.0000 0.0000 0.0000 0.0000 0.0000 -11.8101
#
#
#
# Elastic Compliance Matrix: (Units=1/GPa)
#
#
# Indices 1 2 3 4 5 6 
#
# 1 0.020029 0.000311 -0.003570 0.000000 0.000000 0.000000
# 2 0.000311 0.014382 0.001369 0.000000 0.000000 0.000000
# 3 -0.003570 0.001369 0.013128 0.000000 0.000000 0.000000
# 4 0.000000 0.000000 0.000000 -0.008716 0.000000 0.000000
# 5 0.000000 0.000000 0.000000 0.000000 0.004800 0.000000
# 6 0.000000 0.000000 0.000000 0.000000 0.000000 -0.084673
#
#
# Mechanical properties :
#
#
# Convention : Reuss Voigt Hill
#
# Bulk Modulus (GPa) = 22.85222 23.54460 23.19841
# Shear Modulus (GPa) = -220.42075 29.68520 -95.36778
#
# Velocity S-wave (km/s) = -9.93238 3.64500 -6.53323
# Velocity P-wave (km/s) = 11.01401 5.31529 6.82115
#
# Compressibility (1/GPa) = 0.04375943
#
# Stress axis : x y z
#
# Youngs Moduli (GPa) = 49.92787 69.53070 76.17241
#
# Poissons Ratio (x) = -0.02164 0.27192
# Poissons Ratio (y) = -0.01554 -0.10425
# Poissons Ratio (z) = 0.17823 -0.09516
#
# Static dielectric constant tensor:
#      x y z
#    x 1.803180 0.000000 0.000000 
#    y 0.000000 1.943760 0.000000 
#    z 0.000000 0.000000 1.781940 
# 
# From -- ./inp_files/17049.got.cif
#   From: 2010.05.17/outbox.cif.g08.bks.cpg/sg51_9_cif.got.tgz:17049.got - 2010.06.03 11:52:47.
