data_PCOD9400938
_publ_section_title
;
Structure prediction by ZEFSAII (Michael W. Deem and Ramdas Pophale) SiO2 
 PCOD9400938
Probable space group: P M M A
;
_chemical_formula_sum "Si O2"
_cell_formula_units_Z 48
_cell_length_a 8.738790
_cell_length_b 31.332752
_cell_length_c 9.796369
_cell_angle_alpha 90.000000
_cell_angle_beta 90.000000
_cell_angle_gamma 90.000000
_cell_volume 2682.347125
_symmetry_space_group_name_H-M "P M M A"
_symmetry_group_IT_number 51
_symmetry_cell_setting 'orthorhombic'
loop_
_space_group_symop_operation_xyz
x,y,z
1/2-x,-y,z
1/2+x,-y,-z
-x,y,-z
-x,-y,-z
1/2+x,y,-z
1/2-x,y,z
x,-y,z
loop_
_atom_site_type_symbol
_atom_site_label
_atom_site_fract_x
_atom_site_fract_y
_atom_site_fract_z
Si Si1 0.933881 0.360712 0.847041
Si Si2 0.067295 0.289835 0.649360
Si Si3 0.934558 0.545825 0.846275
Si Si4 0.933371 0.809388 0.349637
Si Si5 0.067430 0.880515 0.151829
Si Si6 0.068216 0.949355 0.648018
O O1 0.750000 0.358460 0.852490
O O2 0.978986 0.407811 0.788613
O O3 0.997997 0.322649 0.756548
O O4 0.000000 0.357795 0.000000
O O5 0.250000 0.293994 0.646333
O O6 0.031043 0.240262 0.681303
O O7 0.000000 0.298835 0.500000
O O8 0.750000 0.545764 0.852894
O O9 0.982081 0.500000 0.782922
O O10 0.000000 0.545677 0.000000
O O11 0.750000 0.814662 0.352424
O O12 0.000000 0.818978 0.500000
O O13 0.005585 0.840399 0.238297
O O14 0.250000 0.879614 0.146376
O O15 0.010731 0.921953 0.234783
O O16 0.000000 0.880235 0.000000
O O17 0.250000 0.941294 0.648053
O O18 0.000000 0.937594 0.500000
O O19 0.042998 0.000000 0.667246
#
# Coordination Sequence:
#
# PCOD9400938 Si02
#       6
#     8   8   8   8   8   8
#     4  10  19  31  50  76 106 138 173 216 264 315
#     4  10  21  37  57  79 105 138 176 219 266 319
#     4   8  14  25  42  66  96 130 168 210 256 306
#     4  10  21  39  61  83 107 139 180 222 266 319
#     4  12  25  40  59  84 116 150 184 226 275 324
#     4  10  21  39  63  89 117 151 191 231 270 317
#
# _framework density 17.894776
#
# number of rings (size 3 to 8) (size 9 to 14) (size 15 to 20)
#    0.000    2.000    0.000    4.000    0.000    4.667 
#    0.000    0.000    0.000    0.500    0.000    0.000 
#    0.000    0.000    0.000    0.000    0.000    0.000 
#
# Total GULP energy -267868.662411 kJ/mol
# GULP energy per Si atom -5580.597134 kJ/mol
# Density = 1.785405 g / cm^3
# Si number density = 17.894776 Si / 1000 Ang^3
#
#
#
# Elastic Constant Matrix: (Units=GPa)
#
#
# Indices 1 2 3 4 5 6 
#
# 1 93.6897 73.8066 64.5820 0.0000 0.0000 0.0000
# 2 73.8066 129.1066 98.4696 0.0000 0.0000 0.0000
# 3 64.5820 98.4696 125.1996 0.0000 0.0000 0.0000
# 4 0.0000 0.0000 0.0000 28.0061 0.0000 0.0000
# 5 0.0000 0.0000 0.0000 0.0000 33.4564 0.0000
# 6 0.0000 0.0000 0.0000 0.0000 0.0000 31.7145
#
#
#
# Elastic Compliance Matrix: (Units=1/GPa)
#
#
# Indices 1 2 3 4 5 6 
#
# 1 0.019950 -0.008887 -0.003301 0.000000 0.000000 0.000000
# 2 -0.008887 0.023316 -0.013754 0.000000 0.000000 0.000000
# 3 -0.003301 -0.013754 0.020508 0.000000 0.000000 0.000000
# 4 0.000000 0.000000 0.000000 0.035707 0.000000 0.000000
# 5 0.000000 0.000000 0.000000 0.000000 0.029890 0.000000
# 6 0.000000 0.000000 0.000000 0.000000 0.000000 0.031531
#
#
# Mechanical properties :
#
#
# Convention : Reuss Voigt Hill
#
# Bulk Modulus (GPa) = 84.10838 91.30135 87.70487
# Shear Modulus (GPa) = 23.06816 26.04459 24.55637
#
# Velocity S-wave (km/s) = 3.59430 3.81915 3.70843
# Velocity P-wave (km/s) = 8.02054 8.40118 8.21306
#
# Compressibility (1/GPa) = 0.01188942
#
# Stress axis : x y z
#
# Youngs Moduli (GPa) = 50.12484 42.88878 48.76238
#
# Poissons Ratio (x) = 0.38116 0.16098
# Poissons Ratio (y) = 0.44546 0.67067
# Poissons Ratio (z) = 0.16548 0.58989
#
# Static dielectric constant tensor:
#      x y z
#    x 1.599270 0.000000 0.000000 
#    y 0.000000 1.650880 0.000000 
#    z 0.000000 0.000000 1.562230 
# 
# From -- ./inp_files/5979.got.cif
#   From: 2010.05.17/outbox.cif.g08.bks.cpg/sg51_3_cif.got.tgz:5979.got - 2010.06.03 11:52:47.
