data_PCOD9400869
_publ_section_title
;
Structure prediction by ZEFSAII (Michael W. Deem and Ramdas Pophale) SiO2 
 PCOD9400869
Probable space group: P M M A
;
_chemical_formula_sum "Si O2"
_cell_formula_units_Z 56
_cell_length_a 14.057737
_cell_length_b 13.805652
_cell_length_c 13.779836
_cell_angle_alpha 90.000000
_cell_angle_beta 90.000000
_cell_angle_gamma 90.000000
_cell_volume 2674.338551
_symmetry_space_group_name_H-M "P M M A"
_symmetry_group_IT_number 51
_symmetry_cell_setting 'orthorhombic'
loop_
_space_group_symop_operation_xyz
x,y,z
1/2-x,-y,z
1/2+x,-y,-z
-x,y,-z
-x,-y,-z
1/2+x,y,-z
1/2-x,y,z
x,-y,z
loop_
_atom_site_type_symbol
_atom_site_label
_atom_site_fract_x
_atom_site_fract_y
_atom_site_fract_z
Si Si1 0.141683 0.617527 0.258924
Si Si2 0.645412 0.190870 0.043405
Si Si3 0.552694 0.115590 0.639923
Si Si4 0.635014 0.390438 0.530440
Si Si5 0.103989 0.608835 0.042808
Si Si6 0.959766 0.115988 0.856125
Si Si7 0.361293 0.805689 0.554987
O O1 0.250000 0.654482 0.253730
O O2 0.145858 0.500000 0.263374
O O3 0.097560 0.641795 0.363312
O O4 0.096622 0.640045 0.155489
O O5 0.750000 0.157734 0.074378
O O6 0.649468 0.304930 0.018277
O O7 0.560272 0.165997 0.116942
O O8 0.612656 0.141609 0.942272
O O9 0.576174 0.145928 0.749687
O O10 0.618875 0.157288 0.554854
O O11 0.442765 0.144028 0.618301
O O12 0.560251 0.000000 0.633755
O O13 0.750000 0.392224 0.541457
O O14 0.605772 0.500000 0.506925
O O15 0.615927 0.308983 0.451425
O O16 0.146199 0.500000 0.039375
O O17 0.000000 0.601475 0.000000
O O18 0.974700 0.000000 0.855611
O O19 0.250000 0.820547 0.580549
#
# Coordination Sequence:
#
# PCOD9400869 Si02
#       7
#     8   8   8   8   8   8   8
#     4   8  14  25  42  68 102 140 180 218 262 315
#     4  11  22  37  61  88 114 148 191 238 287 341
#     4  10  23  41  58  80 115 150 183 237 295 341
#     4   8  15  28  49  79 112 143 176 220 269 318
#     4  10  19  31  49  77 116 155 187 226 275 330
#     4  10  23  43  60  81 115 148 187 241 297 351
#     4  10  20  35  60  88 113 147 191 234 277 337
#
# _framework density 20.939757
#
# number of rings (size 3 to 8) (size 9 to 14) (size 15 to 20)
#    0.000    2.429    1.429    3.000    2.000    4.286 
#    0.000    4.286    0.000    1.714    0.000    2.000 
#    0.000    0.000    0.000    0.000    0.000    0.000 
#
# Total GULP energy -312379.769414 kJ/mol
# GULP energy per Si atom -5578.210168 kJ/mol
# Density = 2.089210 g / cm^3
# Si number density = 20.939757 Si / 1000 Ang^3
#
#
#
# Elastic Constant Matrix: (Units=GPa)
#
#
# Indices 1 2 3 4 5 6 
#
# 1 78.2260 -5.5997 -12.1495 0.0000 0.0000 0.0000
# 2 -5.5997 85.0609 1.7981 0.0000 0.0000 0.0000
# 3 -12.1495 1.7981 24.1411 0.0000 0.0000 0.0000
# 4 0.0000 0.0000 0.0000 30.9118 0.0000 0.0000
# 5 0.0000 0.0000 0.0000 0.0000 14.9991 0.0000
# 6 0.0000 0.0000 0.0000 0.0000 0.0000 11.0234
#
#
#
# Elastic Compliance Matrix: (Units=1/GPa)
#
#
# Indices 1 2 3 4 5 6 
#
# 1 0.013918 0.000769 0.006947 0.000000 0.000000 0.000000
# 2 0.000769 0.011817 -0.000493 0.000000 0.000000 0.000000
# 3 0.006947 -0.000493 0.044956 0.000000 0.000000 0.000000
# 4 0.000000 0.000000 0.000000 0.032350 0.000000 0.000000
# 5 0.000000 0.000000 0.000000 0.000000 0.066671 0.000000
# 6 0.000000 0.000000 0.000000 0.000000 0.000000 0.090717
#
#
# Mechanical properties :
#
#
# Convention : Reuss Voigt Hill
#
# Bulk Modulus (GPa) = 11.74569 17.28064 14.51317
# Shear Modulus (GPa) = 18.22417 24.94545 21.58481
#
# Velocity S-wave (km/s) = 2.95331 3.45526 3.21410
# Velocity P-wave (km/s) = 4.15341 4.91822 4.55191
#
# Compressibility (1/GPa) = 0.08513762
#
# Stress axis : x y z
#
# Youngs Moduli (GPa) = 71.85196 84.62130 22.24392
#
# Poissons Ratio (x) = -0.06510 -0.15453
# Poissons Ratio (y) = -0.05528 0.01097
# Poissons Ratio (z) = -0.49915 0.04172
#
# Static dielectric constant tensor:
#      x y z
#    x 1.731320 0.000000 0.000000 
#    y 0.000000 1.812300 0.000000 
#    z 0.000000 0.000000 1.749800 
# 
# From -- ./inp_files/24326.got.cif
#   From: 2010.05.17/outbox.cif.g08.bks.cpg/sg51_13_cif.got.tgz:24326.got - 2010.06.03 11:52:47.
