data_PCOD9400556
_publ_section_title
;
Structure prediction by ZEFSAII (Michael W. Deem and Ramdas Pophale) SiO2 
 PCOD9400556
Probable space group: P M M A
;
_chemical_formula_sum "Si O2"
_cell_formula_units_Z 40
_cell_length_a 9.145236
_cell_length_b 15.988329
_cell_length_c 20.050781
_cell_angle_alpha 90.000000
_cell_angle_beta 90.000000
_cell_angle_gamma 90.000000
_cell_volume 2931.765887
_symmetry_space_group_name_H-M "P M M A"
_symmetry_group_IT_number 51
_symmetry_cell_setting 'orthorhombic'
loop_
_space_group_symop_operation_xyz
x,y,z
1/2-x,-y,z
1/2+x,-y,-z
-x,y,-z
-x,-y,-z
1/2+x,y,-z
1/2-x,y,z
x,-y,z
loop_
_atom_site_type_symbol
_atom_site_label
_atom_site_fract_x
_atom_site_fract_y
_atom_site_fract_z
Si Si1 0.925948 0.684533 0.073358
Si Si2 0.074946 0.098585 0.296878
Si Si3 0.574973 0.000000 0.928496
Si Si4 0.426213 0.832633 0.153799
Si Si5 0.075846 0.500000 0.928327
Si Si6 0.081550 0.101819 0.567000
O O1 0.750000 0.693118 0.066898
O O2 0.960177 0.590973 0.101370
O O3 0.991730 0.755326 0.120606
O O4 0.000000 0.691883 0.000000
O O5 0.250000 0.103333 0.305742
O O6 0.035441 0.149948 0.230848
O O7 0.996779 0.126914 0.364465
O O8 0.040289 0.000000 0.285429
O O9 0.537015 0.083153 0.887216
O O10 0.750000 0.000000 0.936968
O O11 0.500000 0.000000 0.000000
O O12 0.250000 0.821122 0.149652
O O13 0.250000 0.500000 0.937865
O O14 0.000000 0.500000 0.000000
O O15 0.250000 0.127548 0.566215
O O16 0.000000 0.130154 0.500000
O O17 0.077455 0.000000 0.566298
#
# Coordination Sequence:
#
# PCOD9400556 Si02
#       6
#     8   8   4   8   4   8
#     4  10  19  31  46  63  81 103 133 171 213 256
#     4   9  16  28  43  56  76 108 139 169 204 241
#     4  10  20  32  42  54  75 106 141 174 207 240
#     4  10  19  31  44  59  81 109 140 172 208 247
#     4   8  16  30  46  62  80 100 125 162 211 260
#     4   9  16  25  38  57  78 101 133 171 205 240
#
# _framework density 13.643654
#
# number of rings (size 3 to 8) (size 9 to 14) (size 15 to 20)
#    0.000    2.600    1.000    1.800    0.000    6.400 
#    0.000    0.000    0.000    0.000    0.000    0.000 
#    0.000    0.000    0.000    0.900    0.000   11.600 
#
# Total GULP energy -222781.761680 kJ/mol
# GULP energy per Si atom -5569.544042 kJ/mol
# Density = 1.361260 g / cm^3
# Si number density = 13.643654 Si / 1000 Ang^3
#
#
#
# Elastic Constant Matrix: (Units=GPa)
#
#
# Indices 1 2 3 4 5 6 
#
# 1 45.7587 42.9480 55.9706 0.0000 0.0000 0.0000
# 2 42.9480 98.0052 56.8474 0.0000 0.0000 0.0000
# 3 55.9706 56.8474 127.5454 0.0000 0.0000 0.0000
# 4 0.0000 0.0000 0.0000 2.8151 0.0000 0.0000
# 5 0.0000 0.0000 0.0000 0.0000 25.5805 0.0000
# 6 0.0000 0.0000 0.0000 0.0000 0.0000 16.0402
#
#
#
# Elastic Compliance Matrix: (Units=1/GPa)
#
#
# Indices 1 2 3 4 5 6 
#
# 1 0.059745 -0.014800 -0.019621 0.000000 0.000000 0.000000
# 2 -0.014800 0.017428 -0.001273 0.000000 0.000000 0.000000
# 3 -0.019621 -0.001273 0.017018 0.000000 0.000000 0.000000
# 4 0.000000 0.000000 0.000000 0.355224 0.000000 0.000000
# 5 0.000000 0.000000 0.000000 0.000000 0.039092 0.000000
# 6 0.000000 0.000000 0.000000 0.000000 0.000000 0.062343
#
#
# Mechanical properties :
#
#
# Convention : Reuss Voigt Hill
#
# Bulk Modulus (GPa) = 43.85585 64.76016 54.30801
# Shear Modulus (GPa) = 7.93853 16.59006 12.26430
#
# Velocity S-wave (km/s) = 2.41477 3.49084 3.00142
# Velocity P-wave (km/s) = 6.32364 7.98852 7.20433
#
# Compressibility (1/GPa) = 0.02280197
#
# Stress axis : x y z
#
# Youngs Moduli (GPa) = 16.73772 57.38008 58.76134
#
# Poissons Ratio (x) = 0.84925 1.15298
# Poissons Ratio (y) = 0.24773 0.07479
# Poissons Ratio (z) = 0.32842 0.07303
#
# Static dielectric constant tensor:
#      x y z
#    x 1.455660 0.000000 0.000000 
#    y 0.000000 1.447140 0.000000 
#    z 0.000000 0.000000 1.430020 
# 
# From -- ./inp_files/27785.got.cif
#   From: 2010.05.17/outbox.cif.g08.bks.cpg/sg51_14_cif.got.tgz:27785.got - 2010.06.03 11:52:47.
