data_PCOD9400291
_publ_section_title
;
Structure prediction by ZEFSAII (Michael W. Deem and Ramdas Pophale) SiO2 
 PCOD9400291
Probable space group: P M M A
;
_chemical_formula_sum "Si O2"
_cell_formula_units_Z 48
_cell_length_a 14.354194
_cell_length_b 7.752308
_cell_length_c 18.279117
_cell_angle_alpha 90.000000
_cell_angle_beta 90.000000
_cell_angle_gamma 90.000000
_cell_volume 2034.066012
_symmetry_space_group_name_H-M "P M M A"
_symmetry_group_IT_number 51
_symmetry_cell_setting 'orthorhombic'
loop_
_space_group_symop_operation_xyz
x,y,z
1/2-x,-y,z
1/2+x,-y,-z
-x,y,-z
-x,-y,-z
1/2+x,y,-z
1/2-x,y,z
x,-y,z
loop_
_atom_site_type_symbol
_atom_site_label
_atom_site_fract_x
_atom_site_fract_y
_atom_site_fract_z
Si Si1 0.444185 0.708788 0.675806
Si Si2 0.943252 0.796670 0.164900
Si Si3 0.650658 0.196995 0.858570
Si Si4 0.349208 0.288385 0.363953
Si Si5 0.889072 0.306576 0.012348
Si Si6 0.108891 0.696938 0.521937
O O1 0.444581 0.500000 0.671082
O O2 0.406067 0.760987 0.754345
O O3 0.552785 0.767774 0.670465
O O4 0.390242 0.773346 0.603335
O O5 0.880095 0.732317 0.097996
O O6 0.050053 0.721861 0.161615
O O7 0.952724 0.000000 0.152721
O O8 0.750000 0.278695 0.836576
O O9 0.650103 0.000000 0.831335
O O10 0.650326 0.193311 0.947210
O O11 0.250000 0.236821 0.330352
O O12 0.352209 0.500000 0.364901
O O13 0.348813 0.226639 0.448470
O O14 0.857472 0.500000 0.997682
O O15 0.000000 0.296737 0.000000
O O16 0.143718 0.500000 0.527647
O O17 0.000000 0.687598 0.500000
#
# Coordination Sequence:
#
# PCOD9400291 Si02
#       6
#     8   8   8   8   8   8
#     4   9  16  26  41  62  87 113 141 177 220 260
#     4  10  19  30  45  65  90 121 152 179 214 265
#     4   9  18  32  48  66  90 119 147 176 216 268
#     4   8  13  22  39  63  86 108 139 179 220 262
#     4   9  17  30  48  68  88 112 147 189 224 254
#     4   7  11  21  37  56  79 108 140 173 212 257
#
# _framework density 23.598054000000001
#
# number of rings (size 3 to 8) (size 9 to 14) (size 15 to 20)
#    0.000    3.333    0.000    3.000    0.000    3.667 
#    0.000    0.000    0.000    5.500    0.000    2.333 
#    0.000    0.000    0.000    0.000    0.000    0.000 
#
# Total GULP energy -267399.223316 kJ/mol
# GULP energy per Si atom -5570.817152 kJ/mol
# Density = 2.354434 g / cm^3
# Si number density = 23.598054 Si / 1000 Ang^3
#
#
#
# Elastic Constant Matrix: (Units=GPa)
#
#
# Indices 1 2 3 4 5 6 
#
# 1 44.7536 -1.1329 -7.8077 0.0000 0.0000 0.0000
# 2 -1.1329 45.9213 -8.1691 0.0000 0.0000 0.0000
# 3 -7.8077 -8.1691 165.6130 0.0000 0.0000 0.0000
# 4 0.0000 0.0000 0.0000 27.8305 0.0000 0.0000
# 5 0.0000 0.0000 0.0000 0.0000 -20.9309 0.0000
# 6 0.0000 0.0000 0.0000 0.0000 0.0000 -26.9242
#
#
#
# Elastic Compliance Matrix: (Units=1/GPa)
#
#
# Indices 1 2 3 4 5 6 
#
# 1 0.022556 0.000752 0.001100 0.000000 0.000000 0.000000
# 2 0.000752 0.021994 0.001120 0.000000 0.000000 0.000000
# 3 0.001100 0.001120 0.006145 0.000000 0.000000 0.000000
# 4 0.000000 0.000000 0.000000 0.035932 0.000000 0.000000
# 5 0.000000 0.000000 0.000000 0.000000 -0.047776 0.000000
# 6 0.000000 0.000000 0.000000 0.000000 0.000000 -0.037141
#
#
# Mechanical properties :
#
#
# Convention : Reuss Voigt Hill
#
# Bulk Modulus (GPa) = 17.65496 24.67427 21.16462
# Shear Modulus (GPa) = 341.44386 14.22160 177.83273
#
# Velocity S-wave (km/s) = 12.04183 2.45758 8.69038
# Velocity P-wave (km/s) = 14.17175 4.30484 10.47307
#
# Compressibility (1/GPa) = 0.05664130
#
# Stress axis : x y z
#
# Youngs Moduli (GPa) = 44.33491 45.46646 162.72554
#
# Poissons Ratio (x) = -0.03420 -0.17908
# Poissons Ratio (y) = -0.03335 -0.18231
# Poissons Ratio (z) = -0.04879 -0.05094
#
# Static dielectric constant tensor:
#      x y z
#    x 1.941190 0.000000 0.000000 
#    y 0.000000 1.866250 0.000000 
#    z 0.000000 0.000000 1.920760 
# 
# From -- ./inp_files/29494.got.cif
#   From: 2010.05.17/outbox.cif.g08.bks.cpg/sg51_15_cif.got.tgz:29494.got - 2010.06.03 11:52:47.
