data_PCOD9400040
_publ_section_title
;
Structure prediction by ZEFSAII (Michael W. Deem and Ramdas Pophale) SiO2 
 PCOD9400040
Probable space group: P M M A
;
_chemical_formula_sum "Si O2"
_cell_formula_units_Z 64
_cell_length_a 29.583653
_cell_length_b 7.605377
_cell_length_c 16.189729
_cell_angle_alpha 90.000000
_cell_angle_beta 90.000000
_cell_angle_gamma 90.000000
_cell_volume 3642.605391
_symmetry_space_group_name_H-M "P M M A"
_symmetry_group_IT_number 51
_symmetry_cell_setting 'orthorhombic'
loop_
_space_group_symop_operation_xyz
x,y,z
1/2-x,-y,z
1/2+x,-y,-z
-x,y,-z
-x,-y,-z
1/2+x,y,-z
1/2-x,y,z
x,-y,z
loop_
_atom_site_type_symbol
_atom_site_label
_atom_site_fract_x
_atom_site_fract_y
_atom_site_fract_z
Si Si1 0.605373 0.708248 0.834697
Si Si2 0.447221 0.787747 0.492461
Si Si3 0.800034 0.211517 0.090032
Si Si4 0.561464 0.205759 0.329528
Si Si5 0.956709 0.705721 0.687745
Si Si6 0.448142 0.212823 0.998167
Si Si7 0.392958 0.215942 0.836523
Si Si8 0.199565 0.288899 0.103605
O O1 0.610174 0.500000 0.818499
O O2 0.574573 0.780604 0.760515
O O3 0.579047 0.729916 0.920917
O O4 0.656146 0.780265 0.846834
O O5 0.500000 0.737697 0.500000
O O6 0.426836 0.722255 0.579159
O O7 0.433243 0.725560 0.401906
O O8 0.444836 0.000000 0.491482
O O9 0.750000 0.278511 0.111778
O O10 0.841916 0.273674 0.144469
O O11 0.799158 0.000000 0.096494
O O12 0.808186 0.253291 0.993639
O O13 0.507149 0.215170 0.316531
O O14 0.586631 0.280008 0.249806
O O15 0.573235 0.000000 0.332700
O O16 0.964075 0.500000 0.703699
O O17 0.448146 0.000000 0.998562
O O18 0.500000 0.272742 0.000000
O O19 0.423579 0.270437 0.914300
O O20 0.393734 0.000000 0.835847
O O21 0.250000 0.221691 0.124485
O O22 0.200547 0.500000 0.113421
#
# Coordination Sequence:
#
# PCOD9400040 Si02
#       8
#     8   8   8   8   8   8   8   8
#     4  10  20  31  42  61  87 114 143 176 215 254
#     4   8  15  28  45  63  81 107 142 175 208 246
#     4   9  16  27  44  64  84 106 137 178 218 251
#     4   9  17  30  46  62  84 113 144 174 203 246
#     4  10  19  29  42  62  88 113 138 173 215 252
#     4  10  19  29  42  60  84 117 151 174 199 242
#     4   9  16  27  42  62  85 110 140 173 207 244
#     4   9  17  30  46  61  80 109 144 180 216 253
#
# _framework density 17.569841
#
# number of rings (size 3 to 8) (size 9 to 14) (size 15 to 20)
#    0.000    2.750    1.250    1.875    0.000    4.500 
#    0.000    1.250    0.000    0.000    0.000    0.875 
#    0.000    1.000    0.000    0.000    0.000    0.000 
#
# Total GULP energy -356643.422925 kJ/mol
# GULP energy per Si atom -5572.553483 kJ/mol
# Density = 1.752985 g / cm^3
# Si number density = 17.569841 Si / 1000 Ang^3
#
#
#
# Elastic Constant Matrix: (Units=GPa)
#
#
# Indices 1 2 3 4 5 6 
#
# 1 94.2937 -5.0200 38.7688 0.0000 0.0000 0.0000
# 2 -5.0200 32.1885 -3.6840 0.0000 0.0000 0.0000
# 3 38.7688 -3.6840 94.4956 0.0000 0.0000 0.0000
# 4 0.0000 0.0000 0.0000 17.3374 0.0000 0.0000
# 5 0.0000 0.0000 0.0000 0.0000 10.3750 0.0000
# 6 0.0000 0.0000 0.0000 0.0000 0.0000 -2.7488
#
#
#
# Elastic Compliance Matrix: (Units=1/GPa)
#
#
# Indices 1 2 3 4 5 6 
#
# 1 0.012820 0.001404 -0.005205 0.000000 0.000000 0.000000
# 2 0.001404 0.031360 0.000647 0.000000 0.000000 0.000000
# 3 -0.005205 0.000647 0.012743 0.000000 0.000000 0.000000
# 4 0.000000 0.000000 0.000000 0.057679 0.000000 0.000000
# 5 0.000000 0.000000 0.000000 0.000000 0.096386 0.000000
# 6 0.000000 0.000000 0.000000 0.000000 0.000000 -0.363790
#
#
# Mechanical properties :
#
#
# Convention : Reuss Voigt Hill
#
# Bulk Modulus (GPa) = 19.75747 31.23418 25.49583
# Shear Modulus (GPa) = -38.57373 17.72023 -10.42675
#
# Velocity S-wave (km/s) = -4.69065 3.17923 -2.43872
# Velocity P-wave (km/s) = 4.25050 5.59396 2.57155
#
# Compressibility (1/GPa) = 0.05061376
#
# Stress axis : x y z
#
# Youngs Moduli (GPa) = 78.00381 31.88789 78.47362
#
# Poissons Ratio (x) = -0.04476 0.40845
# Poissons Ratio (y) = -0.10949 -0.05075
# Poissons Ratio (z) = 0.40600 -0.02062
#
# Static dielectric constant tensor:
#      x y z
#    x 1.606990 0.000000 0.000000 
#    y 0.000000 1.641530 0.000000 
#    z 0.000000 0.000000 1.611130 
# 
# From -- ./inp_files/26629.got.cif
#   From: 2010.05.17/outbox.cif.g08.bks.cpg/sg51_14_cif.got.tgz:26629.got - 2010.06.03 11:52:47.
