data_PCOD9400399
_publ_section_title
;
Structure prediction by ZEFSAII (Michael W. Deem and Ramdas Pophale) SiO2 
 PCOD9400399
Probable space group: P M M A
;
_chemical_formula_sum "Si O2"
_cell_formula_units_Z 40
_cell_length_a 8.469089
_cell_length_b 26.588844
_cell_length_c 10.175145
_cell_angle_alpha 90.000000
_cell_angle_beta 90.000000
_cell_angle_gamma 90.000000
_cell_volume 2291.272589
_symmetry_space_group_name_H-M "P M M A"
_symmetry_group_IT_number 51
_symmetry_cell_setting 'orthorhombic'
loop_
_space_group_symop_operation_xyz
x,y,z
1/2-x,-y,z
1/2+x,-y,-z
-x,y,-z
-x,-y,-z
1/2+x,y,-z
1/2-x,y,z
x,-y,z
loop_
_atom_site_type_symbol
_atom_site_label
_atom_site_fract_x
_atom_site_fract_y
_atom_site_fract_z
Si Si1 0.440785 0.057057 0.146693
Si Si2 0.940812 0.745355 0.646344
Si Si3 0.560672 0.554595 0.150470
Si Si4 0.438988 0.660803 0.149591
Si Si5 0.559204 0.860111 0.645787
O O1 0.250000 0.057849 0.145744
O O2 0.496634 0.098952 0.249130
O O3 0.490685 0.000000 0.181771
O O4 0.500000 0.067613 0.000000
O O5 0.750000 0.744510 0.644725
O O6 0.994680 0.705587 0.755572
O O7 0.991311 0.802767 0.676569
O O8 0.000000 0.732908 0.500000
O O9 0.750000 0.557567 0.149660
O O10 0.514805 0.500000 0.208963
O O11 0.492934 0.606523 0.205191
O O12 0.500000 0.553799 0.000000
O O13 0.250000 0.661290 0.144243
O O14 0.500000 0.666310 0.000000
O O15 0.500000 0.872255 0.500000
O O16 0.750000 0.860705 0.645241
#
# Coordination Sequence:
#
# PCOD9400399 Si02
#       5
#     8   8   8   8   8
#     4   9  18  32  49  70  97 127 157 191 232 277
#     4   9  19  34  50  68  92 124 158 192 233 279
#     4   9  16  26  42  65  92 121 152 187 228 272
#     4  10  19  30  46  70  96 121 153 191 231 276
#     4   9  18  33  50  69  94 122 156 196 234 275
#
# _framework density 17.457547000000002
#
# number of rings (size 3 to 8) (size 9 to 14) (size 15 to 20)
#    0.000    2.800    0.000    2.400    0.000    4.800 
#    0.000    0.000    0.000    0.600    0.000    0.000 
#    0.000    0.000    0.000    0.000    0.000    0.000 
#
# Total GULP energy -222835.942174 kJ/mol
# GULP energy per Si atom -5570.898554 kJ/mol
# Density = 1.741781 g / cm^3
# Si number density = 17.457547 Si / 1000 Ang^3
#
#
#
# Elastic Constant Matrix: (Units=GPa)
#
#
# Indices 1 2 3 4 5 6 
#
# 1 18.9107 26.9965 16.7301 0.0000 0.0000 0.0000
# 2 26.9965 176.5070 113.0074 0.0000 0.0000 0.0000
# 3 16.7301 113.0074 92.2819 0.0000 0.0000 0.0000
# 4 0.0000 0.0000 0.0000 -4.7483 0.0000 0.0000
# 5 0.0000 0.0000 0.0000 0.0000 24.4676 0.0000
# 6 0.0000 0.0000 0.0000 0.0000 0.0000 28.9946
#
#
#
# Elastic Compliance Matrix: (Units=1/GPa)
#
#
# Indices 1 2 3 4 5 6 
#
# 1 0.067722 -0.011564 0.001883 0.000000 0.000000 0.000000
# 2 -0.011564 0.028208 -0.032447 0.000000 0.000000 0.000000
# 3 0.001883 -0.032447 0.050229 0.000000 0.000000 0.000000
# 4 0.000000 0.000000 0.000000 -0.210601 0.000000 0.000000
# 5 0.000000 0.000000 0.000000 0.000000 0.040870 0.000000
# 6 0.000000 0.000000 0.000000 0.000000 0.000000 0.034489
#
#
# Mechanical properties :
#
#
# Convention : Reuss Voigt Hill
#
# Bulk Modulus (GPa) = 16.15390 66.79638 41.47514
# Shear Modulus (GPa) = 43.17558 18.47381 30.82470
#
# Velocity S-wave (km/s) = 4.97850 3.25655 4.20658
# Velocity P-wave (km/s) = 6.50543 7.24468 6.88498
#
# Compressibility (1/GPa) = 0.06190456
#
# Stress axis : x y z
#
# Youngs Moduli (GPa) = 14.76621 35.45114 19.90896
#
# Poissons Ratio (x) = 0.40995 -0.03749
# Poissons Ratio (y) = 0.17075 0.64598
# Poissons Ratio (z) = -0.02781 1.15027
#
# Static dielectric constant tensor:
#      x y z
#    x 1.597200 0.000000 0.000000 
#    y 0.000000 1.640240 0.000000 
#    z 0.000000 0.000000 1.560270 
# 
# From -- ./inp_files/5502.got.cif
#   From: 2010.05.17/outbox.cif.g08.bks.cpg/sg51_3_cif.got.tgz:5502.got - 2010.06.03 11:52:47.
