data_PCOD9400807
_publ_section_title
;
Structure prediction by ZEFSAII (Michael W. Deem and Ramdas Pophale) SiO2 
 PCOD9400807
Probable space group: P M M A
;
_chemical_formula_sum "Si O2"
_cell_formula_units_Z 64
_cell_length_a 29.250860
_cell_length_b 7.460433
_cell_length_c 14.446399
_cell_angle_alpha 90.000000
_cell_angle_beta 90.000000
_cell_angle_gamma 90.000000
_cell_volume 3152.552149
_symmetry_space_group_name_H-M "P M M A"
_symmetry_group_IT_number 51
_symmetry_cell_setting 'orthorhombic'
loop_
_space_group_symop_operation_xyz
x,y,z
1/2-x,-y,z
1/2+x,-y,-z
-x,y,-z
-x,-y,-z
1/2+x,y,-z
1/2-x,y,z
x,-y,z
loop_
_atom_site_type_symbol
_atom_site_label
_atom_site_fract_x
_atom_site_fract_y
_atom_site_fract_z
Si Si1 0.559525 0.291172 0.257785
Si Si2 0.699062 0.216283 0.749521
Si Si3 0.014103 0.287361 0.396988
Si Si4 0.801271 0.287400 0.967060
Si Si5 0.199466 0.783334 0.751950
Si Si6 0.638125 0.784222 0.405307
Si Si7 0.623795 0.297113 0.102644
Si Si8 0.120598 0.783484 0.388699
O O1 0.550617 0.500000 0.236714
O O2 0.515752 0.213208 0.311319
O O3 0.597954 0.281991 0.338209
O O4 0.581549 0.215432 0.162272
O O5 0.750000 0.277401 0.719675
O O6 0.693822 0.264608 0.857195
O O7 0.656956 0.281220 0.687196
O O8 0.699239 0.000000 0.744278
O O9 0.004028 0.500000 0.400230
O O10 0.067514 0.263504 0.377166
O O11 0.000000 0.217219 0.500000
O O12 0.750000 0.216782 0.992654
O O13 0.800486 0.500000 0.987684
O O14 0.846371 0.213288 0.019162
O O15 0.250000 0.724491 0.773964
O O16 0.184903 0.741467 0.647310
O O17 0.162967 0.697623 0.819172
O O18 0.196535 0.000000 0.763075
O O19 0.634218 0.718216 0.509025
O O20 0.633683 0.000000 0.407227
O O21 0.610512 0.500000 0.075003
O O22 0.123064 0.000000 0.388639
#
# Coordination Sequence:
#
# PCOD9400807 Si02
#       8
#     8   8   8   8   8   8   8   8
#     4   9  17  30  46  67  95 125 155 189 232 280
#     4   9  19  35  52  71  96 125 159 199 241 285
#     4  10  19  31  49  72  98 128 162 199 237 277
#     4   9  17  30  49  72  94 118 153 197 242 285
#     4   9  17  27  39  60  91 123 153 185 224 275
#     4   9  17  28  42  62  89 121 155 190 228 271
#     4   9  17  29  47  68  92 121 154 192 235 283
#     4  10  20  32  49  72  95 124 162 200 237 279
#
# _framework density 20.301010999999999
#
# number of rings (size 3 to 8) (size 9 to 14) (size 15 to 20)
#    0.000    2.750    1.250    0.375    0.000    3.000 
#    0.000    3.750    0.000    0.750    0.000    8.750 
#    0.000    0.000    0.000    0.000    0.000    0.000 
#
# Total GULP energy -356484.830501 kJ/mol
# GULP energy per Si atom -5570.075477 kJ/mol
# Density = 2.025481 g / cm^3
# Si number density = 20.301011 Si / 1000 Ang^3
#
#
#
# Elastic Constant Matrix: (Units=GPa)
#
#
# Indices 1 2 3 4 5 6 
#
# 1 97.2283 -3.1167 53.6293 0.0000 0.0000 0.0000
# 2 -3.1167 58.8752 -7.0691 0.0000 0.0000 0.0000
# 3 53.6293 -7.0691 79.6035 0.0000 0.0000 0.0000
# 4 0.0000 0.0000 0.0000 5.7351 0.0000 0.0000
# 5 0.0000 0.0000 0.0000 0.0000 33.8237 0.0000
# 6 0.0000 0.0000 0.0000 0.0000 0.0000 28.2618
#
#
#
# Elastic Compliance Matrix: (Units=1/GPa)
#
#
# Indices 1 2 3 4 5 6 
#
# 1 0.016380 -0.000463 -0.011076 0.000000 0.000000 0.000000
# 2 -0.000463 0.017181 0.001838 0.000000 0.000000 0.000000
# 3 -0.011076 0.001838 0.020188 0.000000 0.000000 0.000000
# 4 0.000000 0.000000 0.000000 0.174363 0.000000 0.000000
# 5 0.000000 0.000000 0.000000 0.000000 0.029565 0.000000
# 6 0.000000 0.000000 0.000000 0.000000 0.000000 0.035383
#
#
# Mechanical properties :
#
#
# Convention : Reuss Voigt Hill
#
# Bulk Modulus (GPa) = 29.11587 35.84379 32.47983
# Shear Modulus (GPa) = 15.43631 26.38169 20.90900
#
# Velocity S-wave (km/s) = 2.76047 3.60880 3.21276
# Velocity P-wave (km/s) = 4.95313 5.92107 5.45860
#
# Compressibility (1/GPa) = 0.03434553
#
# Stress axis : x y z
#
# Youngs Moduli (GPa) = 61.05146 58.20313 49.53559
#
# Poissons Ratio (x) = 0.02694 0.54866
# Poissons Ratio (y) = 0.02826 -0.09102
# Poissons Ratio (z) = 0.67621 -0.10695
#
# Static dielectric constant tensor:
#      x y z
#    x 1.738740 0.000000 0.000000 
#    y 0.000000 1.752250 0.000000 
#    z 0.000000 0.000000 1.727320 
# 
# From -- ./inp_files/26583.got.cif
#   From: 2010.05.17/outbox.cif.g08.bks.cpg/sg51_14_cif.got.tgz:26583.got - 2010.06.03 11:52:47.
