data_PCOD9400834
_publ_section_title
;
Structure prediction by ZEFSAII (Michael W. Deem and Ramdas Pophale) SiO2 
 PCOD9400834
Probable space group: P M M A
;
_chemical_formula_sum "Si O2"
_cell_formula_units_Z 48
_cell_length_a 16.779223
_cell_length_b 9.208441
_cell_length_c 18.783612
_cell_angle_alpha 90.000000
_cell_angle_beta 90.000000
_cell_angle_gamma 90.000000
_cell_volume 2902.265001
_symmetry_space_group_name_H-M "P M M A"
_symmetry_group_IT_number 51
_symmetry_cell_setting 'orthorhombic'
loop_
_space_group_symop_operation_xyz
x,y,z
1/2-x,-y,z
1/2+x,-y,-z
-x,y,-z
-x,-y,-z
1/2+x,y,-z
1/2-x,y,z
x,-y,z
loop_
_atom_site_type_symbol
_atom_site_label
_atom_site_fract_x
_atom_site_fract_y
_atom_site_fract_z
Si Si1 0.419637 0.665664 0.951767
Si Si2 0.084531 0.834267 0.457790
Si Si3 0.659818 0.325024 0.907358
Si Si4 0.158694 0.327208 0.583966
Si Si5 0.481545 0.825204 0.669763
Si Si6 0.010403 0.826667 0.165592
O O1 0.403940 0.500000 0.928643
O O2 0.440467 0.765401 0.885148
O O3 0.500000 0.663687 0.000000
O O4 0.353920 0.712955 0.009168
O O5 0.140528 0.733320 0.504802
O O6 0.000000 0.836721 0.500000
O O7 0.058163 0.785869 0.379095
O O8 0.114902 0.000000 0.456035
O O9 0.750000 0.290729 0.885809
O O10 0.648078 0.500000 0.902673
O O11 0.592368 0.245934 0.861582
O O12 0.250000 0.294386 0.603243
O O13 0.147032 0.500000 0.585122
O O14 0.095626 0.251658 0.636502
O O15 0.494398 0.790715 0.752146
O O16 0.472098 0.000000 0.662166
O O17 0.015759 0.000000 0.158187
#
# Coordination Sequence:
#
# PCOD9400834 Si02
#       6
#     8   8   8   8   8   8
#     4   8  15  29  48  68  91 122 158 191 227 278
#     4   8  15  30  50  68  88 120 159 190 223 277
#     4   9  18  33  51  70  94 126 162 197 236 285
#     4  10  20  32  48  73  99 121 154 201 244 279
#     4   9  19  34  50  70  97 129 162 192 230 286
#     4  10  19  31  49  73  99 125 157 199 240 279
#
# _framework density 16.538806000000001
#
# number of rings (size 3 to 8) (size 9 to 14) (size 15 to 20)
#    0.000    3.000    0.000    3.000    0.000    9.000 
#    0.000    1.667    0.000    8.000    0.000    0.000 
#    0.000    0.000    0.000    0.000    0.000    0.000 
#
# Total GULP energy -267278.924477 kJ/mol
# GULP energy per Si atom -5568.310927 kJ/mol
# Density = 1.650116 g / cm^3
# Si number density = 16.538806 Si / 1000 Ang^3
#
#
#
# Elastic Constant Matrix: (Units=GPa)
#
#
# Indices 1 2 3 4 5 6 
#
# 1 76.7162 43.1285 46.5871 0.0000 0.0000 0.0000
# 2 43.1285 52.1615 57.3797 0.0000 0.0000 0.0000
# 3 46.5871 57.3797 135.6238 0.0000 0.0000 0.0000
# 4 0.0000 0.0000 0.0000 10.2529 0.0000 0.0000
# 5 0.0000 0.0000 0.0000 0.0000 15.9421 0.0000
# 6 0.0000 0.0000 0.0000 0.0000 0.0000 168.8875
#
#
#
# Elastic Compliance Matrix: (Units=1/GPa)
#
#
# Indices 1 2 3 4 5 6 
#
# 1 0.024363 -0.020460 0.000288 0.000000 0.000000 0.000000
# 2 -0.020460 0.053044 -0.015414 0.000000 0.000000 0.000000
# 3 0.000288 -0.015414 0.013796 0.000000 0.000000 0.000000
# 4 0.000000 0.000000 0.000000 0.097534 0.000000 0.000000
# 5 0.000000 0.000000 0.000000 0.000000 0.062727 0.000000
# 6 0.000000 0.000000 0.000000 0.000000 0.000000 0.005921
#
#
# Mechanical properties :
#
#
# Convention : Reuss Voigt Hill
#
# Bulk Modulus (GPa) = 49.92524 62.07689 56.00107
# Shear Modulus (GPa) = 14.91500 46.84358 30.87929
#
# Velocity S-wave (km/s) = 3.00629 5.32775 4.32566
# Velocity P-wave (km/s) = 6.50405 8.68689 7.67348
#
# Compressibility (1/GPa) = 0.02002995
#
# Stress axis : x y z
#
# Youngs Moduli (GPa) = 41.04634 18.85233 72.48610
#
# Poissons Ratio (x) = 0.38572 -0.02085
# Poissons Ratio (y) = 0.83981 1.11728
# Poissons Ratio (z) = -0.01181 0.29058
#
# Static dielectric constant tensor:
#      x y z
#    x 1.561160 0.000000 0.000000 
#    y 0.000000 1.554730 0.000000 
#    z 0.000000 0.000000 1.570020 
# 
# From -- ./inp_files/30076.got.cif
#   From: 2010.05.17/outbox.cif.g08.bks.cpg/sg51_16_cif.got.tgz:30076.got - 2010.06.03 11:52:47.
