data_PCOD9400466
_publ_section_title
;
Structure prediction by ZEFSAII (Michael W. Deem and Ramdas Pophale) SiO2 
 PCOD9400466
Probable space group: P M M A
;
_chemical_formula_sum "Si O2"
_cell_formula_units_Z 56
_cell_length_a 8.911272
_cell_length_b 19.460672
_cell_length_c 18.877815
_cell_angle_alpha 90.000000
_cell_angle_beta 90.000000
_cell_angle_gamma 90.000000
_cell_volume 3273.778246
_symmetry_space_group_name_H-M "P M M A"
_symmetry_group_IT_number 51
_symmetry_cell_setting 'orthorhombic'
loop_
_space_group_symop_operation_xyz
x,y,z
1/2-x,-y,z
1/2+x,-y,-z
-x,y,-z
-x,-y,-z
1/2+x,y,-z
1/2-x,y,z
x,-y,z
loop_
_atom_site_type_symbol
_atom_site_label
_atom_site_fract_x
_atom_site_fract_y
_atom_site_fract_z
Si Si1 0.928921 0.790784 0.786277
Si Si2 0.570225 0.713804 0.347420
Si Si3 0.570983 0.294936 0.924964
Si Si4 0.071868 0.578933 0.845170
Si Si5 0.929254 0.422050 0.688557
Si Si6 0.570497 0.149474 0.425867
Si Si7 0.069232 0.079340 0.721290
O O1 0.750000 0.787518 0.774879
O O2 0.962027 0.760418 0.863483
O O3 0.009435 0.743897 0.727045
O O4 0.989077 0.867362 0.773314
O O5 0.750000 0.709093 0.344422
O O6 0.498891 0.639118 0.357399
O O7 0.528678 0.772205 0.404564
O O8 0.750000 0.301431 0.931302
O O9 0.502406 0.366577 0.897266
O O10 0.500000 0.276497 0.000000
O O11 0.250000 0.591560 0.839229
O O12 0.049567 0.500000 0.868564
O O13 0.997817 0.585225 0.767481
O O14 0.750000 0.414286 0.692731
O O15 0.963215 0.500000 0.664416
O O16 0.500000 0.128948 0.500000
O O17 0.750000 0.146545 0.431652
O O18 0.527285 0.102595 0.358675
O O19 0.250000 0.087773 0.727121
O O20 0.032059 0.000000 0.733356
#
# Coordination Sequence:
#
# PCOD9400466 Si02
#       7
#     8   8   8   8   8   8   8
#     4  10  20  34  53  78 104 131 170 216 258 303
#     4  10  19  32  52  74 100 136 176 215 257 307
#     4  11  23  36  52  74 102 137 176 219 266 314
#     4  10  20  33  50  72 100 136 175 215 263 316
#     4  10  19  30  47  73 102 131 169 219 268 310
#     4   9  19  33  50  77 109 141 173 206 247 299
#     4   9  19  36  57  81 109 140 171 204 248 303
#
# _framework density 17.105618
#
# number of rings (size 3 to 8) (size 9 to 14) (size 15 to 20)
#    0.000    2.143    1.429    3.000    0.000    7.143 
#    0.000    0.000    0.000    0.857    0.000    0.000 
#    0.000    0.000    0.000    0.000    0.000    0.000 
#
# Total GULP energy -312502.307195 kJ/mol
# GULP energy per Si atom -5580.398343 kJ/mol
# Density = 1.706668 g / cm^3
# Si number density = 17.105618 Si / 1000 Ang^3
#
#
#
# Elastic Constant Matrix: (Units=GPa)
#
#
# Indices 1 2 3 4 5 6 
#
# 1 49.0666 41.5085 21.6748 0.0000 0.0000 0.0000
# 2 41.5085 109.8522 22.6286 0.0000 0.0000 0.0000
# 3 21.6748 22.6286 39.3019 0.0000 0.0000 0.0000
# 4 0.0000 0.0000 0.0000 15.6089 0.0000 0.0000
# 5 0.0000 0.0000 0.0000 0.0000 26.3445 0.0000
# 6 0.0000 0.0000 0.0000 0.0000 0.0000 21.3825
#
#
#
# Elastic Compliance Matrix: (Units=1/GPa)
#
#
# Indices 1 2 3 4 5 6 
#
# 1 0.035199 -0.010553 -0.013336 0.000000 0.000000 0.000000
# 2 -0.010553 0.013492 -0.001948 0.000000 0.000000 0.000000
# 3 -0.013336 -0.001948 0.033921 0.000000 0.000000 0.000000
# 4 0.000000 0.000000 0.000000 0.064066 0.000000 0.000000
# 5 0.000000 0.000000 0.000000 0.000000 0.037959 0.000000
# 6 0.000000 0.000000 0.000000 0.000000 0.000000 0.046767
#
#
# Mechanical properties :
#
#
# Convention : Reuss Voigt Hill
#
# Bulk Modulus (GPa) = 32.32383 41.09383 36.70883
# Shear Modulus (GPa) = 17.04215 20.16112 18.60163
#
# Velocity S-wave (km/s) = 3.15983 3.43684 3.30124
# Velocity P-wave (km/s) = 5.67894 6.31069 6.00313
#
# Compressibility (1/GPa) = 0.03093693
#
# Stress axis : x y z
#
# Youngs Moduli (GPa) = 28.40983 74.11771 29.48066
#
# Poissons Ratio (x) = 0.78218 0.39315
# Poissons Ratio (y) = 0.29981 0.05743
# Poissons Ratio (z) = 0.37887 0.14440
#
# Static dielectric constant tensor:
#      x y z
#    x 1.570780 0.000000 0.000000 
#    y 0.000000 1.595450 0.000000 
#    z 0.000000 0.000000 1.551740 
# 
# From -- ./inp_files/28234.got.cif
#   From: 2010.05.17/outbox.cif.g08.bks.cpg/sg51_15_cif.got.tgz:28234.got - 2010.06.03 11:52:47.
