data_PCOD9400603
_publ_section_title
;
Structure prediction by ZEFSAII (Michael W. Deem and Ramdas Pophale) SiO2 
 PCOD9400603
Probable space group: P M M A
;
_chemical_formula_sum "Si O2"
_cell_formula_units_Z 64
_cell_length_a 9.330935
_cell_length_b 18.664548
_cell_length_c 26.782019
_cell_angle_alpha 90.000000
_cell_angle_beta 90.000000
_cell_angle_gamma 90.000000
_cell_volume 4664.294407
_symmetry_space_group_name_H-M "P M M A"
_symmetry_group_IT_number 51
_symmetry_cell_setting 'orthorhombic'
loop_
_space_group_symop_operation_xyz
x,y,z
1/2-x,-y,z
1/2+x,-y,-z
-x,y,-z
-x,-y,-z
1/2+x,y,-z
1/2-x,y,z
x,-y,z
loop_
_atom_site_type_symbol
_atom_site_label
_atom_site_fract_x
_atom_site_fract_y
_atom_site_fract_z
Si Si1 0.085170 0.290983 0.095999
Si Si2 0.920741 0.584867 0.350525
Si Si3 0.921092 0.664968 0.248675
Si Si4 0.920460 0.837631 0.048823
Si Si5 0.420820 0.415940 0.854854
Si Si6 0.086216 0.207974 0.202597
Si Si7 0.420372 0.083138 0.846469
Si Si8 0.415199 0.412746 0.450655
O O1 0.250000 0.297539 0.079013
O O2 0.086757 0.250171 0.149512
O O3 0.991009 0.239466 0.061166
O O4 0.010219 0.366642 0.107296
O O5 0.750000 0.593197 0.358931
O O6 0.946955 0.500000 0.342723
O O7 0.960478 0.627111 0.300450
O O8 0.006248 0.608609 0.399579
O O9 0.750000 0.677327 0.248601
O O10 0.950891 0.613020 0.201291
O O11 0.002627 0.739087 0.239425
O O12 0.750000 0.831520 0.041143
O O13 0.945332 0.887191 0.097388
O O14 0.000000 0.866648 0.000000
O O15 0.250000 0.405921 0.863258
O O16 0.453459 0.500000 0.858521
O O17 0.250000 0.196804 0.217875
O O18 0.005623 0.134137 0.191162
O O19 0.250000 0.090211 0.837378
O O20 0.460221 0.000000 0.842938
O O21 0.500000 0.388942 0.500000
O O22 0.250000 0.390059 0.451805
O O23 0.416997 0.500000 0.451234
#
# Coordination Sequence:
#
# PCOD9400603 Si02
#       8
#     8   8   8   8   8   8   8   8
#     4   9  17  29  43  59  79 103 131 159 188 226
#     4   9  16  25  37  54  76 102 135 175 214 248
#     4   9  16  26  40  57  79 107 135 163 198 240
#     4  10  19  31  47  65  84 105 128 154 186 224
#     4   9  16  26  41  60  80 102 129 161 197 236
#     4   9  17  28  42  60  81 105 132 161 191 225
#     4   9  18  32  48  65  85 108 132 156 183 220
#     4   9  16  25  36  49  67  95 132 173 215 255
#
# _framework density 13.721261
#
# number of rings (size 3 to 8) (size 9 to 14) (size 15 to 20)
#    0.000    2.875    0.000    1.875    0.000    7.750 
#    0.000    0.000    0.000    2.625    0.000    0.000 
#    0.000    0.000    0.000    0.000    0.000    0.625 
#
# Total GULP energy -356531.838090 kJ/mol
# GULP energy per Si atom -5570.809970 kJ/mol
# Density = 1.369003 g / cm^3
# Si number density = 13.721261 Si / 1000 Ang^3
#
#
#
# Elastic Constant Matrix: (Units=GPa)
#
#
# Indices 1 2 3 4 5 6 
#
# 1 62.5635 47.2925 32.5962 0.0000 0.0000 0.0000
# 2 47.2925 91.7581 24.8624 0.0000 0.0000 0.0000
# 3 32.5962 24.8624 44.6229 0.0000 0.0000 0.0000
# 4 0.0000 0.0000 0.0000 9.1990 0.0000 0.0000
# 5 0.0000 0.0000 0.0000 0.0000 20.8646 0.0000
# 6 0.0000 0.0000 0.0000 0.0000 0.0000 14.7984
#
#
#
# Elastic Compliance Matrix: (Units=1/GPa)
#
#
# Indices 1 2 3 4 5 6 
#
# 1 0.035894 -0.013422 -0.018742 0.000000 0.000000 0.000000
# 2 -0.013422 0.017855 -0.000144 0.000000 0.000000 0.000000
# 3 -0.018742 -0.000144 0.036181 0.000000 0.000000 0.000000
# 4 0.000000 0.000000 0.000000 0.108708 0.000000 0.000000
# 5 0.000000 0.000000 0.000000 0.000000 0.047928 0.000000
# 6 0.000000 0.000000 0.000000 0.000000 0.000000 0.067575
#
#
# Mechanical properties :
#
#
# Convention : Reuss Voigt Hill
#
# Bulk Modulus (GPa) = 39.50242 45.38296 42.44269
# Shear Modulus (GPa) = 12.91345 15.25196 14.08271
#
# Velocity S-wave (km/s) = 3.07111 3.33762 3.20713
# Velocity P-wave (km/s) = 6.43641 6.92818 6.68681
#
# Compressibility (1/GPa) = 0.02531490
#
# Stress axis : x y z
#
# Youngs Moduli (GPa) = 27.85969 56.00736 27.63907
#
# Poissons Ratio (x) = 0.75172 0.51801
# Poissons Ratio (y) = 0.37393 0.00397
# Poissons Ratio (z) = 0.52214 0.00805
#
# Static dielectric constant tensor:
#      x y z
#    x 1.460860 0.000000 0.000000 
#    y 0.000000 1.428640 0.000000 
#    z 0.000000 0.000000 1.437790 
# 
# From -- ./inp_files/36417.got.cif
#   From: 2010.05.17/outbox.cif.g08.bks.cpg/sg51_19_cif.got.tgz:36417.got - 2010.06.03 11:52:47.
