data_PCOD9400125
_publ_section_title
;
Structure prediction by ZEFSAII (Michael W. Deem and Ramdas Pophale) SiO2 
 PCOD9400125
Probable space group: P M M A
;
_chemical_formula_sum "Si O2"
_cell_formula_units_Z 52
_cell_length_a 8.884755
_cell_length_b 13.077800
_cell_length_c 28.501726
_cell_angle_alpha 90.000000
_cell_angle_beta 90.000000
_cell_angle_gamma 90.000000
_cell_volume 3311.702444
_symmetry_space_group_name_H-M "P M M A"
_symmetry_group_IT_number 51
_symmetry_cell_setting 'orthorhombic'
loop_
_space_group_symop_operation_xyz
x,y,z
1/2-x,-y,z
1/2+x,-y,-z
-x,y,-z
-x,-y,-z
1/2+x,y,-z
1/2-x,y,z
x,-y,z
loop_
_atom_site_type_symbol
_atom_site_label
_atom_site_fract_x
_atom_site_fract_y
_atom_site_fract_z
Si Si1 0.927724 0.383645 0.222222
Si Si2 0.430462 0.500000 0.051323
Si Si3 0.423186 0.124573 0.548185
Si Si4 0.930245 0.185071 0.745553
Si Si5 0.431762 0.677414 0.123729
Si Si6 0.569280 0.882972 0.155812
Si Si7 0.421377 0.877474 0.356673
O O1 0.750000 0.357177 0.222626
O O2 0.944304 0.500000 0.237792
O O3 0.023939 0.303435 0.251574
O O4 0.991666 0.371947 0.169618
O O5 0.250000 0.500000 0.047689
O O6 0.471178 0.602555 0.080653
O O7 0.500000 0.500000 0.000000
O O8 0.500000 0.159289 0.500000
O O9 0.250000 0.152785 0.547034
O O10 0.494909 0.160773 0.597013
O O11 0.432878 0.000000 0.548317
O O12 0.750000 0.169856 0.749520
O O13 0.983718 0.145555 0.695024
O O14 0.008184 0.134448 0.791048
O O15 0.250000 0.678780 0.128906
O O16 0.493278 0.793882 0.124432
O O17 0.750000 0.869946 0.155447
O O18 0.534662 0.000000 0.141764
O O19 0.250000 0.838898 0.357584
O O20 0.417042 0.000000 0.360385
#
# Coordination Sequence:
#
# PCOD9400125 Si02
#       7
#     8   4   8   8   8   8   8
#     4  10  19  30  46  67  92 123 154 186 228 274
#     4  10  22  36  54  80 104 126 154 196 243 286
#     4   9  16  25  38  55  75 104 142 182 224 267
#     4  10  19  29  44  65  90 122 157 192 230 272
#     4  10  19  33  52  74  99 125 159 196 233 279
#     4  10  20  32  47  70  99 130 164 197 230 275
#     4   9  17  28  40  56  82 114 147 183 222 265
#
# _framework density 15.701893999999999
#
# number of rings (size 3 to 8) (size 9 to 14) (size 15 to 20)
#    0.000    2.308    0.769    4.615    0.000    7.077 
#    0.000    1.538    0.000    0.462    0.000    0.000 
#    0.000    0.615    0.000    2.000    0.000    2.923 
#
# Total GULP energy -289637.245385 kJ/mol
# GULP energy per Si atom -5569.947027 kJ/mol
# Density = 1.566616 g / cm^3
# Si number density = 15.701894 Si / 1000 Ang^3
#
#
#
# Elastic Constant Matrix: (Units=GPa)
#
#
# Indices 1 2 3 4 5 6 
#
# 1 50.3231 19.2149 38.2387 0.0000 0.0000 0.0000
# 2 19.2149 73.8802 29.9189 0.0000 0.0000 0.0000
# 3 38.2387 29.9189 104.5010 0.0000 0.0000 0.0000
# 4 0.0000 0.0000 0.0000 15.0187 0.0000 0.0000
# 5 0.0000 0.0000 0.0000 0.0000 26.1009 0.0000
# 6 0.0000 0.0000 0.0000 0.0000 0.0000 19.4753
#
#
#
# Elastic Compliance Matrix: (Units=1/GPa)
#
#
# Indices 1 2 3 4 5 6 
#
# 1 0.028341 -0.003587 -0.009343 0.000000 0.000000 0.000000
# 2 -0.003587 0.015765 -0.003201 0.000000 0.000000 0.000000
# 3 -0.009343 -0.003201 0.013905 0.000000 0.000000 0.000000
# 4 0.000000 0.000000 0.000000 0.066583 0.000000 0.000000
# 5 0.000000 0.000000 0.000000 0.000000 0.038313 0.000000
# 6 0.000000 0.000000 0.000000 0.000000 0.000000 0.051347
#
#
# Mechanical properties :
#
#
# Convention : Reuss Voigt Hill
#
# Bulk Modulus (GPa) = 38.83901 44.82769 41.83335
# Shear Modulus (GPa) = 19.60023 21.54111 20.57067
#
# Velocity S-wave (km/s) = 3.53692 3.70791 3.62342
# Velocity P-wave (km/s) = 6.43962 6.85147 6.64873
#
# Compressibility (1/GPa) = 0.02574731
#
# Stress axis : x y z
#
# Youngs Moduli (GPa) = 35.28458 63.43317 71.91864
#
# Poissons Ratio (x) = 0.22755 0.67197
# Poissons Ratio (y) = 0.12657 0.23020
# Poissons Ratio (z) = 0.32968 0.20304
#
# Static dielectric constant tensor:
#      x y z
#    x 1.534770 0.000000 0.000000 
#    y 0.000000 1.539760 0.000000 
#    z 0.000000 0.000000 1.525370 
# 
# From -- ./inp_files/36362.got.cif
#   From: 2010.05.17/outbox.cif.g08.bks.cpg/sg51_19_cif.got.tgz:36362.got - 2010.06.03 11:52:47.
