data_PCOD9400384
_publ_section_title
;
Structure prediction by ZEFSAII (Michael W. Deem and Ramdas Pophale) SiO2 
 PCOD9400384
Probable space group: P M M A
;
_chemical_formula_sum "Si O2"
_cell_formula_units_Z 48
_cell_length_a 20.623700
_cell_length_b 9.386255
_cell_length_c 14.230356
_cell_angle_alpha 90.000000
_cell_angle_beta 90.000000
_cell_angle_gamma 90.000000
_cell_volume 2754.702456
_symmetry_space_group_name_H-M "P M M A"
_symmetry_group_IT_number 51
_symmetry_cell_setting 'orthorhombic'
loop_
_space_group_symop_operation_xyz
x,y,z
1/2-x,-y,z
1/2+x,-y,-z
-x,y,-z
-x,-y,-z
1/2+x,y,-z
1/2-x,y,z
x,-y,z
loop_
_atom_site_type_symbol
_atom_site_label
_atom_site_fract_x
_atom_site_fract_y
_atom_site_fract_z
Si Si1 0.675836 0.326883 0.498282
Si Si2 0.542734 0.670916 0.406734
Si Si3 0.072879 0.664285 0.955196
Si Si4 0.327257 0.659909 0.293833
Si Si5 0.117137 0.838058 0.126303
Si Si6 0.026334 0.836666 0.783761
O O1 0.750000 0.278802 0.478666
O O2 0.678071 0.500000 0.502130
O O3 0.617884 0.290133 0.428247
O O4 0.653942 0.282494 0.603402
O O5 0.500000 0.700393 0.500000
O O6 0.538451 0.500000 0.390117
O O7 0.520646 0.756654 0.315343
O O8 0.092271 0.500000 0.944035
O O9 0.069769 0.746400 0.856451
O O10 0.115947 0.748364 0.030643
O O11 0.000000 0.664128 0.000000
O O12 0.250000 0.646945 0.299715
O O13 0.355224 0.500000 0.280654
O O14 0.344097 0.758890 0.207602
O O15 0.043836 0.841898 0.166497
O O16 0.138610 0.000000 0.110830
O O17 0.048615 0.000000 0.772433
#
# Coordination Sequence:
#
# PCOD9400384 Si02
#       6
#     8   8   8   8   8   8
#     4   8  15  29  48  69  94 125 161 200 240 282
#     4  10  19  30  48  73  97 124 162 205 244 284
#     4   9  17  30  49  70  91 119 155 192 231 281
#     4   9  17  30  49  71  94 123 160 199 237 280
#     4  10  19  30  46  69  98 128 154 187 237 291
#     4  10  20  32  46  68  99 129 156 192 241 291
#
# _framework density 17.424748000000001
#
# number of rings (size 3 to 8) (size 9 to 14) (size 15 to 20)
#    0.000    2.667    0.000    3.500    0.000    6.000 
#    0.000    0.833    0.000    2.500    0.000    2.333 
#    0.000    0.000    0.000    0.000    0.000    0.000 
#
# Total GULP energy -267442.279918 kJ/mol
# GULP energy per Si atom -5571.714165 kJ/mol
# Density = 1.738509 g / cm^3
# Si number density = 17.424748 Si / 1000 Ang^3
#
#
#
# Elastic Constant Matrix: (Units=GPa)
#
#
# Indices 1 2 3 4 5 6 
#
# 1 22.4881 8.7865 5.8136 0.0000 0.0000 0.0000
# 2 8.7865 102.6780 58.5745 0.0000 0.0000 0.0000
# 3 5.8136 58.5745 95.7992 0.0000 0.0000 0.0000
# 4 0.0000 0.0000 0.0000 -118.3493 0.0000 0.0000
# 5 0.0000 0.0000 0.0000 0.0000 26.6724 0.0000
# 6 0.0000 0.0000 0.0000 0.0000 0.0000 11.6989
#
#
#
# Elastic Compliance Matrix: (Units=1/GPa)
#
#
# Indices 1 2 3 4 5 6 
#
# 1 0.046028 -0.003602 -0.000591 0.000000 0.000000 0.000000
# 2 -0.003602 0.015238 -0.009098 0.000000 0.000000 0.000000
# 3 -0.000591 -0.009098 0.016037 0.000000 0.000000 0.000000
# 4 0.000000 0.000000 0.000000 -0.008450 0.000000 0.000000
# 5 0.000000 0.000000 0.000000 0.000000 0.037492 0.000000
# 6 0.000000 0.000000 0.000000 0.000000 0.000000 0.085478
#
#
# Mechanical properties :
#
#
# Convention : Reuss Voigt Hill
#
# Bulk Modulus (GPa) = 19.71566 40.81272 30.26419
# Shear Modulus (GPa) = 21.24841 -6.14288 7.55277
#
# Velocity S-wave (km/s) = 3.49583 -1.87964 2.08421
# Velocity P-wave (km/s) = 5.25679 4.33156 4.81644
#
# Compressibility (1/GPa) = 0.05072110
#
# Stress axis : x y z
#
# Youngs Moduli (GPa) = 21.72595 65.62724 62.35489
#
# Poissons Ratio (x) = 0.23636 0.03686
# Poissons Ratio (y) = 0.07825 0.56731
# Poissons Ratio (z) = 0.01284 0.59709
#
# Static dielectric constant tensor:
#      x y z
#    x 1.618170 0.000000 0.000000 
#    y 0.000000 1.592260 0.000000 
#    z 0.000000 0.000000 1.599080 
# 
# From -- ./inp_files/18533.got.cif
#   From: 2010.05.17/outbox.cif.g08.bks.cpg/sg51_10_cif.got.tgz:18533.got - 2010.06.03 11:52:47.
