data_PCOD9400863
_publ_section_title
;
Structure prediction by ZEFSAII (Michael W. Deem and Ramdas Pophale) SiO2 
 PCOD9400863
Probable space group: P M M A
;
_chemical_formula_sum "Si O2"
_cell_formula_units_Z 58
_cell_length_a 27.701888
_cell_length_b 7.398457
_cell_length_c 11.959197
_cell_angle_alpha 90.000000
_cell_angle_beta 90.000000
_cell_angle_gamma 90.000000
_cell_volume 2451.052101
_symmetry_space_group_name_H-M "P M M A"
_symmetry_group_IT_number 51
_symmetry_cell_setting 'orthorhombic'
loop_
_space_group_symop_operation_xyz
x,y,z
1/2-x,-y,z
1/2+x,-y,-z
-x,y,-z
-x,-y,-z
1/2+x,y,-z
1/2-x,y,z
x,-y,z
loop_
_atom_site_type_symbol
_atom_site_label
_atom_site_fract_x
_atom_site_fract_y
_atom_site_fract_z
Si Si1 0.402242 0.705819 0.487105
Si Si2 0.167827 0.720354 0.312371
Si Si3 0.139302 0.790516 0.822365
Si Si4 0.135559 0.283385 0.077349
Si Si5 0.043064 0.706824 0.697138
Si Si6 0.026664 0.721346 0.114953
Si Si7 0.196393 0.219552 0.615498
Si Si8 0.250000 0.000000 0.376342
O O1 0.418043 0.500000 0.469797
O O2 0.384519 0.771246 0.366255
O O3 0.439056 0.787875 0.578257
O O4 0.350156 0.708368 0.550300
O O5 0.173584 0.500000 0.324051
O O6 0.168777 0.768157 0.181186
O O7 0.208110 0.841163 0.369702
O O8 0.090179 0.700118 0.778282
O O9 0.183632 0.735604 0.744009
O O10 0.130311 0.000000 0.798126
O O11 0.149151 0.769874 0.952512
O O12 0.133807 0.500000 0.077930
O O13 0.081540 0.219212 0.103356
O O14 0.029251 0.500000 0.672368
O O15 0.001155 0.786497 0.774289
O O16 0.025587 0.500000 0.118928
O O17 0.000000 0.773443 0.000000
O O18 0.250000 0.284245 0.587765
O O19 0.197370 0.000000 0.602479
#
# Coordination Sequence:
#
# PCOD9400863 Si02
#       8
#     8   8   8   8   8   8   8   2
#     4   9  19  34  54  80 114 143 181 243 288 340
#     4  10  24  43  62  91 119 150 201 248 295 350
#     4  10  19  31  49  76 111 146 185 238 293 349
#     4  10  20  37  57  78 115 153 188 244 291 339
#     4   9  16  31  54  81 111 150 193 232 289 346
#     4   9  15  27  54  85 110 148 201 238 274 343
#     4   9  19  33  50  74 102 137 182 233 290 354
#     4  12  26  44  72  86 106 164 200 248 296 346
#
# _framework density 23.663305999999999
#
# number of rings (size 3 to 8) (size 9 to 14) (size 15 to 20)
#    0.000    2.483    1.379    0.621    2.897    0.828 
#    1.241    2.069    0.000    4.138    0.000    0.966 
#    0.000    0.000    0.000    0.000    0.000    0.276 
#
# Total GULP energy -323195.253040 kJ/mol
# GULP energy per Si atom -5572.331949 kJ/mol
# Density = 2.360945 g / cm^3
# Si number density = 23.663306 Si / 1000 Ang^3
#
#
#
# Elastic Constant Matrix: (Units=GPa)
#
#
# Indices 1 2 3 4 5 6 
#
# 1 47.4145 8.4803 9.1133 0.0000 0.0000 0.0000
# 2 8.4803 92.0181 1.3532 0.0000 0.0000 0.0000
# 3 9.1133 1.3532 100.2239 0.0000 0.0000 0.0000
# 4 0.0000 0.0000 0.0000 7.8221 0.0000 0.0000
# 5 0.0000 0.0000 0.0000 0.0000 15.4840 0.0000
# 6 0.0000 0.0000 0.0000 0.0000 0.0000 -9.3387
#
#
#
# Elastic Compliance Matrix: (Units=1/GPa)
#
#
# Indices 1 2 3 4 5 6 
#
# 1 0.021821 -0.001982 -0.001957 0.000000 0.000000 0.000000
# 2 -0.001982 0.011050 0.000031 0.000000 0.000000 0.000000
# 3 -0.001957 0.000031 0.010155 0.000000 0.000000 0.000000
# 4 0.000000 0.000000 0.000000 0.127842 0.000000 0.000000
# 5 0.000000 0.000000 0.000000 0.000000 0.064583 0.000000
# 6 0.000000 0.000000 0.000000 0.000000 0.000000 -0.107081
#
#
# Mechanical properties :
#
#
# Convention : Reuss Voigt Hill
#
# Bulk Modulus (GPa) = 28.40185 30.83890 29.62037
# Shear Modulus (GPa) = 33.80130 17.50747 25.65439
#
# Velocity S-wave (km/s) = 3.78355 2.72298 3.29620
# Velocity P-wave (km/s) = 5.57813 4.79029 5.19916
#
# Compressibility (1/GPa) = 0.03520898
#
# Stress axis : x y z
#
# Youngs Moduli (GPa) = 45.82666 90.50054 98.47147
#
# Poissons Ratio (x) = 0.17939 0.19275
# Poissons Ratio (y) = 0.09084 -0.00306
# Poissons Ratio (z) = 0.08970 -0.00281
#
# Static dielectric constant tensor:
#      x y z
#    x 1.865100 0.000000 0.000000 
#    y 0.000000 1.945410 0.000000 
#    z 0.000000 0.000000 1.981000 
# 
# From -- ./inp_files/19409.got.cif
#   From: 2010.05.17/outbox.cif.g08.bks.cpg/sg51_10_cif.got.tgz:19409.got - 2010.06.03 11:52:47.
