data_PCOD9400000
_publ_section_title
;
Structure prediction by ZEFSAII (Michael W. Deem and Ramdas Pophale) SiO2 
 PCOD9400000
Probable space group: P M M A
;
_chemical_formula_sum "Si O2"
_cell_formula_units_Z 56
_cell_length_a 9.041941
_cell_length_b 18.795455
_cell_length_c 21.995604
_cell_angle_alpha 90.000000
_cell_angle_beta 90.000000
_cell_angle_gamma 90.000000
_cell_volume 3738.095605
_symmetry_space_group_name_H-M "P M M A"
_symmetry_group_IT_number 51
_symmetry_cell_setting 'orthorhombic'
loop_
_space_group_symop_operation_xyz
x,y,z
1/2-x,-y,z
1/2+x,-y,-z
-x,y,-z
-x,-y,-z
1/2+x,y,-z
1/2-x,y,z
x,-y,z
loop_
_atom_site_type_symbol
_atom_site_label
_atom_site_fract_x
_atom_site_fract_y
_atom_site_fract_z
Si Si1 0.070380 0.156251 0.688786
Si Si2 0.920576 0.205649 0.124855
Si Si3 0.072845 0.665873 0.062627
Si Si4 0.072483 0.580966 0.184898
Si Si5 0.426345 0.916258 0.194153
Si Si6 0.080810 0.703877 0.749260
Si Si7 0.427460 0.916866 0.562962
O O1 0.250000 0.151823 0.695800
O O2 0.027971 0.238685 0.699808
O O3 0.029781 0.126993 0.622721
O O4 0.996296 0.109675 0.741930
O O5 0.750000 0.196065 0.106260
O O6 0.920320 0.249857 0.188375
O O7 0.009006 0.256139 0.078955
O O8 0.999265 0.131959 0.141940
O O9 0.250000 0.668277 0.057725
O O10 0.032605 0.614519 0.119156
O O11 0.000000 0.641349 0.000000
O O12 0.250000 0.581046 0.187775
O O13 0.019360 0.500000 0.190414
O O14 0.011503 0.633967 0.236133
O O15 0.250000 0.903681 0.195145
O O16 0.453423 0.000000 0.185875
O O17 0.250000 0.684199 0.736093
O O18 0.500000 0.892623 0.500000
O O19 0.250000 0.913316 0.557301
O O20 0.468078 0.000000 0.572098
#
# Coordination Sequence:
#
# PCOD9400000 Si02
#       7
#     8   8   8   8   8   8   8
#     4   9  17  29  44  61  84 115 150 183 215 255
#     4   9  17  30  46  62  82 109 141 175 213 256
#     4  10  19  31  47  65  86 112 143 175 205 244
#     4   9  18  31  45  63  89 117 140 166 205 251
#     4  10  19  28  41  64  89 110 137 177 221 260
#     4   8  15  27  43  63  83 106 139 176 211 249
#     4   9  17  28  41  58  84 119 154 186 219 253
#
# _framework density 14.980891
#
# number of rings (size 3 to 8) (size 9 to 14) (size 15 to 20)
#    0.000    2.857    0.000    2.571    0.000    6.857 
#    0.000    1.429    0.000    0.429    0.000    0.000 
#    0.000    0.571    0.000    1.286    0.000    2.286 
#
# Total GULP energy -311918.487518 kJ/mol
# GULP energy per Si atom -5569.972991 kJ/mol
# Density = 1.494679 g / cm^3
# Si number density = 14.980891 Si / 1000 Ang^3
#
#
#
# Elastic Constant Matrix: (Units=GPa)
#
#
# Indices 1 2 3 4 5 6 
#
# 1 39.2308 41.1602 15.5915 0.0000 0.0000 0.0000
# 2 41.1602 112.4770 35.4504 0.0000 0.0000 0.0000
# 3 15.5915 35.4504 44.0835 0.0000 0.0000 0.0000
# 4 0.0000 0.0000 0.0000 16.0235 0.0000 0.0000
# 5 0.0000 0.0000 0.0000 0.0000 21.8572 0.0000
# 6 0.0000 0.0000 0.0000 0.0000 0.0000 22.6647
#
#
#
# Elastic Compliance Matrix: (Units=1/GPa)
#
#
# Indices 1 2 3 4 5 6 
#
# 1 0.041736 -0.014226 -0.003321 0.000000 0.000000 0.000000
# 2 -0.014226 0.016758 -0.008445 0.000000 0.000000 0.000000
# 3 -0.003321 -0.008445 0.030650 0.000000 0.000000 0.000000
# 4 0.000000 0.000000 0.000000 0.062408 0.000000 0.000000
# 5 0.000000 0.000000 0.000000 0.000000 0.045751 0.000000
# 6 0.000000 0.000000 0.000000 0.000000 0.000000 0.044121
#
#
# Mechanical properties :
#
#
# Convention : Reuss Voigt Hill
#
# Bulk Modulus (GPa) = 26.91072 42.24396 34.57734
# Shear Modulus (GPa) = 16.35076 19.01505 17.68291
#
# Velocity S-wave (km/s) = 3.30728 3.56657 3.43937
# Velocity P-wave (km/s) = 5.70846 6.72461 6.23726
#
# Compressibility (1/GPa) = 0.03715991
#
# Stress axis : x y z
#
# Youngs Moduli (GPa) = 23.96015 59.67155 32.62659
#
# Poissons Ratio (x) = 0.84891 0.10835
# Poissons Ratio (y) = 0.34086 0.27553
# Poissons Ratio (z) = 0.07957 0.50392
#
# Static dielectric constant tensor:
#      x y z
#    x 1.506520 0.000000 0.000000 
#    y 0.000000 1.500350 0.000000 
#    z 0.000000 0.000000 1.483700 
# 
# From -- ./inp_files/35077.got.cif
#   From: 2010.05.17/outbox.cif.g08.bks.cpg/sg51_18_cif.got.tgz:35077.got - 2010.06.03 11:52:47.
