data_PCOD9400168
_publ_section_title
;
Structure prediction by ZEFSAII (Michael W. Deem and Ramdas Pophale) SiO2 
 PCOD9400168
Probable space group: P M M A
;
_chemical_formula_sum "Si O2"
_cell_formula_units_Z 64
_cell_length_a 29.696133
_cell_length_b 8.523204
_cell_length_c 16.019568
_cell_angle_alpha 90.000000
_cell_angle_beta 90.000000
_cell_angle_gamma 90.000000
_cell_volume 4054.651975
_symmetry_space_group_name_H-M "P M M A"
_symmetry_group_IT_number 51
_symmetry_cell_setting 'orthorhombic'
loop_
_space_group_symop_operation_xyz
x,y,z
1/2-x,-y,z
1/2+x,-y,-z
-x,y,-z
-x,-y,-z
1/2+x,y,-z
1/2-x,y,z
x,-y,z
loop_
_atom_site_type_symbol
_atom_site_label
_atom_site_fract_x
_atom_site_fract_y
_atom_site_fract_z
Si Si1 0.604128 0.690232 0.841561
Si Si2 0.445496 0.818645 0.491968
Si Si3 0.799942 0.309136 0.091944
Si Si4 0.555742 0.188232 0.325025
Si Si5 0.954419 0.686580 0.683952
Si Si6 0.447536 0.188396 0.995124
Si Si7 0.393647 0.311564 0.835332
Si Si8 0.200079 0.309068 0.102856
O O1 0.603856 0.500000 0.842962
O O2 0.577527 0.741992 0.759037
O O3 0.578632 0.748681 0.924033
O O4 0.656192 0.742908 0.846702
O O5 0.500000 0.817025 0.500000
O O6 0.429851 0.756069 0.582016
O O7 0.434897 0.728486 0.407175
O O8 0.431660 0.000000 0.482485
O O9 0.750000 0.256841 0.118740
O O10 0.799891 0.500000 0.093548
O O11 0.842698 0.256588 0.145076
O O12 0.806084 0.264854 0.994616
O O13 0.504202 0.240136 0.309144
O O14 0.586814 0.249706 0.251268
O O15 0.556377 0.000000 0.327088
O O16 0.959416 0.500000 0.690305
O O17 0.445108 0.000000 0.993635
O O18 0.500000 0.234745 0.000000
O O19 0.424677 0.254277 0.911666
O O20 0.394153 0.500000 0.834560
O O21 0.250000 0.255931 0.129751
O O22 0.200579 0.500000 0.104919
#
# Coordination Sequence:
#
# PCOD9400168 Si02
#       8
#     8   8   8   8   8   8   8   8
#     4  10  19  31  46  68  92 117 151 189 226 264
#     4   8  16  31  48  64  87 121 154 186 226 271
#     4   8  14  26  46  69  89 113 147 186 229 274
#     4  10  20  33  47  65  93 125 157 188 222 273
#     4  10  19  29  46  71  96 119 150 193 232 267
#     4  11  23  34  43  59  89 129 162 184 214 263
#     4  11  20  31  49  70  91 118 152 192 231 268
#     4   8  13  25  46  67  87 114 148 185 225 269
#
# _framework density 15.784338999999999
#
# number of rings (size 3 to 8) (size 9 to 14) (size 15 to 20)
#    0.000    2.500    1.250    3.750    0.000    6.750 
#    0.000    0.000    0.000    2.625    0.000    0.875 
#    0.000    5.000    0.000    0.000    0.000    0.000 
#
# Total GULP energy -356685.807176 kJ/mol
# GULP energy per Si atom -5573.215737 kJ/mol
# Density = 1.574841 g / cm^3
# Si number density = 15.784339 Si / 1000 Ang^3
#
#
#
# Elastic Constant Matrix: (Units=GPa)
#
#
# Indices 1 2 3 4 5 6 
#
# 1 100.6633 12.1801 40.0734 0.0000 0.0000 0.0000
# 2 12.1801 15.9366 10.1278 0.0000 0.0000 0.0000
# 3 40.0734 10.1278 87.9363 0.0000 0.0000 0.0000
# 4 0.0000 0.0000 0.0000 77.1225 0.0000 0.0000
# 5 0.0000 0.0000 0.0000 0.0000 8.1620 0.0000
# 6 0.0000 0.0000 0.0000 0.0000 0.0000 -5.3173
#
#
#
# Elastic Compliance Matrix: (Units=1/GPa)
#
#
# Indices 1 2 3 4 5 6 
#
# 1 0.012734 -0.006522 -0.005052 0.000000 0.000000 0.000000
# 2 -0.006522 0.071044 -0.005210 0.000000 0.000000 0.000000
# 3 -0.005052 -0.005210 0.014274 0.000000 0.000000 0.000000
# 4 0.000000 0.000000 0.000000 0.012966 0.000000 0.000000
# 5 0.000000 0.000000 0.000000 0.000000 0.122518 0.000000
# 6 0.000000 0.000000 0.000000 0.000000 0.000000 -0.188064
#
#
# Mechanical properties :
#
#
# Convention : Reuss Voigt Hill
#
# Bulk Modulus (GPa) = 15.50762 36.58876 26.04819
# Shear Modulus (GPa) = 49.73272 25.47043 37.60157
#
# Velocity S-wave (km/s) = 5.61926 4.02139 4.88608
# Velocity P-wave (km/s) = 7.20745 6.69274 6.95486
#
# Compressibility (1/GPa) = 0.06448442
#
# Stress axis : x y z
#
# Youngs Moduli (GPa) = 78.52704 14.07570 70.05641
#
# Poissons Ratio (x) = 0.09180 0.35393
# Poissons Ratio (y) = 0.51216 0.36501
# Poissons Ratio (z) = 0.39672 0.07334
#
# Static dielectric constant tensor:
#      x y z
#    x 1.532240 0.000000 0.000000 
#    y 0.000000 1.537580 0.000000 
#    z 0.000000 0.000000 1.524300 
# 
# From -- ./inp_files/26628.got.cif
#   From: 2010.05.17/outbox.cif.g08.bks.cpg/sg51_14_cif.got.tgz:26628.got - 2010.06.03 11:52:47.
