data_PCOD9400358
_publ_section_title
;
Structure prediction by ZEFSAII (Michael W. Deem and Ramdas Pophale) SiO2 
 PCOD9400358
Probable space group: P M M A
;
_chemical_formula_sum "Si O2"
_cell_formula_units_Z 48
_cell_length_a 8.544068
_cell_length_b 14.166862
_cell_length_c 24.648662
_cell_angle_alpha 90.000000
_cell_angle_beta 90.000000
_cell_angle_gamma 90.000000
_cell_volume 2983.538931
_symmetry_space_group_name_H-M "P M M A"
_symmetry_group_IT_number 51
_symmetry_cell_setting 'orthorhombic'
loop_
_space_group_symop_operation_xyz
x,y,z
1/2-x,-y,z
1/2+x,-y,-z
-x,y,-z
-x,-y,-z
1/2+x,y,-z
1/2-x,y,z
x,-y,z
loop_
_atom_site_type_symbol
_atom_site_label
_atom_site_fract_x
_atom_site_fract_y
_atom_site_fract_z
Si Si1 0.560964 0.393841 0.774332
Si Si2 0.937561 0.207002 0.834795
Si Si3 0.939246 0.106300 0.271494
Si Si4 0.439259 0.292746 0.668302
Si Si5 0.938792 0.609528 0.441338
Si Si6 0.562709 0.109301 0.059083
O O1 0.750000 0.393060 0.772578
O O2 0.508905 0.500000 0.787370
O O3 0.512025 0.312404 0.816576
O O4 0.499147 0.361708 0.715616
O O5 0.750000 0.203857 0.835462
O O6 0.998809 0.138411 0.787182
O O7 0.001114 0.173321 0.892301
O O8 0.750000 0.107217 0.269429
O O9 0.988748 0.187334 0.313965
O O10 0.990288 0.000000 0.284516
O O11 0.250000 0.295432 0.668733
O O12 0.492642 0.327995 0.609481
O O13 0.750000 0.611290 0.442410
O O14 0.987413 0.500000 0.433237
O O15 0.000000 0.640596 0.500000
O O16 0.750000 0.111331 0.058535
O O17 0.512355 0.000000 0.068332
O O18 0.500000 0.137755 0.000000
#
# Coordination Sequence:
#
# PCOD9400358 Si02
#       6
#     8   8   8   8   8   8
#     4   9  18  31  46  66  92 120 148 179 218 262
#     4  10  19  30  46  68  93 120 148 180 218 259
#     4   9  17  29  45  65  89 117 147 179 217 261
#     4   9  17  29  45  65  88 114 146 183 220 259
#     4   9  17  28  42  61  84 110 141 178 220 264
#     4  10  20  33  49  69  93 120 149 182 220 261
#
# _framework density 16.088277000000001
#
# number of rings (size 3 to 8) (size 9 to 14) (size 15 to 20)
#    0.000    2.667    0.000    2.000    0.000    5.667 
#    0.000    1.667    0.000    1.000    0.000    0.000 
#    0.000    0.000    0.000    0.000    0.000    0.000 
#
# Total GULP energy -267579.768052 kJ/mol
# GULP energy per Si atom -5574.578501 kJ/mol
# Density = 1.605166 g / cm^3
# Si number density = 16.088277 Si / 1000 Ang^3
#
#
#
# Elastic Constant Matrix: (Units=GPa)
#
#
# Indices 1 2 3 4 5 6 
#
# 1 7.7067 19.8320 21.7881 0.0000 0.0000 0.0000
# 2 19.8320 121.1077 85.7712 0.0000 0.0000 0.0000
# 3 21.7881 85.7712 159.5305 0.0000 0.0000 0.0000
# 4 0.0000 0.0000 0.0000 20.1254 0.0000 0.0000
# 5 0.0000 0.0000 0.0000 0.0000 27.2350 0.0000
# 6 0.0000 0.0000 0.0000 0.0000 0.0000 18.0453
#
#
#
# Elastic Compliance Matrix: (Units=1/GPa)
#
#
# Indices 1 2 3 4 5 6 
#
# 1 0.259590 -0.028099 -0.020346 0.000000 0.000000 0.000000
# 2 -0.028099 0.016376 -0.004967 0.000000 0.000000 0.000000
# 3 -0.020346 -0.004967 0.011718 0.000000 0.000000 0.000000
# 4 0.000000 0.000000 0.000000 0.049689 0.000000 0.000000
# 5 0.000000 0.000000 0.000000 0.000000 0.036717 0.000000
# 6 0.000000 0.000000 0.000000 0.000000 0.000000 0.055416
#
#
# Mechanical properties :
#
#
# Convention : Reuss Voigt Hill
#
# Bulk Modulus (GPa) = 5.52918 60.34748 32.93833
# Shear Modulus (GPa) = 8.38058 23.81136 16.09597
#
# Velocity S-wave (km/s) = 2.28483 3.85131 3.16647
# Velocity P-wave (km/s) = 3.22565 7.57419 5.82122
#
# Compressibility (1/GPa) = 0.18085862
#
# Stress axis : x y z
#
# Youngs Moduli (GPa) = 3.85223 61.06418 85.34116
#
# Poissons Ratio (x) = 1.71586 1.73638
# Poissons Ratio (y) = 0.10825 0.42388
# Poissons Ratio (z) = 0.07838 0.30330
#
# Static dielectric constant tensor:
#      x y z
#    x 1.541480 0.000000 0.000000 
#    y 0.000000 1.554770 0.000000 
#    z 0.000000 0.000000 1.509870 
# 
# From -- ./inp_files/31584.got.cif
#   From: 2010.05.17/outbox.cif.g08.bks.cpg/sg51_16_cif.got.tgz:31584.got - 2010.06.03 11:52:47.
