data_PCOD9400870
_publ_section_title
;
Structure prediction by ZEFSAII (Michael W. Deem and Ramdas Pophale) SiO2 
 PCOD9400870
Probable space group: P M M A
;
_chemical_formula_sum "Si O2"
_cell_formula_units_Z 64
_cell_length_a 25.969965
_cell_length_b 8.163903
_cell_length_c 15.207258
_cell_angle_alpha 90.000000
_cell_angle_beta 90.000000
_cell_angle_gamma 90.000000
_cell_volume 3224.186197
_symmetry_space_group_name_H-M "P M M A"
_symmetry_group_IT_number 51
_symmetry_cell_setting 'orthorhombic'
loop_
_space_group_symop_operation_xyz
x,y,z
1/2-x,-y,z
1/2+x,-y,-z
-x,y,-z
-x,-y,-z
1/2+x,y,-z
1/2-x,y,z
x,-y,z
loop_
_atom_site_type_symbol
_atom_site_label
_atom_site_fract_x
_atom_site_fract_y
_atom_site_fract_z
Si Si1 0.192999 0.799329 0.177623
Si Si2 0.162761 0.802739 0.985048
Si Si3 0.595877 0.808889 0.711707
Si Si4 0.507347 0.686854 0.232437
Si Si5 0.049412 0.812767 0.938827
Si Si6 0.441584 0.303325 0.478845
Si Si7 0.397460 0.302023 0.656367
Si Si8 0.192342 0.197553 0.788850
O O1 0.250000 0.754925 0.209623
O O2 0.146319 0.740392 0.239271
O O3 0.190025 0.000000 0.175401
O O4 0.186782 0.742774 0.076189
O O5 0.101698 0.772053 0.988517
O O6 0.181127 0.742923 0.889006
O O7 0.171329 0.000000 0.984030
O O8 0.545583 0.784293 0.772516
O O9 0.578921 0.739000 0.617548
O O10 0.605043 0.000000 0.698560
O O11 0.494237 0.500000 0.255178
O O12 0.538350 0.696396 0.142187
O O13 0.547802 0.752997 0.303057
O O14 0.055728 0.000000 0.904772
O O15 0.000000 0.808660 0.000000
O O16 0.500000 0.242993 0.500000
O O17 0.444405 0.500000 0.484357
O O18 0.401623 0.248800 0.554958
O O19 0.397129 0.500000 0.659997
O O20 0.350871 0.246118 0.718233
O O21 0.250000 0.251053 0.763493
O O22 0.191749 0.000000 0.792729
#
# Coordination Sequence:
#
# PCOD9400870 Si02
#       8
#     8   8   8   8   8   8   8   8
#     4   9  18  34  55  80 113 150 186 225 272 327
#     4   9  16  29  51  79 110 145 184 224 268 322
#     4  11  22  35  57  89 116 143 183 234 286 334
#     4  11  21  35  54  78 112 152 186 223 277 340
#     4  10  19  31  49  78 114 148 184 233 285 330
#     4  10  20  39  61  81 109 145 183 225 277 341
#     4  10  21  37  57  79 108 146 184 223 274 336
#     4  10  20  34  55  83 112 144 186 234 277 318
#
# _framework density 19.849969999999999
#
# number of rings (size 3 to 8) (size 9 to 14) (size 15 to 20)
#    0.000    2.000    2.500    1.875    0.000    5.250 
#    0.000    0.625    0.000    4.500    0.000    0.000 
#    0.000    0.000    0.000    0.000    0.000    0.000 
#
# Total GULP energy -356978.422253 kJ/mol
# GULP energy per Si atom -5577.787848 kJ/mol
# Density = 1.980479 g / cm^3
# Si number density = 19.849970 Si / 1000 Ang^3
#
#
#
# Elastic Constant Matrix: (Units=GPa)
#
#
# Indices 1 2 3 4 5 6 
#
# 1 145.6147 13.3684 55.2661 0.0000 0.0000 0.0000
# 2 13.3684 8.5647 12.5349 0.0000 0.0000 0.0000
# 3 55.2661 12.5349 99.1633 0.0000 0.0000 0.0000
# 4 0.0000 0.0000 0.0000 171.1792 0.0000 0.0000
# 5 0.0000 0.0000 0.0000 0.0000 13.4652 0.0000
# 6 0.0000 0.0000 0.0000 0.0000 0.0000 82.1558
#
#
#
# Elastic Compliance Matrix: (Units=1/GPa)
#
#
# Indices 1 2 3 4 5 6 
#
# 1 0.009176 -0.008390 -0.004054 0.000000 0.000000 0.000000
# 2 -0.008390 0.150933 -0.014403 0.000000 0.000000 0.000000
# 3 -0.004054 -0.014403 0.014164 0.000000 0.000000 0.000000
# 4 0.000000 0.000000 0.000000 0.005842 0.000000 0.000000
# 5 0.000000 0.000000 0.000000 0.000000 0.074265 0.000000
# 6 0.000000 0.000000 0.000000 0.000000 0.000000 0.012172
#
#
# Mechanical properties :
#
#
# Convention : Reuss Voigt Hill
#
# Bulk Modulus (GPa) = 8.29325 46.18682 27.24004
# Shear Modulus (GPa) = 13.87199 64.83827 39.35513
#
# Velocity S-wave (km/s) = 2.64643 5.72146 4.45750
# Velocity P-wave (km/s) = 3.67766 8.18323 6.34391
#
# Compressibility (1/GPa) = 0.12057995
#
# Stress axis : x y z
#
# Youngs Moduli (GPa) = 108.97785 6.62547 70.60100
#
# Poissons Ratio (x) = 0.05559 0.28618
# Poissons Ratio (y) = 0.91435 1.01685
# Poissons Ratio (z) = 0.44174 0.09542
#
# Static dielectric constant tensor:
#      x y z
#    x 1.698430 0.000000 0.000000 
#    y 0.000000 1.717390 0.000000 
#    z 0.000000 0.000000 1.721290 
# 
# From -- ./inp_files/26234.got.cif
#   From: 2010.05.17/outbox.cif.g08.bks.cpg/sg51_14_cif.got.tgz:26234.got - 2010.06.03 11:52:47.
