data_PCOD9400381
_publ_section_title
;
Structure prediction by ZEFSAII (Michael W. Deem and Ramdas Pophale) SiO2 
 PCOD9400381
Probable space group: P M M A
;
_chemical_formula_sum "Si O2"
_cell_formula_units_Z 64
_cell_length_a 8.930963
_cell_length_b 19.405585
_cell_length_c 24.142141
_cell_angle_alpha 90.000000
_cell_angle_beta 90.000000
_cell_angle_gamma 90.000000
_cell_volume 4184.088016
_symmetry_space_group_name_H-M "P M M A"
_symmetry_group_IT_number 51
_symmetry_cell_setting 'orthorhombic'
loop_
_space_group_symop_operation_xyz
x,y,z
1/2-x,-y,z
1/2+x,-y,-z
-x,y,-z
-x,-y,-z
1/2+x,y,-z
1/2-x,y,z
x,-y,z
loop_
_atom_site_type_symbol
_atom_site_label
_atom_site_fract_x
_atom_site_fract_y
_atom_site_fract_z
Si Si1 0.070189 0.080019 0.778281
Si Si2 0.428792 0.290780 0.058006
Si Si3 0.929118 0.845841 0.337223
Si Si4 0.070852 0.712193 0.728736
Si Si5 0.071348 0.578991 0.885075
Si Si6 0.928111 0.578699 0.762868
Si Si7 0.071343 0.207397 0.168132
Si Si8 0.428769 0.080358 0.440960
O O1 0.250000 0.087860 0.784526
O O2 0.033146 0.107103 0.716388
O O3 0.987931 0.130627 0.820738
O O4 0.031716 0.000000 0.784368
O O5 0.250000 0.296341 0.053107
O O6 0.496220 0.364395 0.076154
O O7 0.463303 0.237951 0.107867
O O8 0.500000 0.269386 0.000000
O O9 0.750000 0.850412 0.345267
O O10 0.965932 0.767690 0.318941
O O11 0.010812 0.873305 0.391203
O O12 0.250000 0.706952 0.732417
O O13 0.997594 0.637360 0.724255
O O14 0.008310 0.745666 0.785433
O O15 0.250000 0.589533 0.882702
O O16 0.042870 0.500000 0.903023
O O17 0.003036 0.586257 0.823454
O O18 0.750000 0.588753 0.768471
O O19 0.955469 0.500000 0.744413
O O20 0.250000 0.210771 0.176331
O O21 0.500000 0.099401 0.500000
O O22 0.250000 0.084740 0.444491
O O23 0.469636 0.000000 0.430072
#
# Coordination Sequence:
#
# PCOD9400381 Si02
#       8
#     8   8   8   8   8   8   8   8
#     4   9  18  32  51  74  98 125 154 188 235 286
#     4  11  23  36  51  69  90 119 154 194 237 283
#     4   9  18  31  47  70  99 129 162 200 236 275
#     4  10  19  31  49  70  95 128 161 195 238 285
#     4  10  20  33  50  70  92 121 155 190 230 279
#     4  10  19  30  46  69  97 127 158 194 236 282
#     4  10  20  33  49  70  94 119 150 190 237 285
#     4  10  20  32  47  68  96 134 174 207 240 278
#
# _framework density 15.296046
#
# number of rings (size 3 to 8) (size 9 to 14) (size 15 to 20)
#    0.000    2.125    1.250    3.375    0.000    7.250 
#    0.000    0.000    0.000    0.375    0.000    0.000 
#    0.000    0.500    0.000    1.625    0.000    2.375 
#
# Total GULP energy -357109.228483 kJ/mol
# GULP energy per Si atom -5579.831695 kJ/mol
# Density = 1.526123 g / cm^3
# Si number density = 15.296046 Si / 1000 Ang^3
#
#
#
# Elastic Constant Matrix: (Units=GPa)
#
#
# Indices 1 2 3 4 5 6 
#
# 1 58.8893 52.1930 52.9847 0.0000 0.0000 0.0000
# 2 52.1930 109.3251 61.4871 0.0000 0.0000 0.0000
# 3 52.9847 61.4871 101.2043 0.0000 0.0000 0.0000
# 4 0.0000 0.0000 0.0000 24.0323 0.0000 0.0000
# 5 0.0000 0.0000 0.0000 0.0000 26.4259 0.0000
# 6 0.0000 0.0000 0.0000 0.0000 0.0000 26.1609
#
#
#
# Elastic Compliance Matrix: (Units=1/GPa)
#
#
# Indices 1 2 3 4 5 6 
#
# 1 0.039077 -0.010861 -0.013860 0.000000 0.000000 0.000000
# 2 -0.010861 0.016913 -0.004590 0.000000 0.000000 0.000000
# 3 -0.013860 -0.004590 0.019926 0.000000 0.000000 0.000000
# 4 0.000000 0.000000 0.000000 0.041611 0.000000 0.000000
# 5 0.000000 0.000000 0.000000 0.000000 0.037842 0.000000
# 6 0.000000 0.000000 0.000000 0.000000 0.000000 0.038225
#
#
# Mechanical properties :
#
#
# Convention : Reuss Voigt Hill
#
# Bulk Modulus (GPa) = 57.81898 66.97204 62.39551
# Shear Modulus (GPa) = 19.38138 22.17408 20.77773
#
# Velocity S-wave (km/s) = 3.56347 3.81157 3.68961
# Velocity P-wave (km/s) = 7.40359 7.95297 7.68319
#
# Compressibility (1/GPa) = 0.01729536
#
# Stress axis : x y z
#
# Youngs Moduli (GPa) = 25.59056 59.12461 50.18589
#
# Poissons Ratio (x) = 0.64212 0.69558
# Poissons Ratio (y) = 0.27793 0.23035
# Poissons Ratio (z) = 0.35469 0.27138
#
# Static dielectric constant tensor:
#      x y z
#    x 1.508980 0.000000 0.000000 
#    y 0.000000 1.524340 0.000000 
#    z 0.000000 0.000000 1.477670 
# 
# From -- ./inp_files/32619.got.cif
#   From: 2010.05.17/outbox.cif.g08.bks.cpg/sg51_17_cif.got.tgz:32619.got - 2010.06.03 11:52:47.
