data_PCOD9400754
_publ_section_title
;
Structure prediction by ZEFSAII (Michael W. Deem and Ramdas Pophale) SiO2 
 PCOD9400754
Probable space group: P M M A
;
_chemical_formula_sum "Si O2"
_cell_formula_units_Z 56
_cell_length_a 22.102037
_cell_length_b 7.390640
_cell_length_c 13.639269
_cell_angle_alpha 90.000000
_cell_angle_beta 90.000000
_cell_angle_gamma 90.000000
_cell_volume 2227.950023
_symmetry_space_group_name_H-M "P M M A"
_symmetry_group_IT_number 51
_symmetry_cell_setting 'orthorhombic'
loop_
_space_group_symop_operation_xyz
x,y,z
1/2-x,-y,z
1/2+x,-y,-z
-x,y,-z
-x,-y,-z
1/2+x,y,-z
1/2-x,y,z
x,-y,z
loop_
_atom_site_type_symbol
_atom_site_label
_atom_site_fract_x
_atom_site_fract_y
_atom_site_fract_z
Si Si1 0.362622 0.219608 0.643448
Si Si2 0.450917 0.719455 0.914496
Si Si3 0.182476 0.711598 0.858915
Si Si4 0.815471 0.291352 0.794122
Si Si5 0.442588 0.710446 0.208252
Si Si6 0.504643 0.782312 0.389195
Si Si7 0.820932 0.203841 0.567996
O O1 0.326534 0.276224 0.740501
O O2 0.431700 0.280163 0.654248
O O3 0.345735 0.282770 0.533599
O O4 0.358702 0.000000 0.640681
O O5 0.445211 0.500000 0.912233
O O6 0.381151 0.784713 0.905818
O O7 0.493860 0.788649 0.826907
O O8 0.500000 0.760244 0.000000
O O9 0.250000 0.786079 0.883395
O O10 0.184451 0.500000 0.885745
O O11 0.750000 0.209606 0.818593
O O12 0.814011 0.500000 0.827090
O O13 0.879279 0.210389 0.828826
O O14 0.821273 0.291588 0.675559
O O15 0.441766 0.500000 0.178464
O O16 0.448732 0.719321 0.324823
O O17 0.500000 0.720173 0.500000
O O18 0.504646 0.000000 0.389690
O O19 0.750000 0.187591 0.546025
O O20 0.847006 0.000000 0.580090
#
# Coordination Sequence:
#
# PCOD9400754 Si02
#       7
#     8   8   8   8   8   8   8
#     4  10  19  31  48  72 103 139 176 215 261 306
#     4   9  18  35  57  79 104 135 170 212 264 318
#     4  10  20  34  54  80 107 134 169 215 264 316
#     4   9  18  31  46  68  98 130 169 216 259 300
#     4  10  19  33  53  74  98 134 173 211 260 311
#     4  10  20  32  48  73 106 141 177 217 258 302
#     4   9  17  29  45  66  95 135 178 210 246 303
#
# _framework density 25.135213
#
# number of rings (size 3 to 8) (size 9 to 14) (size 15 to 20)
#    0.000    2.429    1.429    1.286    0.000    3.429 
#    0.000    2.143    0.000    6.000    0.000    0.000 
#    0.000    2.286    0.000    0.000    0.000    0.000 
#
# Total GULP energy -312120.360084 kJ/mol
# GULP energy per Si atom -5573.577859 kJ/mol
# Density = 2.507800 g / cm^3
# Si number density = 25.135213 Si / 1000 Ang^3
#
#
#
# Elastic Constant Matrix: (Units=GPa)
#
#
# Indices 1 2 3 4 5 6 
#
# 1 251.3391 7.8661 20.4766 0.0000 0.0000 0.0000
# 2 7.8661 90.1567 -7.4207 0.0000 0.0000 0.0000
# 3 20.4766 -7.4207 34.5119 0.0000 0.0000 0.0000
# 4 0.0000 0.0000 0.0000 -1.1605 0.0000 0.0000
# 5 0.0000 0.0000 0.0000 0.0000 16.4216 0.0000
# 6 0.0000 0.0000 0.0000 0.0000 0.0000 3.2988
#
#
#
# Elastic Compliance Matrix: (Units=1/GPa)
#
#
# Indices 1 2 3 4 5 6 
#
# 1 0.004211 -0.000583 -0.002624 0.000000 0.000000 0.000000
# 2 -0.000583 0.011372 0.002791 0.000000 0.000000 0.000000
# 3 -0.002624 0.002791 0.031132 0.000000 0.000000 0.000000
# 4 0.000000 0.000000 0.000000 -0.861663 0.000000 0.000000
# 5 0.000000 0.000000 0.000000 0.000000 0.060896 0.000000
# 6 0.000000 0.000000 0.000000 0.000000 0.000000 0.303140
#
#
# Mechanical properties :
#
#
# Convention : Reuss Voigt Hill
#
# Bulk Modulus (GPa) = 21.79398 46.42797 34.11098
# Shear Modulus (GPa) = -11.49991 27.38434 7.94222
#
# Velocity S-wave (km/s) = -2.14130 3.30431 1.77951
# Velocity P-wave (km/s) = 1.60499 5.75059 4.22169
#
# Compressibility (1/GPa) = 0.04588422
#
# Stress axis : x y z
#
# Youngs Moduli (GPa) = 237.49015 87.93182 32.12086
#
# Poissons Ratio (x) = 0.05129 0.08428
# Poissons Ratio (y) = 0.13854 -0.08966
# Poissons Ratio (z) = 0.62311 -0.24545
#
# Static dielectric constant tensor:
#      x y z
#    x 2.024760 0.000000 0.000000 
#    y 0.000000 1.974520 0.000000 
#    z 0.000000 0.000000 2.117110 
# 
# From -- ./inp_files/25740.got.cif
#   From: 2010.05.17/outbox.cif.g08.bks.cpg/sg51_13_cif.got.tgz:25740.got - 2010.06.03 11:52:47.
