data_PCOD9400595
_publ_section_title
;
Structure prediction by ZEFSAII (Michael W. Deem and Ramdas Pophale) SiO2 
 PCOD9400595
Probable space group: P M M A
;
_chemical_formula_sum "Si O2"
_cell_formula_units_Z 44
_cell_length_a 25.337880
_cell_length_b 14.207614
_cell_length_c 5.260411
_cell_angle_alpha 90.000000
_cell_angle_beta 90.000000
_cell_angle_gamma 90.000000
_cell_volume 1893.699662
_symmetry_space_group_name_H-M "P M M A"
_symmetry_group_IT_number 51
_symmetry_cell_setting 'orthorhombic'
loop_
_space_group_symop_operation_xyz
x,y,z
1/2-x,-y,z
1/2+x,-y,-z
-x,y,-z
-x,-y,-z
1/2+x,y,-z
1/2-x,y,z
x,-y,z
loop_
_atom_site_type_symbol
_atom_site_label
_atom_site_fract_x
_atom_site_fract_y
_atom_site_fract_z
Si Si1 0.367403 0.111998 0.019035
Si Si2 0.131109 0.276142 0.393175
Si Si3 0.750000 0.760857 0.623295
Si Si4 0.630746 0.392810 0.132565
Si Si5 0.028678 0.113635 0.747725
Si Si6 0.750000 0.892565 0.004980
Si Si7 0.250000 0.599450 0.969022
O O1 0.409677 0.128149 0.798206
O O2 0.308772 0.141040 0.928195
O O3 0.367626 0.000000 0.082031
O O4 0.382918 0.175907 0.260579
O O5 0.192397 0.261221 0.474262
O O6 0.107487 0.328435 0.640215
O O7 0.125874 0.345697 0.146976
O O8 0.750000 0.870422 0.702571
O O9 0.750000 0.695075 0.874389
O O10 0.610081 0.500000 0.135664
O O11 0.694421 0.401867 0.173530
O O12 0.000000 0.152372 0.500000
O O13 0.021615 0.000000 0.742838
O O14 0.000000 0.149449 0.000000
O O15 0.750000 0.000000 0.075061
O O16 0.250000 0.500000 0.124963
#
# Coordination Sequence:
#
# PCOD9400595 Si02
#       7
#     8   8   4   8   8   4   4
#     4   9  18  33  54  81 114 149 186 224 266 323
#     4  10  19  31  48  70  98 134 173 213 262 314
#     4   8  15  27  42  63  93 128 169 213 252 305
#     4  10  19  31  46  67  96 130 172 218 264 314
#     4   9  18  33  54  78 105 139 178 225 277 320
#     4   8  14  27  48  73 106 150 188 217 254 309
#     4   8  15  26  42  62  87 124 167 214 264 310
#
# _framework density 23.234942
#
# number of rings (size 3 to 8) (size 9 to 14) (size 15 to 20)
#    0.000    2.909    0.000    1.091    0.000    2.182 
#    0.000    5.455    0.000    4.364    0.000   28.000 
#    0.000   14.545    0.000    0.000    0.000    0.000 
#
# Total GULP energy -244987.315647 kJ/mol
# GULP energy per Si atom -5567.893537 kJ/mol
# Density = 2.318206 g / cm^3
# Si number density = 23.234942 Si / 1000 Ang^3
#
#
#
# Elastic Constant Matrix: (Units=GPa)
#
#
# Indices 1 2 3 4 5 6 
#
# 1 81.0787 -4.3265 22.9062 0.0000 0.0000 0.0000
# 2 -4.3265 144.9747 61.4159 0.0000 0.0000 0.0000
# 3 22.9062 61.4159 137.0485 0.0000 0.0000 0.0000
# 4 0.0000 0.0000 0.0000 18.1670 0.0000 0.0000
# 5 0.0000 0.0000 0.0000 0.0000 -3.7825 0.0000
# 6 0.0000 0.0000 0.0000 0.0000 0.0000 8.5901
#
#
#
# Elastic Compliance Matrix: (Units=1/GPa)
#
#
# Indices 1 2 3 4 5 6 
#
# 1 0.013256 0.001647 -0.002954 0.000000 0.000000 0.000000
# 2 0.001647 0.008719 -0.004182 0.000000 0.000000 0.000000
# 3 -0.002954 -0.004182 0.009665 0.000000 0.000000 0.000000
# 4 0.000000 0.000000 0.000000 0.055045 0.000000 0.000000
# 5 0.000000 0.000000 0.000000 0.000000 -0.264373 0.000000
# 6 0.000000 0.000000 0.000000 0.000000 0.000000 0.116413
#
#
# Mechanical properties :
#
#
# Convention : Reuss Voigt Hill
#
# Bulk Modulus (GPa) = 48.40030 58.12145 53.26087
# Shear Modulus (GPa) = -115.17871 23.46867 -45.85502
#
# Velocity S-wave (km/s) = -7.04833 3.18159 -4.44727
# Velocity P-wave (km/s) = 6.73517 6.21013 1.84349
#
# Compressibility (1/GPa) = 0.02066103
#
# Stress axis : x y z
#
# Youngs Moduli (GPa) = 75.43746 114.69607 103.47027
#
# Poissons Ratio (x) = -0.18889 0.30561
# Poissons Ratio (y) = -0.12423 0.43275
# Poissons Ratio (z) = 0.22281 0.47970
#
# Static dielectric constant tensor:
#      x y z
#    x 1.326890 0.000000 0.000000 
#    y 0.000000 1.926980 0.000000 
#    z 0.000000 0.000000 1.918340 
# 
# From -- ./inp_files/3494.got.cif
#   From: 2010.05.17/outbox.cif.g08.bks.cpg/sg51_2_cif.got.tgz:3494.got - 2010.06.03 11:52:47.
