data_PCOD9400937
_publ_section_title
;
Structure prediction by ZEFSAII (Michael W. Deem and Ramdas Pophale) SiO2 
 PCOD9400937
Probable space group: P M M A
;
_chemical_formula_sum "Si O2"
_cell_formula_units_Z 48
_cell_length_a 8.670290
_cell_length_b 31.601873
_cell_length_c 9.840978
_cell_angle_alpha 90.000000
_cell_angle_beta 90.000000
_cell_angle_gamma 90.000000
_cell_volume 2696.402419
_symmetry_space_group_name_H-M "P M M A"
_symmetry_group_IT_number 51
_symmetry_cell_setting 'orthorhombic'
loop_
_space_group_symop_operation_xyz
x,y,z
1/2-x,-y,z
1/2+x,-y,-z
-x,y,-z
-x,-y,-z
1/2+x,y,-z
1/2-x,y,z
x,-y,z
loop_
_atom_site_type_symbol
_atom_site_label
_atom_site_fract_x
_atom_site_fract_y
_atom_site_fract_z
Si Si1 0.935287 0.861924 0.847126
Si Si2 0.064752 0.377225 0.151730
Si Si3 0.063886 0.045433 0.153743
Si Si4 0.934410 0.208530 0.351139
Si Si5 0.434982 0.306595 0.649790
Si Si6 0.935898 0.548592 0.647309
O O1 0.750000 0.859975 0.851611
O O2 0.982031 0.908595 0.789592
O O3 0.998945 0.824142 0.756708
O O4 0.000000 0.858797 0.000000
O O5 0.250000 0.376231 0.147137
O O6 0.015626 0.419101 0.235614
O O7 0.004491 0.337478 0.238078
O O8 0.000000 0.377211 0.000000
O O9 0.250000 0.045370 0.148870
O O10 0.015132 0.000000 0.216277
O O11 0.000000 0.045277 0.000000
O O12 0.750000 0.205635 0.353362
O O13 0.975730 0.257517 0.321156
O O14 0.000000 0.198649 0.500000
O O15 0.500000 0.317036 0.500000
O O16 0.250000 0.310425 0.647416
O O17 0.750000 0.549261 0.640405
O O18 0.985047 0.500000 0.672692
O O19 0.000000 0.561546 0.500000
#
# Coordination Sequence:
#
# PCOD9400937 Si02
#       6
#     8   8   8   8   8   8
#     4  10  19  31  50  76 105 136 170 211 257 305
#     4  11  23  37  55  80 111 144 177 217 264 311
#     4   8  14  25  42  66  96 129 165 205 249 297
#     4  10  21  37  56  77 102 134 171 212 259 311
#     4  10  21  38  59  80 103 134 173 215 259 310
#     4   9  19  36  57  81 108 140 179 219 259 306
#
# _framework density 17.801497999999999
#
# number of rings (size 3 to 8) (size 9 to 14) (size 15 to 20)
#    0.000    2.333    0.000    2.500    0.000    6.333 
#    0.000    0.000    0.000    0.500    0.000    0.000 
#    0.000    0.000    0.000    0.000    0.000    0.000 
#
# Total GULP energy -267683.216273 kJ/mol
# GULP energy per Si atom -5576.733672 kJ/mol
# Density = 1.776098 g / cm^3
# Si number density = 17.801498 Si / 1000 Ang^3
#
#
#
# Elastic Constant Matrix: (Units=GPa)
#
#
# Indices 1 2 3 4 5 6 
#
# 1 39.4587 46.5084 39.7620 0.0000 0.0000 0.0000
# 2 46.5084 147.0098 111.1951 0.0000 0.0000 0.0000
# 3 39.7620 111.1951 129.5515 0.0000 0.0000 0.0000
# 4 0.0000 0.0000 0.0000 32.4269 0.0000 0.0000
# 5 0.0000 0.0000 0.0000 0.0000 31.6155 0.0000
# 6 0.0000 0.0000 0.0000 0.0000 0.0000 34.8082
#
#
#
# Elastic Compliance Matrix: (Units=1/GPa)
#
#
# Indices 1 2 3 4 5 6 
#
# 1 0.041181 -0.009886 -0.004154 0.000000 0.000000 0.000000
# 2 -0.009886 0.021764 -0.015646 0.000000 0.000000 0.000000
# 3 -0.004154 -0.015646 0.022423 0.000000 0.000000 0.000000
# 4 0.000000 0.000000 0.000000 0.030839 0.000000 0.000000
# 5 0.000000 0.000000 0.000000 0.000000 0.031630 0.000000
# 6 0.000000 0.000000 0.000000 0.000000 0.000000 0.028729
#
#
# Mechanical properties :
#
#
# Convention : Reuss Voigt Hill
#
# Bulk Modulus (GPa) = 38.46750 78.99456 58.73103
# Shear Modulus (GPa) = 20.44112 27.67374 24.05743
#
# Velocity S-wave (km/s) = 3.39231 3.94709 3.68016
# Velocity P-wave (km/s) = 6.08274 8.07739 7.14996
#
# Compressibility (1/GPa) = 0.02599597
#
# Stress axis : x y z
#
# Youngs Moduli (GPa) = 24.28286 45.94645 44.59659
#
# Poissons Ratio (x) = 0.45424 0.18525
# Poissons Ratio (y) = 0.24007 0.69777
# Poissons Ratio (z) = 0.10087 0.71889
#
# Static dielectric constant tensor:
#      x y z
#    x 1.599190 0.000000 0.000000 
#    y 0.000000 1.650560 0.000000 
#    z 0.000000 0.000000 1.558840 
# 
# From -- ./inp_files/5951.got.cif
#   From: 2010.05.17/outbox.cif.g08.bks.cpg/sg51_3_cif.got.tgz:5951.got - 2010.06.03 11:52:47.
