data_PCOD9400471
_publ_section_title
;
Structure prediction by ZEFSAII (Michael W. Deem and Ramdas Pophale) SiO2 
 PCOD9400471
Probable space group: P M M A
;
_chemical_formula_sum "Si O2"
_cell_formula_units_Z 64
_cell_length_a 24.674054
_cell_length_b 8.877232
_cell_length_c 17.059639
_cell_angle_alpha 90.000000
_cell_angle_beta 90.000000
_cell_angle_gamma 90.000000
_cell_volume 3736.697295
_symmetry_space_group_name_H-M "P M M A"
_symmetry_group_IT_number 51
_symmetry_cell_setting 'orthorhombic'
loop_
_space_group_symop_operation_xyz
x,y,z
1/2-x,-y,z
1/2+x,-y,-z
-x,y,-z
-x,-y,-z
1/2+x,y,-z
1/2-x,y,z
x,-y,z
loop_
_atom_site_type_symbol
_atom_site_label
_atom_site_fract_x
_atom_site_fract_y
_atom_site_fract_z
Si Si1 0.627567 0.180894 0.782404
Si Si2 0.475273 0.182669 0.313217
Si Si3 0.313836 0.319657 0.069364
Si Si4 0.095435 0.818996 0.462657
Si Si5 0.815651 0.172300 0.095179
Si Si6 0.313166 0.678652 0.365452
Si Si7 0.312983 0.680226 0.739802
Si Si8 0.091231 0.181369 0.644041
O O1 0.567171 0.228569 0.754094
O O2 0.649529 0.252061 0.862006
O O3 0.666251 0.235664 0.711913
O O4 0.628927 0.000000 0.787629
O O5 0.448912 0.225568 0.397225
O O6 0.537301 0.233291 0.309799
O O7 0.476430 0.000000 0.312460
O O8 0.250000 0.278654 0.082238
O O9 0.316892 0.500000 0.069447
O O10 0.331179 0.255754 0.984806
O O11 0.150510 0.738908 0.436355
O O12 0.081828 0.785113 0.552229
O O13 0.101887 0.000000 0.456070
O O14 0.750000 0.169963 0.094524
O O15 0.830445 0.256431 0.175159
O O16 0.835028 0.000000 0.095894
O O17 0.250000 0.706437 0.378366
O O18 0.321414 0.500000 0.354608
O O19 0.250000 0.725868 0.726007
O O20 0.314681 0.500000 0.740866
O O21 0.354452 0.744453 0.676381
O O22 0.096103 0.000000 0.651597
#
# Coordination Sequence:
#
# PCOD9400471 Si02
#       8
#     8   8   8   8   8   8   8   8
#     4  10  19  31  49  72  98 130 168 206 242 284
#     4   8  16  32  52  73  97 126 162 206 252 290
#     4  10  19  30  47  74 107 138 165 196 240 290
#     4   9  18  32  51  73  95 124 164 208 250 293
#     4   9  17  31  52  76 100 128 165 204 240 284
#     4  10  20  32  45  64  96 135 167 199 246 297
#     4  10  21  36  52  73 104 135 160 194 245 298
#     4  10  19  33  55  77  96 123 163 207 247 293
#
# _framework density 17.127424000000001
#
# number of rings (size 3 to 8) (size 9 to 14) (size 15 to 20)
#    0.000    2.500    0.000    3.375    0.000    8.000 
#    0.000    5.625    0.000    4.500    0.000    5.250 
#    0.000    0.000    0.000    0.000    0.000    0.000 
#
# Total GULP energy -356829.562063 kJ/mol
# GULP energy per Si atom -5575.461907 kJ/mol
# Density = 1.708844 g / cm^3
# Si number density = 17.127424 Si / 1000 Ang^3
#
#
#
# Elastic Constant Matrix: (Units=GPa)
#
#
# Indices 1 2 3 4 5 6 
#
# 1 85.1523 26.5767 30.6730 0.0000 0.0000 0.0000
# 2 26.5767 36.7389 21.5624 0.0000 0.0000 0.0000
# 3 30.6730 21.5624 61.1540 0.0000 0.0000 0.0000
# 4 0.0000 0.0000 0.0000 5.4404 0.0000 0.0000
# 5 0.0000 0.0000 0.0000 0.0000 16.8706 0.0000
# 6 0.0000 0.0000 0.0000 0.0000 0.0000 7.8697
#
#
#
# Elastic Compliance Matrix: (Units=1/GPa)
#
#
# Indices 1 2 3 4 5 6 
#
# 1 0.016329 -0.008833 -0.005075 0.000000 0.000000 0.000000
# 2 -0.008833 0.039100 -0.009356 0.000000 0.000000 0.000000
# 3 -0.005075 -0.009356 0.022197 0.000000 0.000000 0.000000
# 4 0.000000 0.000000 0.000000 0.183811 0.000000 0.000000
# 5 0.000000 0.000000 0.000000 0.000000 0.059275 0.000000
# 6 0.000000 0.000000 0.000000 0.000000 0.000000 0.127070
#
#
# Mechanical properties :
#
#
# Convention : Reuss Voigt Hill
#
# Bulk Modulus (GPa) = 32.15818 37.85215 35.00517
# Shear Modulus (GPa) = 9.90733 12.98499 11.44616
#
# Velocity S-wave (km/s) = 2.40770 2.75642 2.58794
# Velocity P-wave (km/s) = 5.15228 5.68144 5.42332
#
# Compressibility (1/GPa) = 0.03109628
#
# Stress axis : x y z
#
# Youngs Moduli (GPa) = 61.24115 25.57534 45.05179
#
# Poissons Ratio (x) = 0.22592 0.22866
# Poissons Ratio (y) = 0.54097 0.42150
# Poissons Ratio (z) = 0.31083 0.23928
#
# Static dielectric constant tensor:
#      x y z
#    x 1.578260 0.000000 0.000000 
#    y 0.000000 1.574730 0.000000 
#    z 0.000000 0.000000 1.567150 
# 
# From -- ./inp_files/30809.got.cif
#   From: 2010.05.17/outbox.cif.g08.bks.cpg/sg51_16_cif.got.tgz:30809.got - 2010.06.03 11:52:47.
