data_PCOD9400304
_publ_section_title
;
Structure prediction by ZEFSAII (Michael W. Deem and Ramdas Pophale) SiO2 
 PCOD9400304
Probable space group: P M M A
;
_chemical_formula_sum "Si O2"
_cell_formula_units_Z 64
_cell_length_a 8.702405
_cell_length_b 31.898380
_cell_length_c 14.728573
_cell_angle_alpha 90.000000
_cell_angle_beta 90.000000
_cell_angle_gamma 90.000000
_cell_volume 4088.543192
_symmetry_space_group_name_H-M "P M M A"
_symmetry_group_IT_number 51
_symmetry_cell_setting 'orthorhombic'
loop_
_space_group_symop_operation_xyz
x,y,z
1/2-x,-y,z
1/2+x,-y,-z
-x,y,-z
-x,-y,-z
1/2+x,y,-z
1/2-x,y,z
x,-y,z
loop_
_atom_site_type_symbol
_atom_site_label
_atom_site_fract_x
_atom_site_fract_y
_atom_site_fract_z
Si Si1 0.933876 0.451330 0.599547
Si Si2 0.434577 0.297220 0.398725
Si Si3 0.065901 0.214218 0.283778
Si Si4 0.065473 0.341661 0.903889
Si Si5 0.065258 0.623885 0.711414
Si Si6 0.934282 0.243684 0.097145
Si Si7 0.435260 0.954990 0.602285
Si Si8 0.935003 0.862690 0.397518
O O1 0.750000 0.447389 0.597255
O O2 0.973105 0.500000 0.618199
O O3 0.000000 0.440824 0.500000
O O4 0.003096 0.419450 0.671836
O O5 0.500000 0.293725 0.500000
O O6 0.250000 0.300165 0.402126
O O7 0.477111 0.256050 0.340527
O O8 0.501484 0.338203 0.349814
O O9 0.250000 0.212078 0.280709
O O10 0.999888 0.218979 0.182789
O O11 0.000330 0.174035 0.335577
O O12 0.250000 0.342624 0.908514
O O13 0.016509 0.367216 0.815201
O O14 0.019478 0.292805 0.891655
O O15 0.000000 0.356457 0.000000
O O16 0.250000 0.624486 0.707469
O O17 0.750000 0.241567 0.096349
O O18 0.000000 0.229713 0.000000
O O19 0.500000 0.955259 0.500000
O O20 0.250000 0.955032 0.598539
O O21 0.479848 0.909231 0.639187
O O22 0.483200 0.000000 0.644441
O O23 0.750000 0.860006 0.401343
O O24 0.000000 0.858601 0.500000
#
# Coordination Sequence:
#
# PCOD9400304 Si02
#       8
#     8   8   8   8   8   8   8   8
#     4  10  21  37  56  78 103 132 164 199 240 285
#     4  11  23  35  48  67  95 131 167 201 237 278
#     4  11  22  34  48  68  95 131 168 202 242 289
#     4   9  19  33  52  76 100 127 157 197 241 285
#     4  11  21  35  54  77 102 128 161 199 242 286
#     4  10  19  34  53  73  97 125 161 203 246 290
#     4   8  14  25  41  61  85 116 157 202 246 290
#     4  10  19  30  45  65  93 130 167 205 247 293
#
# _framework density 15.653497
#
# number of rings (size 3 to 8) (size 9 to 14) (size 15 to 20)
#    0.000    2.000    1.250    3.000    0.000    5.250 
#    0.000    0.000    0.000    0.375    0.000    0.000 
#    0.000    0.500    0.000    1.375    0.000    2.250 
#
# Total GULP energy -357010.217214 kJ/mol
# GULP energy per Si atom -5578.284644 kJ/mol
# Density = 1.561787 g / cm^3
# Si number density = 15.653497 Si / 1000 Ang^3
#
#
#
# Elastic Constant Matrix: (Units=GPa)
#
#
# Indices 1 2 3 4 5 6 
#
# 1 40.2936 35.7585 37.0779 0.0000 0.0000 0.0000
# 2 35.7585 108.3889 71.6173 0.0000 0.0000 0.0000
# 3 37.0779 71.6173 130.6185 0.0000 0.0000 0.0000
# 4 0.0000 0.0000 0.0000 -20.1381 0.0000 0.0000
# 5 0.0000 0.0000 0.0000 0.0000 26.4095 0.0000
# 6 0.0000 0.0000 0.0000 0.0000 0.0000 19.5762
#
#
#
# Elastic Compliance Matrix: (Units=1/GPa)
#
#
# Indices 1 2 3 4 5 6 
#
# 1 0.037987 -0.008479 -0.006134 0.000000 0.000000 0.000000
# 2 -0.008479 0.016360 -0.006563 0.000000 0.000000 0.000000
# 3 -0.006134 -0.006563 0.012996 0.000000 0.000000 0.000000
# 4 0.000000 0.000000 0.000000 -0.049657 0.000000 0.000000
# 5 0.000000 0.000000 0.000000 0.000000 0.037865 0.000000
# 6 0.000000 0.000000 0.000000 0.000000 0.000000 0.051082
#
#
# Mechanical properties :
#
#
# Convention : Reuss Voigt Hill
#
# Bulk Modulus (GPa) = 40.01607 63.13427 51.57517
# Shear Modulus (GPa) = 31.78308 14.15934 22.97121
#
# Velocity S-wave (km/s) = 4.51090 3.01083 3.83493
# Velocity P-wave (km/s) = 7.26293 7.24615 7.25455
#
# Compressibility (1/GPa) = 0.02498996
#
# Stress axis : x y z
#
# Youngs Moduli (GPa) = 26.32451 61.12480 76.94899
#
# Poissons Ratio (x) = 0.51830 0.47201
# Poissons Ratio (y) = 0.22321 0.50502
# Poissons Ratio (z) = 0.16148 0.40117
#
# Static dielectric constant tensor:
#      x y z
#    x 1.549920 0.000000 0.000000 
#    y 0.000000 1.536950 0.000000 
#    z 0.000000 0.000000 1.496270 
# 
# From -- ./inp_files/14829.got.cif
#   From: 2010.05.17/outbox.cif.g08.bks.cpg/sg51_8_cif.got.tgz:14829.got - 2010.06.03 11:52:47.
