data_PCOD9400586
_publ_section_title
;
Structure prediction by ZEFSAII (Michael W. Deem and Ramdas Pophale) SiO2 
 PCOD9400586
Probable space group: P M M A
;
_chemical_formula_sum "Si O2"
_cell_formula_units_Z 64
_cell_length_a 7.800232
_cell_length_b 19.749240
_cell_length_c 24.432466
_cell_angle_alpha 90.000000
_cell_angle_beta 90.000000
_cell_angle_gamma 90.000000
_cell_volume 3763.788497
_symmetry_space_group_name_H-M "P M M A"
_symmetry_group_IT_number 51
_symmetry_cell_setting 'orthorhombic'
loop_
_space_group_symop_operation_xyz
x,y,z
1/2-x,-y,z
1/2+x,-y,-z
-x,y,-z
-x,-y,-z
1/2+x,y,-z
1/2-x,y,z
x,-y,z
loop_
_atom_site_type_symbol
_atom_site_label
_atom_site_fract_x
_atom_site_fract_y
_atom_site_fract_z
Si Si1 0.457544 0.076710 0.773393
Si Si2 0.453616 0.209093 0.169228
Si Si3 0.448697 0.289082 0.723330
Si Si4 0.953764 0.076496 0.561915
Si Si5 0.958217 0.575797 0.226838
Si Si6 0.544937 0.159051 0.332555
Si Si7 0.045549 0.574643 0.099165
Si Si8 0.044073 0.717392 0.060091
O O1 0.250000 0.075617 0.772685
O O2 0.513410 0.130251 0.819226
O O3 0.517283 0.108126 0.715200
O O4 0.518205 0.000000 0.780579
O O5 0.250000 0.221903 0.174043
O O6 0.542407 0.250202 0.218379
O O7 0.514575 0.236553 0.110755
O O8 0.250000 0.299897 0.708124
O O9 0.523778 0.363121 0.735328
O O10 0.524302 0.234305 0.680947
O O11 0.750000 0.072661 0.565279
O O12 0.000000 0.096195 0.500000
O O13 0.011561 0.128050 0.608411
O O14 0.024243 0.000000 0.571469
O O15 0.750000 0.578321 0.226100
O O16 0.010114 0.500000 0.243743
O O17 0.016741 0.585425 0.164090
O O18 0.750000 0.163222 0.325618
O O19 0.250000 0.572297 0.090032
O O20 0.974741 0.500000 0.084773
O O21 0.976081 0.640624 0.068493
O O22 0.250000 0.714389 0.063989
O O23 0.000000 0.742764 0.000000
#
# Coordination Sequence:
#
# PCOD9400586 Si02
#       8
#     8   8   8   8   8   8   8   8
#     4   9  18  32  50  71  93 118 145 175 219 270
#     4  10  19  31  46  66  89 111 142 181 222 267
#     4   9  17  29  45  65  91 122 151 182 225 269
#     4  10  20  32  46  65  91 125 161 192 221 254
#     4   9  16  26  43  66  89 116 151 185 217 261
#     4   9  17  29  45  66  93 123 152 183 216 255
#     4   9  17  30  45  61  85 114 143 178 220 264
#     4  10  21  33  45  63  84 111 145 182 222 266
#
# _framework density 17.004144
#
# number of rings (size 3 to 8) (size 9 to 14) (size 15 to 20)
#    0.000    2.625    1.250    1.875    0.000    5.250 
#    0.000    0.000    0.000    0.375    0.000    0.000 
#    0.000    0.500    0.000    0.875    0.000    1.250 
#
# Total GULP energy -356702.824421 kJ/mol
# GULP energy per Si atom -5573.481632 kJ/mol
# Density = 1.696544 g / cm^3
# Si number density = 17.004144 Si / 1000 Ang^3
#
#
#
# Elastic Constant Matrix: (Units=GPa)
#
#
# Indices 1 2 3 4 5 6 
#
# 1 20.9271 -5.1562 -8.8477 0.0000 0.0000 0.0000
# 2 -5.1562 107.0714 51.2192 0.0000 0.0000 0.0000
# 3 -8.8477 51.2192 90.2855 0.0000 0.0000 0.0000
# 4 0.0000 0.0000 0.0000 29.6772 0.0000 0.0000
# 5 0.0000 0.0000 0.0000 0.0000 18.5272 0.0000
# 6 0.0000 0.0000 0.0000 0.0000 0.0000 12.1937
#
#
#
# Elastic Compliance Matrix: (Units=1/GPa)
#
#
# Indices 1 2 3 4 5 6 
#
# 1 0.049851 0.000087 0.004836 0.000000 0.000000 0.000000
# 2 0.000087 0.012818 -0.007263 0.000000 0.000000 0.000000
# 3 0.004836 -0.007263 0.015670 0.000000 0.000000 0.000000
# 4 0.000000 0.000000 0.000000 0.033696 0.000000 0.000000
# 5 0.000000 0.000000 0.000000 0.000000 0.053975 0.000000
# 6 0.000000 0.000000 0.000000 0.000000 0.000000 0.082009
#
#
# Mechanical properties :
#
#
# Convention : Reuss Voigt Hill
#
# Bulk Modulus (GPa) = 13.57608 32.52386 23.04997
# Shear Modulus (GPa) = 18.03409 24.15087 21.09248
#
# Velocity S-wave (km/s) = 3.26017 3.77277 3.52580
# Velocity P-wave (km/s) = 4.70882 6.17632 5.49181
#
# Compressibility (1/GPa) = 0.07365898
#
# Stress axis : x y z
#
# Youngs Moduli (GPa) = 20.05984 78.01359 63.81487
#
# Poissons Ratio (x) = -0.00682 -0.30858
# Poissons Ratio (y) = -0.00175 0.46351
# Poissons Ratio (z) = -0.09700 0.56663
#
# Static dielectric constant tensor:
#      x y z
#    x 1.626750 0.000000 0.000000 
#    y 0.000000 1.623680 0.000000 
#    z 0.000000 0.000000 1.559260 
# 
# From -- ./inp_files/32560.got.cif
#   From: 2010.05.17/outbox.cif.g08.bks.cpg/sg51_17_cif.got.tgz:32560.got - 2010.06.03 11:52:47.
