data_PCOD9400436
_publ_section_title
;
Structure prediction by ZEFSAII (Michael W. Deem and Ramdas Pophale) SiO2 
 PCOD9400436
Probable space group: P M M A
;
_chemical_formula_sum "Si O2"
_cell_formula_units_Z 52
_cell_length_a 9.002380
_cell_length_b 18.176769
_cell_length_c 18.731243
_cell_angle_alpha 90.000000
_cell_angle_beta 90.000000
_cell_angle_gamma 90.000000
_cell_volume 3065.071621
_symmetry_space_group_name_H-M "P M M A"
_symmetry_group_IT_number 51
_symmetry_cell_setting 'orthorhombic'
loop_
_space_group_symop_operation_xyz
x,y,z
1/2-x,-y,z
1/2+x,-y,-z
-x,y,-z
-x,-y,-z
1/2+x,y,-z
1/2-x,y,z
x,-y,z
loop_
_atom_site_type_symbol
_atom_site_label
_atom_site_fract_x
_atom_site_fract_y
_atom_site_fract_z
Si Si1 0.426904 0.797437 0.422612
Si Si2 0.919239 0.299267 0.217946
Si Si3 0.426387 0.500000 0.577623
Si Si4 0.079768 0.136562 0.710780
Si Si5 0.424541 0.361465 0.349028
Si Si6 0.573325 0.917022 0.849256
Si Si7 0.571410 0.222634 0.075841
O O1 0.500000 0.804840 0.500000
O O2 0.250000 0.808760 0.425875
O O3 0.500471 0.852188 0.364963
O O4 0.452020 0.714240 0.392940
O O5 0.750000 0.327919 0.219854
O O6 0.915920 0.218217 0.254068
O O7 0.965370 0.282855 0.136836
O O8 0.025916 0.346483 0.267712
O O9 0.250000 0.500000 0.571188
O O10 0.500000 0.500000 0.500000
O O11 0.481857 0.427505 0.618341
O O12 0.250000 0.111110 0.703671
O O13 0.988804 0.090142 0.768633
O O14 0.250000 0.377908 0.353500
O O15 0.750000 0.903191 0.849244
O O16 0.492446 0.855287 0.896264
O O17 0.546208 0.000000 0.875275
O O18 0.750000 0.217921 0.071792
O O19 0.500000 0.239864 0.000000
#
# Coordination Sequence:
#
# PCOD9400436 Si02
#       7
#     8   8   4   8   8   8   8
#     4  10  19  30  47  70  95 123 157 200 246 289
#     4   8  16  31  49  70  95 125 161 199 239 282
#     4  12  24  36  50  70 103 140 171 206 244 286
#     4   9  17  30  48  68  91 120 157 200 241 286
#     4  10  20  33  50  72  98 130 166 201 238 285
#     4  10  20  33  49  69  95 128 163 197 237 290
#     4  10  20  33  51  75 103 131 161 200 243 288
#
# _framework density 16.965346
#
# number of rings (size 3 to 8) (size 9 to 14) (size 15 to 20)
#    0.000    2.308    0.000    4.385    0.000    8.923 
#    0.000    0.000    0.000    0.462    0.000    0.538 
#    0.000    0.000    0.000    0.000    0.000    0.000 
#
# Total GULP energy -290059.720545 kJ/mol
# GULP energy per Si atom -5578.071549 kJ/mol
# Density = 1.692673 g / cm^3
# Si number density = 16.965346 Si / 1000 Ang^3
#
#
#
# Elastic Constant Matrix: (Units=GPa)
#
#
# Indices 1 2 3 4 5 6 
#
# 1 76.9552 22.5119 46.6980 0.0000 0.0000 0.0000
# 2 22.5119 26.9454 16.3362 0.0000 0.0000 0.0000
# 3 46.6980 16.3362 138.3131 0.0000 0.0000 0.0000
# 4 0.0000 0.0000 0.0000 15.0507 0.0000 0.0000
# 5 0.0000 0.0000 0.0000 0.0000 34.1949 0.0000
# 6 0.0000 0.0000 0.0000 0.0000 0.0000 21.3794
#
#
#
# Elastic Compliance Matrix: (Units=1/GPa)
#
#
# Indices 1 2 3 4 5 6 
#
# 1 0.020145 -0.013687 -0.005185 0.000000 0.000000 0.000000
# 2 -0.013687 0.049274 -0.001199 0.000000 0.000000 0.000000
# 3 -0.005185 -0.001199 0.009122 0.000000 0.000000 0.000000
# 4 0.000000 0.000000 0.000000 0.066442 0.000000 0.000000
# 5 0.000000 0.000000 0.000000 0.000000 0.029244 0.000000
# 6 0.000000 0.000000 0.000000 0.000000 0.000000 0.046774
#
#
# Mechanical properties :
#
#
# Convention : Reuss Voigt Hill
#
# Bulk Modulus (GPa) = 26.04179 45.92286 35.98233
# Shear Modulus (GPa) = 18.25212 24.56953 21.41082
#
# Velocity S-wave (km/s) = 3.28357 3.80968 3.55636
# Velocity P-wave (km/s) = 5.45519 6.81754 6.17406
#
# Compressibility (1/GPa) = 0.03839982
#
# Stress axis : x y z
#
# Youngs Moduli (GPa) = 49.64107 20.29484 109.62426
#
# Poissons Ratio (x) = 0.27777 0.56838
# Poissons Ratio (y) = 0.67942 0.13141
# Poissons Ratio (z) = 0.25738 0.02433
#
# Static dielectric constant tensor:
#      x y z
#    x 1.569750 0.000000 0.000000 
#    y 0.000000 1.560360 0.000000 
#    z 0.000000 0.000000 1.574310 
# 
# From -- ./inp_files/27939.got.cif
#   From: 2010.05.17/outbox.cif.g08.bks.cpg/sg51_14_cif.got.tgz:27939.got - 2010.06.03 11:52:47.
