data_PCOD9400839
_publ_section_title
;
Structure prediction by ZEFSAII (Michael W. Deem and Ramdas Pophale) SiO2 
 PCOD9400839
Probable space group: P M M A
;
_chemical_formula_sum "Si O2"
_cell_formula_units_Z 40
_cell_length_a 8.517658
_cell_length_b 26.942720
_cell_length_c 9.391728
_cell_angle_alpha 90.000000
_cell_angle_beta 90.000000
_cell_angle_gamma 90.000000
_cell_volume 2155.297089
_symmetry_space_group_name_H-M "P M M A"
_symmetry_group_IT_number 51
_symmetry_cell_setting 'orthorhombic'
loop_
_space_group_symop_operation_xyz
x,y,z
1/2-x,-y,z
1/2+x,-y,-z
-x,y,-z
-x,-y,-z
1/2+x,y,-z
1/2-x,y,z
x,-y,z
loop_
_atom_site_type_symbol
_atom_site_label
_atom_site_fract_x
_atom_site_fract_y
_atom_site_fract_z
Si Si1 0.062019 0.342190 0.838189
Si Si2 0.561807 0.446087 0.837216
Si Si3 0.439657 0.056020 0.659335
Si Si4 0.560187 0.849890 0.159824
Si Si5 0.560283 0.753846 0.339623
O O1 0.250000 0.342641 0.844339
O O2 0.008909 0.295612 0.744182
O O3 0.005210 0.395035 0.775977
O O4 0.000000 0.337229 0.000000
O O5 0.750000 0.443142 0.839493
O O6 0.516682 0.500000 0.773965
O O7 0.500000 0.446699 0.000000
O O8 0.500000 0.065944 0.500000
O O9 0.250000 0.056734 0.656203
O O10 0.493073 0.099010 0.765751
O O11 0.489762 0.000000 0.699406
O O12 0.750000 0.849916 0.157632
O O13 0.508743 0.802791 0.253759
O O14 0.500000 0.845780 0.000000
O O15 0.500000 0.754558 0.500000
O O16 0.750000 0.753825 0.341921
#
# Coordination Sequence:
#
# PCOD9400839 Si02
#       5
#     8   8   8   8   8
#     4  10  19  31  49  74 101 129 164 204 247 295
#     4   9  16  26  43  69  99 130 163 199 242 291
#     4   9  18  33  53  77 105 137 173 211 250 296
#     4  10  21  36  53  76 105 134 168 210 254 300
#     4  10  22  37  53  74  99 130 168 208 251 301
#
# _framework density 18.558927000000001
#
# number of rings (size 3 to 8) (size 9 to 14) (size 15 to 20)
#    0.000    2.400    0.000    3.600    0.000    4.800 
#    0.000    0.000    0.000    0.600    0.000    0.000 
#    0.000    0.000    0.000    0.000    0.000    0.000 
#
# Total GULP energy -223113.503969 kJ/mol
# GULP energy per Si atom -5577.837599 kJ/mol
# Density = 1.851669 g / cm^3
# Si number density = 18.558927 Si / 1000 Ang^3
#
#
#
# Elastic Constant Matrix: (Units=GPa)
#
#
# Indices 1 2 3 4 5 6 
#
# 1 21.0648 33.5482 17.5704 0.0000 0.0000 0.0000
# 2 33.5482 206.3458 107.4750 0.0000 0.0000 0.0000
# 3 17.5704 107.4750 113.0400 0.0000 0.0000 0.0000
# 4 0.0000 0.0000 0.0000 -5.5328 0.0000 0.0000
# 5 0.0000 0.0000 0.0000 0.0000 27.6172 0.0000
# 6 0.0000 0.0000 0.0000 0.0000 0.0000 30.2068
#
#
#
# Elastic Compliance Matrix: (Units=1/GPa)
#
#
# Indices 1 2 3 4 5 6 
#
# 1 0.064060 -0.010358 -0.000109 0.000000 0.000000 0.000000
# 2 -0.010358 0.011275 -0.009110 0.000000 0.000000 0.000000
# 3 -0.000109 -0.009110 0.017525 0.000000 0.000000 0.000000
# 4 0.000000 0.000000 0.000000 -0.180739 0.000000 0.000000
# 5 0.000000 0.000000 0.000000 0.000000 0.036209 0.000000
# 6 0.000000 0.000000 0.000000 0.000000 0.000000 0.033105
#
#
# Mechanical properties :
#
#
# Convention : Reuss Voigt Hill
#
# Bulk Modulus (GPa) = 18.61990 73.07087 45.84538
# Shear Modulus (GPa) = 129.89512 22.58203 76.23858
#
# Velocity S-wave (km/s) = 8.37512 3.49201 6.41626
# Velocity P-wave (km/s) = 10.17733 7.46436 8.92454
#
# Compressibility (1/GPa) = 0.05370597
#
# Stress axis : x y z
#
# Youngs Moduli (GPa) = 15.61029 88.68859 57.06113
#
# Poissons Ratio (x) = 0.91868 0.00620
# Poissons Ratio (y) = 0.16170 0.51984
# Poissons Ratio (z) = 0.00170 0.80797
#
# Static dielectric constant tensor:
#      x y z
#    x 1.634990 0.000000 0.000000 
#    y 0.000000 1.689300 0.000000 
#    z 0.000000 0.000000 1.591820 
# 
# From -- ./inp_files/5274.got.cif
#   From: 2010.05.17/outbox.cif.g08.bks.cpg/sg51_3_cif.got.tgz:5274.got - 2010.06.03 11:52:47.
