data_PCOD9400115
_publ_section_title
;
Structure prediction by ZEFSAII (Michael W. Deem and Ramdas Pophale) SiO2 
 PCOD9400115
Probable space group: P M M A
;
_chemical_formula_sum "Si O2"
_cell_formula_units_Z 58
_cell_length_a 7.407115
_cell_length_b 27.191631
_cell_length_c 15.033474
_cell_angle_alpha 90.000000
_cell_angle_beta 90.000000
_cell_angle_gamma 90.000000
_cell_volume 3027.915118
_symmetry_space_group_name_H-M "P M M A"
_symmetry_group_IT_number 51
_symmetry_cell_setting 'orthorhombic'
loop_
_space_group_symop_operation_xyz
x,y,z
1/2-x,-y,z
1/2+x,-y,-z
-x,y,-z
-x,-y,-z
1/2+x,y,-z
1/2-x,y,z
x,-y,z
loop_
_atom_site_type_symbol
_atom_site_label
_atom_site_fract_x
_atom_site_fract_y
_atom_site_fract_z
Si Si1 0.034077 0.837017 0.399016
Si Si2 0.965257 0.308349 0.897167
Si Si3 0.032958 0.947797 0.857723
Si Si4 0.035224 0.577192 0.103558
Si Si5 0.453028 0.768720 0.244364
Si Si6 0.535928 0.842746 0.096169
Si Si7 0.463315 0.054025 0.353519
Si Si8 0.750000 0.500000 0.168714
O O1 0.250000 0.839854 0.382434
O O2 0.963207 0.795890 0.330100
O O3 0.963624 0.893334 0.386929
O O4 0.000000 0.822287 0.500000
O O5 0.750000 0.305865 0.888404
O O6 0.017880 0.365396 0.887976
O O7 0.038271 0.274311 0.816960
O O8 0.000000 0.293528 0.000000
O O9 0.250000 0.948147 0.865412
O O10 0.965824 0.898507 0.902707
O O11 0.988002 0.944751 0.753077
O O12 0.963014 0.000000 0.891859
O O13 0.250000 0.572101 0.120537
O O14 0.908716 0.542755 0.161407
O O15 0.000000 0.563340 0.000000
O O16 0.250000 0.752599 0.270159
O O17 0.444286 0.812792 0.173493
O O18 0.750000 0.842418 0.113392
O O19 0.500000 0.820803 0.000000
O O20 0.250000 0.053412 0.374062
O O21 0.535898 0.000000 0.383380
#
# Coordination Sequence:
#
# PCOD9400115 Si02
#       8
#     8   8   8   8   8   8   8   2
#     4  10  21  35  53  75 100 124 159 202 251 317
#     4   9  19  33  49  70  99 133 178 218 250 293
#     4   9  18  32  48  66  91 119 151 194 244 297
#     4  10  19  29  43  68 100 140 187 225 261 304
#     4  10  20  37  55  71  95 131 166 209 260 295
#     4  11  22  33  48  72  94 121 162 204 245 300
#     4   9  17  31  51  72  93 120 151 190 244 308
#     4  12  20  28  46  70 104 146 184 226 264 298
#
# _framework density 19.155094999999999
#
# number of rings (size 3 to 8) (size 9 to 14) (size 15 to 20)
#    0.000    2.207    2.069    1.241    0.966    3.862 
#    0.000    0.000    0.000    0.000    0.000    0.000 
#    0.000    0.000    0.000    0.621    5.241    2.966 
#
# Total GULP energy -322965.537706 kJ/mol
# GULP energy per Si atom -5568.371340 kJ/mol
# Density = 1.911150 g / cm^3
# Si number density = 19.155095 Si / 1000 Ang^3
#
#
#
# Elastic Constant Matrix: (Units=GPa)
#
#
# Indices 1 2 3 4 5 6 
#
# 1 89.1735 20.0600 -3.0845 0.0000 0.0000 0.0000
# 2 20.0600 127.7614 43.6519 0.0000 0.0000 0.0000
# 3 -3.0845 43.6519 96.9863 0.0000 0.0000 0.0000
# 4 0.0000 0.0000 0.0000 -24.7324 0.0000 0.0000
# 5 0.0000 0.0000 0.0000 0.0000 8.3231 0.0000
# 6 0.0000 0.0000 0.0000 0.0000 0.0000 18.4405
#
#
#
# Elastic Compliance Matrix: (Units=1/GPa)
#
#
# Indices 1 2 3 4 5 6 
#
# 1 0.011790 -0.002339 0.001428 0.000000 0.000000 0.000000
# 2 -0.002339 0.009713 -0.004446 0.000000 0.000000 0.000000
# 3 0.001428 -0.004446 0.012357 0.000000 0.000000 0.000000
# 4 0.000000 0.000000 0.000000 -0.040433 0.000000 0.000000
# 5 0.000000 0.000000 0.000000 0.000000 0.120147 0.000000
# 6 0.000000 0.000000 0.000000 0.000000 0.000000 0.054229
#
#
# Mechanical properties :
#
#
# Convention : Reuss Voigt Hill
#
# Bulk Modulus (GPa) = 43.20510 48.35289 45.77900
# Shear Modulus (GPa) = 26.84804 17.29248 22.07026
#
# Velocity S-wave (km/s) = 3.74787 3.00786 3.39807
# Velocity P-wave (km/s) = 6.42908 6.11233 6.27271
#
# Compressibility (1/GPa) = 0.02314541
#
# Stress axis : x y z
#
# Youngs Moduli (GPa) = 84.82042 102.94988 80.92367
#
# Poissons Ratio (x) = 0.24079 -0.11553
# Poissons Ratio (y) = 0.19838 0.35981
# Poissons Ratio (z) = -0.12109 0.45774
#
# Static dielectric constant tensor:
#      x y z
#    x 1.546910 0.000000 0.000000 
#    y 0.000000 1.715980 0.000000 
#    z 0.000000 0.000000 1.645250 
# 
# From -- ./inp_files/22493.got.cif
#   From: 2010.05.17/outbox.cif.g08.bks.cpg/sg51_12_cif.got.tgz:22493.got - 2010.06.03 11:52:47.
