data_PCOD9400678
_publ_section_title
;
Structure prediction by ZEFSAII (Michael W. Deem and Ramdas Pophale) SiO2 
 PCOD9400678
Probable space group: P M M A
;
_chemical_formula_sum "Si O2"
_cell_formula_units_Z 52
_cell_length_a 8.044273
_cell_length_b 27.875087
_cell_length_c 13.997130
_cell_angle_alpha 90.000000
_cell_angle_beta 90.000000
_cell_angle_gamma 90.000000
_cell_volume 3138.643782
_symmetry_space_group_name_H-M "P M M A"
_symmetry_group_IT_number 51
_symmetry_cell_setting 'orthorhombic'
loop_
_space_group_symop_operation_xyz
x,y,z
1/2-x,-y,z
1/2+x,-y,-z
-x,y,-z
-x,-y,-z
1/2+x,y,-z
1/2-x,y,z
x,-y,z
loop_
_atom_site_type_symbol
_atom_site_label
_atom_site_fract_x
_atom_site_fract_y
_atom_site_fract_z
Si Si1 0.050670 0.753588 0.704258
Si Si2 0.448430 0.148303 0.608043
Si Si3 0.548709 0.000000 0.889225
Si Si4 0.450680 0.448417 0.611774
Si Si5 0.951198 0.344015 0.388868
Si Si6 0.448430 0.196890 0.107748
Si Si7 0.449612 0.098744 0.203323
O O1 0.250000 0.752834 0.693376
O O2 0.987294 0.799151 0.642451
O O3 0.986104 0.702592 0.667302
O O4 0.010963 0.765535 0.813710
O O5 0.500000 0.138280 0.500000
O O6 0.250000 0.149508 0.612542
O O7 0.508455 0.110389 0.687014
O O8 0.487468 0.951639 0.837324
O O9 0.750000 0.000000 0.884112
O O10 0.500000 0.000000 0.000000
O O11 0.500000 0.448411 0.500000
O O12 0.250000 0.448557 0.617986
O O13 0.510265 0.500000 0.651776
O O14 0.509531 0.396407 0.648266
O O15 0.750000 0.344177 0.384169
O O16 0.000000 0.339580 0.500000
O O17 0.250000 0.195935 0.112975
O O18 0.512281 0.144367 0.141847
O O19 0.500000 0.206952 0.000000
O O20 0.250000 0.098116 0.194751
#
# Coordination Sequence:
#
# PCOD9400678 Si02
#       7
#     8   8   4   8   8   8   8
#     4   9  18  30  43  62  87 114 145 178 212 252
#     4  10  19  31  48  67  89 118 149 181 214 250
#     4  10  20  34  53  74  95 116 139 174 216 256
#     4   8  13  21  33  50  74 106 142 175 207 244
#     4   9  16  25  38  57  83 114 145 178 212 246
#     4  10  19  31  48  67  88 113 139 170 209 253
#     4   9  19  34  50  70  93 116 143 173 207 250
#
# _framework density 16.567664000000001
#
# number of rings (size 3 to 8) (size 9 to 14) (size 15 to 20)
#    0.000    2.769    0.000    1.846    0.000    2.462 
#    0.000    0.385    0.000    0.000    0.000    0.000 
#    0.000    0.615    0.000    1.077    0.000    1.846 
#
# Total GULP energy -289667.290407 kJ/mol
# GULP energy per Si atom -5570.524816 kJ/mol
# Density = 1.652996 g / cm^3
# Si number density = 16.567664 Si / 1000 Ang^3
#
#
#
# Elastic Constant Matrix: (Units=GPa)
#
#
# Indices 1 2 3 4 5 6 
#
# 1 5.9878 10.8151 -6.9747 0.0000 0.0000 0.0000
# 2 10.8151 171.8584 76.3825 0.0000 0.0000 0.0000
# 3 -6.9747 76.3825 103.3023 0.0000 0.0000 0.0000
# 4 0.0000 0.0000 0.0000 38.2505 0.0000 0.0000
# 5 0.0000 0.0000 0.0000 0.0000 19.0819 0.0000
# 6 0.0000 0.0000 0.0000 0.0000 0.0000 4.1993
#
#
#
# Elastic Compliance Matrix: (Units=1/GPa)
#
#
# Indices 1 2 3 4 5 6 
#
# 1 0.302492 -0.041874 0.051386 0.000000 0.000000 0.000000
# 2 -0.041874 0.014464 -0.013522 0.000000 0.000000 0.000000
# 3 0.051386 -0.013522 0.023148 0.000000 0.000000 0.000000
# 4 0.000000 0.000000 0.000000 0.026143 0.000000 0.000000
# 5 0.000000 0.000000 0.000000 0.000000 0.052406 0.000000
# 6 0.000000 0.000000 0.000000 0.000000 0.000000 0.238134
#
#
# Mechanical properties :
#
#
# Convention : Reuss Voigt Hill
#
# Bulk Modulus (GPa) = 3.01130 49.06603 26.03867
# Shear Modulus (GPa) = 6.44745 25.70138 16.07441
#
# Velocity S-wave (km/s) = 1.97485 3.94292 3.11823
# Velocity P-wave (km/s) = 2.64982 7.09991 5.35865
#
# Compressibility (1/GPa) = 0.33208236
#
# Stress axis : x y z
#
# Youngs Moduli (GPa) = 3.30588 69.13883 43.20053
#
# Poissons Ratio (x) = 2.89513 -2.21988
# Poissons Ratio (y) = 0.13843 0.58415
# Poissons Ratio (z) = -0.16987 0.93488
#
# Static dielectric constant tensor:
#      x y z
#    x 1.570890 0.000000 0.000000 
#    y 0.000000 1.615290 0.000000 
#    z 0.000000 0.000000 1.518960 
# 
# From -- ./inp_files/14624.got.cif
#   From: 2010.05.17/outbox.cif.g08.bks.cpg/sg51_8_cif.got.tgz:14624.got - 2010.06.03 11:52:47.
