data_PCOD9400683
_publ_section_title
;
Structure prediction by ZEFSAII (Michael W. Deem and Ramdas Pophale) SiO2 
 PCOD9400683
Probable space group: P M M A
;
_chemical_formula_sum "Si O2"
_cell_formula_units_Z 64
_cell_length_a 14.358056
_cell_length_b 7.582226
_cell_length_c 31.937076
_cell_angle_alpha 90.000000
_cell_angle_beta 90.000000
_cell_angle_gamma 90.000000
_cell_volume 3476.862531
_symmetry_space_group_name_H-M "P M M A"
_symmetry_group_IT_number 51
_symmetry_cell_setting 'orthorhombic'
loop_
_space_group_symop_operation_xyz
x,y,z
1/2-x,-y,z
1/2+x,-y,-z
-x,y,-z
-x,-y,-z
1/2+x,y,-z
1/2-x,y,z
x,-y,z
loop_
_atom_site_type_symbol
_atom_site_label
_atom_site_fract_x
_atom_site_fract_y
_atom_site_fract_z
Si Si1 0.355713 0.214514 0.105881
Si Si2 0.856301 0.284903 0.645916
Si Si3 0.534258 0.284797 0.565823
Si Si4 0.854815 0.711064 0.740986
Si Si5 0.855533 0.710284 0.121886
Si Si6 0.017420 0.295419 0.954269
Si Si7 0.980213 0.208665 0.818077
Si Si8 0.144793 0.715226 0.517234
O O1 0.250000 0.271129 0.103384
O O2 0.418822 0.285725 0.068866
O O3 0.404062 0.276427 0.148641
O O4 0.641576 0.000000 0.895308
O O5 0.750000 0.236609 0.634746
O O6 0.859562 0.500000 0.646153
O O7 0.927349 0.223702 0.610388
O O8 0.873424 0.225697 0.693579
O O9 0.533834 0.500000 0.566514
O O10 0.431219 0.228648 0.551631
O O11 0.603927 0.233791 0.528150
O O12 0.750000 0.775140 0.753922
O O13 0.848298 0.500000 0.739016
O O14 0.938509 0.749533 0.772749
O O15 0.750000 0.778492 0.125660
O O16 0.850227 0.500000 0.116399
O O17 0.910168 0.780092 0.080417
O O18 0.920049 0.735773 0.163002
O O19 0.045245 0.500000 0.960849
O O20 0.000000 0.214421 0.000000
O O21 0.981375 0.000000 0.821066
O O22 0.250000 0.776288 0.523624
O O23 0.145973 0.500000 0.517637
#
# Coordination Sequence:
#
# PCOD9400683 Si02
#       8
#     8   8   8   8   8   8   8   8
#     4   9  18  31  45  63  88 116 143 171 207 251
#     4   8  13  21  33  49  70  98 132 167 202 246
#     4   8  12  17  26  40  60  90 126 163 202 243
#     4   9  17  28  43  64  88 114 144 177 216 265
#     4   9  18  33  51  69  91 120 152 185 218 250
#     4   9  18  31  47  69  94 118 145 176 210 249
#     4  10  19  31  48  68  90 114 142 179 220 262
#     4   8  12  16  23  38  60  87 122 162 202 245
#
# _framework density 18.407401
#
# number of rings (size 3 to 8) (size 9 to 14) (size 15 to 20)
#    0.000    3.250    0.000    2.625    0.000    4.000 
#    0.000    1.250    0.000    0.750    0.000    3.500 
#    0.000    0.000    0.000    2.250    0.000    7.000 
#
# Total GULP energy -356431.146637 kJ/mol
# GULP energy per Si atom -5569.236666 kJ/mol
# Density = 1.836550 g / cm^3
# Si number density = 18.407401 Si / 1000 Ang^3
#
#
#
# Elastic Constant Matrix: (Units=GPa)
#
#
# Indices 1 2 3 4 5 6 
#
# 1 172.0543 5.7166 93.1557 0.0000 0.0000 0.0000
# 2 5.7166 40.1282 3.3101 0.0000 0.0000 0.0000
# 3 93.1557 3.3101 126.5106 0.0000 0.0000 0.0000
# 4 0.0000 0.0000 0.0000 -10.8854 0.0000 0.0000
# 5 0.0000 0.0000 0.0000 0.0000 12.2004 0.0000
# 6 0.0000 0.0000 0.0000 0.0000 0.0000 20.6201
#
#
#
# Elastic Compliance Matrix: (Units=1/GPa)
#
#
# Indices 1 2 3 4 5 6 
#
# 1 0.009691 -0.000794 -0.007115 0.000000 0.000000 0.000000
# 2 -0.000794 0.025039 -0.000071 0.000000 0.000000 0.000000
# 3 -0.007115 -0.000071 0.013145 0.000000 0.000000 0.000000
# 4 0.000000 0.000000 0.000000 -0.091866 0.000000 0.000000
# 5 0.000000 0.000000 0.000000 0.000000 0.081964 0.000000
# 6 0.000000 0.000000 0.000000 0.000000 0.000000 0.048496
#
#
# Mechanical properties :
#
#
# Convention : Reuss Voigt Hill
#
# Bulk Modulus (GPa) = 31.33179 60.33976 45.83577
# Shear Modulus (GPa) = 44.22152 20.15442 32.18797
#
# Velocity S-wave (km/s) = 4.90672 3.31253 4.18621
# Velocity P-wave (km/s) = 7.01138 6.89070 6.95130
#
# Compressibility (1/GPa) = 0.03191646
#
# Stress axis : x y z
#
# Youngs Moduli (GPa) = 103.19085 39.93767 76.07196
#
# Poissons Ratio (x) = 0.03170 0.54125
# Poissons Ratio (y) = 0.08189 0.00538
# Poissons Ratio (z) = 0.73420 0.00283
#
# Static dielectric constant tensor:
#      x y z
#    x 1.650190 0.000000 0.000000 
#    y 0.000000 1.686650 0.000000 
#    z 0.000000 0.000000 1.648950 
# 
# From -- ./inp_files/37826.got.cif
#   From: 2010.05.17/outbox.cif.g08.bks.cpg/sg51_19_cif.got.tgz:37826.got - 2010.06.03 11:52:47.
