data_PCOD9400563
_publ_section_title
;
Structure prediction by ZEFSAII (Michael W. Deem and Ramdas Pophale) SiO2 
 PCOD9400563
Probable space group: P M M A
;
_chemical_formula_sum "Si O2"
_cell_formula_units_Z 48
_cell_length_a 8.882775
_cell_length_b 17.840843
_cell_length_c 16.007273
_cell_angle_alpha 90.000000
_cell_angle_beta 90.000000
_cell_angle_gamma 90.000000
_cell_volume 2536.771704
_symmetry_space_group_name_H-M "P M M A"
_symmetry_group_IT_number 51
_symmetry_cell_setting 'orthorhombic'
loop_
_space_group_symop_operation_xyz
x,y,z
1/2-x,-y,z
1/2+x,-y,-z
-x,y,-z
-x,-y,-z
1/2+x,y,-z
1/2-x,y,z
x,-y,z
loop_
_atom_site_type_symbol
_atom_site_label
_atom_site_fract_x
_atom_site_fract_y
_atom_site_fract_z
Si Si1 0.078519 0.388963 0.915856
Si Si2 0.067895 0.327596 0.413318
Si Si3 0.922916 0.209245 0.088031
Si Si4 0.432873 0.785342 0.720420
Si Si5 0.430507 0.914103 0.589205
Si Si6 0.568050 0.500000 0.612724
Si Si7 0.071602 0.500000 0.201613
O O1 0.250000 0.413709 0.912001
O O2 0.076807 0.299634 0.915394
O O3 0.986316 0.425919 0.842684
O O4 0.000000 0.414700 0.000000
O O5 0.250000 0.321919 0.413162
O O6 0.023798 0.416143 0.415141
O O7 0.000000 0.294996 0.500000
O O8 0.003846 0.284835 0.331065
O O9 0.750000 0.182280 0.086126
O O10 0.982763 0.197650 0.183409
O O11 0.000000 0.184219 0.000000
O O12 0.250000 0.774645 0.723604
O O13 0.469929 0.856664 0.662381
O O14 0.500000 0.892956 0.500000
O O15 0.250000 0.912685 0.581138
O O16 0.476774 0.000000 0.607607
O O17 0.750000 0.500000 0.606156
O O18 0.512014 0.500000 0.706400
O O19 0.250000 0.500000 0.202659
#
# Coordination Sequence:
#
# PCOD9400563 Si02
#       7
#     8   8   8   8   8   4   4
#     4  10  19  31  45  63  87 117 155 201 255 306
#     4  11  22  37  55  76 103 137 177 219 265 313
#     4   9  19  34  52  73  99 131 168 211 255 303
#     4  10  20  35  55  81 109 137 175 219 262 311
#     4   9  18  33  54  80 111 144 174 208 255 310
#     4   9  21  37  51  68  95 133 173 212 255 307
#     4  11  20  31  46  64  86 115 156 204 253 305
#
# _framework density 18.921688
#
# number of rings (size 3 to 8) (size 9 to 14) (size 15 to 20)
#    0.000    2.167    0.000    3.250    0.000    3.333 
#    0.000    3.750    0.000    0.500    0.000    0.000 
#    0.000    0.000    0.000    0.000    0.000    0.000 
#
# Total GULP energy -267315.492709 kJ/mol
# GULP energy per Si atom -5569.072765 kJ/mol
# Density = 1.887862 g / cm^3
# Si number density = 18.921688 Si / 1000 Ang^3
#
#
#
# Elastic Constant Matrix: (Units=GPa)
#
#
# Indices 1 2 3 4 5 6 
#
# 1 21.3004 16.0526 35.1142 0.0000 0.0000 0.0000
# 2 16.0526 77.0787 50.0307 0.0000 0.0000 0.0000
# 3 35.1142 50.0307 186.2228 0.0000 0.0000 0.0000
# 4 0.0000 0.0000 0.0000 -3.5720 0.0000 0.0000
# 5 0.0000 0.0000 0.0000 0.0000 25.2077 0.0000
# 6 0.0000 0.0000 0.0000 0.0000 0.0000 15.5308
#
#
#
# Elastic Compliance Matrix: (Units=1/GPa)
#
#
# Indices 1 2 3 4 5 6 
#
# 1 0.071475 -0.007434 -0.011480 0.000000 0.000000 0.000000
# 2 -0.007434 0.016487 -0.003028 0.000000 0.000000 0.000000
# 3 -0.011480 -0.003028 0.008348 0.000000 0.000000 0.000000
# 4 0.000000 0.000000 0.000000 -0.279952 0.000000 0.000000
# 5 0.000000 0.000000 0.000000 0.000000 0.039670 0.000000
# 6 0.000000 0.000000 0.000000 0.000000 0.000000 0.064388
#
#
# Mechanical properties :
#
#
# Convention : Reuss Voigt Hill
#
# Bulk Modulus (GPa) = 19.07419 54.11074 36.59247
# Shear Modulus (GPa) = -274.37452 19.66026 -127.35713
#
# Velocity S-wave (km/s) = -12.05488 3.22690 -8.21301
# Velocity P-wave (km/s) = 13.55204 6.52251 8.39984
#
# Compressibility (1/GPa) = 0.05242686
#
# Stress axis : x y z
#
# Youngs Moduli (GPa) = 13.99084 60.65313 119.78859
#
# Poissons Ratio (x) = 0.45089 1.37520
# Poissons Ratio (y) = 0.10401 0.36268
# Poissons Ratio (z) = 0.16062 0.18364
#
# Static dielectric constant tensor:
#      x y z
#    x 1.645600 0.000000 0.000000 
#    y 0.000000 1.666900 0.000000 
#    z 0.000000 0.000000 1.681390 
# 
# From -- ./inp_files/21172.got.cif
#   From: 2010.05.17/outbox.cif.g08.bks.cpg/sg51_11_cif.got.tgz:21172.got - 2010.06.03 11:52:47.
