data_PCOD9400009
_publ_section_title
;
Structure prediction by ZEFSAII (Michael W. Deem and Ramdas Pophale) SiO2 
 PCOD9400009
Probable space group: P M M A
;
_chemical_formula_sum "Si O2"
_cell_formula_units_Z 48
_cell_length_a 19.788567
_cell_length_b 9.646100
_cell_length_c 15.425976
_cell_angle_alpha 90.000000
_cell_angle_beta 90.000000
_cell_angle_gamma 90.000000
_cell_volume 2944.548804
_symmetry_space_group_name_H-M "P M M A"
_symmetry_group_IT_number 51
_symmetry_cell_setting 'orthorhombic'
loop_
_space_group_symop_operation_xyz
x,y,z
1/2-x,-y,z
1/2+x,-y,-z
-x,y,-z
-x,-y,-z
1/2+x,y,-z
1/2-x,y,z
x,-y,z
loop_
_atom_site_type_symbol
_atom_site_label
_atom_site_fract_x
_atom_site_fract_y
_atom_site_fract_z
Si Si1 0.829878 0.339215 0.601112
Si Si2 0.429307 0.659926 0.888430
Si Si3 0.407982 0.659748 0.082114
Si Si4 0.946842 0.838628 0.274336
Si Si5 0.569098 0.336359 0.446705
Si Si6 0.109161 0.839010 0.244487
O O1 0.750000 0.327864 0.588535
O O2 0.846364 0.500000 0.623543
O O3 0.870205 0.307644 0.513137
O O4 0.854269 0.241074 0.678118
O O5 0.411565 0.500000 0.868200
O O6 0.510644 0.662045 0.903381
O O7 0.415501 0.761900 0.809183
O O8 0.397219 0.697685 0.981426
O O9 0.386343 0.500000 0.095311
O O10 0.377831 0.761389 0.153624
O O11 0.928933 0.756836 0.361560
O O12 0.028445 0.831574 0.262938
O O13 0.928036 0.000000 0.278449
O O14 0.500000 0.310642 0.500000
O O15 0.569849 0.500000 0.423266
O O16 0.128266 0.000000 0.240741
#
# Coordination Sequence:
#
# PCOD9400009 Si02
#       6
#     8   8   8   8   8   8
#     4  10  21  36  52  70  93 123 162 205 244 287
#     4   8  14  25  41  63  92 125 159 194 231 275
#     4   8  14  25  42  63  90 125 160 192 229 274
#     4  10  19  28  43  69  99 128 158 196 241 289
#     4  10  19  32  51  71  91 123 163 202 245 293
#     4  10  19  29  44  68  97 128 158 192 238 290
#
# _framework density 16.301309
#
# number of rings (size 3 to 8) (size 9 to 14) (size 15 to 20)
#    0.000    2.667    1.667    2.000    0.000    3.333 
#    0.000    3.333    0.000    0.000    0.000    1.167 
#    0.000    4.000    0.000    0.000    0.000    0.000 
#
# Total GULP energy -267501.743110 kJ/mol
# GULP energy per Si atom -5572.952981 kJ/mol
# Density = 1.626421 g / cm^3
# Si number density = 16.301309 Si / 1000 Ang^3
#
#
#
# Elastic Constant Matrix: (Units=GPa)
#
#
# Indices 1 2 3 4 5 6 
#
# 1 23.1176 33.8947 30.8288 0.0000 0.0000 0.0000
# 2 33.8947 135.0632 129.9288 0.0000 0.0000 0.0000
# 3 30.8288 129.9288 174.8678 0.0000 0.0000 0.0000
# 4 0.0000 0.0000 0.0000 -0.3346 0.0000 0.0000
# 5 0.0000 0.0000 0.0000 0.0000 8.4423 0.0000
# 6 0.0000 0.0000 0.0000 0.0000 0.0000 11.8056
#
#
#
# Elastic Compliance Matrix: (Units=1/GPa)
#
#
# Indices 1 2 3 4 5 6 
#
# 1 0.068737 -0.019606 0.002449 0.000000 0.000000 0.000000
# 2 -0.019606 0.031550 -0.019985 0.000000 0.000000 0.000000
# 3 0.002449 -0.019985 0.020136 0.000000 0.000000 0.000000
# 4 0.000000 0.000000 0.000000 -2.988973 0.000000 0.000000
# 5 0.000000 0.000000 0.000000 0.000000 0.118451 0.000000
# 6 0.000000 0.000000 0.000000 0.000000 0.000000 0.084706
#
#
# Mechanical properties :
#
#
# Convention : Reuss Voigt Hill
#
# Bulk Modulus (GPa) = 21.67380 80.26145 50.96762
# Shear Modulus (GPa) = -1.94120 13.20908 5.63394
#
# Velocity S-wave (km/s) = -1.09243 2.84968 1.86108
# Velocity P-wave (km/s) = 3.42540 7.75697 5.99600
#
# Compressibility (1/GPa) = 0.04613866
#
# Stress axis : x y z
#
# Youngs Moduli (GPa) = 14.54824 31.69593 49.66199
#
# Poissons Ratio (x) = 0.62143 -0.12164
# Poissons Ratio (y) = 0.28523 0.99251
# Poissons Ratio (z) = -0.03563 0.63345
#
# Static dielectric constant tensor:
#      x y z
#    x 1.527490 0.000000 0.000000 
#    y 0.000000 1.544020 0.000000 
#    z 0.000000 0.000000 1.537370 
# 
# From -- ./inp_files/25440.got.cif
#   From: 2010.05.17/outbox.cif.g08.bks.cpg/sg51_13_cif.got.tgz:25440.got - 2010.06.03 11:52:47.
