data_PCOD9400022
_publ_section_title
;
Structure prediction by ZEFSAII (Michael W. Deem and Ramdas Pophale) SiO2 
 PCOD9400022
Probable space group: P M M A
;
_chemical_formula_sum "Si O2"
_cell_formula_units_Z 64
_cell_length_a 9.148333
_cell_length_b 17.715013
_cell_length_c 29.243904
_cell_angle_alpha 90.000000
_cell_angle_beta 90.000000
_cell_angle_gamma 90.000000
_cell_volume 4739.350077
_symmetry_space_group_name_H-M "P M M A"
_symmetry_group_IT_number 51
_symmetry_cell_setting 'orthorhombic'
loop_
_space_group_symop_operation_xyz
x,y,z
1/2-x,-y,z
1/2+x,-y,-z
-x,y,-z
-x,-y,-z
1/2+x,y,-z
1/2-x,y,z
x,-y,z
loop_
_atom_site_type_symbol
_atom_site_label
_atom_site_fract_x
_atom_site_fract_y
_atom_site_fract_z
Si Si1 0.085279 0.818263 0.457587
Si Si2 0.416384 0.911077 0.608522
Si Si3 0.919263 0.590688 0.451969
Si Si4 0.080815 0.907953 0.953485
Si Si5 0.916202 0.690088 0.620031
Si Si6 0.574262 0.089269 0.233846
Si Si7 0.573780 0.182125 0.686344
Si Si8 0.582795 0.091160 0.861810
O O1 0.250000 0.839708 0.469389
O O2 0.090020 0.757597 0.417135
O O3 0.000000 0.784506 0.500000
O O4 0.990697 0.887453 0.438788
O O5 0.250000 0.881359 0.611187
O O6 0.514555 0.875253 0.647993
O O7 0.412220 0.000000 0.613922
O O8 0.750000 0.613645 0.456151
O O9 0.072834 0.500000 0.552709
O O10 0.000000 0.609207 0.500000
O O11 0.987947 0.628693 0.406681
O O12 0.250000 0.884527 0.952908
O O13 0.995199 0.882220 0.908206
O O14 0.079990 0.000000 0.953056
O O15 0.000000 0.884532 0.000000
O O16 0.750000 0.662094 0.626825
O O17 0.965181 0.734092 0.666351
O O18 0.750000 0.095251 0.235649
O O19 0.500112 0.148974 0.268148
O O20 0.512526 0.105778 0.183273
O O21 0.538329 0.000000 0.244589
O O22 0.750000 0.179457 0.689432
O O23 0.750000 0.118501 0.857557
O O24 0.589953 0.000000 0.865276
#
# Coordination Sequence:
#
# PCOD9400022 Si02
#       8
#     8   8   8   8   8   8   8   8
#     4  10  20  32  45  60  76  95 119 144 173 209
#     4  10  20  32  44  57  72  91 117 148 181 217
#     4  10  20  32  48  70  91 109 126 143 168 205
#     4   9  15  22  32  46  65  89 117 150 190 238
#     4   9  19  33  47  63  81 101 123 146 173 208
#     4  10  19  29  41  57  76  98 126 161 200 239
#     4  10  20  32  45  60  76  96 123 152 185 223
#     4   9  16  25  36  50  68  91 120 155 196 238
#
# _framework density 13.503962
#
# number of rings (size 3 to 8) (size 9 to 14) (size 15 to 20)
#    0.000    2.375    0.000    4.125    0.000   11.250 
#    0.000    0.000    0.000    0.000    0.000    0.000 
#    0.000    0.000    0.000    0.000    0.000    0.000 
#
# Total GULP energy -356383.849363 kJ/mol
# GULP energy per Si atom -5568.497646 kJ/mol
# Density = 1.347323 g / cm^3
# Si number density = 13.503962 Si / 1000 Ang^3
#
#
#
# Elastic Constant Matrix: (Units=GPa)
#
#
# Indices 1 2 3 4 5 6 
#
# 1 92.5855 24.9485 47.7149 0.0000 0.0000 0.0000
# 2 24.9485 29.6846 22.8323 0.0000 0.0000 0.0000
# 3 47.7149 22.8323 88.3326 0.0000 0.0000 0.0000
# 4 0.0000 0.0000 0.0000 7.9301 0.0000 0.0000
# 5 0.0000 0.0000 0.0000 0.0000 24.0553 0.0000
# 6 0.0000 0.0000 0.0000 0.0000 0.0000 12.9831
#
#
#
# Elastic Compliance Matrix: (Units=1/GPa)
#
#
# Indices 1 2 3 4 5 6 
#
# 1 0.016633 -0.008823 -0.006704 0.000000 0.000000 0.000000
# 2 -0.008823 0.046727 -0.007312 0.000000 0.000000 0.000000
# 3 -0.006704 -0.007312 0.016832 0.000000 0.000000 0.000000
# 4 0.000000 0.000000 0.000000 0.126102 0.000000 0.000000
# 5 0.000000 0.000000 0.000000 0.000000 0.041571 0.000000
# 6 0.000000 0.000000 0.000000 0.000000 0.000000 0.077023
#
#
# Mechanical properties :
#
#
# Convention : Reuss Voigt Hill
#
# Bulk Modulus (GPa) = 28.97377 44.62156 36.79766
# Shear Modulus (GPa) = 13.08653 16.66750 14.87702
#
# Velocity S-wave (km/s) = 3.11640 3.51703 3.32275
# Velocity P-wave (km/s) = 5.86955 7.04327 6.48303
#
# Compressibility (1/GPa) = 0.03451398
#
# Stress axis : x y z
#
# Youngs Moduli (GPa) = 60.11983 21.40098 59.40910
#
# Poissons Ratio (x) = 0.18882 0.39830
# Poissons Ratio (y) = 0.53043 0.43441
# Poissons Ratio (z) = 0.40307 0.15649
#
# Static dielectric constant tensor:
#      x y z
#    x 1.467500 0.000000 0.000000 
#    y 0.000000 1.431880 0.000000 
#    z 0.000000 0.000000 1.477690 
# 
# From -- ./inp_files/36414.got.cif
#   From: 2010.05.17/outbox.cif.g08.bks.cpg/sg51_19_cif.got.tgz:36414.got - 2010.06.03 11:52:47.
