data_PCOD9400836
_publ_section_title
;
Structure prediction by ZEFSAII (Michael W. Deem and Ramdas Pophale) SiO2 
 PCOD9400836
Probable space group: P M M A
;
_chemical_formula_sum "Si O2"
_cell_formula_units_Z 64
_cell_length_a 8.915052
_cell_length_b 25.367146
_cell_length_c 15.509974
_cell_angle_alpha 90.000000
_cell_angle_beta 90.000000
_cell_angle_gamma 90.000000
_cell_volume 3507.571712
_symmetry_space_group_name_H-M "P M M A"
_symmetry_group_IT_number 51
_symmetry_cell_setting 'orthorhombic'
loop_
_space_group_symop_operation_xyz
x,y,z
1/2-x,-y,z
1/2+x,-y,-z
-x,y,-z
-x,-y,-z
1/2+x,y,-z
1/2-x,y,z
x,-y,z
loop_
_atom_site_type_symbol
_atom_site_label
_atom_site_fract_x
_atom_site_fract_y
_atom_site_fract_z
Si Si1 0.069868 0.183926 0.910833
Si Si2 0.070989 0.229170 0.587230
Si Si3 0.573755 0.293430 0.858166
Si Si4 0.930484 0.858279 0.274697
Si Si5 0.074659 0.587340 0.087975
Si Si6 0.430849 0.442365 0.730127
Si Si7 0.931342 0.330009 0.321145
Si Si8 0.072356 0.937353 0.407992
O O1 0.250000 0.184369 0.916097
O O2 0.025435 0.151595 0.824583
O O3 0.011832 0.243781 0.897726
O O4 0.000000 0.163576 0.000000
O O5 0.250000 0.227397 0.579047
O O6 0.030369 0.193731 0.669480
O O7 0.023415 0.289449 0.604691
O O8 0.000000 0.208451 0.500000
O O9 0.750000 0.280685 0.850678
O O10 0.561414 0.348817 0.908470
O O11 0.501923 0.306860 0.765923
O O12 0.750000 0.864045 0.276585
O O13 0.003276 0.905839 0.327795
O O14 0.250000 0.573940 0.090617
O O15 0.994888 0.566109 0.173809
O O16 0.000000 0.568220 0.000000
O O17 0.250000 0.441624 0.735254
O O18 0.478104 0.500000 0.697881
O O19 0.476679 0.391230 0.674585
O O20 0.750000 0.327628 0.313898
O O21 0.250000 0.927852 0.412342
O O22 0.000000 0.921761 0.500000
O O23 0.046322 0.000000 0.397596
#
# Coordination Sequence:
#
# PCOD9400836 Si02
#       8
#     8   8   8   8   8   8   8   8
#     4  11  22  36  53  77 110 148 189 231 274 321
#     4  10  20  34  52  79 110 143 174 211 266 324
#     4  10  19  31  49  73  99 133 177 217 261 316
#     4  10  21  37  56  81 115 151 188 228 274 323
#     4  10  20  31  44  65  92 124 161 206 259 314
#     4   9  18  32  51  70  86 117 165 211 260 316
#     4   9  17  33  52  70 101 135 165 212 265 316
#     4  10  21  37  59  88 120 154 192 232 276 326
#
# _framework density 18.246241999999999
#
# number of rings (size 3 to 8) (size 9 to 14) (size 15 to 20)
#    0.000    2.125    1.250    2.250    0.000    6.750 
#    0.000    0.000    0.000    0.750    0.000    0.000 
#    0.000    0.000    0.000    0.000    0.000    0.000 
#
# Total GULP energy -357058.130473 kJ/mol
# GULP energy per Si atom -5579.033289 kJ/mol
# Density = 1.820471 g / cm^3
# Si number density = 18.246242 Si / 1000 Ang^3
#
#
#
# Elastic Constant Matrix: (Units=GPa)
#
#
# Indices 1 2 3 4 5 6 
#
# 1 24.0928 37.5517 32.7795 0.0000 0.0000 0.0000
# 2 37.5517 92.6908 51.9311 0.0000 0.0000 0.0000
# 3 32.7795 51.9311 111.1518 0.0000 0.0000 0.0000
# 4 0.0000 0.0000 0.0000 4.1631 0.0000 0.0000
# 5 0.0000 0.0000 0.0000 0.0000 23.9127 0.0000
# 6 0.0000 0.0000 0.0000 0.0000 0.0000 18.3935
#
#
#
# Elastic Compliance Matrix: (Units=1/GPa)
#
#
# Indices 1 2 3 4 5 6 
#
# 1 0.138896 -0.045137 -0.019873 0.000000 0.000000 0.000000
# 2 -0.045137 0.029282 -0.000370 0.000000 0.000000 0.000000
# 3 -0.019873 -0.000370 0.015030 0.000000 0.000000 0.000000
# 4 0.000000 0.000000 0.000000 0.240203 0.000000 0.000000
# 5 0.000000 0.000000 0.000000 0.000000 0.041819 0.000000
# 6 0.000000 0.000000 0.000000 0.000000 0.000000 0.054367
#
#
# Mechanical properties :
#
#
# Convention : Reuss Voigt Hill
#
# Bulk Modulus (GPa) = 19.06611 52.49556 35.78083
# Shear Modulus (GPa) = 7.48684 16.33875 11.91280
#
# Velocity S-wave (km/s) = 2.02784 2.99567 2.55794
# Velocity P-wave (km/s) = 3.99435 6.38737 5.32697
#
# Compressibility (1/GPa) = 0.05244907
#
# Stress axis : x y z
#
# Youngs Moduli (GPa) = 7.19964 34.15095 66.53304
#
# Poissons Ratio (x) = 1.54146 1.32222
# Poissons Ratio (y) = 0.32497 0.02459
# Poissons Ratio (z) = 0.14308 0.01262
#
# Static dielectric constant tensor:
#      x y z
#    x 1.606320 0.000000 0.000000 
#    y 0.000000 1.658670 0.000000 
#    z 0.000000 0.000000 1.606460 
# 
# From -- ./inp_files/22266.got.cif
#   From: 2010.05.17/outbox.cif.g08.bks.cpg/sg51_12_cif.got.tgz:22266.got - 2010.06.03 11:52:47.
