data_PCOD9400786
_publ_section_title
;
Structure prediction by ZEFSAII (Michael W. Deem and Ramdas Pophale) SiO2 
 PCOD9400786
Probable space group: P M M A
;
_chemical_formula_sum "Si O2"
_cell_formula_units_Z 48
_cell_length_a 14.850237
_cell_length_b 9.669784
_cell_length_c 15.936314
_cell_angle_alpha 90.000000
_cell_angle_beta 90.000000
_cell_angle_gamma 90.000000
_cell_volume 2288.432127
_symmetry_space_group_name_H-M "P M M A"
_symmetry_group_IT_number 51
_symmetry_cell_setting 'orthorhombic'
loop_
_space_group_symop_operation_xyz
x,y,z
1/2-x,-y,z
1/2+x,-y,-z
-x,y,-z
-x,-y,-z
1/2+x,y,-z
1/2-x,y,z
x,-y,z
loop_
_atom_site_type_symbol
_atom_site_label
_atom_site_fract_x
_atom_site_fract_y
_atom_site_fract_z
Si Si1 0.358644 0.658166 0.318701
Si Si2 0.602990 0.843054 0.840526
Si Si3 0.889704 0.340692 0.996720
Si Si4 0.889092 0.842185 0.152186
Si Si5 0.642302 0.844165 0.340119
Si Si6 0.140099 0.341542 0.507661
O O1 0.250000 0.653582 0.318793
O O2 0.390131 0.500000 0.301565
O O3 0.385848 0.765641 0.247706
O O4 0.386885 0.698502 0.413162
O O5 0.639033 0.746317 0.915105
O O6 0.496440 0.852815 0.856917
O O7 0.638926 0.000000 0.840168
O O8 0.860775 0.500000 0.993217
O O9 0.857710 0.259667 0.079418
O O10 0.000000 0.342702 0.000000
O O11 0.872006 0.788735 0.246271
O O12 0.853351 0.000000 0.145516
O O13 0.750000 0.853129 0.351031
O O14 0.607213 0.753306 0.416690
O O15 0.604553 0.000000 0.341993
O O16 0.250000 0.339068 0.508784
O O17 0.112859 0.500000 0.521505
#
# Coordination Sequence:
#
# PCOD9400786 Si02
#       6
#     8   8   8   8   8   8
#     4   9  18  33  51  70  94 123 155 194 236 276
#     4  10  19  31  49  71  95 124 156 192 235 283
#     4   9  17  30  49  70  91 121 161 197 230 276
#     4   9  18  32  48  69  97 125 155 194 238 279
#     4   9  17  30  49  71  94 122 156 193 231 272
#     4   8  15  29  48  68  91 121 155 190 230 276
#
# _framework density 20.975059000000002
#
# number of rings (size 3 to 8) (size 9 to 14) (size 15 to 20)
#    0.000    3.000    0.000    2.000    0.000    4.333 
#    0.000    3.333    0.000    8.000    0.000    0.000 
#    0.000    0.000    0.000    0.000    0.000    0.000 
#
# Total GULP energy -267832.342260 kJ/mol
# GULP energy per Si atom -5579.840464 kJ/mol
# Density = 2.092732 g / cm^3
# Si number density = 20.975059 Si / 1000 Ang^3
#
#
#
# Elastic Constant Matrix: (Units=GPa)
#
#
# Indices 1 2 3 4 5 6 
#
# 1 50.4910 6.4819 -4.3462 0.0000 0.0000 0.0000
# 2 6.4819 155.3643 142.8420 0.0000 0.0000 0.0000
# 3 -4.3462 142.8420 217.5533 0.0000 0.0000 0.0000
# 4 0.0000 0.0000 0.0000 40.2157 0.0000 0.0000
# 5 0.0000 0.0000 0.0000 0.0000 21.9218 0.0000
# 6 0.0000 0.0000 0.0000 0.0000 0.0000 1.2058
#
#
#
# Elastic Compliance Matrix: (Units=1/GPa)
#
#
# Indices 1 2 3 4 5 6 
#
# 1 0.020413 -0.003095 0.002440 0.000000 0.000000 0.000000
# 2 -0.003095 0.016709 -0.011033 0.000000 0.000000 0.000000
# 3 0.002440 -0.011033 0.011889 0.000000 0.000000 0.000000
# 4 0.000000 0.000000 0.000000 0.024866 0.000000 0.000000
# 5 0.000000 0.000000 0.000000 0.000000 0.045617 0.000000
# 6 0.000000 0.000000 0.000000 0.000000 0.000000 0.829342
#
#
# Mechanical properties :
#
#
# Convention : Reuss Voigt Hill
#
# Bulk Modulus (GPa) = 39.00814 79.26268 59.13541
# Shear Modulus (GPa) = 5.09811 31.23072 18.16442
#
# Velocity S-wave (km/s) = 1.56072 3.86287 2.94598
# Velocity P-wave (km/s) = 4.67820 7.60044 6.31080
#
# Compressibility (1/GPa) = 0.02563567
#
# Stress axis : x y z
#
# Youngs Moduli (GPa) = 48.98881 59.84745 84.10947
#
# Poissons Ratio (x) = 0.18522 -0.20521
# Poissons Ratio (y) = 0.15161 0.92796
# Poissons Ratio (z) = -0.11952 0.66028
#
# Static dielectric constant tensor:
#      x y z
#    x 1.808880 0.000000 0.000000 
#    y 0.000000 1.738050 0.000000 
#    z 0.000000 0.000000 1.730410 
# 
# From -- ./inp_files/24800.got.cif
#   From: 2010.05.17/outbox.cif.g08.bks.cpg/sg51_13_cif.got.tgz:24800.got - 2010.06.03 11:52:47.
