data_PCOD9400411
_publ_section_title
;
Structure prediction by ZEFSAII (Michael W. Deem and Ramdas Pophale) SiO2 
 PCOD9400411
Probable space group: P M M A
;
_chemical_formula_sum "Si O2"
_cell_formula_units_Z 52
_cell_length_a 16.271626
_cell_length_b 13.074415
_cell_length_c 12.786637
_cell_angle_alpha 90.000000
_cell_angle_beta 90.000000
_cell_angle_gamma 90.000000
_cell_volume 2720.254614
_symmetry_space_group_name_H-M "P M M A"
_symmetry_group_IT_number 51
_symmetry_cell_setting 'orthorhombic'
loop_
_space_group_symop_operation_xyz
x,y,z
1/2-x,-y,z
1/2+x,-y,-z
-x,y,-z
-x,-y,-z
1/2+x,y,-z
1/2-x,y,z
x,-y,z
loop_
_atom_site_type_symbol
_atom_site_label
_atom_site_fract_x
_atom_site_fract_y
_atom_site_fract_z
Si Si1 0.077955 0.883380 0.788627
Si Si2 0.000000 0.743752 0.500000
Si Si3 0.347476 0.172155 0.008027
Si Si4 0.652660 0.891512 0.761009
Si Si5 0.656400 0.880079 0.429782
Si Si6 0.948528 0.286870 0.716100
Si Si7 0.653286 0.614824 0.892972
O O1 0.110278 0.869839 0.905558
O O2 0.145733 0.874620 0.696786
O O3 0.016015 0.789723 0.766320
O O4 0.045200 0.000000 0.778340
O O5 0.079308 0.814924 0.526796
O O6 0.019017 0.678877 0.395961
O O7 0.250000 0.155020 0.998237
O O8 0.374663 0.121989 0.117876
O O9 0.361809 0.293543 0.025495
O O10 0.750000 0.890716 0.765075
O O11 0.623991 0.794908 0.697068
O O12 0.625773 0.000000 0.717196
O O13 0.750000 0.848488 0.458498
O O14 0.647216 0.000000 0.458657
O O15 0.909277 0.365866 0.797193
O O16 0.750000 0.626539 0.860118
O O17 0.643550 0.500000 0.934000
#
# Coordination Sequence:
#
# PCOD9400411 Si02
#       7
#     8   4   8   8   8   8   8
#     4  10  19  30  46  71 106 143 173 201 238 294
#     4  10  21  34  49  70 100 132 170 220 266 306
#     4   9  17  30  49  72  98 130 168 206 247 297
#     4   9  17  28  43  66  95 126 161 200 242 291
#     4   9  18  31  47  69  99 139 183 218 250 293
#     4  10  20  34  48  69  98 130 165 207 255 301
#     4   9  19  37  58  77  97 123 160 207 256 307
#
# _framework density 19.115857999999999
#
# number of rings (size 3 to 8) (size 9 to 14) (size 15 to 20)
#    0.000    2.615    0.000    3.000    0.000    7.077 
#    0.000    7.308    0.000    0.000    0.000    0.000 
#    0.000    8.615    0.000    0.000    0.000    0.000 
#
# Total GULP energy -289677.669773 kJ/mol
# GULP energy per Si atom -5570.724419 kJ/mol
# Density = 1.907235 g / cm^3
# Si number density = 19.115858 Si / 1000 Ang^3
#
#
#
# Elastic Constant Matrix: (Units=GPa)
#
#
# Indices 1 2 3 4 5 6 
#
# 1 73.6157 1.1105 17.9087 0.0000 0.0000 0.0000
# 2 1.1105 52.6272 -10.5886 0.0000 0.0000 0.0000
# 3 17.9087 -10.5886 84.4849 0.0000 0.0000 0.0000
# 4 0.0000 0.0000 0.0000 5.1720 0.0000 0.0000
# 5 0.0000 0.0000 0.0000 0.0000 16.8315 0.0000
# 6 0.0000 0.0000 0.0000 0.0000 0.0000 27.9479
#
#
#
# Elastic Compliance Matrix: (Units=1/GPa)
#
#
# Indices 1 2 3 4 5 6 
#
# 1 0.014368 -0.000940 -0.003163 0.000000 0.000000 0.000000
# 2 -0.000940 0.019555 0.002650 0.000000 0.000000 0.000000
# 3 -0.003163 0.002650 0.012839 0.000000 0.000000 0.000000
# 4 0.000000 0.000000 0.000000 0.193347 0.000000 0.000000
# 5 0.000000 0.000000 0.000000 0.000000 0.059412 0.000000
# 6 0.000000 0.000000 0.000000 0.000000 0.000000 0.035781
#
#
# Mechanical properties :
#
#
# Convention : Reuss Voigt Hill
#
# Bulk Modulus (GPa) = 22.80221 25.28767 24.04494
# Shear Modulus (GPa) = 14.17127 23.47678 18.82403
#
# Velocity S-wave (km/s) = 2.72570 3.50827 3.14145
# Velocity P-wave (km/s) = 4.67550 5.44683 5.07584
#
# Compressibility (1/GPa) = 0.04385540
#
# Stress axis : x y z
#
# Youngs Moduli (GPa) = 69.60010 51.13889 77.88703
#
# Poissons Ratio (x) = 0.04805 0.24639
# Poissons Ratio (y) = 0.06540 -0.20640
# Poissons Ratio (z) = 0.22017 -0.13552
#
# Static dielectric constant tensor:
#      x y z
#    x 1.728390 0.000000 0.000000 
#    y 0.000000 1.646170 0.000000 
#    z 0.000000 0.000000 1.690490 
# 
# From -- ./inp_files/17417.got.cif
#   From: 2010.05.17/outbox.cif.g08.bks.cpg/sg51_9_cif.got.tgz:17417.got - 2010.06.03 11:52:47.
