data_PCOD9400821
_publ_section_title
;
Structure prediction by ZEFSAII (Michael W. Deem and Ramdas Pophale) SiO2 
 PCOD9400821
Probable space group: P M M A
;
_chemical_formula_sum "Si O2"
_cell_formula_units_Z 56
_cell_length_a 8.475245
_cell_length_b 19.641776
_cell_length_c 19.189704
_cell_angle_alpha 90.000000
_cell_angle_beta 90.000000
_cell_angle_gamma 90.000000
_cell_volume 3194.488222
_symmetry_space_group_name_H-M "P M M A"
_symmetry_group_IT_number 51
_symmetry_cell_setting 'orthorhombic'
loop_
_space_group_symop_operation_xyz
x,y,z
1/2-x,-y,z
1/2+x,-y,-z
-x,y,-z
-x,-y,-z
1/2+x,y,-z
1/2-x,y,z
x,-y,z
loop_
_atom_site_type_symbol
_atom_site_label
_atom_site_fract_x
_atom_site_fract_y
_atom_site_fract_z
Si Si1 0.058335 0.289973 0.341764
Si Si2 0.938827 0.278549 0.078777
Si Si3 0.440570 0.572457 0.920265
Si Si4 0.938578 0.794100 0.790584
Si Si5 0.938898 0.077124 0.290535
Si Si6 0.558960 0.577269 0.578565
Si Si7 0.438982 0.845688 0.422776
O O1 0.250000 0.292424 0.339648
O O2 0.004817 0.262262 0.266432
O O3 0.003376 0.363186 0.369433
O O4 0.014830 0.230023 0.395980
O O5 0.750000 0.277808 0.076611
O O6 0.992877 0.353720 0.106219
O O7 0.998895 0.223846 0.133500
O O8 0.000000 0.269645 0.000000
O O9 0.250000 0.572479 0.920038
O O10 0.493299 0.500000 0.888034
O O11 0.500000 0.571533 0.000000
O O12 0.750000 0.792462 0.790758
O O13 0.993163 0.867042 0.762300
O O14 0.750000 0.079200 0.287117
O O15 0.992534 0.101556 0.366981
O O16 0.992117 0.000000 0.276857
O O17 0.500000 0.590942 0.500000
O O18 0.750000 0.578503 0.577610
O O19 0.509456 0.500000 0.597376
O O20 0.500000 0.857610 0.500000
O O21 0.250000 0.849514 0.420784
#
# Coordination Sequence:
#
# PCOD9400821 Si02
#       7
#     8   8   8   8   8   8   8
#     4   8  16  30  46  66  93 127 166 206 247 291
#     4  10  19  32  52  77 104 134 170 211 254 299
#     4   8  14  25  42  65  94 127 161 198 240 285
#     4  10  20  35  54  75 101 131 165 204 247 301
#     4  10  21  37  56  77 101 130 164 201 244 298
#     4   9  16  27  44  65  91 125 166 211 254 292
#     4  10  19  31  49  73 102 134 168 207 248 293
#
# _framework density 17.530194000000002
#
# number of rings (size 3 to 8) (size 9 to 14) (size 15 to 20)
#    0.000    2.714    0.000    3.000    0.000    2.000 
#    0.000    4.286    0.000    1.286    0.000    0.000 
#    0.000    0.000    0.000    0.000    0.000    0.000 
#
# Total GULP energy -312005.004202 kJ/mol
# GULP energy per Si atom -5571.517932 kJ/mol
# Density = 1.749029 g / cm^3
# Si number density = 17.530194 Si / 1000 Ang^3
#
#
#
# Elastic Constant Matrix: (Units=GPa)
#
#
# Indices 1 2 3 4 5 6 
#
# 1 31.1315 26.7759 24.7775 0.0000 0.0000 0.0000
# 2 26.7759 138.1713 77.9986 0.0000 0.0000 0.0000
# 3 24.7775 77.9986 102.3867 0.0000 0.0000 0.0000
# 4 0.0000 0.0000 0.0000 14.6045 0.0000 0.0000
# 5 0.0000 0.0000 0.0000 0.0000 22.6002 0.0000
# 6 0.0000 0.0000 0.0000 0.0000 0.0000 18.7415
#
#
#
# Elastic Compliance Matrix: (Units=1/GPa)
#
#
# Indices 1 2 3 4 5 6 
#
# 1 0.041080 -0.004121 -0.006802 0.000000 0.000000 0.000000
# 2 -0.004121 0.013112 -0.008991 0.000000 0.000000 0.000000
# 3 -0.006802 -0.008991 0.018262 0.000000 0.000000 0.000000
# 4 0.000000 0.000000 0.000000 0.068472 0.000000 0.000000
# 5 0.000000 0.000000 0.000000 0.000000 0.044247 0.000000
# 6 0.000000 0.000000 0.000000 0.000000 0.000000 0.053358
#
#
# Mechanical properties :
#
#
# Convention : Reuss Voigt Hill
#
# Bulk Modulus (GPa) = 30.65067 58.97706 44.81387
# Shear Modulus (GPa) = 17.28701 20.66506 18.97603
#
# Velocity S-wave (km/s) = 3.14367 3.43713 3.29367
# Velocity P-wave (km/s) = 5.54070 7.03335 6.33117
#
# Compressibility (1/GPa) = 0.03262572
#
# Stress axis : x y z
#
# Youngs Moduli (GPa) = 24.34282 76.26854 54.75721
#
# Poissons Ratio (x) = 0.31431 0.37245
# Poissons Ratio (y) = 0.10032 0.49233
# Poissons Ratio (z) = 0.16558 0.68574
#
# Static dielectric constant tensor:
#      x y z
#    x 1.620820 0.000000 0.000000 
#    y 0.000000 1.633580 0.000000 
#    z 0.000000 0.000000 1.574060 
# 
# From -- ./inp_files/32256.got.cif
#   From: 2010.05.17/outbox.cif.g08.bks.cpg/sg51_17_cif.got.tgz:32256.got - 2010.06.03 11:52:47.
