data_PCOD9400084
_publ_section_title
;
Structure prediction by ZEFSAII (Michael W. Deem and Ramdas Pophale) SiO2 
 PCOD9400084
Probable space group: P M M A
;
_chemical_formula_sum "Si O2"
_cell_formula_units_Z 32
_cell_length_a 14.685707
_cell_length_b 11.475388
_cell_length_c 7.050541
_cell_angle_alpha 90.000000
_cell_angle_beta 90.000000
_cell_angle_gamma 90.000000
_cell_volume 1188.186682
_symmetry_space_group_name_H-M "P M M A"
_symmetry_group_IT_number 51
_symmetry_cell_setting 'orthorhombic'
loop_
_space_group_symop_operation_xyz
x,y,z
1/2-x,-y,z
1/2+x,-y,-z
-x,y,-z
-x,-y,-z
1/2+x,y,-z
1/2-x,y,z
x,-y,z
loop_
_atom_site_type_symbol
_atom_site_label
_atom_site_fract_x
_atom_site_fract_y
_atom_site_fract_z
Si Si1 0.396653 0.500000 0.418852
Si Si2 0.140340 0.500000 0.967326
Si Si3 0.893098 0.000000 0.004767
Si Si4 0.102769 0.250373 0.428340
Si Si5 0.609497 0.000000 0.558571
Si Si6 0.857213 0.747737 0.008596
O O1 0.500000 0.500000 0.500000
O O2 0.388145 0.500000 0.189581
O O3 0.354427 0.624326 0.476692
O O4 0.250000 0.500000 0.948223
O O5 0.108374 0.627513 0.895512
O O6 0.867082 0.876342 0.094398
O O7 0.866341 0.000000 0.783807
O O8 0.000000 0.000000 0.000000
O O9 0.143966 0.128238 0.497505
O O10 0.098109 0.244724 0.199213
O O11 0.000000 0.252410 0.500000
O O12 0.500000 0.000000 0.500000
O O13 0.750000 0.732271 0.974538
#
# Coordination Sequence:
#
# PCOD9400084 Si02
#       6
#     4   4   4   8   4   8
#     4   8  12  18  30  51  80 109 136 170 216 262
#     4   8  14  24  39  59  84 111 145 190 234 268
#     4  10  19  29  42  65  91 116 145 184 228 269
#     4   8  13  21  35  57  83 110 140 177 219 262
#     4   8  14  25  40  57  78 108 139 168 203 251
#     4   9  16  27  43  63  86 116 153 192 230 274
#
# _framework density 26.931794
#
# number of rings (size 3 to 8) (size 9 to 14) (size 15 to 20)
#    0.000    3.500    0.000    0.375    0.000    0.000 
#    0.000    0.625    0.000    0.000    0.000   56.000 
#    0.000    4.000    0.000  179.500    0.000    0.000 
#
# Total GULP energy -178408.640690 kJ/mol
# GULP energy per Si atom -5575.270022 kJ/mol
# Density = 2.687050 g / cm^3
# Si number density = 26.931794 Si / 1000 Ang^3
#
#
#
# Elastic Constant Matrix: (Units=GPa)
#
#
# Indices 1 2 3 4 5 6 
#
# 1 80.7752 19.6206 -20.6485 0.0000 0.0000 0.0000
# 2 19.6206 432.8187 17.6325 0.0000 0.0000 0.0000
# 3 -20.6485 17.6325 131.4643 0.0000 0.0000 0.0000
# 4 0.0000 0.0000 0.0000 -40.3257 0.0000 0.0000
# 5 0.0000 0.0000 0.0000 0.0000 190.6873 0.0000
# 6 0.0000 0.0000 0.0000 0.0000 0.0000 10.9111
#
#
#
# Elastic Compliance Matrix: (Units=1/GPa)
#
#
# Indices 1 2 3 4 5 6 
#
# 1 0.013095 -0.000681 0.002148 0.000000 0.000000 0.000000
# 2 -0.000681 0.002359 -0.000423 0.000000 0.000000 0.000000
# 3 0.002148 -0.000423 0.008001 0.000000 0.000000 0.000000
# 4 0.000000 0.000000 0.000000 -0.024798 0.000000 0.000000
# 5 0.000000 0.000000 0.000000 0.000000 0.005244 0.000000
# 6 0.000000 0.000000 0.000000 0.000000 0.000000 0.091649
#
#
# Mechanical properties :
#
#
# Convention : Reuss Voigt Hill
#
# Bulk Modulus (GPa) = 39.15244 75.36303 57.25773
# Shear Modulus (GPa) = 49.03119 74.15147 61.59133
#
# Velocity S-wave (km/s) = 4.27144 5.25289 4.78738
# Velocity P-wave (km/s) = 6.23668 8.05196 7.20174
#
# Compressibility (1/GPa) = 0.02554120
#
# Stress axis : x y z
#
# Youngs Moduli (GPa) = 76.36744 423.98788 124.98766
#
# Poissons Ratio (x) = 0.28878 -0.26848
# Poissons Ratio (y) = 0.05201 0.05291
# Poissons Ratio (z) = -0.16404 0.17948
#
# Static dielectric constant tensor:
#      x y z
#    x 1.975680 0.000000 0.000000 
#    y 0.000000 2.312680 0.000000 
#    z 0.000000 0.000000 2.125480 
# 
# From -- ./inp_files/7656.got.cif
#   From: 2010.05.17/outbox.cif.g08.bks.cpg/sg51_4_cif.got.tgz:7656.got - 2010.06.03 11:52:47.
