data_PCOD9400201
_publ_section_title
;
Structure prediction by ZEFSAII (Michael W. Deem and Ramdas Pophale) SiO2 
 PCOD9400201
Probable space group: P M M A
;
_chemical_formula_sum "Si O2"
_cell_formula_units_Z 64
_cell_length_a 9.526541
_cell_length_b 19.485114
_cell_length_c 19.510695
_cell_angle_alpha 90.000000
_cell_angle_beta 90.000000
_cell_angle_gamma 90.000000
_cell_volume 3621.687147
_symmetry_space_group_name_H-M "P M M A"
_symmetry_group_IT_number 51
_symmetry_cell_setting 'orthorhombic'
loop_
_space_group_symop_operation_xyz
x,y,z
1/2-x,-y,z
1/2+x,-y,-z
-x,y,-z
-x,-y,-z
1/2+x,y,-z
1/2-x,y,z
x,-y,z
loop_
_atom_site_type_symbol
_atom_site_label
_atom_site_fract_x
_atom_site_fract_y
_atom_site_fract_z
Si Si1 0.592010 0.289456 0.062744
Si Si2 0.085566 0.579622 0.297898
Si Si3 0.081148 0.213849 0.650451
Si Si4 0.081240 0.695771 0.780746
Si Si5 0.904799 0.874166 0.061002
Si Si6 0.902634 0.080148 0.823852
Si Si7 0.587026 0.078897 0.659312
Si Si8 0.416477 0.668165 0.431232
O O1 0.750000 0.318190 0.060312
O O2 0.535429 0.297091 0.140257
O O3 0.603713 0.207628 0.051666
O O4 0.500000 0.317238 0.000000
O O5 0.250000 0.587178 0.278825
O O6 0.046826 0.500000 0.292608
O O7 0.073076 0.607436 0.375502
O O8 0.991463 0.629512 0.252100
O O9 0.250000 0.216650 0.640252
O O10 0.051119 0.240728 0.728621
O O11 0.018531 0.138419 0.636802
O O12 0.996565 0.266916 0.602571
O O13 0.250000 0.689039 0.780786
O O14 0.750000 0.903954 0.058458
O O15 0.974929 0.885503 0.134193
O O16 0.000000 0.902684 0.000000
O O17 0.750000 0.109975 0.843065
O O18 0.916145 0.082294 0.742232
O O19 0.903190 0.000000 0.842846
O O20 0.750000 0.092188 0.638981
O O21 0.552376 0.000000 0.639734
O O22 0.500000 0.650875 0.500000
O O23 0.250000 0.682016 0.442652
#
# Coordination Sequence:
#
# PCOD9400201 Si02
#       8
#     8   8   8   8   8   8   8   8
#     4   9  18  31  46  67  94 122 157 204 255 303
#     4   9  19  35  54  79 110 141 173 207 243 288
#     4  10  19  32  52  77 104 135 173 215 257 304
#     4   9  18  32  50  74 103 133 168 212 258 304
#     4  10  19  30  43  59  81 111 148 193 245 301
#     4   9  18  31  44  59  82 113 150 193 242 297
#     4   9  18  32  49  70  97 128 163 207 258 307
#     4  10  20  35  55  80 111 144 175 207 245 290
#
# _framework density 17.671322
#
# number of rings (size 3 to 8) (size 9 to 14) (size 15 to 20)
#    0.000    2.625    0.000    2.625    0.000    4.750 
#    0.000    1.250    0.000    0.750    0.000    0.000 
#    0.000    0.000    0.000    0.000    0.000    0.000 
#
# Total GULP energy -356562.458908 kJ/mol
# GULP energy per Si atom -5571.288420 kJ/mol
# Density = 1.763110 g / cm^3
# Si number density = 17.671322 Si / 1000 Ang^3
#
#
#
# Elastic Constant Matrix: (Units=GPa)
#
#
# Indices 1 2 3 4 5 6 
#
# 1 67.7023 23.9143 15.9644 0.0000 0.0000 0.0000
# 2 23.9143 69.0024 -5.7231 0.0000 0.0000 0.0000
# 3 15.9644 -5.7231 39.3449 0.0000 0.0000 0.0000
# 4 0.0000 0.0000 0.0000 8.8859 0.0000 0.0000
# 5 0.0000 0.0000 0.0000 0.0000 27.6387 0.0000
# 6 0.0000 0.0000 0.0000 0.0000 0.0000 23.1905
#
#
#
# Elastic Compliance Matrix: (Units=1/GPa)
#
#
# Indices 1 2 3 4 5 6 
#
# 1 0.019559 -0.007528 -0.009031 0.000000 0.000000 0.000000
# 2 -0.007528 0.017566 0.005610 0.000000 0.000000 0.000000
# 3 -0.009031 0.005610 0.029897 0.000000 0.000000 0.000000
# 4 0.000000 0.000000 0.000000 0.112538 0.000000 0.000000
# 5 0.000000 0.000000 0.000000 0.000000 0.036181 0.000000
# 6 0.000000 0.000000 0.000000 0.000000 0.000000 0.043121
#
#
# Mechanical properties :
#
#
# Convention : Reuss Voigt Hill
#
# Bulk Modulus (GPa) = 22.16132 27.15119 24.65625
# Shear Modulus (GPa) = 16.90316 21.40260 19.15288
#
# Velocity S-wave (km/s) = 3.09614 3.48393 3.29574
# Velocity P-wave (km/s) = 5.03483 5.61975 5.33531
#
# Compressibility (1/GPa) = 0.04512367
#
# Stress axis : x y z
#
# Youngs Moduli (GPa) = 51.12702 56.92686 33.44849
#
# Poissons Ratio (x) = 0.42853 0.30208
# Poissons Ratio (y) = 0.38487 -0.18763
# Poissons Ratio (z) = 0.46174 -0.31934
#
# Static dielectric constant tensor:
#      x y z
#    x 1.752840 0.000000 0.000000 
#    y 0.000000 1.591510 0.000000 
#    z 0.000000 0.000000 1.605490 
# 
# From -- ./inp_files/32432.got.cif
#   From: 2010.05.17/outbox.cif.g08.bks.cpg/sg51_17_cif.got.tgz:32432.got - 2010.06.03 11:52:47.
