data_PCOD9400458
_publ_section_title
;
Structure prediction by ZEFSAII (Michael W. Deem and Ramdas Pophale) SiO2 
 PCOD9400458
Probable space group: P M M A
;
_chemical_formula_sum "Si O2"
_cell_formula_units_Z 64
_cell_length_a 9.165043
_cell_length_b 20.109387
_cell_length_c 20.095465
_cell_angle_alpha 90.000000
_cell_angle_beta 90.000000
_cell_angle_gamma 90.000000
_cell_volume 3703.662455
_symmetry_space_group_name_H-M "P M M A"
_symmetry_group_IT_number 51
_symmetry_cell_setting 'orthorhombic'
loop_
_space_group_symop_operation_xyz
x,y,z
1/2-x,-y,z
1/2+x,-y,-z
-x,y,-z
-x,-y,-z
1/2+x,y,-z
1/2-x,y,z
x,-y,z
loop_
_atom_site_type_symbol
_atom_site_label
_atom_site_fract_x
_atom_site_fract_y
_atom_site_fract_z
Si Si1 0.923900 0.677544 0.666295
Si Si2 0.418421 0.733535 0.066826
Si Si3 0.079137 0.420153 0.569091
Si Si4 0.078333 0.269895 0.797562
Si Si5 0.076438 0.803546 0.429519
Si Si6 0.078984 0.109069 0.797247
Si Si7 0.076380 0.074216 0.338718
Si Si8 0.918232 0.104358 0.932848
O O1 0.750000 0.668252 0.673087
O O2 0.949594 0.740335 0.617532
O O3 0.999342 0.615622 0.629955
O O4 0.996220 0.695716 0.736489
O O5 0.250000 0.712616 0.068037
O O6 0.504052 0.711766 0.132553
O O7 0.419108 0.814558 0.066249
O O8 0.500000 0.711709 0.000000
O O9 0.250000 0.401659 0.566363
O O10 0.069357 0.500000 0.575062
O O11 0.000000 0.400914 0.500000
O O12 0.250000 0.285569 0.797028
O O13 0.064529 0.189517 0.792083
O O14 0.250000 0.809056 0.440022
O O15 0.026401 0.869036 0.389517
O O16 0.000000 0.796434 0.500000
O O17 0.250000 0.092973 0.799944
O O18 0.004140 0.080751 0.731534
O O19 0.000520 0.085937 0.864933
O O20 0.250000 0.084089 0.327177
O O21 0.054617 0.000000 0.365668
O O22 0.750000 0.082989 0.932357
O O23 0.000000 0.082500 0.000000
#
# Coordination Sequence:
#
# PCOD9400458 Si02
#       8
#     8   8   8   8   8   8   8   8
#     4  11  21  34  54  79 108 141 176 217 260 308
#     4   9  16  26  41  64  97 135 172 211 255 306
#     4  10  21  37  56  79 109 144 181 218 257 307
#     4  10  19  30  47  72 102 136 172 214 262 310
#     4  10  22  37  54  77 102 129 165 208 258 310
#     4  10  19  31  49  72  98 128 165 210 257 309
#     4  10  21  38  56  72  95 129 168 211 261 316
#     4   9  16  26  43  67  96 128 163 203 248 302
#
# _framework density 17.280193000000001
#
# number of rings (size 3 to 8) (size 9 to 14) (size 15 to 20)
#    0.000    2.125    1.250    2.625    0.000    7.750 
#    0.000    0.000    0.000    0.375    0.000    0.000 
#    0.000    0.500    0.000    1.875    0.000    2.875 
#
# Total GULP energy -357380.389110 kJ/mol
# GULP energy per Si atom -5584.068580 kJ/mol
# Density = 1.724086 g / cm^3
# Si number density = 17.280193 Si / 1000 Ang^3
#
#
#
# Elastic Constant Matrix: (Units=GPa)
#
#
# Indices 1 2 3 4 5 6 
#
# 1 116.3424 37.8722 78.3012 0.0000 0.0000 0.0000
# 2 37.8722 32.1975 33.4890 0.0000 0.0000 0.0000
# 3 78.3012 33.4890 150.4987 0.0000 0.0000 0.0000
# 4 0.0000 0.0000 0.0000-4296.5171 0.0000 0.0000
# 5 0.0000 0.0000 0.0000 0.0000 37.9519 0.0000
# 6 0.0000 0.0000 0.0000 0.0000 0.0000 82.5159
#
#
#
# Elastic Compliance Matrix: (Units=1/GPa)
#
#
# Indices 1 2 3 4 5 6 
#
# 1 0.017034 -0.014076 -0.005730 0.000000 0.000000 0.000000
# 2 -0.014076 0.052043 -0.004257 0.000000 0.000000 0.000000
# 3 -0.005730 -0.004257 0.010573 0.000000 0.000000 0.000000
# 4 0.000000 0.000000 0.000000 -0.000233 0.000000 0.000000
# 5 0.000000 0.000000 0.000000 0.000000 0.026349 0.000000
# 6 0.000000 0.000000 0.000000 0.000000 0.000000 0.012119
#
#
# Mechanical properties :
#
#
# Convention : Reuss Voigt Hill
#
# Bulk Modulus (GPa) = 31.72244 66.48482 49.10363
# Shear Modulus (GPa) = 28.32534 -825.25145 -398.46306
#
# Velocity S-wave (km/s) = 4.05307 -21.87710 -15.20165
# Velocity P-wave (km/s) = 6.34828 24.48643 16.72251
#
# Compressibility (1/GPa) = 0.03152342
#
# Stress axis : x y z
#
# Youngs Moduli (GPa) = 58.70611 19.21481 94.57898
#
# Poissons Ratio (x) = 0.27047 0.54196
# Poissons Ratio (y) = 0.82635 0.40264
# Poissons Ratio (z) = 0.33640 0.08180
#
# Static dielectric constant tensor:
#      x y z
#    x 1.575780 0.000000 0.000000 
#    y 0.000000 1.591400 0.000000 
#    z 0.000000 0.000000 1.552500 
# 
# From -- ./inp_files/28323.got.cif
#   From: 2010.05.17/outbox.cif.g08.bks.cpg/sg51_15_cif.got.tgz:28323.got - 2010.06.03 11:52:47.
