data_PCOD9400770
_publ_section_title
;
Structure prediction by ZEFSAII (Michael W. Deem and Ramdas Pophale) SiO2 
 PCOD9400770
Probable space group: P M M A
;
_chemical_formula_sum "Si O2"
_cell_formula_units_Z 48
_cell_length_a 14.288708
_cell_length_b 7.725746
_cell_length_c 24.490972
_cell_angle_alpha 90.000000
_cell_angle_beta 90.000000
_cell_angle_gamma 90.000000
_cell_volume 2703.581143
_symmetry_space_group_name_H-M "P M M A"
_symmetry_group_IT_number 51
_symmetry_cell_setting 'orthorhombic'
loop_
_space_group_symop_operation_xyz
x,y,z
1/2-x,-y,z
1/2+x,-y,-z
-x,y,-z
-x,-y,-z
1/2+x,y,-z
1/2-x,y,z
x,-y,z
loop_
_atom_site_type_symbol
_atom_site_label
_atom_site_fract_x
_atom_site_fract_y
_atom_site_fract_z
Si Si1 0.356165 0.298368 0.988463
Si Si2 0.357148 0.709032 0.307885
Si Si3 0.856451 0.792872 0.816058
Si Si4 0.517071 0.801365 0.912264
Si Si5 0.644602 0.711317 0.476160
Si Si6 0.537166 0.288699 0.585619
O O1 0.250000 0.237975 0.979845
O O2 0.353835 0.500000 0.003825
O O3 0.423190 0.282482 0.935986
O O4 0.407949 0.204296 0.038249
O O5 0.250000 0.768249 0.317176
O O6 0.356322 0.500000 0.309818
O O7 0.383726 0.760685 0.246572
O O8 0.424054 0.771395 0.356331
O O9 0.750000 0.725270 0.823983
O O10 0.930713 0.723654 0.859781
O O11 0.852051 0.000000 0.824588
O O12 0.493063 0.000000 0.900519
O O13 0.750000 0.771523 0.466719
O O14 0.645644 0.500000 0.475498
O O15 0.566589 0.766932 0.432389
O O16 0.606281 0.761041 0.536031
O O17 0.536574 0.500000 0.586554
#
# Coordination Sequence:
#
# PCOD9400770 Si02
#       6
#     8   8   8   8   8   8
#     4  10  20  32  47  69  96 121 143 173 216 262
#     4   9  16  25  39  59  81 106 136 170 208 248
#     4   9  18  31  45  63  87 113 142 176 213 252
#     4  10  19  31  49  69  89 116 149 183 215 252
#     4   8  12  18  30  49  75 105 132 161 201 246
#     4   8  13  20  31  51  78 104 130 163 203 245
#
# _framework density 17.754228999999999
#
# number of rings (size 3 to 8) (size 9 to 14) (size 15 to 20)
#    0.000    3.000    0.000    4.000    0.000    5.333 
#    0.000    1.667    0.000    1.000    0.000    4.667 
#    0.000    1.333    0.000    0.000    0.000    0.000 
#
# Total GULP energy -267512.147090 kJ/mol
# GULP energy per Si atom -5573.169731 kJ/mol
# Density = 1.771382 g / cm^3
# Si number density = 17.754229 Si / 1000 Ang^3
#
#
#
# Elastic Constant Matrix: (Units=GPa)
#
#
# Indices 1 2 3 4 5 6 
#
# 1 142.9045 -1.6676 73.3287 0.0000 0.0000 0.0000
# 2 -1.6676 26.5061 -8.5574 0.0000 0.0000 0.0000
# 3 73.3287 -8.5574 111.6930 0.0000 0.0000 0.0000
# 4 0.0000 0.0000 0.0000 21.6668 0.0000 0.0000
# 5 0.0000 0.0000 0.0000 0.0000 24.6191 0.0000
# 6 0.0000 0.0000 0.0000 0.0000 0.0000 8.5532
#
#
#
# Elastic Compliance Matrix: (Units=1/GPa)
#
#
# Indices 1 2 3 4 5 6 
#
# 1 0.010620 -0.001623 -0.007097 0.000000 0.000000 0.000000
# 2 -0.001623 0.038932 0.004048 0.000000 0.000000 0.000000
# 3 -0.007097 0.004048 0.013922 0.000000 0.000000 0.000000
# 4 0.000000 0.000000 0.000000 0.046154 0.000000 0.000000
# 5 0.000000 0.000000 0.000000 0.000000 0.040619 0.000000
# 6 0.000000 0.000000 0.000000 0.000000 0.000000 0.116915
#
#
# Mechanical properties :
#
#
# Convention : Reuss Voigt Hill
#
# Bulk Modulus (GPa) = 18.47341 45.25679 31.86510
# Shear Modulus (GPa) = 16.97507 25.50114 21.23811
#
# Velocity S-wave (km/s) = 3.09546 3.79402 3.46241
# Velocity P-wave (km/s) = 4.81700 6.68871 5.82848
#
# Compressibility (1/GPa) = 0.05413186
#
# Stress axis : x y z
#
# Youngs Moduli (GPa) = 94.15904 25.68578 71.82636
#
# Poissons Ratio (x) = 0.04169 0.50974
# Poissons Ratio (y) = 0.15282 -0.29078
# Poissons Ratio (z) = 0.66823 -0.10398
#
# Static dielectric constant tensor:
#      x y z
#    x 1.610190 0.000000 0.000000 
#    y 0.000000 1.660110 0.000000 
#    z 0.000000 0.000000 1.593170 
# 
# From -- ./inp_files/35489.got.cif
#   From: 2010.05.17/outbox.cif.g08.bks.cpg/sg51_18_cif.got.tgz:35489.got - 2010.06.03 11:52:47.
