data_PCOD9400809
_publ_section_title
;
Structure prediction by ZEFSAII (Michael W. Deem and Ramdas Pophale) SiO2 
 PCOD9400809
Probable space group: P M M A
;
_chemical_formula_sum "Si O2"
_cell_formula_units_Z 56
_cell_length_a 15.146022
_cell_length_b 7.886660
_cell_length_c 22.225298
_cell_angle_alpha 90.000000
_cell_angle_beta 90.000000
_cell_angle_gamma 90.000000
_cell_volume 2654.845759
_symmetry_space_group_name_H-M "P M M A"
_symmetry_group_IT_number 51
_symmetry_cell_setting 'orthorhombic'
loop_
_space_group_symop_operation_xyz
x,y,z
1/2-x,-y,z
1/2+x,-y,-z
-x,y,-z
-x,-y,-z
1/2+x,y,-z
1/2-x,y,z
x,-y,z
loop_
_atom_site_type_symbol
_atom_site_label
_atom_site_fract_x
_atom_site_fract_y
_atom_site_fract_z
Si Si1 0.357533 0.196041 0.478576
Si Si2 0.649920 0.207139 0.908843
Si Si3 0.350560 0.701477 0.609720
Si Si4 0.523712 0.204545 0.152574
Si Si5 0.851612 0.793357 0.045162
Si Si6 0.650146 0.796381 0.651974
Si Si7 0.522557 0.701147 0.286200
O O1 0.250000 0.203441 0.477672
O O2 0.385750 0.273233 0.541889
O O3 0.382408 0.270595 0.413511
O O4 0.384562 0.000000 0.480438
O O5 0.750000 0.263796 0.896868
O O6 0.575523 0.263771 0.862586
O O7 0.651423 0.000000 0.908174
O O8 0.623991 0.257380 0.977104
O O9 0.250000 0.770876 0.612998
O O10 0.344171 0.500000 0.618855
O O11 0.413860 0.772686 0.661455
O O12 0.586490 0.266864 0.098838
O O13 0.551962 0.253363 0.219230
O O14 0.523670 0.000000 0.149892
O O15 0.750000 0.744096 0.055098
O O16 0.854864 0.000000 0.045392
O O17 0.750000 0.735032 0.664300
O O18 0.577252 0.759386 0.701372
O O19 0.655792 0.000000 0.645663
O O20 0.522835 0.500000 0.291704
#
# Coordination Sequence:
#
# PCOD9400809 Si02
#       7
#     8   8   8   8   8   8   8
#     4   8  15  30  54  81 102 122 156 207 264 310
#     4   8  14  26  47  75 101 123 153 198 250 299
#     4   9  19  36  54  71  97 135 175 212 251 300
#     4  10  19  31  49  72  98 130 167 204 245 295
#     4   8  14  26  47  76 103 123 153 203 255 298
#     4   9  19  37  58  78 102 131 164 206 256 309
#     4  11  24  37  49  71 103 140 179 212 247 294
#
# _framework density 21.093502999999998
#
# number of rings (size 3 to 8) (size 9 to 14) (size 15 to 20)
#    0.000    3.000    0.000    2.571    0.000    5.429 
#    0.000    5.714    0.000    1.714    0.000    2.000 
#    0.000    0.000    0.000    0.000    0.000    0.000 
#
# Total GULP energy -312325.947748 kJ/mol
# GULP energy per Si atom -5577.249067 kJ/mol
# Density = 2.104549 g / cm^3
# Si number density = 21.093503 Si / 1000 Ang^3
#
#
#
# Elastic Constant Matrix: (Units=GPa)
#
#
# Indices 1 2 3 4 5 6 
#
# 1 28.2888 3.5472 3.7443 0.0000 0.0000 0.0000
# 2 3.5472 19.0710 -2.3514 0.0000 0.0000 0.0000
# 3 3.7443 -2.3514 45.4589 0.0000 0.0000 0.0000
# 4 0.0000 0.0000 0.0000 46.7403 0.0000 0.0000
# 5 0.0000 0.0000 0.0000 0.0000 6.1629 0.0000
# 6 0.0000 0.0000 0.0000 0.0000 0.0000 5.7834
#
#
#
# Elastic Compliance Matrix: (Units=1/GPa)
#
#
# Indices 1 2 3 4 5 6 
#
# 1 0.036708 -0.007247 -0.003398 0.000000 0.000000 0.000000
# 2 -0.007247 0.054203 0.003401 0.000000 0.000000 0.000000
# 3 -0.003398 0.003401 0.022454 0.000000 0.000000 0.000000
# 4 0.000000 0.000000 0.000000 0.021395 0.000000 0.000000
# 5 0.000000 0.000000 0.000000 0.000000 0.162261 0.000000
# 6 0.000000 0.000000 0.000000 0.000000 0.000000 0.172909
#
#
# Mechanical properties :
#
#
# Convention : Reuss Voigt Hill
#
# Bulk Modulus (GPa) = 10.11373 11.41100 10.76236
# Shear Modulus (GPa) = 9.66412 17.59589 13.63000
#
# Velocity S-wave (km/s) = 2.14278 2.89136 2.54475
# Velocity P-wave (km/s) = 3.30562 4.07039 3.70778
#
# Compressibility (1/GPa) = 0.09887552
#
# Stress axis : x y z
#
# Youngs Moduli (GPa) = 27.24185 18.44925 44.53610
#
# Poissons Ratio (x) = 0.13370 0.15135
# Poissons Ratio (y) = 0.19742 -0.15145
# Poissons Ratio (z) = 0.09258 -0.06274
#
# Static dielectric constant tensor:
#      x y z
#    x 1.779220 0.000000 0.000000 
#    y 0.000000 1.779110 0.000000 
#    z 0.000000 0.000000 1.753110 
# 
# From -- ./inp_files/33314.got.cif
#   From: 2010.05.17/outbox.cif.g08.bks.cpg/sg51_17_cif.got.tgz:33314.got - 2010.06.03 11:52:47.
