data_PCOD9400980
_publ_section_title
;
Structure prediction by ZEFSAII (Michael W. Deem and Ramdas Pophale) SiO2 
 PCOD9400980
Probable space group: P M M A
;
_chemical_formula_sum "Si O2"
_cell_formula_units_Z 56
_cell_length_a 14.445539
_cell_length_b 31.935805
_cell_length_c 5.352795
_cell_angle_alpha 90.000000
_cell_angle_beta 90.000000
_cell_angle_gamma 90.000000
_cell_volume 2469.404471
_symmetry_space_group_name_H-M "P M M A"
_symmetry_group_IT_number 51
_symmetry_cell_setting 'orthorhombic'
loop_
_space_group_symop_operation_xyz
x,y,z
1/2-x,-y,z
1/2+x,-y,-z
-x,y,-z
-x,-y,-z
1/2+x,y,-z
1/2-x,y,z
x,-y,z
loop_
_atom_site_type_symbol
_atom_site_label
_atom_site_fract_x
_atom_site_fract_y
_atom_site_fract_z
Si Si1 0.894991 0.691912 0.948428
Si Si2 0.859745 0.135374 0.848308
Si Si3 0.606063 0.275483 0.446521
Si Si4 0.863240 0.451767 0.354112
Si Si5 0.362665 0.179837 0.649609
Si Si6 0.561817 0.953927 0.750047
Si Si7 0.862436 0.403651 0.853269
O O1 0.852698 0.696508 0.224728
O O2 0.852412 0.718899 0.723314
O O3 0.894876 0.644092 0.861587
O O4 0.000000 0.706578 0.000000
O O5 0.750000 0.142364 0.856486
O O6 0.896670 0.160861 0.611556
O O7 0.876215 0.086660 0.792315
O O8 0.895699 0.152716 0.113115
O O9 0.500000 0.288204 0.500000
O O10 0.610311 0.228285 0.347102
O O11 0.750000 0.452074 0.355012
O O12 0.893366 0.500000 0.351958
O O13 0.892605 0.427937 0.604936
O O14 0.891890 0.427588 0.104217
O O15 0.250000 0.178310 0.648607
O O16 0.500000 0.948537 0.500000
O O17 0.607758 0.000000 0.727224
O O18 0.500000 0.955277 0.000000
O O19 0.750000 0.402659 0.851786
#
# Coordination Sequence:
#
# PCOD9400980 Si02
#       7
#     8   8   8   8   8   8   8
#     4  10  21  36  52  72 102 135 167 209 258 305
#     4  10  21  37  56  81 112 145 180 219 272 330
#     4  10  21  36  53  74 100 135 175 211 256 314
#     4   9  17  30  49  74 102 128 159 204 251 295
#     4  10  21  36  55  80 109 139 175 222 269 315
#     4  10  21  37  57  83 113 145 185 230 271 314
#     4  10  19  31  51  76  97 126 168 205 245 301
#
# _framework density 22.677530999999998
#
# number of rings (size 3 to 8) (size 9 to 14) (size 15 to 20)
#    0.000    2.143    0.000    3.000    0.000    4.857 
#    0.000    0.000    0.000    7.714    0.000    0.000 
#    0.000    0.000    0.000    0.000    0.000    0.000 
#
# Total GULP energy -312940.538234 kJ/mol
# GULP energy per Si atom -5588.223897 kJ/mol
# Density = 2.262592 g / cm^3
# Si number density = 22.677531 Si / 1000 Ang^3
#
#
#
# Elastic Constant Matrix: (Units=GPa)
#
#
# Indices 1 2 3 4 5 6 
#
# 1 55.1273 -13.6733 18.2490 0.0000 0.0000 0.0000
# 2 -13.6733 130.6198 59.4535 0.0000 0.0000 0.0000
# 3 18.2490 59.4535 204.5970 0.0000 0.0000 0.0000
# 4 0.0000 0.0000 0.0000 47.9502 0.0000 0.0000
# 5 0.0000 0.0000 0.0000 0.0000 -0.5437 0.0000
# 6 0.0000 0.0000 0.0000 0.0000 0.0000 32.7385
#
#
#
# Elastic Compliance Matrix: (Units=1/GPa)
#
#
# Indices 1 2 3 4 5 6 
#
# 1 0.019872 0.003327 -0.002739 0.000000 0.000000 0.000000
# 2 0.003327 0.009380 -0.003022 0.000000 0.000000 0.000000
# 3 -0.002739 -0.003022 0.006010 0.000000 0.000000 0.000000
# 4 0.000000 0.000000 0.000000 0.020855 0.000000 0.000000
# 5 0.000000 0.000000 0.000000 0.000000 -1.839233 0.000000
# 6 0.000000 0.000000 0.000000 0.000000 0.000000 0.030545
#
#
# Mechanical properties :
#
#
# Convention : Reuss Voigt Hill
#
# Bulk Modulus (GPa) = 32.90285 57.60028 45.25156
# Shear Modulus (GPa) = -2.87758 37.78333 17.45287
#
# Velocity S-wave (km/s) = -1.12768 4.08623 2.77720
# Velocity P-wave (km/s) = 3.58399 6.90782 5.50286
#
# Compressibility (1/GPa) = 0.03039251
#
# Stress axis : x y z
#
# Youngs Moduli (GPa) = 50.32257 106.61248 166.38228
#
# Poissons Ratio (x) = -0.35470 0.45576
# Poissons Ratio (y) = -0.16742 0.50287
# Poissons Ratio (z) = 0.13785 0.32223
#
# Static dielectric constant tensor:
#      x y z
#    x 1.897410 0.000000 0.000000 
#    y 0.000000 1.787930 0.000000 
#    z 0.000000 0.000000 1.880530 
# 
# From -- ./inp_files/1483.got.cif
#   From: 2010.05.17/outbox.cif.g08.bks.cpg/sg51_1_cif.got.tgz:1483.got - 2010.06.03 11:52:47.
