data_PCOD9400721
_publ_section_title
;
Structure prediction by ZEFSAII (Michael W. Deem and Ramdas Pophale) SiO2 
 PCOD9400721
Probable space group: P M M A
;
_chemical_formula_sum "Si O2"
_cell_formula_units_Z 48
_cell_length_a 8.818151
_cell_length_b 14.134712
_cell_length_c 24.410658
_cell_angle_alpha 90.000000
_cell_angle_beta 90.000000
_cell_angle_gamma 90.000000
_cell_volume 3042.593839
_symmetry_space_group_name_H-M "P M M A"
_symmetry_group_IT_number 51
_symmetry_cell_setting 'orthorhombic'
loop_
_space_group_symop_operation_xyz
x,y,z
1/2-x,-y,z
1/2+x,-y,-z
-x,y,-z
-x,-y,-z
1/2+x,y,-z
1/2-x,y,z
x,-y,z
loop_
_atom_site_type_symbol
_atom_site_label
_atom_site_fract_x
_atom_site_fract_y
_atom_site_fract_z
Si Si1 0.432634 0.716972 0.667315
Si Si2 0.931554 0.784387 0.837619
Si Si3 0.431428 0.889504 0.940817
Si Si4 0.932907 0.610181 0.441586
Si Si5 0.567319 0.891922 0.726010
Si Si6 0.567124 0.609014 0.221430
O O1 0.250000 0.723292 0.666377
O O2 0.483445 0.673286 0.609696
O O3 0.499942 0.818697 0.682440
O O4 0.473086 0.647231 0.717786
O O5 0.750000 0.783494 0.841794
O O6 0.974541 0.852078 0.786215
O O7 0.002603 0.825394 0.892696
O O8 0.992175 0.681019 0.821210
O O9 0.250000 0.881931 0.942651
O O10 0.471118 0.000000 0.930066
O O11 0.500000 0.864708 0.000000
O O12 0.750000 0.613967 0.444200
O O13 0.975370 0.500000 0.432343
O O14 0.000000 0.639755 0.500000
O O15 0.750000 0.889498 0.722617
O O16 0.516716 0.000000 0.719193
O O17 0.750000 0.614771 0.216549
O O18 0.522042 0.500000 0.214734
#
# Coordination Sequence:
#
# PCOD9400721 Si02
#       6
#     8   8   8   8   8   8
#     4   9  17  29  46  68  92 119 152 189 228 270
#     4  10  19  31  48  70  97 126 155 189 229 274
#     4  10  20  33  50  72  97 125 157 192 230 273
#     4   9  17  29  45  66  92 120 149 183 225 272
#     4   9  18  31  46  66  93 123 152 185 228 273
#     4   9  17  30  48  69  94 124 156 190 229 273
#
# _framework density 15.776012
#
# number of rings (size 3 to 8) (size 9 to 14) (size 15 to 20)
#    0.000    2.667    0.000    2.000    0.000    5.667 
#    0.000    0.000    0.000    4.000    0.000    0.000 
#    0.000    0.000    0.000    0.000    0.000    0.000 
#
# Total GULP energy -267649.542563 kJ/mol
# GULP energy per Si atom -5576.032137 kJ/mol
# Density = 1.574011 g / cm^3
# Si number density = 15.776012 Si / 1000 Ang^3
#
#
#
# Elastic Constant Matrix: (Units=GPa)
#
#
# Indices 1 2 3 4 5 6 
#
# 1 22.8157 38.8950 39.9576 0.0000 0.0000 0.0000
# 2 38.8950 144.1151 93.3274 0.0000 0.0000 0.0000
# 3 39.9576 93.3274 145.0843 0.0000 0.0000 0.0000
# 4 0.0000 0.0000 0.0000 25.8593 0.0000 0.0000
# 5 0.0000 0.0000 0.0000 0.0000 26.1460 0.0000
# 6 0.0000 0.0000 0.0000 0.0000 0.0000 24.8548
#
#
#
# Elastic Compliance Matrix: (Units=1/GPa)
#
#
# Indices 1 2 3 4 5 6 
#
# 1 0.102656 -0.016106 -0.017912 0.000000 0.000000 0.000000
# 2 -0.016106 0.014420 -0.004840 0.000000 0.000000 0.000000
# 3 -0.017912 -0.004840 0.014939 0.000000 0.000000 0.000000
# 4 0.000000 0.000000 0.000000 0.038671 0.000000 0.000000
# 5 0.000000 0.000000 0.000000 0.000000 0.038247 0.000000
# 6 0.000000 0.000000 0.000000 0.000000 0.000000 0.040234
#
#
# Mechanical properties :
#
#
# Convention : Reuss Voigt Hill
#
# Bulk Modulus (GPa) = 18.41659 72.93057 45.67358
# Shear Modulus (GPa) = 14.49347 24.69436 19.59391
#
# Velocity S-wave (km/s) = 3.03430 3.96069 3.52803
# Velocity P-wave (km/s) = 4.89644 8.20032 6.75353
#
# Compressibility (1/GPa) = 0.05429887
#
# Stress axis : x y z
#
# Youngs Moduli (GPa) = 9.74127 69.34710 66.93773
#
# Poissons Ratio (x) = 1.11691 1.19899
# Poissons Ratio (y) = 0.15689 0.32399
# Poissons Ratio (z) = 0.17449 0.33566
#
# Static dielectric constant tensor:
#      x y z
#    x 1.529660 0.000000 0.000000 
#    y 0.000000 1.512610 0.000000 
#    z 0.000000 0.000000 1.505280 
# 
# From -- ./inp_files/31564.got.cif
#   From: 2010.05.17/outbox.cif.g08.bks.cpg/sg51_16_cif.got.tgz:31564.got - 2010.06.03 11:52:47.
