data_PCOD9400049
_publ_section_title
;
Structure prediction by ZEFSAII (Michael W. Deem and Ramdas Pophale) SiO2 
 PCOD9400049
Probable space group: P M M A
;
_chemical_formula_sum "Si O2"
_cell_formula_units_Z 56
_cell_length_a 9.053907
_cell_length_b 14.046643
_cell_length_c 29.739766
_cell_angle_alpha 90.000000
_cell_angle_beta 90.000000
_cell_angle_gamma 90.000000
_cell_volume 3782.214202
_symmetry_space_group_name_H-M "P M M A"
_symmetry_group_IT_number 51
_symmetry_cell_setting 'orthorhombic'
loop_
_space_group_symop_operation_xyz
x,y,z
1/2-x,-y,z
1/2+x,-y,-z
-x,y,-z
-x,-y,-z
1/2+x,y,-z
1/2-x,y,z
x,-y,z
loop_
_atom_site_type_symbol
_atom_site_label
_atom_site_fract_x
_atom_site_fract_y
_atom_site_fract_z
Si Si1 0.072500 0.110336 0.770453
Si Si2 0.572565 0.216871 0.137347
Si Si3 0.926681 0.284893 0.723295
Si Si4 0.426278 0.386979 0.639048
Si Si5 0.427735 0.888533 0.953037
Si Si6 0.927288 0.391051 0.816199
Si Si7 0.920166 0.615751 0.545599
O O1 0.250000 0.119334 0.764894
O O2 0.037074 0.146184 0.821076
O O3 0.991130 0.182128 0.736842
O O4 0.032562 0.000000 0.764782
O O5 0.750000 0.226432 0.136413
O O6 0.524508 0.172478 0.090020
O O7 0.500868 0.317573 0.149500
O O8 0.750000 0.281129 0.718437
O O9 0.961918 0.353025 0.766006
O O10 0.000324 0.328085 0.679079
O O11 0.250000 0.375148 0.638905
O O12 0.457926 0.500000 0.645414
O O13 0.493484 0.357955 0.590871
O O14 0.250000 0.882402 0.956567
O O15 0.465016 0.000000 0.945620
O O16 0.500000 0.858401 0.000000
O O17 0.750000 0.387039 0.821055
O O18 0.975451 0.500000 0.821673
O O19 0.750000 0.646729 0.547151
O O20 0.920210 0.500000 0.544306
O O21 0.000000 0.648346 0.500000
#
# Coordination Sequence:
#
# PCOD9400049 Si02
#       7
#     8   8   8   8   8   8   8
#     4   9  17  30  47  65  87 115 144 175 213 257
#     4   9  17  29  46  67  88 112 143 176 210 251
#     4  10  19  30  44  63  88 116 146 180 218 260
#     4  10  19  29  42  61  86 117 152 187 221 259
#     4   9  17  29  45  66  91 115 138 168 209 256
#     4   9  18  31  45  62  86 115 145 178 216 255
#     4   9  16  26  40  58  82 113 148 184 222 263
#
# _framework density 14.806141999999999
#
# number of rings (size 3 to 8) (size 9 to 14) (size 15 to 20)
#    0.000    2.714    0.000    2.143    0.000    6.571 
#    0.000    0.000    0.000    3.000    0.000    0.000 
#    0.000    0.571    0.000    2.143    0.000    3.286 
#
# Total GULP energy -312137.401578 kJ/mol
# GULP energy per Si atom -5573.882171 kJ/mol
# Density = 1.477244 g / cm^3
# Si number density = 14.806142 Si / 1000 Ang^3
#
#
#
# Elastic Constant Matrix: (Units=GPa)
#
#
# Indices 1 2 3 4 5 6 
#
# 1 48.9015 45.9797 58.8562 0.0000 0.0000 0.0000
# 2 45.9797 104.9147 73.7611 0.0000 0.0000 0.0000
# 3 58.8562 73.7611 149.0031 0.0000 0.0000 0.0000
# 4 0.0000 0.0000 0.0000 21.4217 0.0000 0.0000
# 5 0.0000 0.0000 0.0000 0.0000 27.9454 0.0000
# 6 0.0000 0.0000 0.0000 0.0000 0.0000 21.2552
#
#
#
# Elastic Compliance Matrix: (Units=1/GPa)
#
#
# Indices 1 2 3 4 5 6 
#
# 1 0.046500 -0.011451 -0.012699 0.000000 0.000000 0.000000
# 2 -0.011451 0.017440 -0.004110 0.000000 0.000000 0.000000
# 3 -0.012699 -0.004110 0.013762 0.000000 0.000000 0.000000
# 4 0.000000 0.000000 0.000000 0.046682 0.000000 0.000000
# 5 0.000000 0.000000 0.000000 0.000000 0.035784 0.000000
# 6 0.000000 0.000000 0.000000 0.000000 0.000000 0.047047
#
#
# Mechanical properties :
#
#
# Convention : Reuss Voigt Hill
#
# Bulk Modulus (GPa) = 47.21032 73.33482 60.27257
# Shear Modulus (GPa) = 18.46415 22.40595 20.43505
#
# Velocity S-wave (km/s) = 3.53520 3.89432 3.71910
# Velocity P-wave (km/s) = 6.97269 8.35814 7.69665
#
# Compressibility (1/GPa) = 0.02118181
#
# Stress axis : x y z
#
# Youngs Moduli (GPa) = 21.50532 57.34079 72.66410
#
# Poissons Ratio (x) = 0.65661 0.92276
# Poissons Ratio (y) = 0.24626 0.29865
# Poissons Ratio (z) = 0.27310 0.23567
#
# Static dielectric constant tensor:
#      x y z
#    x 1.494140 0.000000 0.000000 
#    y 0.000000 1.467270 0.000000 
#    z 0.000000 0.000000 1.474850 
# 
# From -- ./inp_files/37498.got.cif
#   From: 2010.05.17/outbox.cif.g08.bks.cpg/sg51_19_cif.got.tgz:37498.got - 2010.06.03 11:52:47.
