data_PCOD9400759
_publ_section_title
;
Structure prediction by ZEFSAII (Michael W. Deem and Ramdas Pophale) SiO2 
 PCOD9400759
Probable space group: P M M A
;
_chemical_formula_sum "Si O2"
_cell_formula_units_Z 48
_cell_length_a 8.130758
_cell_length_b 33.095201
_cell_length_c 9.238457
_cell_angle_alpha 90.000000
_cell_angle_beta 90.000000
_cell_angle_gamma 90.000000
_cell_volume 2485.967805
_symmetry_space_group_name_H-M "P M M A"
_symmetry_group_IT_number 51
_symmetry_cell_setting 'orthorhombic'
loop_
_space_group_symop_operation_xyz
x,y,z
1/2-x,-y,z
1/2+x,-y,-z
-x,y,-z
-x,-y,-z
1/2+x,y,-z
1/2-x,y,z
x,-y,z
loop_
_atom_site_type_symbol
_atom_site_label
_atom_site_fract_x
_atom_site_fract_y
_atom_site_fract_z
Si Si1 0.551430 0.667245 0.168884
Si Si2 0.554368 0.840803 0.832572
Si Si3 0.948890 0.579431 0.167558
Si Si4 0.053478 0.754116 0.831243
Si Si5 0.948961 0.080064 0.666180
Si Si6 0.448586 0.000000 0.166365
Si Si7 0.051133 0.500000 0.665609
O O1 0.750000 0.667416 0.176239
O O2 0.494029 0.623521 0.225498
O O3 0.493864 0.710691 0.230010
O O4 0.500000 0.667198 0.000000
O O5 0.250000 0.842569 0.167553
O O6 0.505984 0.796854 0.770696
O O7 0.489635 0.878843 0.742137
O O8 0.500000 0.843682 0.000000
O O9 0.750000 0.579404 0.172530
O O10 0.009172 0.540673 0.255383
O O11 0.000000 0.575877 0.000000
O O12 0.250000 0.754451 0.826275
O O13 0.000000 0.754409 0.000000
O O14 0.750000 0.080367 0.672621
O O15 0.000000 0.078136 0.500000
O O16 0.007127 0.040436 0.752529
O O17 0.250000 0.000000 0.172323
O O18 0.500000 0.000000 0.000000
O O19 0.250000 0.500000 0.674511
O O20 0.000000 0.500000 0.500000
#
# Coordination Sequence:
#
# PCOD9400759 Si02
#       7
#     8   8   8   8   8   4   4
#     4   8  14  24  40  64  93 120 150 189 235 281
#     4  10  19  31  48  73 101 130 164 202 239 281
#     4   9  17  30  48  71  95 120 152 194 238 283
#     4   9  15  24  41  66  94 126 158 193 237 282
#     4  10  22  37  54  76 103 133 167 203 242 287
#     4  10  21  38  58  82 106 130 163 202 242 290
#     4  10  21  34  48  66  92 124 157 192 234 282
#
# _framework density 19.308375000000002
#
# number of rings (size 3 to 8) (size 9 to 14) (size 15 to 20)
#    0.000    2.667    0.000    3.000    0.000    3.333 
#    0.000    0.000    0.000    1.000    0.000    4.667 
#    0.000    0.000    0.000    0.000    0.000    0.000 
#
# Total GULP energy -267434.074938 kJ/mol
# GULP energy per Si atom -5571.543228 kJ/mol
# Density = 1.926443 g / cm^3
# Si number density = 19.308375 Si / 1000 Ang^3
#
#
#
# Elastic Constant Matrix: (Units=GPa)
#
#
# Indices 1 2 3 4 5 6 
#
# 1 16.4331 21.4122 1.5295 0.0000 0.0000 0.0000
# 2 21.4122 265.3727 86.5334 0.0000 0.0000 0.0000
# 3 1.5295 86.5334 76.2106 0.0000 0.0000 0.0000
# 4 0.0000 0.0000 0.0000 -5.4282 0.0000 0.0000
# 5 0.0000 0.0000 0.0000 0.0000 20.7404 0.0000
# 6 0.0000 0.0000 0.0000 0.0000 0.0000 38.9577
#
#
#
# Elastic Compliance Matrix: (Units=1/GPa)
#
#
# Indices 1 2 3 4 5 6 
#
# 1 0.070993 -0.008358 0.008066 0.000000 0.000000 0.000000
# 2 -0.008358 0.006968 -0.007744 0.000000 0.000000 0.000000
# 3 0.008066 -0.007744 0.021752 0.000000 0.000000 0.000000
# 4 0.000000 0.000000 0.000000 -0.184223 0.000000 0.000000
# 5 0.000000 0.000000 0.000000 0.000000 0.048215 0.000000
# 6 0.000000 0.000000 0.000000 0.000000 0.000000 0.025669
#
#
# Mechanical properties :
#
#
# Convention : Reuss Voigt Hill
#
# Bulk Modulus (GPa) = 11.95598 64.10740 38.03169
# Shear Modulus (GPa) = 150.02442 27.42339 88.72391
#
# Velocity S-wave (km/s) = 8.82427 3.77276 6.78607
# Velocity P-wave (km/s) = 10.48949 7.22857 9.00782
#
# Compressibility (1/GPa) = 0.08364016
#
# Stress axis : x y z
#
# Youngs Moduli (GPa) = 14.08591 143.51639 45.97176
#
# Poissons Ratio (x) = 1.19955 -0.37079
# Poissons Ratio (y) = 0.11773 0.35600
# Poissons Ratio (z) = -0.11361 1.11138
#
# Static dielectric constant tensor:
#      x y z
#    x 1.651510 0.000000 0.000000 
#    y 0.000000 1.764890 0.000000 
#    z 0.000000 0.000000 1.628010 
# 
# From -- ./inp_files/6100.got.cif
#   From: 2010.05.17/outbox.cif.g08.bks.cpg/sg51_4_cif.got.tgz:6100.got - 2010.06.03 11:52:47.
