data_PCOD9400101
_publ_section_title
;
Structure prediction by ZEFSAII (Michael W. Deem and Ramdas Pophale) SiO2 
 PCOD9400101
Probable space group: P M M A
;
_chemical_formula_sum "Si O2"
_cell_formula_units_Z 48
_cell_length_a 15.404948
_cell_length_b 13.923767
_cell_length_c 11.849354
_cell_angle_alpha 90.000000
_cell_angle_beta 90.000000
_cell_angle_gamma 90.000000
_cell_volume 2541.626079
_symmetry_space_group_name_H-M "P M M A"
_symmetry_group_IT_number 51
_symmetry_cell_setting 'orthorhombic'
loop_
_space_group_symop_operation_xyz
x,y,z
1/2-x,-y,z
1/2+x,-y,-z
-x,y,-z
-x,-y,-z
1/2+x,y,-z
1/2-x,y,z
x,-y,z
loop_
_atom_site_type_symbol
_atom_site_label
_atom_site_fract_x
_atom_site_fract_y
_atom_site_fract_z
Si Si1 0.147066 0.778823 0.462495
Si Si2 0.592809 0.892543 0.741181
Si Si3 0.356184 0.390443 0.627459
Si Si4 0.153452 0.736265 0.825318
Si Si5 0.355497 0.891628 0.998681
Si Si6 0.104700 0.104761 0.663317
O O1 0.250000 0.785467 0.478511
O O2 0.128544 0.804959 0.333501
O O3 0.118383 0.679933 0.523777
O O4 0.101774 0.862693 0.534396
O O5 0.615012 0.881895 0.872423
O O6 0.490430 0.893344 0.717379
O O7 0.626460 0.000000 0.707901
O O8 0.250000 0.388607 0.632412
O O9 0.383382 0.500000 0.610519
O O10 0.387415 0.348737 0.749431
O O11 0.250000 0.704930 0.861945
O O12 0.159744 0.817291 0.728850
O O13 0.113008 0.799675 0.926281
O O14 0.250000 0.890602 0.992804
O O15 0.383010 0.000000 0.959205
O O16 0.142469 0.000000 0.674015
#
# Coordination Sequence:
#
# PCOD9400101 Si02
#       6
#     8   8   8   8   8   8
#     4  10  19  30  47  68  88 116 153 189 226 267
#     4  10  20  31  43  63  96 133 157 176 212 265
#     4   8  15  29  49  71  90 109 141 190 241 276
#     4   9  17  29  47  69  89 113 149 191 229 264
#     4   9  17  29  45  66  93 123 153 182 213 258
#     4  10  19  29  43  65  93 122 152 187 224 262
#
# _framework density 18.885548
#
# number of rings (size 3 to 8) (size 9 to 14) (size 15 to 20)
#    0.000    2.667    0.000    3.500    0.000    5.667 
#    0.000    2.500    0.000    9.000    0.000    9.333 
#    0.000    0.000    0.000    0.000    0.000    0.000 
#
# Total GULP energy -267211.892738 kJ/mol
# GULP energy per Si atom -5566.914432 kJ/mol
# Density = 1.884256 g / cm^3
# Si number density = 18.885548 Si / 1000 Ang^3
#
#
#
# Elastic Constant Matrix: (Units=GPa)
#
#
# Indices 1 2 3 4 5 6 
#
# 1 33.0612 9.6991 1.1453 0.0000 0.0000 0.0000
# 2 9.6991 110.9542 52.8560 0.0000 0.0000 0.0000
# 3 1.1453 52.8560 93.6142 0.0000 0.0000 0.0000
# 4 0.0000 0.0000 0.0000 25.3057 0.0000 0.0000
# 5 0.0000 0.0000 0.0000 0.0000 -21.0830 0.0000
# 6 0.0000 0.0000 0.0000 0.0000 0.0000 5.0382
#
#
#
# Elastic Compliance Matrix: (Units=1/GPa)
#
#
# Indices 1 2 3 4 5 6 
#
# 1 0.031214 -0.003484 0.001585 0.000000 0.000000 0.000000
# 2 -0.003484 0.012718 -0.007138 0.000000 0.000000 0.000000
# 3 0.001585 -0.007138 0.014693 0.000000 0.000000 0.000000
# 4 0.000000 0.000000 0.000000 0.039517 0.000000 0.000000
# 5 0.000000 0.000000 0.000000 0.000000 -0.047432 0.000000
# 6 0.000000 0.000000 0.000000 0.000000 0.000000 0.198485
#
#
# Mechanical properties :
#
#
# Convention : Reuss Voigt Hill
#
# Bulk Modulus (GPa) = 24.66003 40.55894 32.60948
# Shear Modulus (GPa) = 17.80723 13.44746 15.62734
#
# Velocity S-wave (km/s) = 3.07400 2.67132 2.87971
# Velocity P-wave (km/s) = 5.06807 5.57112 5.32554
#
# Compressibility (1/GPa) = 0.04055146
#
# Stress axis : x y z
#
# Youngs Moduli (GPa) = 32.03687 78.63120 68.05995
#
# Poissons Ratio (x) = 0.27393 -0.10788
# Poissons Ratio (y) = 0.11161 0.48581
# Poissons Ratio (z) = -0.05078 0.56126
#
# Static dielectric constant tensor:
#      x y z
#    x 1.710710 0.000000 0.000000 
#    y 0.000000 1.684000 0.000000 
#    z 0.000000 0.000000 1.706810 
# 
# From -- ./inp_files/16422.got.cif
#   From: 2010.05.17/outbox.cif.g08.bks.cpg/sg51_9_cif.got.tgz:16422.got - 2010.06.03 11:52:47.
