data_PCOD9400012
_publ_section_title
;
Structure prediction by ZEFSAII (Michael W. Deem and Ramdas Pophale) SiO2 
 PCOD9400012
Probable space group: P M M A
;
_chemical_formula_sum "Si O2"
_cell_formula_units_Z 48
_cell_length_a 17.464274
_cell_length_b 15.667393
_cell_length_c 9.590859
_cell_angle_alpha 90.000000
_cell_angle_beta 90.000000
_cell_angle_gamma 90.000000
_cell_volume 2624.247427
_symmetry_space_group_name_H-M "P M M A"
_symmetry_group_IT_number 51
_symmetry_cell_setting 'orthorhombic'
loop_
_space_group_symop_operation_xyz
x,y,z
1/2-x,-y,z
1/2+x,-y,-z
-x,y,-z
-x,-y,-z
1/2+x,y,-z
1/2-x,y,z
x,-y,z
loop_
_atom_site_type_symbol
_atom_site_label
_atom_site_fract_x
_atom_site_fract_y
_atom_site_fract_z
Si Si1 0.906236 0.096964 0.847471
Si Si2 0.092867 0.903433 0.831716
Si Si3 0.075182 0.599816 0.093779
Si Si4 0.160241 0.404925 0.818610
Si Si5 0.412118 0.257843 0.327409
Si Si6 0.095126 0.748485 0.642294
O O1 0.880222 0.173891 0.749793
O O2 0.999510 0.097627 0.837537
O O3 0.882126 0.000000 0.811503
O O4 0.884131 0.114387 0.008178
O O5 0.121936 0.833723 0.722594
O O6 0.115745 0.000000 0.795512
O O7 0.065783 0.500000 0.133870
O O8 0.091115 0.661121 0.223909
O O9 0.143135 0.606845 0.981919
O O10 0.000000 0.624353 0.000000
O O11 0.250000 0.401347 0.791918
O O12 0.131122 0.500000 0.782711
O O13 0.119023 0.333005 0.731110
O O14 0.378799 0.263579 0.482991
O O15 0.503121 0.245757 0.351333
#
# Coordination Sequence:
#
# PCOD9400012 Si02
#       6
#     8   8   8   8   8   8
#     4   8  14  24  40  66  99 134 166 200 246 293
#     4   8  14  25  43  66  96 133 169 203 242 292
#     4  10  19  33  53  74  96 127 169 218 260 296
#     4  10  21  37  55  73  97 133 172 208 253 309
#     4  10  19  28  47  76 105 131 162 208 254 296
#     4  10  19  30  46  74 105 134 164 200 251 305
#
# _framework density 18.290959000000001
#
# number of rings (size 3 to 8) (size 9 to 14) (size 15 to 20)
#    0.000    2.667    1.667    2.000    2.333    1.333 
#    0.000    5.833    0.000    2.500    0.000    0.000 
#    0.000    1.333    0.000    0.000    0.000    0.000 
#
# Total GULP energy -267358.910266 kJ/mol
# GULP energy per Si atom -5569.977297 kJ/mol
# Density = 1.824933 g / cm^3
# Si number density = 18.290959 Si / 1000 Ang^3
#
#
#
# Elastic Constant Matrix: (Units=GPa)
#
#
# Indices 1 2 3 4 5 6 
#
# 1 4.1687 6.4977 3.5133 0.0000 0.0000 0.0000
# 2 6.4977 148.8424 116.6448 0.0000 0.0000 0.0000
# 3 3.5133 116.6448 142.8603 0.0000 0.0000 0.0000
# 4 0.0000 0.0000 0.0000 -3.8314 0.0000 0.0000
# 5 0.0000 0.0000 0.0000 0.0000 5.2109 0.0000
# 6 0.0000 0.0000 0.0000 0.0000 0.0000 -4.7744
#
#
#
# Elastic Compliance Matrix: (Units=1/GPa)
#
#
# Indices 1 2 3 4 5 6 
#
# 1 0.260644 -0.017646 0.007998 0.000000 0.000000 0.000000
# 2 -0.017646 0.019851 -0.015774 0.000000 0.000000 0.000000
# 3 0.007998 -0.015774 0.019682 0.000000 0.000000 0.000000
# 4 0.000000 0.000000 0.000000 -0.261001 0.000000 0.000000
# 5 0.000000 0.000000 0.000000 0.000000 0.191906 0.000000
# 6 0.000000 0.000000 0.000000 0.000000 0.000000 -0.209453
#
#
# Mechanical properties :
#
#
# Convention : Reuss Voigt Hill
#
# Bulk Modulus (GPa) = 4.01070 61.02033 32.51551
# Shear Modulus (GPa) = 32.13694 10.60208 21.36951
#
# Velocity S-wave (km/s) = 4.19619 2.41017 3.42176
# Velocity P-wave (km/s) = 5.06703 6.41705 5.78158
#
# Compressibility (1/GPa) = 0.24933318
#
# Stress axis : x y z
#
# Youngs Moduli (GPa) = 3.83665 50.37648 50.80667
#
# Poissons Ratio (x) = 0.88896 -0.40636
# Poissons Ratio (y) = 0.06770 0.80142
# Poissons Ratio (z) = -0.03069 0.79463
#
# Static dielectric constant tensor:
#      x y z
#    x 1.628780 0.000000 0.000000 
#    y 0.000000 1.642430 0.000000 
#    z 0.000000 0.000000 1.612990 
# 
# From -- ./inp_files/9628.got.cif
#   From: 2010.05.17/outbox.cif.g08.bks.cpg/sg51_5_cif.got.tgz:9628.got - 2010.06.03 11:52:47.
