data_PCOD9400890
_publ_section_title
;
Structure prediction by ZEFSAII (Michael W. Deem and Ramdas Pophale) SiO2 
 PCOD9400890
Probable space group: P M M A
;
_chemical_formula_sum "Si O2"
_cell_formula_units_Z 56
_cell_length_a 8.732965
_cell_length_b 14.843646
_cell_length_c 24.159915
_cell_angle_alpha 90.000000
_cell_angle_beta 90.000000
_cell_angle_gamma 90.000000
_cell_volume 3131.826612
_symmetry_space_group_name_H-M "P M M A"
_symmetry_group_IT_number 51
_symmetry_cell_setting 'orthorhombic'
loop_
_space_group_symop_operation_xyz
x,y,z
1/2-x,-y,z
1/2+x,-y,-z
-x,y,-z
-x,-y,-z
1/2+x,y,-z
1/2-x,y,z
x,-y,z
loop_
_atom_site_type_symbol
_atom_site_label
_atom_site_fract_x
_atom_site_fract_y
_atom_site_fract_z
Si Si1 0.934660 0.395937 0.060112
Si Si2 0.070290 0.392755 0.268754
Si Si3 0.932879 0.395888 0.389117
Si Si4 0.564655 0.283343 0.166077
Si Si5 0.434427 0.102209 0.781937
Si Si6 0.567033 0.224611 0.558072
Si Si7 0.433307 0.894419 0.337680
O O1 0.750000 0.393177 0.057580
O O2 0.979167 0.500000 0.072361
O O3 0.986208 0.330111 0.109169
O O4 0.000000 0.372297 0.000000
O O5 0.250000 0.371173 0.274579
O O6 0.055226 0.500000 0.258634
O O7 0.987220 0.373343 0.326765
O O8 0.998761 0.339188 0.217954
O O9 0.750000 0.388364 0.392688
O O10 0.976402 0.500000 0.399712
O O11 0.011065 0.325714 0.429967
O O12 0.750000 0.287466 0.167486
O O13 0.517746 0.179495 0.175185
O O14 0.250000 0.099937 0.781394
O O15 0.490480 0.129541 0.720716
O O16 0.489653 0.000000 0.792953
O O17 0.500000 0.192162 0.500000
O O18 0.750000 0.221683 0.555841
O O19 0.515068 0.164833 0.610446
O O20 0.250000 0.883630 0.331858
O O21 0.465084 0.000000 0.347981
#
# Coordination Sequence:
#
# PCOD9400890 Si02
#       7
#     8   8   8   8   8   8   8
#     4   9  18  32  49  70  98 133 172 211 250 293
#     4  10  20  32  48  74 105 132 160 199 248 300
#     4  10  21  37  55  73  97 131 167 204 248 297
#     4  10  19  31  50  74 101 134 170 208 249 294
#     4   9  18  32  51  76 102 128 161 201 246 296
#     4  11  23  37  54  75  99 128 164 206 249 296
#     4   9  19  36  55  75 101 131 161 197 246 300
#
# _framework density 17.880938
#
# number of rings (size 3 to 8) (size 9 to 14) (size 15 to 20)
#    0.000    2.286    0.000    2.571    0.000    7.429 
#    0.000    1.429    0.000    0.429    0.000    0.000 
#    0.000    0.000    0.000    0.000    0.000    0.000 
#
# Total GULP energy -312607.105253 kJ/mol
# GULP energy per Si atom -5582.269737 kJ/mol
# Density = 1.784024 g / cm^3
# Si number density = 17.880938 Si / 1000 Ang^3
#
#
#
# Elastic Constant Matrix: (Units=GPa)
#
#
# Indices 1 2 3 4 5 6 
#
# 1 16.3833 22.5773 16.1028 0.0000 0.0000 0.0000
# 2 22.5773 83.9303 70.1299 0.0000 0.0000 0.0000
# 3 16.1028 70.1299 95.1317 0.0000 0.0000 0.0000
# 4 0.0000 0.0000 0.0000 22.1050 0.0000 0.0000
# 5 0.0000 0.0000 0.0000 0.0000 29.1530 0.0000
# 6 0.0000 0.0000 0.0000 0.0000 0.0000 19.1249
#
#
#
# Elastic Compliance Matrix: (Units=1/GPa)
#
#
# Indices 1 2 3 4 5 6 
#
# 1 0.098999 -0.032885 0.007485 0.000000 0.000000 0.000000
# 2 -0.032885 0.041949 -0.025358 0.000000 0.000000 0.000000
# 3 0.007485 -0.025358 0.027938 0.000000 0.000000 0.000000
# 4 0.000000 0.000000 0.000000 0.045239 0.000000 0.000000
# 5 0.000000 0.000000 0.000000 0.000000 0.034302 0.000000
# 6 0.000000 0.000000 0.000000 0.000000 0.000000 0.052288
#
#
# Mechanical properties :
#
#
# Convention : Reuss Voigt Hill
#
# Bulk Modulus (GPa) = 14.84332 45.89614 30.36973
# Shear Modulus (GPa) = 11.77336 19.85226 15.81281
#
# Velocity S-wave (km/s) = 2.56877 3.33565 2.97701
# Velocity P-wave (km/s) = 4.13731 6.36858 5.37011
#
# Compressibility (1/GPa) = 0.06737038
#
# Stress axis : x y z
#
# Youngs Moduli (GPa) = 10.10114 23.83837 35.79300
#
# Poissons Ratio (x) = 0.78392 -0.26791
# Poissons Ratio (y) = 0.33217 0.90764
# Poissons Ratio (z) = -0.07561 0.60449
#
# Static dielectric constant tensor:
#      x y z
#    x 1.600710 0.000000 0.000000 
#    y 0.000000 1.637660 0.000000 
#    z 0.000000 0.000000 1.580090 
# 
# From -- ./inp_files/31908.got.cif
#   From: 2010.05.17/outbox.cif.g08.bks.cpg/sg51_16_cif.got.tgz:31908.got - 2010.06.03 11:52:47.
