data_PCOD9400891
_publ_section_title
;
Structure prediction by ZEFSAII (Michael W. Deem and Ramdas Pophale) SiO2 
 PCOD9400891
Probable space group: P M M A
;
_chemical_formula_sum "Si O2"
_cell_formula_units_Z 40
_cell_length_a 9.220763
_cell_length_b 7.692678
_cell_length_c 30.420552
_cell_angle_alpha 90.000000
_cell_angle_beta 90.000000
_cell_angle_gamma 90.000000
_cell_volume 2157.801566
_symmetry_space_group_name_H-M "P M M A"
_symmetry_group_IT_number 51
_symmetry_cell_setting 'orthorhombic'
loop_
_space_group_symop_operation_xyz
x,y,z
1/2-x,-y,z
1/2+x,-y,-z
-x,y,-z
-x,-y,-z
1/2+x,y,-z
1/2-x,y,z
x,-y,z
loop_
_atom_site_type_symbol
_atom_site_label
_atom_site_fract_x
_atom_site_fract_y
_atom_site_fract_z
Si Si1 0.073466 0.000000 0.213019
Si Si2 0.916894 0.787405 0.543928
Si Si3 0.582594 0.789130 0.368129
Si Si4 0.073439 0.000000 0.112821
Si Si5 0.575866 0.702091 0.954110
Si Si6 0.421316 0.302014 0.278712
O O1 0.020899 0.000000 0.162947
O O2 0.030045 0.167646 0.241415
O O3 0.250000 0.000000 0.211209
O O4 0.750000 0.731967 0.543590
O O5 0.000000 0.731275 0.500000
O O6 0.997716 0.731585 0.588259
O O7 0.917996 0.000000 0.543839
O O8 0.750000 0.735200 0.370014
O O9 0.506625 0.725389 0.323871
O O10 0.578520 0.000000 0.367319
O O11 0.030555 0.169343 0.084842
O O12 0.250000 0.000000 0.114424
O O13 0.750000 0.716860 0.959390
O O14 0.542274 0.500000 0.944569
O O15 0.500000 0.749365 0.000000
O O16 0.250000 0.269758 0.287380
O O17 0.437296 0.500000 0.263720
#
# Coordination Sequence:
#
# PCOD9400891 Si02
#       6
#     4   8   8   4   8   8
#     4   9  18  33  52  76 105 131 166 218 265 308
#     4   9  16  26  43  70 104 138 172 211 255 307
#     4  10  19  31  50  74 101 135 173 213 258 308
#     4   9  17  29  48  74 102 133 169 212 259 304
#     4   9  17  29  47  72 102 136 174 213 253 300
#     4  10  20  34  54  77 100 131 170 212 262 315
#
# _framework density 18.537385
#
# number of rings (size 3 to 8) (size 9 to 14) (size 15 to 20)
#    0.000    2.600    1.000    1.500    0.000    4.400 
#    0.000    4.000    0.000    3.000    0.000    2.800 
#    0.000    0.000    0.000    0.000    0.000    0.000 
#
# Total GULP energy -223237.781359 kJ/mol
# GULP energy per Si atom -5580.944534 kJ/mol
# Density = 1.849519 g / cm^3
# Si number density = 18.537385 Si / 1000 Ang^3
#
#
#
# Elastic Constant Matrix: (Units=GPa)
#
#
# Indices 1 2 3 4 5 6 
#
# 1 73.7548 43.2606 68.3607 0.0000 0.0000 0.0000
# 2 43.2606 77.4899 81.2809 0.0000 0.0000 0.0000
# 3 68.3607 81.2809 205.3887 0.0000 0.0000 0.0000
# 4 0.0000 0.0000 0.0000 -14.6606 0.0000 0.0000
# 5 0.0000 0.0000 0.0000 0.0000 26.1218 0.0000
# 6 0.0000 0.0000 0.0000 0.0000 0.0000 10.1662
#
#
#
# Elastic Compliance Matrix: (Units=1/GPa)
#
#
# Indices 1 2 3 4 5 6 
#
# 1 0.022121 -0.007910 -0.004232 0.000000 0.000000 0.000000
# 2 -0.007910 0.024892 -0.007218 0.000000 0.000000 0.000000
# 3 -0.004232 -0.007218 0.009134 0.000000 0.000000 0.000000
# 4 0.000000 0.000000 0.000000 -0.068210 0.000000 0.000000
# 5 0.000000 0.000000 0.000000 0.000000 0.038282 0.000000
# 6 0.000000 0.000000 0.000000 0.000000 0.000000 0.098365
#
#
# Mechanical properties :
#
#
# Convention : Reuss Voigt Hill
#
# Bulk Modulus (GPa) = 57.38566 82.49308 69.93937
# Shear Modulus (GPa) = 29.56582 15.24089 22.40336
#
# Velocity S-wave (km/s) = 3.99799 2.87046 3.48019
# Velocity P-wave (km/s) = 7.23435 7.45544 7.34573
#
# Compressibility (1/GPa) = 0.01742596
#
# Stress axis : x y z
#
# Youngs Moduli (GPa) = 45.20622 40.17323 109.48178
#
# Poissons Ratio (x) = 0.31778 0.46335
# Poissons Ratio (y) = 0.35759 0.79025
# Poissons Ratio (z) = 0.19132 0.28997
#
# Static dielectric constant tensor:
#      x y z
#    x 1.622320 0.000000 0.000000 
#    y 0.000000 1.673200 0.000000 
#    z 0.000000 0.000000 1.595620 
# 
# From -- ./inp_files/36056.got.cif
#   From: 2010.05.17/outbox.cif.g08.bks.cpg/sg51_19_cif.got.tgz:36056.got - 2010.06.03 11:52:47.
