data_PCOD9400331
_publ_section_title
;
Structure prediction by ZEFSAII (Michael W. Deem and Ramdas Pophale) SiO2 
 PCOD9400331
Probable space group: P M M A
;
_chemical_formula_sum "Si O2"
_cell_formula_units_Z 64
_cell_length_a 15.817846
_cell_length_b 20.933047
_cell_length_c 9.612124
_cell_angle_alpha 90.000000
_cell_angle_beta 90.000000
_cell_angle_gamma 90.000000
_cell_volume 3182.725299
_symmetry_space_group_name_H-M "P M M A"
_symmetry_group_IT_number 51
_symmetry_cell_setting 'orthorhombic'
loop_
_space_group_symop_operation_xyz
x,y,z
1/2-x,-y,z
1/2+x,-y,-z
-x,y,-z
-x,-y,-z
1/2+x,y,-z
1/2-x,y,z
x,-y,z
loop_
_atom_site_type_symbol
_atom_site_label
_atom_site_fract_x
_atom_site_fract_y
_atom_site_fract_z
Si Si1 0.005390 0.577505 0.663132
Si Si2 0.844472 0.575094 0.835303
Si Si3 0.343038 0.835811 0.221926
Si Si4 0.849131 0.865055 0.238857
Si Si5 0.845984 0.621433 0.139759
Si Si6 0.353898 0.075574 0.467339
Si Si7 0.595868 0.246072 0.028309
Si Si8 0.595365 0.929749 0.991896
O O1 0.010548 0.500000 0.674651
O O2 0.086334 0.606168 0.741742
O O3 0.000000 0.593426 0.500000
O O4 0.920755 0.600907 0.742309
O O5 0.750000 0.602783 0.812405
O O6 0.839638 0.500000 0.802843
O O7 0.864561 0.582142 0.998627
O O8 0.250000 0.817351 0.270838
O O9 0.385885 0.875636 0.346933
O O10 0.376152 0.778609 0.124842
O O11 0.343432 0.890538 0.105111
O O12 0.750000 0.848597 0.244993
O O13 0.877428 0.887918 0.390256
O O14 0.893743 0.808998 0.147567
O O15 0.865090 0.926617 0.143067
O O16 0.750000 0.607322 0.184437
O O17 0.853357 0.694135 0.087149
O O18 0.250000 0.073731 0.459499
O O19 0.380301 0.000000 0.459352
O O20 0.500000 0.265567 0.000000
O O21 0.586147 0.000000 0.934240
O O22 0.500000 0.902225 0.000000
#
# Coordination Sequence:
#
# PCOD9400331 Si02
#       8
#     8   8   8   8   8   8   8   8
#     4  10  21  37  59  91 131 168 201 244 301 358
#     4   9  18  34  58  88 122 161 206 255 302 349
#     4  10  19  33  53  75 100 131 173 224 281 343
#     4  10  19  33  52  73 100 134 175 220 273 338
#     4  11  22  38  62  89 117 156 210 259 300 352
#     4   9  18  32  52  79 107 135 172 223 283 350
#     4  11  22  38  57  77 107 145 188 239 292 348
#     4  10  19  30  45  68  96 125 162 210 265 329
#
# _framework density 20.108553000000001
#
# number of rings (size 3 to 8) (size 9 to 14) (size 15 to 20)
#    0.000    2.000    0.000    6.000    0.000    4.250 
#    0.000    6.250    0.000    6.000    0.000    0.000 
#    0.000    0.000    0.000    0.000    0.000    0.000 
#
# Total GULP energy -356342.264713 kJ/mol
# GULP energy per Si atom -5567.847886 kJ/mol
# Density = 2.006278 g / cm^3
# Si number density = 20.108553 Si / 1000 Ang^3
#
#
#
# Elastic Constant Matrix: (Units=GPa)
#
#
# Indices 1 2 3 4 5 6 
#
# 1 96.3992 10.6487 52.5003 0.0000 0.0000 0.0000
# 2 10.6487 38.1836 17.2320 0.0000 0.0000 0.0000
# 3 52.5003 17.2320 144.1184 0.0000 0.0000 0.0000
# 4 0.0000 0.0000 0.0000 14.2236 0.0000 0.0000
# 5 0.0000 0.0000 0.0000 0.0000 66.4820 0.0000
# 6 0.0000 0.0000 0.0000 0.0000 0.0000 36.0077
#
#
#
# Elastic Compliance Matrix: (Units=1/GPa)
#
#
# Indices 1 2 3 4 5 6 
#
# 1 0.013030 -0.001577 -0.004558 0.000000 0.000000 0.000000
# 2 -0.001577 0.027874 -0.002758 0.000000 0.000000 0.000000
# 3 -0.004558 -0.002758 0.008929 0.000000 0.000000 0.000000
# 4 0.000000 0.000000 0.000000 0.070306 0.000000 0.000000
# 5 0.000000 0.000000 0.000000 0.000000 0.015042 0.000000
# 6 0.000000 0.000000 0.000000 0.000000 0.000000 0.027772
#
#
# Mechanical properties :
#
#
# Convention : Reuss Voigt Hill
#
# Bulk Modulus (GPa) = 31.20487 48.82923 40.01705
# Shear Modulus (GPa) = 26.12039 36.56399 31.34219
#
# Velocity S-wave (km/s) = 3.60803 4.26881 3.95226
# Velocity P-wave (km/s) = 5.73664 6.97371 6.38520
#
# Compressibility (1/GPa) = 0.03204628
#
# Stress axis : x y z
#
# Youngs Moduli (GPa) = 76.74514 35.87590 111.99427
#
# Poissons Ratio (x) = 0.05657 0.51049
# Poissons Ratio (y) = 0.12101 0.30893
# Poissons Ratio (z) = 0.34982 0.09896
#
# Static dielectric constant tensor:
#      x y z
#    x 1.772930 0.000000 0.000000 
#    y 0.000000 1.769060 0.000000 
#    z 0.000000 0.000000 1.716450 
# 
# From -- ./inp_files/8728.got.cif
#   From: 2010.05.17/outbox.cif.g08.bks.cpg/sg51_5_cif.got.tgz:8728.got - 2010.06.03 11:52:47.
