data_PCOD9400915
_publ_section_title
;
Structure prediction by ZEFSAII (Michael W. Deem and Ramdas Pophale) SiO2 
 PCOD9400915
Probable space group: P M M A
;
_chemical_formula_sum "Si O2"
_cell_formula_units_Z 56
_cell_length_a 7.587699
_cell_length_b 15.653702
_cell_length_c 22.610931
_cell_angle_alpha 90.000000
_cell_angle_beta 90.000000
_cell_angle_gamma 90.000000
_cell_volume 2685.626422
_symmetry_space_group_name_H-M "P M M A"
_symmetry_group_IT_number 51
_symmetry_cell_setting 'orthorhombic'
loop_
_space_group_symop_operation_xyz
x,y,z
1/2-x,-y,z
1/2+x,-y,-z
-x,y,-z
-x,-y,-z
1/2+x,y,-z
1/2-x,y,z
x,-y,z
loop_
_atom_site_type_symbol
_atom_site_label
_atom_site_fract_x
_atom_site_fract_y
_atom_site_fract_z
Si Si1 0.963336 0.096709 0.165935
Si Si2 0.956580 0.406780 0.092534
Si Si3 0.957805 0.724303 0.671093
Si Si4 0.463609 0.404848 0.230507
Si Si5 0.043712 0.905471 0.302884
Si Si6 0.538491 0.776846 0.064318
Si Si7 0.459473 0.595555 0.568612
O O1 0.750000 0.100706 0.168552
O O2 0.026784 0.165699 0.118513
O O3 0.030550 0.110265 0.232331
O O4 0.011904 0.000000 0.148134
O O5 0.750000 0.409685 0.076786
O O6 0.033912 0.500000 0.076993
O O7 0.034475 0.319854 0.066666
O O8 0.970349 0.396943 0.163589
O O9 0.750000 0.734445 0.683509
O O10 0.030117 0.668231 0.725651
O O11 0.032532 0.820046 0.667540
O O12 0.973800 0.667690 0.612617
O O13 0.250000 0.401735 0.228458
O O14 0.513015 0.500000 0.252333
O O15 0.250000 0.911068 0.318908
O O16 0.965861 0.000000 0.314352
O O17 0.750000 0.771687 0.071056
O O18 0.500000 0.814541 0.000000
O O19 0.500000 0.612906 0.500000
O O20 0.250000 0.592962 0.575387
O O21 0.530012 0.500000 0.582498
#
# Coordination Sequence:
#
# PCOD9400915 Si02
#       7
#     8   8   8   8   8   8   8
#     4   9  18  33  51  70  94 123 154 193 244 297
#     4   9  18  32  47  63  87 118 150 188 235 284
#     4  10  19  31  50  75 105 138 168 204 248 291
#     4   9  17  28  44  69  97 123 154 192 236 288
#     4   9  18  32  51  77 105 132 165 204 246 293
#     4  10  21  34  47  65  88 115 151 194 237 285
#     4  10  21  36  54  77 106 140 176 211 246 287
#
# _framework density 20.851745999999999
#
# number of rings (size 3 to 8) (size 9 to 14) (size 15 to 20)
#    0.000    2.571    0.000    1.714    0.000    4.286 
#    0.000    1.429    0.000    0.429    0.000    0.000 
#    0.000    0.000    0.000    0.000    0.000    0.000 
#
# Total GULP energy -312548.321296 kJ/mol
# GULP energy per Si atom -5581.220023 kJ/mol
# Density = 2.080429 g / cm^3
# Si number density = 20.851746 Si / 1000 Ang^3
#
#
#
# Elastic Constant Matrix: (Units=GPa)
#
#
# Indices 1 2 3 4 5 6 
#
# 1 48.7902 7.3346 -13.6862 0.0000 0.0000 0.0000
# 2 7.3346 154.2304 56.7108 0.0000 0.0000 0.0000
# 3 -13.6862 56.7108 55.0334 0.0000 0.0000 0.0000
# 4 0.0000 0.0000 0.0000 42.6789 0.0000 0.0000
# 5 0.0000 0.0000 0.0000 0.0000 18.7661 0.0000
# 6 0.0000 0.0000 0.0000 0.0000 0.0000 -7.2026
#
#
#
# Elastic Compliance Matrix: (Units=1/GPa)
#
#
# Indices 1 2 3 4 5 6 
#
# 1 0.024637 -0.005514 0.011809 0.000000 0.000000 0.000000
# 2 -0.005514 0.011673 -0.013400 0.000000 0.000000 0.000000
# 3 0.011809 -0.013400 0.034916 0.000000 0.000000 0.000000
# 4 0.000000 0.000000 0.000000 0.023431 0.000000 0.000000
# 5 0.000000 0.000000 0.000000 0.000000 0.053288 0.000000
# 6 0.000000 0.000000 0.000000 0.000000 0.000000 -0.138839
#
#
# Mechanical properties :
#
#
# Convention : Reuss Voigt Hill
#
# Bulk Modulus (GPa) = 17.53877 39.86359 28.70118
# Shear Modulus (GPa) = 118.13969 24.69480 71.41725
#
# Velocity S-wave (km/s) = 7.53525 3.44510 5.85870
# Velocity P-wave (km/s) = 9.17257 5.91474 7.71752
#
# Compressibility (1/GPa) = 0.05701653
#
# Stress axis : x y z
#
# Youngs Moduli (GPa) = 40.58874 85.66508 28.63989
#
# Poissons Ratio (x) = 0.47234 -0.33821
# Poissons Ratio (y) = 0.22380 0.38379
# Poissons Ratio (z) = -0.47931 1.14795
#
# Static dielectric constant tensor:
#      x y z
#    x 1.760880 0.000000 0.000000 
#    y 0.000000 1.810930 0.000000 
#    z 0.000000 0.000000 1.698060 
# 
# From -- ./inp_files/31868.got.cif
#   From: 2010.05.17/outbox.cif.g08.bks.cpg/sg51_16_cif.got.tgz:31868.got - 2010.06.03 11:52:47.
