data_PCOD9400035
_publ_section_title
;
Structure prediction by ZEFSAII (Michael W. Deem and Ramdas Pophale) SiO2 
 PCOD9400035
Probable space group: P M M A
;
_chemical_formula_sum "Si O2"
_cell_formula_units_Z 64
_cell_length_a 7.592391
_cell_length_b 20.819082
_cell_length_c 20.743997
_cell_angle_alpha 90.000000
_cell_angle_beta 90.000000
_cell_angle_gamma 90.000000
_cell_volume 3278.933300
_symmetry_space_group_name_H-M "P M M A"
_symmetry_group_IT_number 51
_symmetry_cell_setting 'orthorhombic'
loop_
_space_group_symop_operation_xyz
x,y,z
1/2-x,-y,z
1/2+x,-y,-z
-x,y,-z
-x,-y,-z
1/2+x,y,-z
1/2-x,y,z
x,-y,z
loop_
_atom_site_type_symbol
_atom_site_label
_atom_site_fract_x
_atom_site_fract_y
_atom_site_fract_z
Si Si1 0.034957 0.929488 0.293076
Si Si2 0.960753 0.882125 0.569585
Si Si3 0.035966 0.708058 0.252480
Si Si4 0.538618 0.927814 0.924856
Si Si5 0.052308 0.400398 0.571092
Si Si6 0.046440 0.430442 0.286846
Si Si7 0.465517 0.830658 0.183246
Si Si8 0.037425 0.741312 0.398776
O O1 0.250000 0.928609 0.293218
O O2 0.975513 0.917419 0.366273
O O3 0.981149 0.873997 0.244435
O O4 0.980163 0.000000 0.270771
O O5 0.750000 0.879087 0.575342
O O6 0.026403 0.808469 0.572699
O O7 0.000000 0.911078 0.500000
O O8 0.250000 0.704674 0.249167
O O9 0.968834 0.634793 0.256478
O O10 0.976224 0.757782 0.197724
O O11 0.997151 0.738669 0.322548
O O12 0.750000 0.929873 0.916922
O O13 0.474259 0.870253 0.879302
O O14 0.472891 0.000000 0.908090
O O15 0.500000 0.916869 0.000000
O O16 0.250000 0.420977 0.583147
O O17 0.000000 0.422995 0.500000
O O18 0.951188 0.421526 0.635290
O O19 0.040475 0.322894 0.571003
O O20 0.250000 0.432434 0.266189
O O21 0.965969 0.500000 0.272113
O O22 0.250000 0.829012 0.181827
O O23 0.250000 0.737197 0.405580
#
# Coordination Sequence:
#
# PCOD9400035 Si02
#       8
#     8   8   8   8   8   8   8   8
#     4   9  16  26  41  62  85 109 143 187 228 264
#     4  10  19  29  42  59  80 108 141 183 233 278
#     4   8  13  24  44  66  86 107 138 181 221 257
#     4   9  17  28  44  69 100 131 159 185 217 260
#     4  11  21  31  44  62  83 109 142 181 225 274
#     4   9  18  32  48  65  87 114 139 171 222 278
#     4   9  14  24  45  70  91 115 150 190 222 253
#     4   9  16  29  45  61  82 107 138 180 231 278
#
# _framework density 19.518542
#
# number of rings (size 3 to 8) (size 9 to 14) (size 15 to 20)
#    0.000    2.750    1.250    2.625    0.000    3.750 
#    0.000    0.000    0.000    3.750    0.000    0.000 
#    0.000    0.500    0.000    0.375    0.000    0.750 
#
# Total GULP energy -356963.160180 kJ/mol
# GULP energy per Si atom -5577.549378 kJ/mol
# Density = 1.947412 g / cm^3
# Si number density = 19.518542 Si / 1000 Ang^3
#
#
#
# Elastic Constant Matrix: (Units=GPa)
#
#
# Indices 1 2 3 4 5 6 
#
# 1 43.1487 2.1960 -0.3653 0.0000 0.0000 0.0000
# 2 2.1960 149.1300 62.2003 0.0000 0.0000 0.0000
# 3 -0.3653 62.2003 86.6918 0.0000 0.0000 0.0000
# 4 0.0000 0.0000 0.0000 176.0228 0.0000 0.0000
# 5 0.0000 0.0000 0.0000 0.0000 12.0608 0.0000
# 6 0.0000 0.0000 0.0000 0.0000 0.0000 -19.4504
#
#
#
# Elastic Compliance Matrix: (Units=1/GPa)
#
#
# Indices 1 2 3 4 5 6 
#
# 1 0.023208 -0.000546 0.000489 0.000000 0.000000 0.000000
# 2 -0.000546 0.009582 -0.006877 0.000000 0.000000 0.000000
# 3 0.000489 -0.006877 0.016472 0.000000 0.000000 0.000000
# 4 0.000000 0.000000 0.000000 0.005681 0.000000 0.000000
# 5 0.000000 0.000000 0.000000 0.000000 0.082913 0.000000
# 6 0.000000 0.000000 0.000000 0.000000 0.000000 -0.051413
#
#
# Mechanical properties :
#
#
# Convention : Reuss Voigt Hill
#
# Bulk Modulus (GPa) = 28.25357 45.22584 36.73970
# Shear Modulus (GPa) = 44.59989 48.05595 46.32792
#
# Velocity S-wave (km/s) = 4.78535 4.96730 4.87718
# Velocity P-wave (km/s) = 6.71115 7.49132 7.11194
#
# Compressibility (1/GPa) = 0.03539375
#
# Stress axis : x y z
#
# Youngs Moduli (GPa) = 43.08932 104.36203 60.71071
#
# Poissons Ratio (x) = 0.05697 -0.02972
# Poissons Ratio (y) = 0.02352 0.41753
# Poissons Ratio (z) = -0.02109 0.71773
#
# Static dielectric constant tensor:
#      x y z
#    x 1.736040 0.000000 0.000000 
#    y 0.000000 1.729840 0.000000 
#    z 0.000000 0.000000 1.666550 
# 
# From -- ./inp_files/32659.got.cif
#   From: 2010.05.17/outbox.cif.g08.bks.cpg/sg51_17_cif.got.tgz:32659.got - 2010.06.03 11:52:47.
