data_PCOD9400018
_publ_section_title
;
Structure prediction by ZEFSAII (Michael W. Deem and Ramdas Pophale) SiO2 
 PCOD9400018
Probable space group: P M M A
;
_chemical_formula_sum "Si O2"
_cell_formula_units_Z 56
_cell_length_a 29.696108
_cell_length_b 7.639519
_cell_length_c 13.697960
_cell_angle_alpha 90.000000
_cell_angle_beta 90.000000
_cell_angle_gamma 90.000000
_cell_volume 3107.573741
_symmetry_space_group_name_H-M "P M M A"
_symmetry_group_IT_number 51
_symmetry_cell_setting 'orthorhombic'
loop_
_space_group_symop_operation_xyz
x,y,z
1/2-x,-y,z
1/2+x,-y,-z
-x,y,-z
-x,-y,-z
1/2+x,y,-z
1/2-x,y,z
x,-y,z
loop_
_atom_site_type_symbol
_atom_site_label
_atom_site_fract_x
_atom_site_fract_y
_atom_site_fract_z
Si Si1 0.944411 0.203567 0.084843
Si Si2 0.976091 0.296772 0.405565
Si Si3 0.699985 0.713254 0.219110
Si Si4 0.605917 0.286500 0.284332
Si Si5 0.800804 0.713878 0.992524
Si Si6 0.109650 0.699241 0.102862
Si Si7 0.475399 0.796893 0.211238
O O1 0.914575 0.221711 0.182140
O O2 0.993142 0.269827 0.121768
O O3 0.948435 0.000000 0.054813
O O4 0.918615 0.297265 0.998004
O O5 0.967132 0.500000 0.429256
O O6 0.928239 0.223842 0.368085
O O7 0.000000 0.216241 0.500000
O O8 0.009013 0.289704 0.311699
O O9 0.750000 0.771841 0.248150
O O10 0.700393 0.500000 0.218937
O O11 0.657926 0.768111 0.284877
O O12 0.692351 0.765928 0.105870
O O13 0.604092 0.500000 0.282198
O O14 0.750000 0.765184 0.964055
O O15 0.802492 0.500000 0.991819
O O16 0.841741 0.777261 0.925175
O O17 0.116743 0.500000 0.133994
O O18 0.076428 0.782169 0.181956
O O19 0.487561 0.000000 0.221718
#
# Coordination Sequence:
#
# PCOD9400018 Si02
#       7
#     8   8   8   8   8   8   8
#     4  10  19  29  40  58  89 122 148 176 211 250
#     4   9  18  32  49  68  88 109 141 186 229 268
#     4   8  12  20  37  61  86 111 142 177 210 250
#     4   9  15  26  44  64  85 113 146 177 214 261
#     4   8  14  24  39  61  87 114 146 180 213 251
#     4  11  19  28  45  65  86 117 152 182 213 251
#     4  10  21  33  44  62  88 117 147 179 217 262
#
# _framework density 18.020489000000001
#
# number of rings (size 3 to 8) (size 9 to 14) (size 15 to 20)
#    0.000    2.714    1.429    2.571    0.000    3.714 
#    0.000    0.000    0.000    3.000    0.000    1.000 
#    0.000    5.714    0.000    0.000    0.000    0.000 
#
# Total GULP energy -312064.405168 kJ/mol
# GULP energy per Si atom -5572.578664 kJ/mol
# Density = 1.797947 g / cm^3
# Si number density = 18.020489 Si / 1000 Ang^3
#
#
#
# Elastic Constant Matrix: (Units=GPa)
#
#
# Indices 1 2 3 4 5 6 
#
# 1 175.2670 0.4776 46.3970 0.0000 0.0000 0.0000
# 2 0.4776 36.1907 -4.7006 0.0000 0.0000 0.0000
# 3 46.3970 -4.7006 40.3781 0.0000 0.0000 0.0000
# 4 0.0000 0.0000 0.0000 17.1842 0.0000 0.0000
# 5 0.0000 0.0000 0.0000 0.0000 22.9140 0.0000
# 6 0.0000 0.0000 0.0000 0.0000 0.0000 -21.4899
#
#
#
# Elastic Compliance Matrix: (Units=1/GPa)
#
#
# Indices 1 2 3 4 5 6 
#
# 1 0.008266 -0.001363 -0.009656 0.000000 0.000000 0.000000
# 2 -0.001363 0.028280 0.004859 0.000000 0.000000 0.000000
# 3 -0.009656 0.004859 0.036427 0.000000 0.000000 0.000000
# 4 0.000000 0.000000 0.000000 0.058193 0.000000 0.000000
# 5 0.000000 0.000000 0.000000 0.000000 0.043641 0.000000
# 6 0.000000 0.000000 0.000000 0.000000 0.000000 -0.046533
#
#
# Mechanical properties :
#
#
# Convention : Reuss Voigt Hill
#
# Bulk Modulus (GPa) = 16.48760 37.35375 26.92067
# Shear Modulus (GPa) = 31.09198 17.69911 24.39555
#
# Velocity S-wave (km/s) = 4.15826 3.13735 3.68335
# Velocity P-wave (km/s) = 5.67663 5.82215 5.74985
#
# Compressibility (1/GPa) = 0.06065166
#
# Stress axis : x y z
#
# Youngs Moduli (GPa) = 120.98432 35.36006 27.45195
#
# Poissons Ratio (x) = 0.04821 0.26509
# Poissons Ratio (y) = 0.16494 -0.13338
# Poissons Ratio (z) = 1.16826 -0.17181
#
# Static dielectric constant tensor:
#      x y z
#    x 1.677280 0.000000 0.000000 
#    y 0.000000 1.650540 0.000000 
#    z 0.000000 0.000000 1.588190 
# 
# From -- ./inp_files/26474.got.cif
#   From: 2010.05.17/outbox.cif.g08.bks.cpg/sg51_14_cif.got.tgz:26474.got - 2010.06.03 11:52:47.
