data_PCOD9400876
_publ_section_title
;
Structure prediction by ZEFSAII (Michael W. Deem and Ramdas Pophale) SiO2 
 PCOD9400876
Probable space group: P M M A
;
_chemical_formula_sum "Si O2"
_cell_formula_units_Z 64
_cell_length_a 14.148267
_cell_length_b 8.684394
_cell_length_c 31.536883
_cell_angle_alpha 90.000000
_cell_angle_beta 90.000000
_cell_angle_gamma 90.000000
_cell_volume 3874.909221
_symmetry_space_group_name_H-M "P M M A"
_symmetry_group_IT_number 51
_symmetry_cell_setting 'orthorhombic'
loop_
_space_group_symop_operation_xyz
x,y,z
1/2-x,-y,z
1/2+x,-y,-z
-x,y,-z
-x,-y,-z
1/2+x,y,-z
1/2-x,y,z
x,-y,z
loop_
_atom_site_type_symbol
_atom_site_label
_atom_site_fract_x
_atom_site_fract_y
_atom_site_fract_z
Si Si1 0.358018 0.683746 0.240995
Si Si2 0.358655 0.184955 0.147746
Si Si3 0.993831 0.185364 0.549495
Si Si4 0.138298 0.322955 0.385380
Si Si5 0.532084 0.814747 0.935757
Si Si6 0.483584 0.180600 0.313926
Si Si7 0.358231 0.812608 0.622267
Si Si8 0.859358 0.315238 0.016653
O O1 0.250000 0.737305 0.252497
O O2 0.356596 0.500000 0.242525
O O3 0.376668 0.739565 0.193198
O O4 0.438764 0.742244 0.272635
O O5 0.250000 0.221431 0.135542
O O6 0.428223 0.232505 0.110030
O O7 0.365070 0.000000 0.152447
O O8 0.905803 0.271836 0.570283
O O9 0.000000 0.222302 0.500000
O O10 0.083397 0.228072 0.579517
O O11 0.982180 0.000000 0.553279
O O12 0.250000 0.312071 0.385337
O O13 0.111786 0.500000 0.375377
O O14 0.093198 0.211789 0.350583
O O15 0.429255 0.749925 0.947491
O O16 0.530774 0.000000 0.937956
O O17 0.601583 0.752557 0.972450
O O18 0.580399 0.237646 0.336615
O O19 0.494200 0.000000 0.305667
O O20 0.250000 0.758778 0.622102
O O21 0.356956 0.000000 0.623433
O O22 0.750000 0.273868 0.022928
O O23 0.867637 0.500000 0.015295
#
# Coordination Sequence:
#
# PCOD9400876 Si02
#       8
#     8   8   8   8   8   8   8   8
#     4  10  20  32  48  72 100 128 154 184 232 291
#     4   9  18  32  49  71  99 128 158 193 235 285
#     4   9  18  31  48  71  95 121 155 192 231 275
#     4  10  20  32  46  66  94 126 155 185 226 274
#     4  10  19  31  50  73  97 127 164 207 249 289
#     4  10  19  31  50  72  93 120 155 195 235 275
#     4   8  15  29  48  69  92 119 153 193 234 273
#     4  10  20  32  47  69  98 132 168 205 247 295
#
# _framework density 16.516514999999998
#
# number of rings (size 3 to 8) (size 9 to 14) (size 15 to 20)
#    0.000    2.500    0.000    4.125    0.000    6.500 
#    0.000    2.500    0.000   10.125    0.000    1.750 
#    0.000    0.000    0.000    0.000    0.000    0.000 
#
# Total GULP energy -356715.662695 kJ/mol
# GULP energy per Si atom -5573.682230 kJ/mol
# Density = 1.647892 g / cm^3
# Si number density = 16.516515 Si / 1000 Ang^3
#
#
#
# Elastic Constant Matrix: (Units=GPa)
#
#
# Indices 1 2 3 4 5 6 
#
# 1 112.6825 26.1062 57.1483 0.0000 0.0000 0.0000
# 2 26.1062 22.9663 19.8421 0.0000 0.0000 0.0000
# 3 57.1483 19.8421 93.8428 0.0000 0.0000 0.0000
# 4 0.0000 0.0000 0.0000 -35.5505 0.0000 0.0000
# 5 0.0000 0.0000 0.0000 0.0000 15.8652 0.0000
# 6 0.0000 0.0000 0.0000 0.0000 0.0000 19.4116
#
#
#
# Elastic Compliance Matrix: (Units=1/GPa)
#
#
# Indices 1 2 3 4 5 6 
#
# 1 0.014836 -0.011083 -0.006691 0.000000 0.000000 0.000000
# 2 -0.011083 0.061554 -0.006265 0.000000 0.000000 0.000000
# 3 -0.006691 -0.006265 0.016056 0.000000 0.000000 0.000000
# 4 0.000000 0.000000 0.000000 -0.028129 0.000000 0.000000
# 5 0.000000 0.000000 0.000000 0.000000 0.063031 0.000000
# 6 0.000000 0.000000 0.000000 0.000000 0.000000 0.051516
#
#
# Mechanical properties :
#
#
# Convention : Reuss Voigt Hill
#
# Bulk Modulus (GPa) = 22.54011 48.40943 35.47477
# Shear Modulus (GPa) = 20.68418 8.37160 14.52789
#
# Velocity S-wave (km/s) = 3.54267 2.25380 2.96902
# Velocity P-wave (km/s) = 5.51459 6.01217 5.76875
#
# Compressibility (1/GPa) = 0.04436535
#
# Stress axis : x y z
#
# Youngs Moduli (GPa) = 67.40468 16.24603 62.28306
#
# Poissons Ratio (x) = 0.18006 0.41675
# Poissons Ratio (y) = 0.74705 0.39023
# Poissons Ratio (z) = 0.45102 0.10179
#
# Static dielectric constant tensor:
#      x y z
#    x 1.558020 0.000000 0.000000 
#    y 0.000000 1.563350 0.000000 
#    z 0.000000 0.000000 1.547570 
# 
# From -- ./inp_files/37837.got.cif
#   From: 2010.05.17/outbox.cif.g08.bks.cpg/sg51_19_cif.got.tgz:37837.got - 2010.06.03 11:52:47.
