data_PCOD9400610
_publ_section_title
;
Structure prediction by ZEFSAII (Michael W. Deem and Ramdas Pophale) SiO2 
 PCOD9400610
Probable space group: P M M A
;
_chemical_formula_sum "Si O2"
_cell_formula_units_Z 56
_cell_length_a 8.855355
_cell_length_b 14.843295
_cell_length_c 23.408139
_cell_angle_alpha 90.000000
_cell_angle_beta 90.000000
_cell_angle_gamma 90.000000
_cell_volume 3076.827742
_symmetry_space_group_name_H-M "P M M A"
_symmetry_group_IT_number 51
_symmetry_cell_setting 'orthorhombic'
loop_
_space_group_symop_operation_xyz
x,y,z
1/2-x,-y,z
1/2+x,-y,-z
-x,y,-z
-x,-y,-z
1/2+x,y,-z
1/2-x,y,z
x,-y,z
loop_
_atom_site_type_symbol
_atom_site_label
_atom_site_fract_x
_atom_site_fract_y
_atom_site_fract_z
Si Si1 0.931511 0.596877 0.209832
Si Si2 0.068403 0.794125 0.830600
Si Si3 0.421367 0.646153 0.326461
Si Si4 0.578345 0.853358 0.715795
Si Si5 0.931590 0.903507 0.400451
Si Si6 0.069631 0.106145 0.061651
Si Si7 0.068720 0.294604 0.559819
O O1 0.750000 0.599808 0.211659
O O2 0.977544 0.500000 0.184061
O O3 0.979639 0.689326 0.178832
O O4 0.992576 0.599723 0.274457
O O5 0.250000 0.798047 0.830637
O O6 0.005078 0.849904 0.776376
O O7 0.002410 0.835069 0.888274
O O8 0.250000 0.613323 0.332735
O O9 0.414847 0.749989 0.305652
O O10 0.507331 0.648711 0.386553
O O11 0.750000 0.886731 0.721450
O O12 0.489215 0.900550 0.664734
O O13 0.750000 0.901400 0.400582
O O14 0.981469 0.810336 0.430006
O O15 0.981740 0.000000 0.425718
O O16 0.250000 0.117651 0.060495
O O17 0.037438 0.000000 0.072178
O O18 0.000000 0.129012 0.000000
O O19 0.250000 0.297193 0.558781
O O20 0.000000 0.325178 0.500000
#
# Coordination Sequence:
#
# PCOD9400610 Si02
#       7
#     8   8   8   8   8   8   8
#     4   9  18  33  54  81 111 140 169 204 251 307
#     4  10  19  32  53  79 107 140 175 212 255 303
#     4   9  17  30  48  70  95 123 158 199 243 293
#     4   9  17  29  45  66  92 122 158 201 247 295
#     4   9  18  31  44  60  86 120 157 200 252 308
#     4  10  21  37  56  78 106 141 181 223 263 302
#     4  10  19  31  47  65  87 119 160 204 251 304
#
# _framework density 18.200562999999999
#
# number of rings (size 3 to 8) (size 9 to 14) (size 15 to 20)
#    0.000    2.571    0.000    2.143    0.000    6.857 
#    0.000    0.000    0.000    0.857    0.000    0.000 
#    0.000    0.000    0.000    0.000    0.000    0.000 
#
# Total GULP energy -312204.690439 kJ/mol
# GULP energy per Si atom -5575.083758 kJ/mol
# Density = 1.815914 g / cm^3
# Si number density = 18.200563 Si / 1000 Ang^3
#
#
#
# Elastic Constant Matrix: (Units=GPa)
#
#
# Indices 1 2 3 4 5 6 
#
# 1 31.8727 9.3684 37.3008 0.0000 0.0000 0.0000
# 2 9.3684 50.1604 31.8546 0.0000 0.0000 0.0000
# 3 37.3008 31.8546 134.8591 0.0000 0.0000 0.0000
# 4 0.0000 0.0000 0.0000 9.9704 0.0000 0.0000
# 5 0.0000 0.0000 0.0000 0.0000 32.4132 0.0000
# 6 0.0000 0.0000 0.0000 0.0000 0.0000 4.6572
#
#
#
# Elastic Compliance Matrix: (Units=1/GPa)
#
#
# Indices 1 2 3 4 5 6 
#
# 1 0.046407 -0.000607 -0.012692 0.000000 0.000000 0.000000
# 2 -0.000607 0.023462 -0.005374 0.000000 0.000000 0.000000
# 3 -0.012692 -0.005374 0.012195 0.000000 0.000000 0.000000
# 4 0.000000 0.000000 0.000000 0.100297 0.000000 0.000000
# 5 0.000000 0.000000 0.000000 0.000000 0.030852 0.000000
# 6 0.000000 0.000000 0.000000 0.000000 0.000000 0.214721
#
#
# Mechanical properties :
#
#
# Convention : Reuss Voigt Hill
#
# Bulk Modulus (GPa) = 22.36251 41.54889 31.95570
# Shear Modulus (GPa) = 10.41259 18.63271 14.52265
#
# Velocity S-wave (km/s) = 2.39446 3.20307 2.82782
# Velocity P-wave (km/s) = 4.46744 6.04628 5.31580
#
# Compressibility (1/GPa) = 0.04471769
#
# Stress axis : x y z
#
# Youngs Moduli (GPa) = 21.54828 42.62165 81.99973
#
# Poissons Ratio (x) = 0.02587 1.04078
# Poissons Ratio (y) = 0.01308 0.44067
# Poissons Ratio (z) = 0.27350 0.22905
#
# Static dielectric constant tensor:
#      x y z
#    x 1.613750 0.000000 0.000000 
#    y 0.000000 1.686700 0.000000 
#    z 0.000000 0.000000 1.582920 
# 
# From -- ./inp_files/31887.got.cif
#   From: 2010.05.17/outbox.cif.g08.bks.cpg/sg51_16_cif.got.tgz:31887.got - 2010.06.03 11:52:47.
