data_PCOD9400435
_publ_section_title
;
Structure prediction by ZEFSAII (Michael W. Deem and Ramdas Pophale) SiO2 
 PCOD9400435
Probable space group: P M M A
;
_chemical_formula_sum "Si O2"
_cell_formula_units_Z 48
_cell_length_a 25.748381
_cell_length_b 9.255361
_cell_length_c 12.856884
_cell_angle_alpha 90.000000
_cell_angle_beta 90.000000
_cell_angle_gamma 90.000000
_cell_volume 3063.931243
_symmetry_space_group_name_H-M "P M M A"
_symmetry_group_IT_number 51
_symmetry_cell_setting 'orthorhombic'
loop_
_space_group_symop_operation_xyz
x,y,z
1/2-x,-y,z
1/2+x,-y,-z
-x,y,-z
-x,-y,-z
1/2+x,y,-z
1/2-x,y,z
x,-y,z
loop_
_atom_site_type_symbol
_atom_site_label
_atom_site_fract_x
_atom_site_fract_y
_atom_site_fract_z
Si Si1 0.392167 0.827604 0.117930
Si Si2 0.497787 0.665956 0.126200
Si Si3 0.102891 0.827222 0.872054
Si Si4 0.809946 0.173562 0.292516
Si Si5 0.188656 0.325963 0.265584
Si Si6 0.813019 0.665692 0.500923
O O1 0.446382 0.755667 0.153361
O O2 0.345713 0.755901 0.181765
O O3 0.393581 0.000000 0.132185
O O4 0.386502 0.798813 0.994101
O O5 0.494560 0.500000 0.161537
O O6 0.550786 0.743398 0.160052
O O7 0.500000 0.664950 0.000000
O O8 0.151376 0.784970 0.800142
O O9 0.094427 0.000000 0.862050
O O10 0.750000 0.219433 0.273729
O O11 0.828063 0.239020 0.402411
O O12 0.810038 0.000000 0.299619
O O13 0.250000 0.293712 0.253952
O O14 0.182889 0.500000 0.256481
O O15 0.171593 0.285451 0.383347
O O16 0.750000 0.665119 0.503307
O O17 0.829953 0.500000 0.486061
#
# Coordination Sequence:
#
# PCOD9400435 Si02
#       6
#     8   8   8   8   8   8
#     4  10  19  30  47  70  95 123 154 188 227 273
#     4   9  17  30  48  67  88 118 157 194 226 267
#     4   9  18  31  46  67  96 125 152 186 228 271
#     4   9  17  29  46  68  94 123 152 184 224 269
#     4   9  18  32  48  67  94 125 154 188 230 271
#     4   8  15  29  47  65  87 118 155 191 225 264
#
# _framework density 15.666149000000001
#
# number of rings (size 3 to 8) (size 9 to 14) (size 15 to 20)
#    0.000    3.000    0.000    2.000    0.000    5.000 
#    0.000    3.333    0.000    3.000    0.000    7.000 
#    0.000    0.000    0.000    0.000    0.000    0.000 
#
# Total GULP energy -267294.174680 kJ/mol
# GULP energy per Si atom -5568.628639 kJ/mol
# Density = 1.563049 g / cm^3
# Si number density = 15.666149 Si / 1000 Ang^3
#
#
#
# Elastic Constant Matrix: (Units=GPa)
#
#
# Indices 1 2 3 4 5 6 
#
# 1 106.6818 57.3444 68.9784 0.0000 0.0000 0.0000
# 2 57.3444 53.7795 52.4708 0.0000 0.0000 0.0000
# 3 68.9784 52.4708 88.4554 0.0000 0.0000 0.0000
# 4 0.0000 0.0000 0.0000 25.2682 0.0000 0.0000
# 5 0.0000 0.0000 0.0000 0.0000 -2.7420 0.0000
# 6 0.0000 0.0000 0.0000 0.0000 0.0000 27.1654
#
#
#
# Elastic Compliance Matrix: (Units=1/GPa)
#
#
# Indices 1 2 3 4 5 6 
#
# 1 0.024402 -0.017695 -0.008533 0.000000 0.000000 0.000000
# 2 -0.017695 0.056972 -0.019997 0.000000 0.000000 0.000000
# 3 -0.008533 -0.019997 0.029821 0.000000 0.000000 0.000000
# 4 0.000000 0.000000 0.000000 0.039575 0.000000 0.000000
# 5 0.000000 0.000000 0.000000 0.000000 -0.364692 0.000000
# 6 0.000000 0.000000 0.000000 0.000000 0.000000 0.036812
#
#
# Mechanical properties :
#
#
# Convention : Reuss Voigt Hill
#
# Bulk Modulus (GPa) = 53.34228 67.38932 60.36580
# Shear Modulus (GPa) = -63.76558 14.61319 -24.57619
#
# Velocity S-wave (km/s) = -6.38679 3.05747 -3.96504
# Velocity P-wave (km/s) = 4.50165 7.45476 4.20170
#
# Compressibility (1/GPa) = 0.01874685
#
# Stress axis : x y z
#
# Youngs Moduli (GPa) = 40.98004 17.55241 33.53335
#
# Poissons Ratio (x) = 0.31058 0.28613
# Poissons Ratio (y) = 0.72512 0.67056
# Poissons Ratio (z) = 0.34967 0.35099
#
# Static dielectric constant tensor:
#      x y z
#    x 1.508640 0.000000 0.000000 
#    y 0.000000 1.525270 0.000000 
#    z 0.000000 0.000000 1.513450 
# 
# From -- ./inp_files/12848.got.cif
#   From: 2010.05.17/outbox.cif.g08.bks.cpg/sg51_7_cif.got.tgz:12848.got - 2010.06.03 11:52:47.
