data_PCOD9400511
_publ_section_title
;
Structure prediction by ZEFSAII (Michael W. Deem and Ramdas Pophale) SiO2 
 PCOD9400511
Probable space group: P M M A
;
_chemical_formula_sum "Si O2"
_cell_formula_units_Z 48
_cell_length_a 31.875149
_cell_length_b 9.280886
_cell_length_c 9.747920
_cell_angle_alpha 90.000000
_cell_angle_beta 90.000000
_cell_angle_gamma 90.000000
_cell_volume 2883.723509
_symmetry_space_group_name_H-M "P M M A"
_symmetry_group_IT_number 51
_symmetry_cell_setting 'orthorhombic'
loop_
_space_group_symop_operation_xyz
x,y,z
1/2-x,-y,z
1/2+x,-y,-z
-x,y,-z
-x,-y,-z
1/2+x,y,-z
1/2-x,y,z
x,-y,z
loop_
_atom_site_type_symbol
_atom_site_label
_atom_site_fract_x
_atom_site_fract_y
_atom_site_fract_z
Si Si1 0.632696 0.327835 0.646983
Si Si2 0.127619 0.328176 0.676343
Si Si3 0.701933 0.672258 0.119629
Si Si4 0.544199 0.832447 0.327167
Si Si5 0.951353 0.831376 0.660031
Si Si6 0.701030 0.829097 0.829719
O O1 0.634265 0.500000 0.664170
O O2 0.635142 0.294413 0.484137
O O3 0.588283 0.264580 0.699567
O O4 0.670239 0.250674 0.725802
O O5 0.122622 0.500000 0.685604
O O6 0.167369 0.286274 0.768205
O O7 0.084304 0.254917 0.723118
O O8 0.750000 0.697732 0.166153
O O9 0.698023 0.500000 0.093272
O O10 0.695273 0.759359 0.979757
O O11 0.497246 0.783538 0.287280
O O12 0.545971 0.825349 0.493672
O O13 0.548062 0.000000 0.289159
O O14 0.945091 0.000000 0.696052
O O15 0.750000 0.807845 0.792170
O O16 0.692739 0.000000 0.832944
#
# Coordination Sequence:
#
# PCOD9400511 Si02
#       6
#     8   8   8   8   8   8
#     4  10  19  30  48  75 102 128 158 194 238 283
#     4   9  18  30  47  74 102 126 156 196 239 282
#     4   9  18  34  53  70  92 125 161 195 235 285
#     4   8  14  25  43  66  94 129 162 192 231 278
#     4   8  14  26  43  65  95 129 162 194 230 275
#     4  10  21  36  52  70  93 124 162 200 238 283
#
# _framework density 16.645146
#
# number of rings (size 3 to 8) (size 9 to 14) (size 15 to 20)
#    0.000    3.000    0.000    2.000    0.000    3.667 
#    0.000    5.000    0.000    3.000    0.000    7.000 
#    0.000    0.000    0.000    0.000    0.000    0.000 
#
# Total GULP energy -267333.431339 kJ/mol
# GULP energy per Si atom -5569.446486 kJ/mol
# Density = 1.660726 g / cm^3
# Si number density = 16.645146 Si / 1000 Ang^3
#
#
#
# Elastic Constant Matrix: (Units=GPa)
#
#
# Indices 1 2 3 4 5 6 
#
# 1 171.2220 85.7393 72.0913 0.0000 0.0000 0.0000
# 2 85.7393 62.6579 41.7926 0.0000 0.0000 0.0000
# 3 72.0913 41.7926 41.5020 0.0000 0.0000 0.0000
# 4 0.0000 0.0000 0.0000 16.1254 0.0000 0.0000
# 5 0.0000 0.0000 0.0000 0.0000 -10.9454 0.0000
# 6 0.0000 0.0000 0.0000 0.0000 0.0000 33.9070
#
#
#
# Elastic Compliance Matrix: (Units=1/GPa)
#
#
# Indices 1 2 3 4 5 6 
#
# 1 0.026597 -0.016992 -0.029089 0.000000 0.000000 0.000000
# 2 -0.016992 0.059464 -0.030364 0.000000 0.000000 0.000000
# 3 -0.029089 -0.030364 0.105201 0.000000 0.000000 0.000000
# 4 0.000000 0.000000 0.000000 0.062014 0.000000 0.000000
# 5 0.000000 0.000000 0.000000 0.000000 -0.091362 0.000000
# 6 0.000000 0.000000 0.000000 0.000000 0.000000 0.029492
#
#
# Mechanical properties :
#
#
# Convention : Reuss Voigt Hill
#
# Bulk Modulus (GPa) = 26.06104 74.95868 50.50986
# Shear Modulus (GPa) = 14.00221 12.86798 13.43510
#
# Velocity S-wave (km/s) = 2.90352 2.78344 2.84412
# Velocity P-wave (km/s) = 5.18955 7.44723 6.41844
#
# Compressibility (1/GPa) = 0.03837146
#
# Stress axis : x y z
#
# Youngs Moduli (GPa) = 37.59861 16.81700 9.50558
#
# Poissons Ratio (x) = 0.28575 0.27651
# Poissons Ratio (y) = 0.63887 0.28863
# Poissons Ratio (z) = 1.09371 0.51063
#
# Static dielectric constant tensor:
#      x y z
#    x 1.572730 0.000000 0.000000 
#    y 0.000000 1.552250 0.000000 
#    z 0.000000 0.000000 1.540240 
# 
# From -- ./inp_files/12844.got.cif
#   From: 2010.05.17/outbox.cif.g08.bks.cpg/sg51_7_cif.got.tgz:12844.got - 2010.06.03 11:52:47.
