data_PCOD9400712
_publ_section_title
;
Structure prediction by ZEFSAII (Michael W. Deem and Ramdas Pophale) SiO2 
 PCOD9400712
Probable space group: P M M A
;
_chemical_formula_sum "Si O2"
_cell_formula_units_Z 44
_cell_length_a 8.929753
_cell_length_b 15.747639
_cell_length_c 17.490247
_cell_angle_alpha 90.000000
_cell_angle_beta 90.000000
_cell_angle_gamma 90.000000
_cell_volume 2459.522724
_symmetry_space_group_name_H-M "P M M A"
_symmetry_group_IT_number 51
_symmetry_cell_setting 'orthorhombic'
loop_
_space_group_symop_operation_xyz
x,y,z
1/2-x,-y,z
1/2+x,-y,-z
-x,y,-z
-x,-y,-z
1/2+x,y,-z
1/2-x,y,z
x,-y,z
loop_
_atom_site_type_symbol
_atom_site_label
_atom_site_fract_x
_atom_site_fract_y
_atom_site_fract_z
Si Si1 0.075914 0.683639 0.365744
Si Si2 0.927807 0.150036 0.421490
Si Si3 0.930296 0.095668 0.250852
Si Si4 0.430430 0.500000 0.416891
Si Si5 0.576571 0.739123 0.810317
Si Si6 0.070497 0.403771 0.915692
O O1 0.250000 0.692439 0.390899
O O2 0.024322 0.587582 0.377423
O O3 0.070565 0.704366 0.276319
O O4 0.977183 0.752015 0.410410
O O5 0.750000 0.142141 0.427529
O O6 0.975385 0.108183 0.340461
O O7 0.000000 0.117055 0.500000
O O8 0.750000 0.105372 0.248849
O O9 0.002689 0.168077 0.198361
O O10 0.969119 0.000000 0.227548
O O11 0.250000 0.500000 0.420103
O O12 0.500000 0.500000 0.500000
O O13 0.750000 0.745829 0.833666
O O14 0.493090 0.671463 0.863491
O O15 0.250000 0.397718 0.920182
O O16 0.033123 0.500000 0.887303
O O17 0.000000 0.396413 0.000000
#
# Coordination Sequence:
#
# PCOD9400712 Si02
#       6
#     8   8   8   4   8   8
#     4   9  19  33  48  67  94 131 174 215 262 314
#     4  10  19  31  48  69  96 129 171 221 275 327
#     4   9  19  36  55  75 103 140 181 225 274 326
#     4  10  20  32  44  62  89 126 171 216 259 306
#     4  10  20  34  56  82 109 141 176 220 269 318
#     4  10  21  37  58  86 118 150 182 216 255 307
#
# _framework density 17.889648999999999
#
# number of rings (size 3 to 8) (size 9 to 14) (size 15 to 20)
#    0.000    2.364    0.000    2.182    1.273    5.455 
#    0.000    0.000    0.000    0.545    0.000    0.000 
#    0.000    0.000    0.000    0.000    0.000    0.000 
#
# Total GULP energy -245423.874122 kJ/mol
# GULP energy per Si atom -5577.815321 kJ/mol
# Density = 1.784893 g / cm^3
# Si number density = 17.889649 Si / 1000 Ang^3
#
#
#
# Elastic Constant Matrix: (Units=GPa)
#
#
# Indices 1 2 3 4 5 6 
#
# 1 59.8016 50.5215 34.2449 0.0000 0.0000 0.0000
# 2 50.5215 154.7955 45.8422 0.0000 0.0000 0.0000
# 3 34.2449 45.8422 53.4507 0.0000 0.0000 0.0000
# 4 0.0000 0.0000 0.0000 13.2044 0.0000 0.0000
# 5 0.0000 0.0000 0.0000 0.0000 31.0574 0.0000
# 6 0.0000 0.0000 0.0000 0.0000 0.0000 23.4357
#
#
#
# Elastic Compliance Matrix: (Units=1/GPa)
#
#
# Indices 1 2 3 4 5 6 
#
# 1 0.029423 -0.005389 -0.014229 0.000000 0.000000 0.000000
# 2 -0.005389 0.009647 -0.004821 0.000000 0.000000 0.000000
# 3 -0.014229 -0.004821 0.031959 0.000000 0.000000 0.000000
# 4 0.000000 0.000000 0.000000 0.075732 0.000000 0.000000
# 5 0.000000 0.000000 0.000000 0.000000 0.032198 0.000000
# 6 0.000000 0.000000 0.000000 0.000000 0.000000 0.042670
#
#
# Mechanical properties :
#
#
# Convention : Reuss Voigt Hill
#
# Bulk Modulus (GPa) = 45.14313 58.80723 51.97518
# Shear Modulus (GPa) = 17.99272 22.70212 20.34742
#
# Velocity S-wave (km/s) = 3.17482 3.56618 3.37617
# Velocity P-wave (km/s) = 6.22320 7.06402 6.65690
#
# Compressibility (1/GPa) = 0.02215177
#
# Stress axis : x y z
#
# Youngs Moduli (GPa) = 33.98750 103.66263 31.28974
#
# Poissons Ratio (x) = 0.55865 0.44521
# Poissons Ratio (y) = 0.18316 0.15084
# Poissons Ratio (z) = 0.48359 0.49974
#
# Static dielectric constant tensor:
#      x y z
#    x 1.609970 0.000000 0.000000 
#    y 0.000000 1.625660 0.000000 
#    z 0.000000 0.000000 1.587800 
# 
# From -- ./inp_files/27336.got.cif
#   From: 2010.05.17/outbox.cif.g08.bks.cpg/sg51_14_cif.got.tgz:27336.got - 2010.06.03 11:52:47.
