data_PCOD9400109
_publ_section_title
;
Structure prediction by ZEFSAII (Michael W. Deem and Ramdas Pophale) SiO2 
 PCOD9400109
Probable space group: P M M A
;
_chemical_formula_sum "Si O2"
_cell_formula_units_Z 48
_cell_length_a 9.087987
_cell_length_b 23.226205
_cell_length_c 13.283307
_cell_angle_alpha 90.000000
_cell_angle_beta 90.000000
_cell_angle_gamma 90.000000
_cell_volume 2803.833124
_symmetry_space_group_name_H-M "P M M A"
_symmetry_group_IT_number 51
_symmetry_cell_setting 'orthorhombic'
loop_
_space_group_symop_operation_xyz
x,y,z
1/2-x,-y,z
1/2+x,-y,-z
-x,y,-z
-x,-y,-z
1/2+x,y,-z
1/2-x,y,z
x,-y,z
loop_
_atom_site_type_symbol
_atom_site_label
_atom_site_fract_x
_atom_site_fract_y
_atom_site_fract_z
Si Si1 0.923651 0.431614 0.107605
Si Si2 0.916782 0.850967 0.263442
Si Si3 0.926507 0.757396 0.607234
Si Si4 0.424917 0.665625 0.217113
Si Si5 0.421084 0.930894 0.107187
Si Si6 0.586282 0.243293 0.089774
O O1 0.750000 0.418844 0.101116
O O2 0.941995 0.500000 0.124102
O O3 0.996246 0.394979 0.197541
O O4 0.000000 0.418184 0.000000
O O5 0.750000 0.867117 0.294838
O O6 0.903410 0.801211 0.179782
O O7 0.007758 0.817498 0.349420
O O8 0.999707 0.901203 0.202496
O O9 0.750000 0.761848 0.600382
O O10 0.959677 0.704157 0.683875
O O11 0.000000 0.746060 0.500000
O O12 0.250000 0.659167 0.211939
O O13 0.487379 0.704117 0.126068
O O14 0.250000 0.912322 0.102072
O O15 0.425341 0.000000 0.119509
O O16 0.500000 0.918649 0.000000
O O17 0.750000 0.261708 0.061094
O O18 0.500000 0.213911 0.000000
#
# Coordination Sequence:
#
# PCOD9400109 Si02
#       6
#     8   8   8   8   8   8
#     4  10  20  33  50  73 103 139 174 207 244 290
#     4  10  20  33  51  74 100 132 169 209 253 302
#     4  10  21  37  57  79 102 129 164 209 261 312
#     4  10  20  33  50  72  98 129 164 204 249 297
#     4  10  20  33  50  74 106 143 179 213 250 296
#     4  10  19  29  43  66  97 130 162 199 243 293
#
# _framework density 17.119422
#
# number of rings (size 3 to 8) (size 9 to 14) (size 15 to 20)
#    0.000    2.000    0.000    4.000    0.000    7.333 
#    0.000    0.000    0.000    1.000    0.000    0.000 
#    0.000    0.000    0.000    0.000    0.000    0.000 
#
# Total GULP energy -267590.537610 kJ/mol
# GULP energy per Si atom -5574.802867 kJ/mol
# Density = 1.708046 g / cm^3
# Si number density = 17.119422 Si / 1000 Ang^3
#
#
#
# Elastic Constant Matrix: (Units=GPa)
#
#
# Indices 1 2 3 4 5 6 
#
# 1 129.6549 52.4561 67.1815 0.0000 0.0000 0.0000
# 2 52.4561 75.6825 36.2107 0.0000 0.0000 0.0000
# 3 67.1815 36.2107 83.6016 0.0000 0.0000 0.0000
# 4 0.0000 0.0000 0.0000 6.8932 0.0000 0.0000
# 5 0.0000 0.0000 0.0000 0.0000 28.1251 0.0000
# 6 0.0000 0.0000 0.0000 0.0000 0.0000 38.5457
#
#
#
# Elastic Compliance Matrix: (Units=1/GPa)
#
#
# Indices 1 2 3 4 5 6 
#
# 1 0.015021 -0.005848 -0.009538 0.000000 0.000000 0.000000
# 2 -0.005848 0.018944 -0.003506 0.000000 0.000000 0.000000
# 3 -0.009538 -0.003506 0.021144 0.000000 0.000000 0.000000
# 4 0.000000 0.000000 0.000000 0.145070 0.000000 0.000000
# 5 0.000000 0.000000 0.000000 0.000000 0.035555 0.000000
# 6 0.000000 0.000000 0.000000 0.000000 0.000000 0.025943
#
#
# Mechanical properties :
#
#
# Convention : Reuss Voigt Hill
#
# Bulk Modulus (GPa) = 57.71639 66.73729 62.22684
# Shear Modulus (GPa) = 16.38080 23.58551 19.98316
#
# Velocity S-wave (km/s) = 3.09666 3.71577 3.42025
# Velocity P-wave (km/s) = 6.82444 7.58138 7.21284
#
# Compressibility (1/GPa) = 0.01732610
#
# Stress axis : x y z
#
# Youngs Moduli (GPa) = 66.57530 52.78838 47.29373
#
# Poissons Ratio (x) = 0.30868 0.45107
# Poissons Ratio (y) = 0.38930 0.16581
# Poissons Ratio (z) = 0.63497 0.18508
#
# Static dielectric constant tensor:
#      x y z
#    x 1.608460 0.000000 0.000000 
#    y 0.000000 1.600350 0.000000 
#    z 0.000000 0.000000 0.241050 
# 
# From -- ./inp_files/14402.got.cif
#   From: 2010.05.17/outbox.cif.g08.bks.cpg/sg51_8_cif.got.tgz:14402.got - 2010.06.03 11:52:47.
