data_PCOD9400380
_publ_section_title
;
Structure prediction by ZEFSAII (Michael W. Deem and Ramdas Pophale) SiO2 
 PCOD9400380
Probable space group: P M M A
;
_chemical_formula_sum "Si O2"
_cell_formula_units_Z 52
_cell_length_a 9.032862
_cell_length_b 18.590242
_cell_length_c 18.759205
_cell_angle_alpha 90.000000
_cell_angle_beta 90.000000
_cell_angle_gamma 90.000000
_cell_volume 3150.103680
_symmetry_space_group_name_H-M "P M M A"
_symmetry_group_IT_number 51
_symmetry_cell_setting 'orthorhombic'
loop_
_space_group_symop_operation_xyz
x,y,z
1/2-x,-y,z
1/2+x,-y,-z
-x,y,-z
-x,-y,-z
1/2+x,y,-z
1/2-x,y,z
x,-y,z
loop_
_atom_site_type_symbol
_atom_site_label
_atom_site_fract_x
_atom_site_fract_y
_atom_site_fract_z
Si Si1 0.572166 0.078526 0.852444
Si Si2 0.580825 0.292626 0.205654
Si Si3 0.927210 0.500000 0.577943
Si Si4 0.573196 0.772688 0.924693
Si Si5 0.928756 0.361782 0.350641
Si Si6 0.428636 0.791152 0.576512
Si Si7 0.419651 0.863691 0.717628
O O1 0.750000 0.080155 0.851937
O O2 0.522986 0.147111 0.898975
O O3 0.514989 0.089711 0.771881
O O4 0.522912 0.000000 0.878973
O O5 0.750000 0.308053 0.183737
O O6 0.479213 0.281412 0.137287
O O7 0.534965 0.347750 0.267478
O O8 0.583238 0.215794 0.246633
O O9 0.750000 0.500000 0.572874
O O10 0.000000 0.500000 0.500000
O O11 0.986145 0.429309 0.618081
O O12 0.750000 0.772535 0.930352
O O13 0.500000 0.756073 0.000000
O O14 0.750000 0.371376 0.355579
O O15 0.965947 0.289013 0.394578
O O16 0.500000 0.803400 0.500000
O O17 0.250000 0.794314 0.572296
O O18 0.474226 0.848497 0.637515
O O19 0.250000 0.890019 0.715539
#
# Coordination Sequence:
#
# PCOD9400380 Si02
#       7
#     8   8   4   8   8   8   8
#     4   9  18  31  45  63  88 118 151 185 223 270
#     4   8  15  30  50  68  89 118 152 190 230 272
#     4  12  24  34  46  68 101 136 167 198 230 268
#     4  10  19  30  46  69  97 124 151 187 228 270
#     4   9  18  33  50  68  93 125 158 191 229 275
#     4   9  17  28  44  66  89 113 145 187 231 273
#     4   8  15  28  44  63  85 110 145 186 226 270
#
# _framework density 16.507393
#
# number of rings (size 3 to 8) (size 9 to 14) (size 15 to 20)
#    0.000    2.923    0.000    3.462    0.000    4.308 
#    0.000    3.077    0.000    0.462    0.000    0.538 
#    0.000    0.000    0.000    0.000    0.000    0.000 
#
# Total GULP energy -289639.961837 kJ/mol
# GULP energy per Si atom -5569.999266 kJ/mol
# Density = 1.646982 g / cm^3
# Si number density = 16.507393 Si / 1000 Ang^3
#
#
#
# Elastic Constant Matrix: (Units=GPa)
#
#
# Indices 1 2 3 4 5 6 
#
# 1 34.8763 16.6971 41.9463 0.0000 0.0000 0.0000
# 2 16.6971 34.6433 19.6621 0.0000 0.0000 0.0000
# 3 41.9463 19.6621 122.2101 0.0000 0.0000 0.0000
# 4 0.0000 0.0000 0.0000 15.9354 0.0000 0.0000
# 5 0.0000 0.0000 0.0000 0.0000 29.4345 0.0000
# 6 0.0000 0.0000 0.0000 0.0000 0.0000 18.0214
#
#
#
# Elastic Compliance Matrix: (Units=1/GPa)
#
#
# Indices 1 2 3 4 5 6 
#
# 1 0.057687 -0.018230 -0.016867 0.000000 0.000000 0.000000
# 2 -0.018230 0.037528 0.000220 0.000000 0.000000 0.000000
# 3 -0.016867 0.000220 0.013937 0.000000 0.000000 0.000000
# 4 0.000000 0.000000 0.000000 0.062753 0.000000 0.000000
# 5 0.000000 0.000000 0.000000 0.000000 0.033974 0.000000
# 6 0.000000 0.000000 0.000000 0.000000 0.000000 0.055490
#
#
# Mechanical properties :
#
#
# Convention : Reuss Voigt Hill
#
# Bulk Modulus (GPa) = 25.38375 38.70454 32.04414
# Shear Modulus (GPa) = 14.52412 20.23986 17.38199
#
# Velocity S-wave (km/s) = 2.96945 3.50538 3.24849
# Velocity P-wave (km/s) = 5.21224 6.31516 5.79002
#
# Compressibility (1/GPa) = 0.03939529
#
# Stress axis : x y z
#
# Youngs Moduli (GPa) = 17.33504 26.64702 71.75391
#
# Poissons Ratio (x) = 0.48579 1.21026
# Poissons Ratio (y) = 0.31603 -0.01575
# Poissons Ratio (z) = 0.29239 -0.00585
#
# Static dielectric constant tensor:
#      x y z
#    x 1.551660 0.000000 0.000000 
#    y 0.000000 1.562400 0.000000 
#    z 0.000000 0.000000 1.556830 
# 
# From -- ./inp_files/27927.got.cif
#   From: 2010.05.17/outbox.cif.g08.bks.cpg/sg51_14_cif.got.tgz:27927.got - 2010.06.03 11:52:47.
