data_PCOD9400797
_publ_section_title
;
Structure prediction by ZEFSAII (Michael W. Deem and Ramdas Pophale) SiO2 
 PCOD9400797
Probable space group: P M M A
;
_chemical_formula_sum "Si O2"
_cell_formula_units_Z 36
_cell_length_a 8.795794
_cell_length_b 16.455921
_cell_length_c 13.840519
_cell_angle_alpha 90.000000
_cell_angle_beta 90.000000
_cell_angle_gamma 90.000000
_cell_volume 2003.316736
_symmetry_space_group_name_H-M "P M M A"
_symmetry_group_IT_number 51
_symmetry_cell_setting 'orthorhombic'
loop_
_space_group_symop_operation_xyz
x,y,z
1/2-x,-y,z
1/2+x,-y,-z
-x,y,-z
-x,-y,-z
1/2+x,y,-z
1/2-x,y,z
x,-y,z
loop_
_atom_site_type_symbol
_atom_site_label
_atom_site_fract_x
_atom_site_fract_y
_atom_site_fract_z
Si Si1 0.933270 0.590206 0.205380
Si Si2 0.068083 0.755453 0.896318
Si Si3 0.567192 0.167222 0.708529
Si Si4 0.568389 0.665038 0.604556
Si Si5 0.933706 0.000000 0.607068
O O1 0.750000 0.592934 0.212426
O O2 0.978481 0.500000 0.172840
O O3 0.980461 0.663959 0.135590
O O4 0.001349 0.609120 0.310694
O O5 0.250000 0.758058 0.900134
O O6 0.008776 0.813111 0.810857
O O7 0.000000 0.775787 0.000000
O O8 0.750000 0.166937 0.720712
O O9 0.529846 0.242431 0.637268
O O10 0.519703 0.081699 0.663130
O O11 0.500000 0.647403 0.500000
O O12 0.750000 0.657231 0.601922
O O13 0.000000 0.000000 0.500000
O O14 0.750000 0.000000 0.601251
#
# Coordination Sequence:
#
# PCOD9400797 Si02
#       5
#     8   8   8   8   4
#     4   9  19  35  52  72  99 130 167 210 253 300
#     4  10  20  35  56  78 101 132 168 208 255 304
#     4   9  19  35  53  76 105 135 170 210 250 296
#     4  10  19  31  49  72 100 135 171 207 250 300
#     4  10  20  34  55  82 111 140 169 206 250 296
#
# _framework density 17.970199000000001
#
# number of rings (size 3 to 8) (size 9 to 14) (size 15 to 20)
#    0.000    2.444    0.000    2.000    0.000    4.000 
#    0.000    0.556    0.000    0.000    0.000    0.000 
#    0.000    0.000    0.000    0.000    0.000    0.000 
#
# Total GULP energy -200919.041476 kJ/mol
# GULP energy per Si atom -5581.084485 kJ/mol
# Density = 1.792930 g / cm^3
# Si number density = 17.970199 Si / 1000 Ang^3
#
#
#
# Elastic Constant Matrix: (Units=GPa)
#
#
# Indices 1 2 3 4 5 6 
#
# 1 13.6804 18.0161 22.5336 0.0000 0.0000 0.0000
# 2 18.0161 102.9976 32.6189 0.0000 0.0000 0.0000
# 3 22.5336 32.6189 111.0294 0.0000 0.0000 0.0000
# 4 0.0000 0.0000 0.0000 7.1956 0.0000 0.0000
# 5 0.0000 0.0000 0.0000 0.0000 29.0509 0.0000
# 6 0.0000 0.0000 0.0000 0.0000 0.0000 20.8012
#
#
#
# Elastic Compliance Matrix: (Units=1/GPa)
#
#
# Indices 1 2 3 4 5 6 
#
# 1 0.129586 -0.015809 -0.021655 0.000000 0.000000 0.000000
# 2 -0.015809 0.012634 -0.000503 0.000000 0.000000 0.000000
# 3 -0.021655 -0.000503 0.013549 0.000000 0.000000 0.000000
# 4 0.000000 0.000000 0.000000 0.138975 0.000000 0.000000
# 5 0.000000 0.000000 0.000000 0.000000 0.034422 0.000000
# 6 0.000000 0.000000 0.000000 0.000000 0.000000 0.048074
#
#
# Mechanical properties :
#
#
# Convention : Reuss Voigt Hill
#
# Bulk Modulus (GPa) = 12.52592 41.56052 27.04322
# Shear Modulus (GPa) = 10.42132 21.71212 16.06672
#
# Velocity S-wave (km/s) = 2.41077 3.47973 2.99335
# Velocity P-wave (km/s) = 3.83857 6.27076 5.19889
#
# Compressibility (1/GPa) = 0.07983443
#
# Stress axis : x y z
#
# Youngs Moduli (GPa) = 7.71689 79.15439 73.80385
#
# Poissons Ratio (x) = 1.25133 1.59825
# Poissons Ratio (y) = 0.12199 0.03713
# Poissons Ratio (z) = 0.16711 0.03983
#
# Static dielectric constant tensor:
#      x y z
#    x 1.595870 0.000000 0.000000 
#    y 0.000000 1.628970 0.000000 
#    z 0.000000 0.000000 1.566880 
# 
# From -- ./inp_files/20334.got.cif
#   From: 2010.05.17/outbox.cif.g08.bks.cpg/sg51_11_cif.got.tgz:20334.got - 2010.06.03 11:52:47.
