data_PCOD9400649
_publ_section_title
;
Structure prediction by ZEFSAII (Michael W. Deem and Ramdas Pophale) SiO2 
 PCOD9400649
Probable space group: P M M A
;
_chemical_formula_sum "Si O2"
_cell_formula_units_Z 56
_cell_length_a 8.843735
_cell_length_b 19.403392
_cell_length_c 19.531686
_cell_angle_alpha 90.000000
_cell_angle_beta 90.000000
_cell_angle_gamma 90.000000
_cell_volume 3351.607179
_symmetry_space_group_name_H-M "P M M A"
_symmetry_group_IT_number 51
_symmetry_cell_setting 'orthorhombic'
loop_
_space_group_symop_operation_xyz
x,y,z
1/2-x,-y,z
1/2+x,-y,-z
-x,y,-z
-x,-y,-z
1/2+x,y,-z
1/2-x,y,z
x,-y,z
loop_
_atom_site_type_symbol
_atom_site_label
_atom_site_fract_x
_atom_site_fract_y
_atom_site_fract_z
Si Si1 0.932816 0.716188 0.788946
Si Si2 0.434898 0.578337 0.280319
Si Si3 0.932197 0.080262 0.426437
Si Si4 0.578295 0.416164 0.568874
Si Si5 0.931635 0.843309 0.288599
Si Si6 0.568719 0.208360 0.926577
Si Si7 0.068014 0.078654 0.160830
O O1 0.750000 0.721142 0.785068
O O2 0.978000 0.638274 0.771583
O O3 0.978232 0.740990 0.864718
O O4 0.000326 0.769987 0.734319
O O5 0.250000 0.576622 0.283630
O O6 0.483437 0.500000 0.264868
O O7 0.489288 0.599127 0.356654
O O8 0.750000 0.082603 0.430667
O O9 0.979271 0.128356 0.363013
O O10 0.000000 0.100025 0.500000
O O11 0.975128 0.000000 0.413021
O O12 0.500000 0.391329 0.500000
O O13 0.750000 0.391362 0.568082
O O14 0.580908 0.500000 0.566336
O O15 0.750000 0.840096 0.286974
O O16 0.989539 0.896030 0.230370
O O17 0.750000 0.211257 0.931824
O O18 0.526159 0.132258 0.898880
O O19 0.500000 0.223537 0.000000
O O20 0.250000 0.083998 0.170228
O O21 0.029666 0.000000 0.145110
#
# Coordination Sequence:
#
# PCOD9400649 Si02
#       7
#     8   8   8   8   8   8   8
#     4   9  18  33  51  70  92 119 153 190 229 278
#     4   8  14  27  49  72  90 114 153 196 231 267
#     4   9  18  31  46  65  89 119 158 201 238 271
#     4   8  13  22  38  61  87 113 141 174 214 260
#     4  10  19  31  47  68  95 124 156 194 234 277
#     4   9  18  31  47  68  93 122 153 184 221 268
#     4   9  18  32  49  70  95 122 154 190 226 268
#
# _framework density 16.708400999999999
#
# number of rings (size 3 to 8) (size 9 to 14) (size 15 to 20)
#    0.000    3.143    0.000    2.571    0.000    4.571 
#    0.000    2.857    0.000    5.143    0.000    0.000 
#    0.000    0.000    0.000    0.000    0.000    0.286 
#
# Total GULP energy -311800.384743 kJ/mol
# GULP energy per Si atom -5567.864013 kJ/mol
# Density = 1.667037 g / cm^3
# Si number density = 16.708401 Si / 1000 Ang^3
#
#
#
# Elastic Constant Matrix: (Units=GPa)
#
#
# Indices 1 2 3 4 5 6 
#
# 1 10.3283 20.0137 26.9108 0.0000 0.0000 0.0000
# 2 20.0137 111.3634 80.0762 0.0000 0.0000 0.0000
# 3 26.9108 80.0762 143.4007 0.0000 0.0000 0.0000
# 4 0.0000 0.0000 0.0000 12.7125 0.0000 0.0000
# 5 0.0000 0.0000 0.0000 0.0000 27.8044 0.0000
# 6 0.0000 0.0000 0.0000 0.0000 0.0000 11.3471
#
#
#
# Elastic Compliance Matrix: (Units=1/GPa)
#
#
# Indices 1 2 3 4 5 6 
#
# 1 0.203871 -0.015253 -0.029741 0.000000 0.000000 0.000000
# 2 -0.015253 0.016145 -0.006153 0.000000 0.000000 0.000000
# 3 -0.029741 -0.006153 0.015991 0.000000 0.000000 0.000000
# 4 0.000000 0.000000 0.000000 0.078663 0.000000 0.000000
# 5 0.000000 0.000000 0.000000 0.000000 0.035966 0.000000
# 6 0.000000 0.000000 0.000000 0.000000 0.000000 0.088128
#
#
# Mechanical properties :
#
#
# Convention : Reuss Voigt Hill
#
# Bulk Modulus (GPa) = 7.47878 57.67707 32.57792
# Shear Modulus (GPa) = 8.53783 19.57892 14.05838
#
# Velocity S-wave (km/s) = 2.26296 3.42687 2.90383
# Velocity P-wave (km/s) = 3.36360 7.08891 5.54826
#
# Compressibility (1/GPa) = 0.13371164
#
# Stress axis : x y z
#
# Youngs Moduli (GPa) = 4.90507 61.93723 62.53615
#
# Poissons Ratio (x) = 0.94474 1.85989
# Poissons Ratio (y) = 0.07482 0.38480
# Poissons Ratio (z) = 0.14588 0.38112
#
# Static dielectric constant tensor:
#      x y z
#    x 1.571640 0.000000 0.000000 
#    y 0.000000 1.569800 0.000000 
#    z 0.000000 0.000000 1.557120 
# 
# From -- ./inp_files/28222.got.cif
#   From: 2010.05.17/outbox.cif.g08.bks.cpg/sg51_15_cif.got.tgz:28222.got - 2010.06.03 11:52:47.
