data_PCOD9400842
_publ_section_title
;
Structure prediction by ZEFSAII (Michael W. Deem and Ramdas Pophale) SiO2 
 PCOD9400842
Probable space group: P M M A
;
_chemical_formula_sum "Si O2"
_cell_formula_units_Z 36
_cell_length_a 8.501806
_cell_length_b 24.096043
_cell_length_c 9.885783
_cell_angle_alpha 90.000000
_cell_angle_beta 90.000000
_cell_angle_gamma 90.000000
_cell_volume 2025.200348
_symmetry_space_group_name_H-M "P M M A"
_symmetry_group_IT_number 51
_symmetry_cell_setting 'orthorhombic'
loop_
_space_group_symop_operation_xyz
x,y,z
1/2-x,-y,z
1/2+x,-y,-z
-x,y,-z
-x,-y,-z
1/2+x,y,-z
1/2-x,y,z
x,-y,z
loop_
_atom_site_type_symbol
_atom_site_label
_atom_site_fract_x
_atom_site_fract_y
_atom_site_fract_z
Si Si1 0.938305 0.275305 0.149643
Si Si2 0.561257 0.819072 0.653540
Si Si3 0.059747 0.500000 0.652622
Si Si4 0.439982 0.940420 0.345314
Si Si5 0.939875 0.597936 0.149856
O O1 0.750000 0.274524 0.148927
O O2 0.990145 0.338738 0.179989
O O3 0.999330 0.230846 0.256114
O O4 0.000000 0.261756 0.000000
O O5 0.500000 0.814266 0.500000
O O6 0.750000 0.817589 0.651245
O O7 0.510307 0.880144 0.709406
O O8 0.250000 0.500000 0.649919
O O9 0.007731 0.554032 0.737748
O O10 0.000000 0.500000 0.500000
O O11 0.500000 0.940635 0.500000
O O12 0.250000 0.940519 0.346064
O O13 0.491759 0.000000 0.284404
O O14 0.750000 0.596906 0.146004
O O15 0.000000 0.583148 0.000000
#
# Coordination Sequence:
#
# PCOD9400842 Si02
#       5
#     8   8   4   8   8
#     4  10  20  35  53  74 100 131 167 206 248 295
#     4  10  19  31  49  74 102 132 165 204 250 296
#     4  10  21  36  52  76 106 132 161 198 242 288
#     4   8  14  25  42  65  93 124 159 199 242 289
#     4   9  19  35  55  76  98 127 165 204 241 288
#
# _framework density 17.776019000000002
#
# number of rings (size 3 to 8) (size 9 to 14) (size 15 to 20)
#    0.000    2.667    0.000    1.667    0.000    3.556 
#    0.000    2.222    0.000    0.667    0.000    0.000 
#    0.000    0.000    0.000    0.000    0.000    0.000 
#
# Total GULP energy -200558.731719 kJ/mol
# GULP energy per Si atom -5571.075881 kJ/mol
# Density = 1.773556 g / cm^3
# Si number density = 17.776019 Si / 1000 Ang^3
#
#
#
# Elastic Constant Matrix: (Units=GPa)
#
#
# Indices 1 2 3 4 5 6 
#
# 1 22.8636 31.1681 21.2866 0.0000 0.0000 0.0000
# 2 31.1681 171.1027 109.8978 0.0000 0.0000 0.0000
# 3 21.2866 109.8978 102.2158 0.0000 0.0000 0.0000
# 4 0.0000 0.0000 0.0000 -15.1534 0.0000 0.0000
# 5 0.0000 0.0000 0.0000 0.0000 29.9141 0.0000
# 6 0.0000 0.0000 0.0000 0.0000 0.0000 21.4737
#
#
#
# Elastic Compliance Matrix: (Units=1/GPa)
#
#
# Indices 1 2 3 4 5 6 
#
# 1 0.058359 -0.009129 -0.002339 0.000000 0.000000 0.000000
# 2 -0.009129 0.020315 -0.019941 0.000000 0.000000 0.000000
# 3 -0.002339 -0.019941 0.031710 0.000000 0.000000 0.000000
# 4 0.000000 0.000000 0.000000 -0.065992 0.000000 0.000000
# 5 0.000000 0.000000 0.000000 0.000000 0.033429 0.000000
# 6 0.000000 0.000000 0.000000 0.000000 0.000000 0.046569
#
#
# Mechanical properties :
#
#
# Convention : Reuss Voigt Hill
#
# Bulk Modulus (GPa) = 21.02266 68.98746 45.00506
# Shear Modulus (GPa) = 24.62293 16.16886 20.39590
#
# Velocity S-wave (km/s) = 3.72583 3.01921 3.39098
# Velocity P-wave (km/s) = 5.51010 7.14477 6.38000
#
# Compressibility (1/GPa) = 0.04756771
#
# Stress axis : x y z
#
# Youngs Moduli (GPa) = 17.13526 49.22418 31.53585
#
# Poissons Ratio (x) = 0.44934 0.07376
# Poissons Ratio (y) = 0.15642 0.62886
# Poissons Ratio (z) = 0.04008 0.98158
#
# Static dielectric constant tensor:
#      x y z
#    x 1.614250 0.000000 0.000000 
#    y 0.000000 1.668020 0.000000 
#    z 0.000000 0.000000 1.553540 
# 
# From -- ./inp_files/5260.got.cif
#   From: 2010.05.17/outbox.cif.g08.bks.cpg/sg51_3_cif.got.tgz:5260.got - 2010.06.03 11:52:47.
