data_PCOD9400333
_publ_section_title
;
Structure prediction by ZEFSAII (Michael W. Deem and Ramdas Pophale) SiO2 
 PCOD9400333
Probable space group: P M M A
;
_chemical_formula_sum "Si O2"
_cell_formula_units_Z 48
_cell_length_a 19.014389
_cell_length_b 7.695857
_cell_length_c 18.089817
_cell_angle_alpha 90.000000
_cell_angle_beta 90.000000
_cell_angle_gamma 90.000000
_cell_volume 2647.119439
_symmetry_space_group_name_H-M "P M M A"
_symmetry_group_IT_number 51
_symmetry_cell_setting 'orthorhombic'
loop_
_space_group_symop_operation_xyz
x,y,z
1/2-x,-y,z
1/2+x,-y,-z
-x,y,-z
-x,-y,-z
1/2+x,y,-z
1/2-x,y,z
x,-y,z
loop_
_atom_site_type_symbol
_atom_site_label
_atom_site_fract_x
_atom_site_fract_y
_atom_site_fract_z
Si Si1 0.408102 0.696930 0.216397
Si Si2 0.828808 0.790854 0.079845
Si Si3 0.329784 0.292303 0.758341
Si Si4 0.463522 0.297520 0.675921
Si Si5 0.164927 0.000000 0.310392
Si Si6 0.069113 0.789326 0.045934
Si Si7 0.532694 0.000000 0.582305
O O1 0.382607 0.500000 0.228620
O O2 0.485259 0.711473 0.253149
O O3 0.359194 0.835011 0.259673
O O4 0.418455 0.728216 0.129174
O O5 0.750000 0.721638 0.080568
O O6 0.859227 0.745215 0.159793
O O7 0.827200 0.000000 0.076363
O O8 0.868825 0.730029 0.007992
O O9 0.250000 0.221996 0.752480
O O10 0.325950 0.500000 0.751034
O O11 0.386300 0.232228 0.698806
O O12 0.460001 0.500000 0.653102
O O13 0.499409 0.172707 0.617730
O O14 0.114360 0.000000 0.384902
O O15 0.250000 0.000000 0.323374
O O16 0.067352 0.000000 0.049458
O O17 0.000000 0.734981 0.000000
O O18 0.500000 0.000000 0.500000
#
# Coordination Sequence:
#
# PCOD9400333 Si02
#       7
#     8   8   8   8   4   8   4
#     4  10  20  35  56  81 106 145 196 237 282 333
#     4   9  18  29  41  61  93 135 177 219 271 320
#     4   9  17  30  48  72 104 142 181 221 268 317
#     4   9  19  35  56  82 112 141 174 219 262 312
#     4  10  22  42  63  83 116 147 176 231 284 329
#     4  10  19  30  45  70 105 145 190 243 291 325
#     4  10  22  40  64  91 112 141 176 205 255 337
#
# _framework density 18.132918
#
# number of rings (size 3 to 8) (size 9 to 14) (size 15 to 20)
#    0.000    2.500    0.833    1.000    1.167    2.333 
#    0.000    0.833    0.000    0.000    0.000    0.000 
#    0.000    0.000    0.000    0.000    0.000    0.000 
#
# Total GULP energy -267316.821173 kJ/mol
# GULP energy per Si atom -5569.100441 kJ/mol
# Density = 1.809165 g / cm^3
# Si number density = 18.132918 Si / 1000 Ang^3
#
#
#
# Elastic Constant Matrix: (Units=GPa)
#
#
# Indices 1 2 3 4 5 6 
#
# 1 90.0023 42.3882 65.8019 0.0000 0.0000 0.0000
# 2 42.3882 70.1220 27.8338 0.0000 0.0000 0.0000
# 3 65.8019 27.8338 93.4362 0.0000 0.0000 0.0000
# 4 0.0000 0.0000 0.0000 21.5039 0.0000 0.0000
# 5 0.0000 0.0000 0.0000 0.0000 17.5618 0.0000
# 6 0.0000 0.0000 0.0000 0.0000 0.0000 12.3787
#
#
#
# Elastic Compliance Matrix: (Units=1/GPa)
#
#
# Indices 1 2 3 4 5 6 
#
# 1 0.028357 -0.010451 -0.016857 0.000000 0.000000 0.000000
# 2 -0.010451 0.020025 0.001395 0.000000 0.000000 0.000000
# 3 -0.016857 0.001395 0.022159 0.000000 0.000000 0.000000
# 4 0.000000 0.000000 0.000000 0.046503 0.000000 0.000000
# 5 0.000000 0.000000 0.000000 0.000000 0.056942 0.000000
# 6 0.000000 0.000000 0.000000 0.000000 0.000000 0.080784
#
#
# Mechanical properties :
#
#
# Convention : Reuss Voigt Hill
#
# Bulk Modulus (GPa) = 53.43585 58.40093 55.91839
# Shear Modulus (GPa) = 15.98290 18.12464 17.05377
#
# Velocity S-wave (km/s) = 2.97211 3.16499 3.07006
# Velocity P-wave (km/s) = 6.42735 6.75524 6.59333
#
# Compressibility (1/GPa) = 0.01871403
#
# Stress axis : x y z
#
# Youngs Moduli (GPa) = 35.26417 49.93867 45.12879
#
# Poissons Ratio (x) = 0.52189 0.76075
# Poissons Ratio (y) = 0.36853 -0.06294
# Poissons Ratio (z) = 0.59446 -0.06964
#
# Static dielectric constant tensor:
#      x y z
#    x 1.782940 0.000000 0.000000 
#    y 0.000000 1.647320 0.000000 
#    z 0.000000 0.000000 1.628040 
# 
# From -- ./inp_files/24997.got.cif
#   From: 2010.05.17/outbox.cif.g08.bks.cpg/sg51_13_cif.got.tgz:24997.got - 2010.06.03 11:52:47.
