data_PCOD9400152
_publ_section_title
;
Structure prediction by ZEFSAII (Michael W. Deem and Ramdas Pophale) SiO2 
 PCOD9400152
Probable space group: P M M A
;
_chemical_formula_sum "Si O2"
_cell_formula_units_Z 48
_cell_length_a 31.260151
_cell_length_b 8.886600
_cell_length_c 10.481237
_cell_angle_alpha 90.000000
_cell_angle_beta 90.000000
_cell_angle_gamma 90.000000
_cell_volume 2911.650513
_symmetry_space_group_name_H-M "P M M A"
_symmetry_group_IT_number 51
_symmetry_cell_setting 'orthorhombic'
loop_
_space_group_symop_operation_xyz
x,y,z
1/2-x,-y,z
1/2+x,-y,-z
-x,y,-z
-x,-y,-z
1/2+x,y,-z
1/2-x,y,z
x,-y,z
loop_
_atom_site_type_symbol
_atom_site_label
_atom_site_fract_x
_atom_site_fract_y
_atom_site_fract_z
Si Si1 0.796766 0.179946 0.488189
Si Si2 0.884599 0.320386 0.478123
Si Si3 0.529929 0.181060 0.379725
Si Si4 0.023077 0.181503 0.129797
Si Si5 0.110013 0.319681 0.219953
Si Si6 0.703748 0.681151 0.771589
O O1 0.750000 0.219520 0.431751
O O2 0.839388 0.253411 0.432131
O O3 0.795720 0.240177 0.633656
O O4 0.800770 0.000000 0.488114
O O5 0.883021 0.500000 0.472327
O O6 0.924369 0.256569 0.400149
O O7 0.891097 0.278675 0.628617
O O8 0.500000 0.220558 0.500000
O O9 0.505589 0.227136 0.251271
O O10 0.535090 0.000000 0.378850
O O11 0.070661 0.243941 0.148816
O O12 0.025366 0.000000 0.129705
O O13 0.000000 0.230441 0.000000
O O14 0.105456 0.500000 0.212037
O O15 0.157672 0.278121 0.169792
O O16 0.750000 0.715865 0.834043
O O17 0.702347 0.500000 0.751809
#
# Coordination Sequence:
#
# PCOD9400152 Si02
#       6
#     8   8   8   8   8   8
#     4   9  16  25  39  62  93 126 157 190 231 280
#     4  10  19  29  45  69  95 124 157 196 238 279
#     4  10  19  32  50  70  91 121 158 196 237 278
#     4  10  21  35  49  67  93 125 158 195 240 284
#     4   9  17  28  44  67  93 123 155 190 232 276
#     4   8  14  25  40  61  91 123 153 187 231 279
#
# _framework density 16.485495
#
# number of rings (size 3 to 8) (size 9 to 14) (size 15 to 20)
#    0.000    2.667    1.667    2.000    0.000    5.000 
#    0.000    0.000    0.000    0.000    0.000    1.167 
#    0.000    6.667    0.000    0.000    0.000    0.000 
#
# Total GULP energy -267231.175226 kJ/mol
# GULP energy per Si atom -5567.316151 kJ/mol
# Density = 1.644797 g / cm^3
# Si number density = 16.485495 Si / 1000 Ang^3
#
#
#
# Elastic Constant Matrix: (Units=GPa)
#
#
# Indices 1 2 3 4 5 6 
#
# 1 213.4712 46.4682 55.3359 0.0000 0.0000 0.0000
# 2 46.4682 15.2427 16.9461 0.0000 0.0000 0.0000
# 3 55.3359 16.9461 62.3855 0.0000 0.0000 0.0000
# 4 0.0000 0.0000 0.0000 8.4166 0.0000 0.0000
# 5 0.0000 0.0000 0.0000 0.0000 13.7181 0.0000
# 6 0.0000 0.0000 0.0000 0.0000 0.0000 31.1774
#
#
#
# Elastic Compliance Matrix: (Units=1/GPa)
#
#
# Indices 1 2 3 4 5 6 
#
# 1 0.013986 -0.041325 -0.001180 0.000000 0.000000 0.000000
# 2 -0.041325 0.216093 -0.022043 0.000000 0.000000 0.000000
# 3 -0.001180 -0.022043 0.023064 0.000000 0.000000 0.000000
# 4 0.000000 0.000000 0.000000 0.118813 0.000000 0.000000
# 5 0.000000 0.000000 0.000000 0.000000 0.072896 0.000000
# 6 0.000000 0.000000 0.000000 0.000000 0.000000 0.032074
#
#
# Mechanical properties :
#
#
# Convention : Reuss Voigt Hill
#
# Bulk Modulus (GPa) = 8.06151 58.73330 33.39741
# Shear Modulus (GPa) = 7.72353 22.15238 14.93796
#
# Velocity S-wave (km/s) = 2.16685 3.66970 3.01346
# Velocity P-wave (km/s) = 3.34080 7.32531 5.69303
#
# Compressibility (1/GPa) = 0.12404618
#
# Stress axis : x y z
#
# Youngs Moduli (GPa) = 71.50009 4.62764 43.35768
#
# Poissons Ratio (x) = 0.19124 0.05117
# Poissons Ratio (y) = 2.95473 0.95574
# Poissons Ratio (z) = 0.08439 0.10201
#
# Static dielectric constant tensor:
#      x y z
#    x 1.602280 0.000000 0.000000 
#    y 0.000000 1.545560 0.000000 
#    z 0.000000 0.000000 1.524750 
# 
# From -- ./inp_files/19279.got.cif
#   From: 2010.05.17/outbox.cif.g08.bks.cpg/sg51_10_cif.got.tgz:19279.got - 2010.06.03 11:52:47.
