data_PCOD9400214
_publ_section_title
;
Structure prediction by ZEFSAII (Michael W. Deem and Ramdas Pophale) SiO2 
 PCOD9400214
Probable space group: P M M A
;
_chemical_formula_sum "Si O2"
_cell_formula_units_Z 56
_cell_length_a 9.102528
_cell_length_b 23.589305
_cell_length_c 14.513789
_cell_angle_alpha 90.000000
_cell_angle_beta 90.000000
_cell_angle_gamma 90.000000
_cell_volume 3116.434290
_symmetry_space_group_name_H-M "P M M A"
_symmetry_group_IT_number 51
_symmetry_cell_setting 'orthorhombic'
loop_
_space_group_symop_operation_xyz
x,y,z
1/2-x,-y,z
1/2+x,-y,-z
-x,y,-z
-x,-y,-z
1/2+x,y,-z
1/2-x,y,z
x,-y,z
loop_
_atom_site_type_symbol
_atom_site_label
_atom_site_fract_x
_atom_site_fract_y
_atom_site_fract_z
Si Si1 0.415867 0.826372 0.857191
Si Si2 0.573483 0.676574 0.704297
Si Si3 0.424506 0.100325 0.409656
Si Si4 0.916566 0.212925 0.356168
Si Si5 0.573540 0.436313 0.599187
Si Si6 0.074535 0.064273 0.201625
Si Si7 0.424400 0.285890 0.090176
O O1 0.250000 0.826201 0.894856
O O2 0.407575 0.807050 0.750303
O O3 0.487759 0.888258 0.854930
O O4 0.517268 0.778481 0.901385
O O5 0.750000 0.684634 0.695318
O O6 0.491490 0.725637 0.646943
O O7 0.533146 0.614733 0.666953
O O8 0.537424 0.684739 0.812393
O O9 0.500000 0.074426 0.500000
O O10 0.250000 0.099296 0.420811
O O11 0.483980 0.164651 0.401447
O O12 0.459988 0.071875 0.310996
O O13 0.750000 0.214165 0.393417
O O14 0.500000 0.427425 0.500000
O O15 0.750000 0.434726 0.588418
O O16 0.533656 0.500000 0.631193
O O17 0.250000 0.073855 0.192775
O O18 0.040617 0.000000 0.174249
O O19 0.250000 0.286524 0.079842
O O20 0.500000 0.311706 0.000000
#
# Coordination Sequence:
#
# PCOD9400214 Si02
#       7
#     8   8   8   8   8   8   8
#     4   9  17  30  48  70  94 120 153 192 235 286
#     4   9  18  32  50  73 102 135 168 204 249 298
#     4  10  19  30  43  60  86 119 155 198 247 298
#     4   9  17  29  45  65  89 118 153 194 240 290
#     4   9  18  33  52  74 101 135 175 214 250 290
#     4   9  18  32  48  65  87 119 158 198 243 295
#     4  10  19  32  52  77 104 133 164 201 247 299
#
# _framework density 17.969255
#
# number of rings (size 3 to 8) (size 9 to 14) (size 15 to 20)
#    0.000    2.714    0.000    1.714    0.000    6.286 
#    0.000    1.429    0.000    0.857    0.000    0.000 
#    0.000    0.000    0.000    0.000    0.000    0.429 
#
# Total GULP energy -312253.376196 kJ/mol
# GULP energy per Si atom -5575.953146 kJ/mol
# Density = 1.792836 g / cm^3
# Si number density = 17.969255 Si / 1000 Ang^3
#
#
#
# Elastic Constant Matrix: (Units=GPa)
#
#
# Indices 1 2 3 4 5 6 
#
# 1 43.9671 31.6053 15.8764 0.0000 0.0000 0.0000
# 2 31.6053 126.6292 28.7328 0.0000 0.0000 0.0000
# 3 15.8764 28.7328 40.2169 0.0000 0.0000 0.0000
# 4 0.0000 0.0000 0.0000 13.1889 0.0000 0.0000
# 5 0.0000 0.0000 0.0000 0.0000 24.5950 0.0000
# 6 0.0000 0.0000 0.0000 0.0000 0.0000 18.7832
#
#
#
# Elastic Compliance Matrix: (Units=1/GPa)
#
#
# Indices 1 2 3 4 5 6 
#
# 1 0.029560 -0.005645 -0.007636 0.000000 0.000000 0.000000
# 2 -0.005645 0.010503 -0.005275 0.000000 0.000000 0.000000
# 3 -0.007636 -0.005275 0.031649 0.000000 0.000000 0.000000
# 4 0.000000 0.000000 0.000000 0.075821 0.000000 0.000000
# 5 0.000000 0.000000 0.000000 0.000000 0.040659 0.000000
# 6 0.000000 0.000000 0.000000 0.000000 0.000000 0.053239
#
#
# Mechanical properties :
#
#
# Convention : Reuss Voigt Hill
#
# Bulk Modulus (GPa) = 28.90328 40.36025 34.63177
# Shear Modulus (GPa) = 17.23687 20.28666 18.76176
#
# Velocity S-wave (km/s) = 3.10052 3.36365 3.23476
# Velocity P-wave (km/s) = 5.37935 6.13148 5.76769
#
# Compressibility (1/GPa) = 0.03459814
#
# Stress axis : x y z
#
# Youngs Moduli (GPa) = 33.82995 95.21059 31.59697
#
# Poissons Ratio (x) = 0.53747 0.24128
# Poissons Ratio (y) = 0.19097 0.16668
# Poissons Ratio (z) = 0.25833 0.50227
#
# Static dielectric constant tensor:
#      x y z
#    x 1.610460 0.000000 0.000000 
#    y 0.000000 1.600530 0.000000 
#    z 0.000000 0.000000 1.647350 
# 
# From -- ./inp_files/21745.got.cif
#   From: 2010.05.17/outbox.cif.g08.bks.cpg/sg51_11_cif.got.tgz:21745.got - 2010.06.03 11:52:47.
