data_PCOD9400481
_publ_section_title
;
Structure prediction by ZEFSAII (Michael W. Deem and Ramdas Pophale) SiO2 
 PCOD9400481
Probable space group: P M M A
;
_chemical_formula_sum "Si O2"
_cell_formula_units_Z 64
_cell_length_a 28.921743
_cell_length_b 8.804897
_cell_length_c 14.852433
_cell_angle_alpha 90.000000
_cell_angle_beta 90.000000
_cell_angle_gamma 90.000000
_cell_volume 3782.216148
_symmetry_space_group_name_H-M "P M M A"
_symmetry_group_IT_number 51
_symmetry_cell_setting 'orthorhombic'
loop_
_space_group_symop_operation_xyz
x,y,z
1/2-x,-y,z
1/2+x,-y,-z
-x,y,-z
-x,-y,-z
1/2+x,y,-z
1/2-x,y,z
x,-y,z
loop_
_atom_site_type_symbol
_atom_site_label
_atom_site_fract_x
_atom_site_fract_y
_atom_site_fract_z
Si Si1 0.616967 0.181178 0.468081
Si Si2 0.696764 0.183466 0.156089
Si Si3 0.466939 0.679350 0.643323
Si Si4 0.567072 0.183072 0.645412
Si Si5 0.114607 0.816808 0.970563
Si Si6 0.569192 0.816876 0.851017
Si Si7 0.196246 0.681403 0.649763
Si Si8 0.030937 0.320691 0.857478
O O1 0.572824 0.234041 0.409945
O O2 0.604941 0.223798 0.570902
O O3 0.662135 0.256926 0.426017
O O4 0.621540 0.000000 0.462470
O O5 0.750000 0.228358 0.138689
O O6 0.661344 0.234235 0.078929
O O7 0.682877 0.249794 0.253091
O O8 0.695290 0.000000 0.161709
O O9 0.464478 0.500000 0.623951
O O10 0.517894 0.742155 0.621410
O O11 0.460437 0.701214 0.750670
O O12 0.579146 0.228181 0.747839
O O13 0.561237 0.000000 0.643232
O O14 0.071060 0.757937 0.913824
O O15 0.114479 0.000000 0.968358
O O16 0.106312 0.769864 0.073938
O O17 0.519327 0.749278 0.876837
O O18 0.565626 0.000000 0.852572
O O19 0.250000 0.722764 0.633589
O O20 0.192818 0.500000 0.654697
O O21 0.030266 0.500000 0.875991
#
# Coordination Sequence:
#
# PCOD9400481 Si02
#       8
#     8   8   8   8   8   8   8   8
#     4  11  21  32  50  73  96 126 163 199 238 285
#     4   9  18  33  52  74  99 124 151 187 232 282
#     4  10  20  32  47  70 100 131 162 197 238 283
#     4   9  19  34  49  67  95 130 165 200 237 278
#     4  10  19  30  48  71  93 123 160 193 231 279
#     4   9  18  33  49  65  92 128 162 195 231 273
#     4  10  21  36  53  74  99 125 154 191 237 287
#     4  10  20  31  44  67  98 127 157 194 234 277
#
# _framework density 16.921296000000002
#
# number of rings (size 3 to 8) (size 9 to 14) (size 15 to 20)
#    0.000    2.250    0.000    3.000    0.000    9.250 
#    0.000    0.000    0.000    0.750    0.000    3.500 
#    0.000    2.000    0.000    0.000    0.000    0.000 
#
# Total GULP energy -357198.289596 kJ/mol
# GULP energy per Si atom -5581.223275 kJ/mol
# Density = 1.688278 g / cm^3
# Si number density = 16.921296 Si / 1000 Ang^3
#
#
#
# Elastic Constant Matrix: (Units=GPa)
#
#
# Indices 1 2 3 4 5 6 
#
# 1 88.9633 20.2933 75.2776 0.0000 0.0000 0.0000
# 2 20.2933 13.4958 24.9584 0.0000 0.0000 0.0000
# 3 75.2776 24.9584 91.4226 0.0000 0.0000 0.0000
# 4 0.0000 0.0000 0.0000 11.9387 0.0000 0.0000
# 5 0.0000 0.0000 0.0000 0.0000 32.6906 0.0000
# 6 0.0000 0.0000 0.0000 0.0000 0.0000 17.4825
#
#
#
# Elastic Compliance Matrix: (Units=1/GPa)
#
#
# Indices 1 2 3 4 5 6 
#
# 1 0.037079 0.001429 -0.030921 0.000000 0.000000 0.000000
# 2 0.001429 0.149706 -0.042046 0.000000 0.000000 0.000000
# 3 -0.030921 -0.042046 0.047877 0.000000 0.000000 0.000000
# 4 0.000000 0.000000 0.000000 0.083761 0.000000 0.000000
# 5 0.000000 0.000000 0.000000 0.000000 0.030590 0.000000
# 6 0.000000 0.000000 0.000000 0.000000 0.000000 0.057200
#
#
# Mechanical properties :
#
#
# Convention : Reuss Voigt Hill
#
# Bulk Modulus (GPa) = 10.91874 48.32670 29.62272
# Shear Modulus (GPa) = 8.62339 17.31253 12.96796
#
# Velocity S-wave (km/s) = 2.25992 3.20210 2.77134
# Velocity P-wave (km/s) = 3.64367 6.50330 5.27111
#
# Compressibility (1/GPa) = 0.09158563
#
# Stress axis : x y z
#
# Youngs Moduli (GPa) = 26.96960 6.67975 20.88676
#
# Poissons Ratio (x) = -0.00955 0.64584
# Poissons Ratio (y) = -0.03854 0.87821
# Poissons Ratio (z) = 0.83392 0.28086
#
# Static dielectric constant tensor:
#      x y z
#    x 1.547880 0.000000 0.000000 
#    y 0.000000 1.562710 0.000000 
#    z 0.000000 0.000000 1.592390 
# 
# From -- ./inp_files/26692.got.cif
#   From: 2010.05.17/outbox.cif.g08.bks.cpg/sg51_14_cif.got.tgz:26692.got - 2010.06.03 11:52:47.
