data_PCOD9400569
_publ_section_title
;
Structure prediction by ZEFSAII (Michael W. Deem and Ramdas Pophale) SiO2 
 PCOD9400569
Probable space group: P M M A
;
_chemical_formula_sum "Si O2"
_cell_formula_units_Z 48
_cell_length_a 8.697313
_cell_length_b 21.610274
_cell_length_c 19.882802
_cell_angle_alpha 90.000000
_cell_angle_beta 90.000000
_cell_angle_gamma 90.000000
_cell_volume 3736.998821
_symmetry_space_group_name_H-M "P M M A"
_symmetry_group_IT_number 51
_symmetry_cell_setting 'orthorhombic'
loop_
_space_group_symop_operation_xyz
x,y,z
1/2-x,-y,z
1/2+x,-y,-z
-x,y,-z
-x,-y,-z
1/2+x,y,-z
1/2-x,y,z
x,-y,z
loop_
_atom_site_type_symbol
_atom_site_label
_atom_site_fract_x
_atom_site_fract_y
_atom_site_fract_z
Si Si1 0.433911 0.237194 0.076045
Si Si2 0.565611 0.000000 0.924817
Si Si3 0.432446 0.073577 0.287568
Si Si4 0.565116 0.500000 0.075795
Si Si5 0.066909 0.119200 0.847819
Si Si6 0.427243 0.075224 0.570236
Si Si7 0.064785 0.634138 0.923790
O O1 0.250000 0.236354 0.072691
O O2 0.496646 0.180991 0.120256
O O3 0.492086 0.303233 0.104637
O O4 0.500000 0.230849 0.000000
O O5 0.504844 0.060580 0.886676
O O6 0.750000 0.000000 0.925429
O O7 0.500000 0.000000 0.000000
O O8 0.250000 0.080582 0.278497
O O9 0.521198 0.110180 0.229875
O O10 0.481387 0.092825 0.362601
O O11 0.468445 0.000000 0.280310
O O12 0.750000 0.500000 0.070943
O O13 0.522392 0.433216 0.106763
O O14 0.500000 0.500000 0.000000
O O15 0.250000 0.119014 0.855949
O O16 0.500000 0.096809 0.500000
O O17 0.250000 0.094183 0.575349
O O18 0.430581 0.000000 0.568352
O O19 0.250000 0.639984 0.925178
O O20 0.000000 0.632098 0.000000
#
# Coordination Sequence:
#
# PCOD9400569 Si02
#       7
#     8   4   8   4   8   8   8
#     4  11  21  33  45  58  76  99 128 163 202 241
#     4  12  24  38  50  62  75  92 121 162 206 248
#     4  10  19  31  46  62  81 101 124 156 195 236
#     4   8  14  22  36  56  78  98 118 146 181 224
#     4  12  23  35  48  61  76  98 127 162 202 244
#     4   9  16  26  41  61  83 104 126 150 183 226
#     4   9  15  25  39  57  77  98 122 150 187 229
#
# _framework density 12.844531999999999
#
# number of rings (size 3 to 8) (size 9 to 14) (size 15 to 20)
#    0.000    1.833    0.833    6.750    0.000    3.333 
#    0.000    0.000    0.000    0.000    0.000    0.000 
#    0.000    0.000    0.000    0.000    0.000    0.000 
#
# Total GULP energy -267604.798345 kJ/mol
# GULP energy per Si atom -5575.099966 kJ/mol
# Density = 1.281530 g / cm^3
# Si number density = 12.844532 Si / 1000 Ang^3
#
#
#
# Elastic Constant Matrix: (Units=GPa)
#
#
# Indices 1 2 3 4 5 6 
#
# 1 98.8712 43.7595 29.1567 0.0000 0.0000 0.0000
# 2 43.7595 107.0899 34.0253 0.0000 0.0000 0.0000
# 3 29.1567 34.0253 63.7766 0.0000 0.0000 0.0000
# 4 0.0000 0.0000 0.0000 -0.4964 0.0000 0.0000
# 5 0.0000 0.0000 0.0000 0.0000 20.7354 0.0000
# 6 0.0000 0.0000 0.0000 0.0000 0.0000 14.9721
#
#
#
# Elastic Compliance Matrix: (Units=1/GPa)
#
#
# Indices 1 2 3 4 5 6 
#
# 1 0.013055 -0.004140 -0.003760 0.000000 0.000000 0.000000
# 2 -0.004140 0.012557 -0.004806 0.000000 0.000000 0.000000
# 3 -0.003760 -0.004806 0.019963 0.000000 0.000000 0.000000
# 4 0.000000 0.000000 0.000000 -2.014542 0.000000 0.000000
# 5 0.000000 0.000000 0.000000 0.000000 0.048227 0.000000
# 6 0.000000 0.000000 0.000000 0.000000 0.000000 0.066791
#
#
# Mechanical properties :
#
#
# Convention : Reuss Voigt Hill
#
# Bulk Modulus (GPa) = 49.59721 53.73565 51.66643
# Shear Modulus (GPa) = -2.74451 17.89531 7.57540
#
# Velocity S-wave (km/s) = -1.46334 3.73664 2.43116
# Velocity P-wave (km/s) = 5.98683 7.78093 6.94208
#
# Compressibility (1/GPa) = 0.02016242
#
# Stress axis : x y z
#
# Youngs Moduli (GPa) = 76.59744 79.63785 50.09321
#
# Poissons Ratio (x) = 0.32971 0.18833
# Poissons Ratio (y) = 0.31713 0.24077
# Poissons Ratio (z) = 0.28798 0.38277
#
# Static dielectric constant tensor:
#      x y z
#    x 1.428530 0.000000 0.000000 
#    y 0.000000 1.439640 0.000000 
#    z 0.000000 0.000000 1.399910 
# 
# From -- ./inp_files/28123.got.cif
#   From: 2010.05.17/outbox.cif.g08.bks.cpg/sg51_15_cif.got.tgz:28123.got - 2010.06.03 11:52:47.
