data_PCOD9400144
_publ_section_title
;
Structure prediction by ZEFSAII (Michael W. Deem and Ramdas Pophale) SiO2 
 PCOD9400144
Probable space group: P M M A
;
_chemical_formula_sum "Si O2"
_cell_formula_units_Z 56
_cell_length_a 18.705822
_cell_length_b 8.949691
_cell_length_c 20.745251
_cell_angle_alpha 90.000000
_cell_angle_beta 90.000000
_cell_angle_gamma 90.000000
_cell_volume 3472.989995
_symmetry_space_group_name_H-M "P M M A"
_symmetry_group_IT_number 51
_symmetry_cell_setting 'orthorhombic'
loop_
_space_group_symop_operation_xyz
x,y,z
1/2-x,-y,z
1/2+x,-y,-z
-x,y,-z
-x,-y,-z
1/2+x,y,-z
1/2-x,y,z
x,-y,z
loop_
_atom_site_type_symbol
_atom_site_label
_atom_site_fract_x
_atom_site_fract_y
_atom_site_fract_z
Si Si1 0.024434 0.671558 0.924831
Si Si2 0.884123 0.177503 0.886082
Si Si3 0.166774 0.322335 0.486433
Si Si4 0.087468 0.820066 0.364355
Si Si5 0.831189 0.320193 0.019195
Si Si6 0.667094 0.322066 0.754547
Si Si7 0.049697 0.171999 0.564278
O O1 0.019150 0.500000 0.901608
O O2 0.967555 0.774125 0.888879
O O3 0.107021 0.720165 0.929534
O O4 0.000000 0.671023 0.000000
O O5 0.848685 0.240669 0.951579
O O6 0.848376 0.253430 0.824417
O O7 0.876959 0.000000 0.883622
O O8 0.250000 0.285900 0.495272
O O9 0.340302 0.500000 0.477653
O O10 0.363931 0.241968 0.422731
O O11 0.382091 0.269554 0.546085
O O12 0.116747 0.753535 0.298379
O O13 0.005205 0.777541 0.380410
O O14 0.090895 0.000000 0.364469
O O15 0.750000 0.287539 0.038811
O O16 0.837764 0.500000 0.009217
O O17 0.750000 0.294603 0.737051
O O18 0.655811 0.500000 0.756077
O O19 0.000000 0.173226 0.500000
O O20 0.070970 0.000000 0.575514
#
# Coordination Sequence:
#
# PCOD9400144 Si02
#       7
#     8   8   8   8   8   8   8
#     4   8  15  29  47  65  88 119 152 186 226 270
#     4  11  21  31  45  66  93 124 156 189 225 266
#     4  10  19  29  44  69  97 123 153 188 225 266
#     4  10  20  33  48  67  92 121 154 190 227 270
#     4   9  17  30  48  69  93 121 152 187 228 272
#     4  11  23  36  49  66  90 122 158 190 221 264
#     4   8  16  30  46  65  89 118 151 186 227 272
#
# _framework density 16.124434000000001
#
# number of rings (size 3 to 8) (size 9 to 14) (size 15 to 20)
#    0.000    2.429    0.000    5.143    0.000   11.714 
#    0.000    0.000    0.000    0.000    0.000    1.000 
#    0.000    5.714    0.000    0.000    0.000    0.000 
#
# Total GULP energy -312181.186735 kJ/mol
# GULP energy per Si atom -5574.664049 kJ/mol
# Density = 1.608773 g / cm^3
# Si number density = 16.124434 Si / 1000 Ang^3
#
#
#
# Elastic Constant Matrix: (Units=GPa)
#
#
# Indices 1 2 3 4 5 6 
#
# 1 73.3781 20.7343 -5.5628 0.0000 0.0000 0.0000
# 2 20.7343 44.8714 6.8330 0.0000 0.0000 0.0000
# 3 -5.5628 6.8330 15.8846 0.0000 0.0000 0.0000
# 4 0.0000 0.0000 0.0000 21.7883 0.0000 0.0000
# 5 0.0000 0.0000 0.0000 0.0000 24.4087 0.0000
# 6 0.0000 0.0000 0.0000 0.0000 0.0000 31.5697
#
#
#
# Elastic Compliance Matrix: (Units=1/GPa)
#
#
# Indices 1 2 3 4 5 6 
#
# 1 0.017043 -0.009400 0.010012 0.000000 0.000000 0.000000
# 2 -0.009400 0.029033 -0.015781 0.000000 0.000000 0.000000
# 3 0.010012 -0.015781 0.073248 0.000000 0.000000 0.000000
# 4 0.000000 0.000000 0.000000 0.045896 0.000000 0.000000
# 5 0.000000 0.000000 0.000000 0.000000 0.040969 0.000000
# 6 0.000000 0.000000 0.000000 0.000000 0.000000 0.031676
#
#
# Mechanical properties :
#
#
# Convention : Reuss Voigt Hill
#
# Bulk Modulus (GPa) = 11.23757 19.79367 15.51562
# Shear Modulus (GPa) = 16.78614 23.02864 19.90739
#
# Velocity S-wave (km/s) = 3.23001 3.78323 3.51751
# Velocity P-wave (km/s) = 4.57111 5.60232 5.11278
#
# Compressibility (1/GPa) = 0.08898719
#
# Stress axis : x y z
#
# Youngs Moduli (GPa) = 58.67443 34.44414 13.65216
#
# Poissons Ratio (x) = 0.32377 -0.13669
# Poissons Ratio (y) = 0.55154 0.21544
# Poissons Ratio (z) = -0.58745 0.54355
#
# Static dielectric constant tensor:
#      x y z
#    x 1.576520 0.000000 0.000000 
#    y 0.000000 1.537320 0.000000 
#    z 0.000000 0.000000 1.518990 
# 
# From -- ./inp_files/33701.got.cif
#   From: 2010.05.17/outbox.cif.g08.bks.cpg/sg51_17_cif.got.tgz:33701.got - 2010.06.03 11:52:47.
