data_PCOD9400893
_publ_section_title
;
Structure prediction by ZEFSAII (Michael W. Deem and Ramdas Pophale) SiO2 
 PCOD9400893
Probable space group: P M M A
;
_chemical_formula_sum "Si O2"
_cell_formula_units_Z 48
_cell_length_a 14.459522
_cell_length_b 28.444246
_cell_length_c 5.197180
_cell_angle_alpha 90.000000
_cell_angle_beta 90.000000
_cell_angle_gamma 90.000000
_cell_volume 2137.549206
_symmetry_space_group_name_H-M "P M M A"
_symmetry_group_IT_number 51
_symmetry_cell_setting 'orthorhombic'
loop_
_space_group_symop_operation_xyz
x,y,z
1/2-x,-y,z
1/2+x,-y,-z
-x,y,-z
-x,-y,-z
1/2+x,y,-z
1/2-x,y,z
x,-y,z
loop_
_atom_site_type_symbol
_atom_site_label
_atom_site_fract_x
_atom_site_fract_y
_atom_site_fract_z
Si Si1 0.612026 0.552920 0.532517
Si Si2 0.609471 0.398777 0.035798
Si Si3 0.066234 0.949483 0.249914
Si Si4 0.065001 0.152252 0.251177
Si Si5 0.859632 0.252664 0.823724
Si Si6 0.139275 0.299705 0.681525
O O1 0.500000 0.555490 0.500000
O O2 0.634758 0.500000 0.613697
O O3 0.645740 0.564688 0.247182
O O4 0.644368 0.589980 0.748915
O O5 0.623396 0.349003 0.175351
O O6 0.500000 0.404661 0.000000
O O7 0.115480 0.898717 0.248657
O O8 0.000000 0.949451 0.500000
O O9 0.117372 0.000000 0.250125
O O10 0.000000 0.949477 0.000000
O O11 0.125295 0.199076 0.255272
O O12 0.000000 0.153298 0.500000
O O13 0.000000 0.154227 0.000000
O O14 0.750000 0.261416 0.843862
O O15 0.897470 0.288153 0.603810
O O16 0.897077 0.262233 0.109673
O O17 0.250000 0.295121 0.654766
#
# Coordination Sequence:
#
# PCOD9400893 Si02
#       6
#     8   8   8   8   8   8
#     4   9  17  30  49  73  99 124 151 187 235 288
#     4  10  19  31  50  74  95 120 157 198 236 276
#     4   8  14  25  42  66  96 126 156 194 242 293
#     4  10  19  31  50  76 100 126 165 210 249 284
#     4  10  21  36  51  69  97 134 168 199 247 304
#     4  10  21  36  52  69  95 132 166 197 241 296
#
# _framework density 22.455621000000001
#
# number of rings (size 3 to 8) (size 9 to 14) (size 15 to 20)
#    0.000    2.500    0.000    2.500    0.000    4.000 
#    0.000    0.000    0.000    3.500    0.000    0.000 
#    0.000   17.333    0.000    0.000    0.000    2.667 
#
# Total GULP energy -267648.126792 kJ/mol
# GULP energy per Si atom -5576.002641 kJ/mol
# Density = 2.240451 g / cm^3
# Si number density = 22.455621 Si / 1000 Ang^3
#
#
#
# Elastic Constant Matrix: (Units=GPa)
#
#
# Indices 1 2 3 4 5 6 
#
# 1 46.0648 -27.4485 -0.2731 0.0000 0.0000 0.0000
# 2 -27.4485 101.1305 10.9645 0.0000 0.0000 0.0000
# 3 -0.2731 10.9645 144.4581 0.0000 0.0000 0.0000
# 4 0.0000 0.0000 0.0000 35.7035 0.0000 0.0000
# 5 0.0000 0.0000 0.0000 0.0000 -8.6221 0.0000
# 6 0.0000 0.0000 0.0000 0.0000 0.0000 21.5000
#
#
#
# Elastic Compliance Matrix: (Units=1/GPa)
#
#
# Indices 1 2 3 4 5 6 
#
# 1 0.025931 0.007091 -0.000489 0.000000 0.000000 0.000000
# 2 0.007091 0.011909 -0.000891 0.000000 0.000000 0.000000
# 3 -0.000489 -0.000891 0.006989 0.000000 0.000000 0.000000
# 4 0.000000 0.000000 0.000000 0.028008 0.000000 0.000000
# 5 0.000000 0.000000 0.000000 0.000000 -0.115981 0.000000
# 6 0.000000 0.000000 0.000000 0.000000 0.000000 0.046512
#
#
# Mechanical properties :
#
#
# Convention : Reuss Voigt Hill
#
# Bulk Modulus (GPa) = 17.77703 28.68214 23.22958
# Shear Modulus (GPa) = 467.44457 30.27697 248.86077
#
# Velocity S-wave (km/s) = 14.44353 3.67591 10.53869
# Velocity P-wave (km/s) = 16.91413 5.55130 12.58779
#
# Compressibility (1/GPa) = 0.05625238
#
# Stress axis : x y z
#
# Youngs Moduli (GPa) = 38.56384 83.96712 143.08012
#
# Poissons Ratio (x) = -0.59542 0.07000
# Poissons Ratio (y) = -0.27346 0.12742
# Poissons Ratio (z) = 0.01887 0.07478
#
# Static dielectric constant tensor:
#      x y z
#    x 1.783440 0.000000 0.000000 
#    y 0.000000 1.915430 0.000000 
#    z 0.000000 0.000000 1.926620 
# 
# From -- ./inp_files/1444.got.cif
#   From: 2010.05.17/outbox.cif.g08.bks.cpg/sg51_1_cif.got.tgz:1444.got - 2010.06.03 11:52:47.
