data_PCOD9400156
_publ_section_title
;
Structure prediction by ZEFSAII (Michael W. Deem and Ramdas Pophale) SiO2 
 PCOD9400156
Probable space group: P M M A
;
_chemical_formula_sum "Si O2"
_cell_formula_units_Z 64
_cell_length_a 8.552993
_cell_length_b 20.873731
_cell_length_c 20.491569
_cell_angle_alpha 90.000000
_cell_angle_beta 90.000000
_cell_angle_gamma 90.000000
_cell_volume 3658.418729
_symmetry_space_group_name_H-M "P M M A"
_symmetry_group_IT_number 51
_symmetry_cell_setting 'orthorhombic'
loop_
_space_group_symop_operation_xyz
x,y,z
1/2-x,-y,z
1/2+x,-y,-z
-x,y,-z
-x,-y,-z
1/2+x,y,-z
1/2-x,y,z
x,-y,z
loop_
_atom_site_type_symbol
_atom_site_label
_atom_site_fract_x
_atom_site_fract_y
_atom_site_fract_z
Si Si1 0.561003 0.196723 0.927071
Si Si2 0.564608 0.896694 0.568206
Si Si3 0.440698 0.930242 0.147793
Si Si4 0.563661 0.741541 0.290502
Si Si5 0.562921 0.574160 0.070786
Si Si6 0.060746 0.112984 0.289705
Si Si7 0.563327 0.248333 0.434539
Si Si8 0.437073 0.683061 0.161944
O O1 0.750000 0.196302 0.928037
O O2 0.506503 0.130075 0.894690
O O3 0.511290 0.255996 0.881826
O O4 0.500000 0.203799 0.000000
O O5 0.500000 0.923693 0.500000
O O6 0.750000 0.904879 0.566146
O O7 0.508008 0.916739 0.640709
O O8 0.520097 0.821169 0.567773
O O9 0.250000 0.928945 0.147330
O O10 0.488815 0.921434 0.223303
O O11 0.491141 0.000000 0.123492
O O12 0.750000 0.746093 0.283264
O O13 0.493931 0.813264 0.284175
O O14 0.529930 0.719855 0.364828
O O15 0.495969 0.696460 0.234735
O O16 0.750000 0.576476 0.069360
O O17 0.513546 0.500000 0.079592
O O18 0.500772 0.619769 0.127372
O O19 0.500000 0.595873 0.000000
O O20 0.250000 0.112787 0.291096
O O21 0.500000 0.281070 0.500000
O O22 0.750000 0.238310 0.439685
O O23 0.250000 0.681497 0.161894
#
# Coordination Sequence:
#
# PCOD9400156 Si02
#       8
#     8   8   8   8   8   8   8   8
#     4  10  21  35  51  73  96 121 156 198 247 297
#     4   9  15  22  37  59  85 114 147 189 235 287
#     4   9  17  32  52  69  88 118 159 205 249 298
#     4  10  19  29  45  70  99 130 163 204 253 298
#     4  10  21  37  56  79 108 141 176 210 246 293
#     4   9  16  29  46  65  88 118 158 200 243 295
#     4   9  16  25  38  60  91 126 161 196 240 292
#     4  11  21  34  53  76 104 136 171 209 247 294
#
# _framework density 17.493895999999999
#
# number of rings (size 3 to 8) (size 9 to 14) (size 15 to 20)
#    0.000    2.375    1.250    3.000    0.000    5.000 
#    0.000    0.000    0.000    1.500    0.000    0.000 
#    0.000    0.500    0.000    1.625    0.000    5.625 
#
# Total GULP energy -356836.992546 kJ/mol
# GULP energy per Si atom -5575.578009 kJ/mol
# Density = 1.745408 g / cm^3
# Si number density = 17.493896 Si / 1000 Ang^3
#
#
#
# Elastic Constant Matrix: (Units=GPa)
#
#
# Indices 1 2 3 4 5 6 
#
# 1 17.5151 11.9800 21.9210 0.0000 0.0000 0.0000
# 2 11.9800 59.0740 42.3915 0.0000 0.0000 0.0000
# 3 21.9210 42.3915 129.2887 0.0000 0.0000 0.0000
# 4 0.0000 0.0000 0.0000 -42.7969 0.0000 0.0000
# 5 0.0000 0.0000 0.0000 0.0000 28.6232 0.0000
# 6 0.0000 0.0000 0.0000 0.0000 0.0000 -43.4895
#
#
#
# Elastic Compliance Matrix: (Units=1/GPa)
#
#
# Indices 1 2 3 4 5 6 
#
# 1 0.075245 -0.007983 -0.010141 0.000000 0.000000 0.000000
# 2 -0.007983 0.022983 -0.006182 0.000000 0.000000 0.000000
# 3 -0.010141 -0.006182 0.011481 0.000000 0.000000 0.000000
# 4 0.000000 0.000000 0.000000 -0.023366 0.000000 0.000000
# 5 0.000000 0.000000 0.000000 0.000000 0.034937 0.000000
# 6 0.000000 0.000000 0.000000 0.000000 0.000000 -0.022994
#
#
# Mechanical properties :
#
#
# Convention : Reuss Voigt Hill
#
# Bulk Modulus (GPa) = 16.36703 39.82919 28.09811
# Shear Modulus (GPa) = 29.89304 -2.89364 13.49970
#
# Velocity S-wave (km/s) = 4.13821 -1.28751 2.78093
# Velocity P-wave (km/s) = 5.67532 4.53946 5.13887
#
# Compressibility (1/GPa) = 0.06109843
#
# Stress axis : x y z
#
# Youngs Moduli (GPa) = 13.28990 43.51000 87.10009
#
# Poissons Ratio (x) = 0.34732 0.88324
# Poissons Ratio (y) = 0.10609 0.53848
# Poissons Ratio (z) = 0.13477 0.26899
#
# Static dielectric constant tensor:
#      x y z
#    x 1.597030 0.000000 0.000000 
#    y 0.000000 1.582030 0.000000 
#    z 0.000000 0.000000 1.634770 
# 
# From -- ./inp_files/32436.got.cif
#   From: 2010.05.17/outbox.cif.g08.bks.cpg/sg51_17_cif.got.tgz:32436.got - 2010.06.03 11:52:47.
