data_PCOD9400171
_publ_section_title
;
Structure prediction by ZEFSAII (Michael W. Deem and Ramdas Pophale) SiO2 
 PCOD9400171
Probable space group: P M M A
;
_chemical_formula_sum "Si O2"
_cell_formula_units_Z 64
_cell_length_a 24.485803
_cell_length_b 9.080261
_cell_length_c 16.958031
_cell_angle_alpha 90.000000
_cell_angle_beta 90.000000
_cell_angle_gamma 90.000000
_cell_volume 3770.405913
_symmetry_space_group_name_H-M "P M M A"
_symmetry_group_IT_number 51
_symmetry_cell_setting 'orthorhombic'
loop_
_space_group_symop_operation_xyz
x,y,z
1/2-x,-y,z
1/2+x,-y,-z
-x,y,-z
-x,-y,-z
1/2+x,y,-z
1/2-x,y,z
x,-y,z
loop_
_atom_site_type_symbol
_atom_site_label
_atom_site_fract_x
_atom_site_fract_y
_atom_site_fract_z
Si Si1 0.687097 0.822837 0.253187
Si Si2 0.186122 0.326941 0.384856
Si Si3 0.314408 0.175705 0.072278
Si Si4 0.083639 0.176833 0.645858
Si Si5 0.370911 0.674493 0.218967
Si Si6 0.087729 0.824651 0.462739
Si Si7 0.816225 0.668513 0.089786
Si Si8 0.975303 0.323794 0.680513
O O1 0.750000 0.778205 0.270640
O O2 0.642928 0.783348 0.319529
O O3 0.669368 0.751480 0.170359
O O4 0.687025 0.000000 0.244920
O O5 0.250000 0.302036 0.395818
O O6 0.173819 0.500000 0.400926
O O7 0.168737 0.301019 0.294129
O O8 0.148515 0.224532 0.438288
O O9 0.250000 0.213573 0.084877
O O10 0.349551 0.236461 0.144592
O O11 0.318177 0.000000 0.066835
O O12 0.332658 0.248168 0.989853
O O13 0.078506 0.215441 0.553603
O O14 0.034824 0.255905 0.691881
O O15 0.077565 0.000000 0.652303
O O16 0.369898 0.500000 0.201023
O O17 0.431101 0.713586 0.251682
O O18 0.048833 0.742457 0.400797
O O19 0.080408 0.000000 0.454253
O O20 0.750000 0.667129 0.088659
O O21 0.835388 0.500000 0.090070
O O22 0.977358 0.500000 0.674594
#
# Coordination Sequence:
#
# PCOD9400171 Si02
#       8
#     8   8   8   8   8   8   8   8
#     4   9  18  34  54  75 102 132 160 196 245 298
#     4   9  18  32  48  68  99 137 171 204 248 299
#     4  10  19  29  46  75 105 132 164 199 238 287
#     4  10  21  35  53  76  99 127 164 206 251 297
#     4   9  18  32  48  68  96 130 166 203 244 288
#     4  10  20  33  50  73 100 130 168 212 253 296
#     4   9  17  30  49  73 101 132 164 198 238 285
#     4  10  21  36  53  72  97 131 169 209 253 296
#
# _framework density 16.974299999999999
#
# number of rings (size 3 to 8) (size 9 to 14) (size 15 to 20)
#    0.000    2.500    0.000    3.000    0.000    9.000 
#    0.000    1.250    0.000    2.250    0.000    5.250 
#    0.000    0.000    0.000    0.000    0.000    0.000 
#
# Total GULP energy -356931.489192 kJ/mol
# GULP energy per Si atom -5577.054519 kJ/mol
# Density = 1.693567 g / cm^3
# Si number density = 16.974300 Si / 1000 Ang^3
#
#
#
# Elastic Constant Matrix: (Units=GPa)
#
#
# Indices 1 2 3 4 5 6 
#
# 1 83.6282 27.3876 31.2590 0.0000 0.0000 0.0000
# 2 27.3876 30.8262 25.4470 0.0000 0.0000 0.0000
# 3 31.2590 25.4470 59.8346 0.0000 0.0000 0.0000
# 4 0.0000 0.0000 0.0000 58.1539 0.0000 0.0000
# 5 0.0000 0.0000 0.0000 0.0000 14.2172 0.0000
# 6 0.0000 0.0000 0.0000 0.0000 0.0000 26.6707
#
#
#
# Elastic Compliance Matrix: (Units=1/GPa)
#
#
# Indices 1 2 3 4 5 6 
#
# 1 0.017431 -0.012281 -0.003883 0.000000 0.000000 0.000000
# 2 -0.012281 0.058643 -0.018524 0.000000 0.000000 0.000000
# 3 -0.003883 -0.018524 0.026620 0.000000 0.000000 0.000000
# 4 0.000000 0.000000 0.000000 0.017196 0.000000 0.000000
# 5 0.000000 0.000000 0.000000 0.000000 0.070337 0.000000
# 6 0.000000 0.000000 0.000000 0.000000 0.000000 0.037494
#
#
# Mechanical properties :
#
#
# Convention : Reuss Voigt Hill
#
# Bulk Modulus (GPa) = 30.01540 38.05291 34.03415
# Shear Modulus (GPa) = 16.22300 25.82139 21.02220
#
# Velocity S-wave (km/s) = 3.09486 3.90449 3.52301
# Velocity P-wave (km/s) = 5.52196 6.54167 6.05332
#
# Compressibility (1/GPa) = 0.03331623
#
# Stress axis : x y z
#
# Youngs Moduli (GPa) = 57.36833 17.05235 37.56601
#
# Poissons Ratio (x) = 0.20942 0.14589
# Poissons Ratio (y) = 0.70454 0.69589
# Poissons Ratio (z) = 0.22279 0.31588
#
# Static dielectric constant tensor:
#      x y z
#    x 1.581230 0.000000 0.000000 
#    y 0.000000 1.568520 0.000000 
#    z 0.000000 0.000000 1.552490 
# 
# From -- ./inp_files/26170.got.cif
#   From: 2010.05.17/outbox.cif.g08.bks.cpg/sg51_14_cif.got.tgz:26170.got - 2010.06.03 11:52:47.
