data_PCOD9400026
_publ_section_title
;
Structure prediction by ZEFSAII (Michael W. Deem and Ramdas Pophale) SiO2 
 PCOD9400026
Probable space group: P M M A
;
_chemical_formula_sum "Si O2"
_cell_formula_units_Z 52
_cell_length_a 9.248192
_cell_length_b 12.934165
_cell_length_c 30.781015
_cell_angle_alpha 90.000000
_cell_angle_beta 90.000000
_cell_angle_gamma 90.000000
_cell_volume 3681.952410
_symmetry_space_group_name_H-M "P M M A"
_symmetry_group_IT_number 51
_symmetry_cell_setting 'orthorhombic'
loop_
_space_group_symop_operation_xyz
x,y,z
1/2-x,-y,z
1/2+x,-y,-z
-x,y,-z
-x,-y,-z
1/2+x,y,-z
1/2-x,y,z
x,-y,z
loop_
_atom_site_type_symbol
_atom_site_label
_atom_site_fract_x
_atom_site_fract_y
_atom_site_fract_z
Si Si1 0.923662 0.804979 0.392499
Si Si2 0.923122 0.380476 0.454898
Si Si3 0.583111 0.874199 0.217900
Si Si4 0.421051 0.875657 0.306292
Si Si5 0.582805 0.873963 0.869127
Si Si6 0.422751 0.000000 0.546261
Si Si7 0.082872 0.874006 0.956393
O O1 0.750000 0.807947 0.384985
O O2 0.961563 0.698701 0.416828
O O3 0.006279 0.822370 0.347674
O O4 0.959186 0.899054 0.425274
O O5 0.750000 0.373812 0.461078
O O6 0.959748 0.500000 0.445063
O O7 0.000000 0.351836 0.500000
O O8 0.750000 0.840676 0.218315
O O9 0.499204 0.843981 0.261598
O O10 0.500471 0.840516 0.174340
O O11 0.583345 0.000000 0.217204
O O12 0.250000 0.855826 0.304015
O O13 0.440923 0.000000 0.311150
O O14 0.750000 0.841517 0.869085
O O15 0.500190 0.841285 0.912807
O O16 0.582304 0.000000 0.869042
O O17 0.500000 0.000000 0.500000
O O18 0.250000 0.000000 0.539371
O O19 0.250000 0.841382 0.956353
O O20 0.082548 0.000000 0.956418
O O21 0.000000 0.841152 0.000000
#
# Coordination Sequence:
#
# PCOD9400026 Si02
#       7
#     8   8   8   8   8   4   8
#     4  10  19  31  45  61  83 108 131 157 190 231
#     4   9  18  32  49  67  85 106 132 161 192 226
#     4   9  16  25  37  50  66  90 117 146 181 224
#     4  10  19  29  41  58  78 100 126 156 189 228
#     4   9  15  22  31  43  59  79 107 143 181 223
#     4  10  20  30  42  60  82 106 130 154 185 224
#     4   9  15  21  28  38  53  74 102 138 183 231
#
# _framework density 14.122942
#
# number of rings (size 3 to 8) (size 9 to 14) (size 15 to 20)
#    0.000    2.615    0.769    2.308    0.000    7.385 
#    0.000    0.000    0.000    0.000    0.000    0.000 
#    0.000    0.000    0.000    0.000    0.000    0.000 
#
# Total GULP energy -289766.051310 kJ/mol
# GULP energy per Si atom -5572.424064 kJ/mol
# Density = 1.409080 g / cm^3
# Si number density = 14.122942 Si / 1000 Ang^3
#
#
#
# Elastic Constant Matrix: (Units=GPa)
#
#
# Indices 1 2 3 4 5 6 
#
# 1 108.2056 26.4486 95.7751 0.0000 0.0000 0.0000
# 2 26.4486 27.5780 36.4111 0.0000 0.0000 0.0000
# 3 95.7751 36.4111 175.0846 0.0000 0.0000 0.0000
# 4 0.0000 0.0000 0.0000 7.1363 0.0000 0.0000
# 5 0.0000 0.0000 0.0000 0.0000 32.7396 0.0000
# 6 0.0000 0.0000 0.0000 0.0000 0.0000 5.9309
#
#
#
# Elastic Compliance Matrix: (Units=1/GPa)
#
#
# Indices 1 2 3 4 5 6 
#
# 1 0.018628 -0.006081 -0.008925 0.000000 0.000000 0.000000
# 2 -0.006081 0.051971 -0.007481 0.000000 0.000000 0.000000
# 3 -0.008925 -0.007481 0.012150 0.000000 0.000000 0.000000
# 4 0.000000 0.000000 0.000000 0.140128 0.000000 0.000000
# 5 0.000000 0.000000 0.000000 0.000000 0.030544 0.000000
# 6 0.000000 0.000000 0.000000 0.000000 0.000000 0.168608
#
#
# Mechanical properties :
#
#
# Convention : Reuss Voigt Hill
#
# Bulk Modulus (GPa) = 26.47421 69.79310 48.13365
# Shear Modulus (GPa) = 10.42545 19.31027 14.86786
#
# Velocity S-wave (km/s) = 2.71992 3.70171 3.24812
# Velocity P-wave (km/s) = 5.35258 8.23382 6.94427
#
# Compressibility (1/GPa) = 0.03777261
#
# Stress axis : x y z
#
# Youngs Moduli (GPa) = 53.68255 19.24165 82.30638
#
# Poissons Ratio (x) = 0.11701 0.73461
# Poissons Ratio (y) = 0.32645 0.61577
# Poissons Ratio (z) = 0.47913 0.14396
#
# Static dielectric constant tensor:
#      x y z
#    x 1.471710 0.000000 0.000000 
#    y 0.000000 1.435710 0.000000 
#    z 0.000000 0.000000 1.454100 
# 
# From -- ./inp_files/37333.got.cif
#   From: 2010.05.17/outbox.cif.g08.bks.cpg/sg51_19_cif.got.tgz:37333.got - 2010.06.03 11:52:47.
