data_PCOD9400363
_publ_section_title
;
Structure prediction by ZEFSAII (Michael W. Deem and Ramdas Pophale) SiO2 
 PCOD9400363
Probable space group: P M M A
;
_chemical_formula_sum "Si O2"
_cell_formula_units_Z 64
_cell_length_a 18.438792
_cell_length_b 7.351274
_cell_length_c 21.266641
_cell_angle_alpha 90.000000
_cell_angle_beta 90.000000
_cell_angle_gamma 90.000000
_cell_volume 2882.663674
_symmetry_space_group_name_H-M "P M M A"
_symmetry_group_IT_number 51
_symmetry_cell_setting 'orthorhombic'
loop_
_space_group_symop_operation_xyz
x,y,z
1/2-x,-y,z
1/2+x,-y,-z
-x,y,-z
-x,-y,-z
1/2+x,y,-z
1/2-x,y,z
x,-y,z
loop_
_atom_site_type_symbol
_atom_site_label
_atom_site_fract_x
_atom_site_fract_y
_atom_site_fract_z
Si Si1 0.168863 0.219421 0.363976
Si Si2 0.833149 0.719653 0.397037
Si Si3 0.423049 0.787056 0.478849
Si Si4 0.073728 0.722154 0.722527
Si Si5 0.334420 0.276917 0.117904
Si Si6 0.415810 0.286718 0.240362
Si Si7 0.833846 0.722137 0.156518
Si Si8 0.161767 0.288087 0.980161
O O1 0.250000 0.283691 0.377499
O O2 0.112365 0.289589 0.415720
O O3 0.143962 0.268340 0.294340
O O4 0.169770 0.000000 0.367934
O O5 0.750000 0.781587 0.389697
O O6 0.831971 0.500000 0.394807
O O7 0.866895 0.772540 0.463823
O O8 0.885443 0.782795 0.340598
O O9 0.500000 0.707294 0.500000
O O10 0.436066 0.000000 0.465776
O O11 0.073631 0.500000 0.719933
O O12 0.118750 0.776605 0.784222
O O13 0.991389 0.786021 0.732109
O O14 0.250000 0.225163 0.127626
O O15 0.334741 0.500000 0.117047
O O16 0.384697 0.213598 0.174879
O O17 0.359044 0.214196 0.048457
O O18 0.428964 0.500000 0.228803
O O19 0.750000 0.776392 0.164844
O O20 0.834268 0.500000 0.154686
O O21 0.860808 0.786166 0.087838
O O22 0.250000 0.282141 0.979316
O O23 0.140130 0.500000 0.980417
#
# Coordination Sequence:
#
# PCOD9400363 Si02
#       8
#     8   8   8   8   8   8   8   8
#     4  10  21  36  52  70  93 120 151 188 224 261
#     4  10  20  33  50  72  97 126 159 195 234 274
#     4  10  21  37  56  76  98 124 152 186 233 284
#     4   9  17  28  41  62  93 123 153 192 233 272
#     4   8  13  22  36  56  84 116 150 188 228 270
#     4  10  19  30  46  68  94 124 154 187 232 279
#     4   8  12  20  36  56  82 121 160 187 221 274
#     4   7  10  17  31  52  79 114 153 187 221 266
#
# _framework density 22.201691
#
# number of rings (size 3 to 8) (size 9 to 14) (size 15 to 20)
#    0.000    3.000    0.000    3.375    0.000    3.750 
#    0.000    0.625    0.000    3.750    0.000    0.000 
#    0.000    3.000    0.000    8.000    0.000    6.250 
#
# Total GULP energy -357256.395495 kJ/mol
# GULP energy per Si atom -5582.131180 kJ/mol
# Density = 2.215116 g / cm^3
# Si number density = 22.201691 Si / 1000 Ang^3
#
#
#
# Elastic Constant Matrix: (Units=GPa)
#
#
# Indices 1 2 3 4 5 6 
#
# 1 31.6825 -9.9560 -27.2777 0.0000 0.0000 0.0000
# 2 -9.9560 77.8344 -16.2574 0.0000 0.0000 0.0000
# 3 -27.2777 -16.2574 76.0293 0.0000 0.0000 0.0000
# 4 0.0000 0.0000 0.0000 83.0537 0.0000 0.0000
# 5 0.0000 0.0000 0.0000 0.0000 -22.6279 0.0000
# 6 0.0000 0.0000 0.0000 0.0000 0.0000 10.5158
#
#
#
# Elastic Compliance Matrix: (Units=1/GPa)
#
#
# Indices 1 2 3 4 5 6 
#
# 1 0.053928 0.011451 0.021797 0.000000 0.000000 0.000000
# 2 0.011451 0.015880 0.007504 0.000000 0.000000 0.000000
# 3 0.021797 0.007504 0.022578 0.000000 0.000000 0.000000
# 4 0.000000 0.000000 0.000000 0.012040 0.000000 0.000000
# 5 0.000000 0.000000 0.000000 0.000000 -0.044193 0.000000
# 6 0.000000 0.000000 0.000000 0.000000 0.000000 0.095095
#
#
# Mechanical properties :
#
#
# Convention : Reuss Voigt Hill
#
# Bulk Modulus (GPa) = 5.75083 8.72932 7.24007
# Shear Modulus (GPa) = 37.93978 30.12413 34.03195
#
# Velocity S-wave (km/s) = 4.13833 3.68753 3.91942
# Velocity P-wave (km/s) = 5.04284 4.69796 4.87345
#
# Compressibility (1/GPa) = 0.17388801
#
# Stress axis : x y z
#
# Youngs Moduli (GPa) = 18.54331 62.97291 44.29170
#
# Poissons Ratio (x) = -0.72109 -0.96541
# Poissons Ratio (y) = -0.21234 -0.33236
# Poissons Ratio (z) = -0.40418 -0.47254
#
# Static dielectric constant tensor:
#      x y z
#    x 1.781720 0.000000 0.000000 
#    y 0.000000 1.889060 0.000000 
#    z 0.000000 0.000000 1.788730 
# 
# From -- ./inp_files/33764.got.cif
#   From: 2010.05.17/outbox.cif.g08.bks.cpg/sg51_17_cif.got.tgz:33764.got - 2010.06.03 11:52:47.
