data_PCOD9400395
_publ_section_title
;
Structure prediction by ZEFSAII (Michael W. Deem and Ramdas Pophale) SiO2 
 PCOD9400395
Probable space group: P M M A
;
_chemical_formula_sum "Si O2"
_cell_formula_units_Z 64
_cell_length_a 18.903496
_cell_length_b 9.105798
_cell_length_c 20.164035
_cell_angle_alpha 90.000000
_cell_angle_beta 90.000000
_cell_angle_gamma 90.000000
_cell_volume 3470.863898
_symmetry_space_group_name_H-M "P M M A"
_symmetry_group_IT_number 51
_symmetry_cell_setting 'orthorhombic'
loop_
_space_group_symop_operation_xyz
x,y,z
1/2-x,-y,z
1/2+x,-y,-z
-x,y,-z
-x,-y,-z
1/2+x,y,-z
1/2-x,y,z
x,-y,z
loop_
_atom_site_type_symbol
_atom_site_label
_atom_site_fract_x
_atom_site_fract_y
_atom_site_fract_z
Si Si1 0.066831 0.170771 0.090061
Si Si2 0.923374 0.674260 0.417461
Si Si3 0.870184 0.669278 0.183651
Si Si4 0.330424 0.168932 0.689269
Si Si5 0.442202 0.173491 0.360669
Si Si6 0.399097 0.828781 0.945844
Si Si7 0.537431 0.330149 0.779319
Si Si8 0.832241 0.174274 0.531150
O O1 0.076269 0.264132 0.156264
O O2 0.983043 0.175854 0.071927
O O3 0.083801 0.000000 0.102607
O O4 0.106467 0.217950 0.022666
O O5 0.931045 0.500000 0.421368
O O6 0.878987 0.723196 0.352880
O O7 0.879160 0.737341 0.478770
O O8 0.999066 0.750041 0.407132
O O9 0.847714 0.500000 0.190044
O O10 0.832511 0.775873 0.235459
O O11 0.862602 0.728301 0.109001
O O12 0.953515 0.677167 0.203745
O O13 0.250000 0.174620 0.664057
O O14 0.355247 0.000000 0.684284
O O15 0.447481 0.241417 0.287624
O O16 0.367074 0.195045 0.396673
O O17 0.456825 0.000000 0.357553
O O18 0.377693 0.000000 0.940143
O O19 0.555511 0.500000 0.769287
O O20 0.750000 0.215868 0.528624
O O21 0.837588 0.000000 0.515071
#
# Coordination Sequence:
#
# PCOD9400395 Si02
#       8
#     8   8   8   8   8   8   8   8
#     4   8  14  25  42  66  97 135 176 215 260 313
#     4  12  24  38  58  85 113 142 177 221 272 325
#     4  10  19  30  46  70 102 139 176 221 275 322
#     4  11  23  37  54  75 102 142 188 230 273 326
#     4  11  22  37  60  84 109 146 183 221 270 323
#     4   8  14  25  42  64  94 134 176 217 260 312
#     4  10  19  30  47  75 109 140 173 220 271 320
#     4  10  23  43  63  84 110 141 181 224 267 321
#
# _framework density 18.439212999999999
#
# number of rings (size 3 to 8) (size 9 to 14) (size 15 to 20)
#    0.000    2.000    1.250    4.125    0.000    6.750 
#    0.000    2.500    0.000    0.000    0.000    0.875 
#    0.000    3.000    0.000    0.000    0.000    0.000 
#
# Total GULP energy -357218.808613 kJ/mol
# GULP energy per Si atom -5581.543885 kJ/mol
# Density = 1.839724 g / cm^3
# Si number density = 18.439213 Si / 1000 Ang^3
#
#
#
# Elastic Constant Matrix: (Units=GPa)
#
#
# Indices 1 2 3 4 5 6 
#
# 1 38.1660 27.2041 40.0812 0.0000 0.0000 0.0000
# 2 27.2041 96.4361 65.2946 0.0000 0.0000 0.0000
# 3 40.0812 65.2946 114.4031 0.0000 0.0000 0.0000
# 4 0.0000 0.0000 0.0000 -296.6997 0.0000 0.0000
# 5 0.0000 0.0000 0.0000 0.0000 4.9604 0.0000
# 6 0.0000 0.0000 0.0000 0.0000 0.0000 -1.3655
#
#
#
# Elastic Compliance Matrix: (Units=1/GPa)
#
#
# Indices 1 2 3 4 5 6 
#
# 1 0.042005 -0.003073 -0.012963 0.000000 0.000000 0.000000
# 2 -0.003073 0.017125 -0.008698 0.000000 0.000000 0.000000
# 3 -0.012963 -0.008698 0.018247 0.000000 0.000000 0.000000
# 4 0.000000 0.000000 0.000000 -0.003370 0.000000 0.000000
# 5 0.000000 0.000000 0.000000 0.000000 0.201598 0.000000
# 6 0.000000 0.000000 0.000000 0.000000 0.000000 -0.732308
#
#
# Mechanical properties :
#
#
# Convention : Reuss Voigt Hill
#
# Bulk Modulus (GPa) = 35.82852 57.12944 46.47898
# Shear Modulus (GPa) = -12.56486 -50.85929 -31.71208
#
# Velocity S-wave (km/s) = -2.61324 -5.25757 -4.15157
# Velocity P-wave (km/s) = 3.21985 2.40960 1.51018
#
# Compressibility (1/GPa) = 0.02791073
#
# Stress axis : x y z
#
# Youngs Moduli (GPa) = 23.80691 58.39332 54.80467
#
# Poissons Ratio (x) = 0.17941 0.71042
# Poissons Ratio (y) = 0.07315 0.47667
# Poissons Ratio (z) = 0.30860 0.50788
#
# Static dielectric constant tensor:
#      x y z
#    x 1.634160 0.000000 0.000000 
#    y 0.000000 1.613920 0.000000 
#    z 0.000000 0.000000 1.650050 
# 
# From -- ./inp_files/34125.got.cif
#   From: 2010.05.17/outbox.cif.g08.bks.cpg/sg51_18_cif.got.tgz:34125.got - 2010.06.03 11:52:47.
