data_PCOD9400081
_publ_section_title
;
Structure prediction by ZEFSAII (Michael W. Deem and Ramdas Pophale) SiO2 
 PCOD9400081
Probable space group: P M M A
;
_chemical_formula_sum "Si O2"
_cell_formula_units_Z 56
_cell_length_a 8.865564
_cell_length_b 20.974438
_cell_length_c 15.829310
_cell_angle_alpha 90.000000
_cell_angle_beta 90.000000
_cell_angle_gamma 90.000000
_cell_volume 2943.463716
_symmetry_space_group_name_H-M "P M M A"
_symmetry_group_IT_number 51
_symmetry_cell_setting 'orthorhombic'
loop_
_space_group_symop_operation_xyz
x,y,z
1/2-x,-y,z
1/2+x,-y,-z
-x,y,-z
-x,-y,-z
1/2+x,y,-z
1/2-x,y,z
x,-y,z
loop_
_atom_site_type_symbol
_atom_site_label
_atom_site_fract_x
_atom_site_fract_y
_atom_site_fract_z
Si Si1 0.433103 0.173375 0.410103
Si Si2 0.433790 0.928473 0.268884
Si Si3 0.426026 0.732806 0.127780
Si Si4 0.931756 0.569779 0.274252
Si Si5 0.426465 0.699178 0.324388
Si Si6 0.930864 0.878793 0.912625
Si Si7 0.572321 0.397178 0.085621
O O1 0.500000 0.154794 0.500000
O O2 0.250000 0.173143 0.412530
O O3 0.481210 0.124556 0.336434
O O4 0.482773 0.245161 0.385735
O O5 0.250000 0.926479 0.267532
O O6 0.483264 0.912474 0.173484
O O7 0.479694 0.000000 0.292630
O O8 0.250000 0.719708 0.105842
O O9 0.437472 0.727883 0.229389
O O10 0.465526 0.803514 0.098297
O O11 0.531280 0.677743 0.091500
O O12 0.750000 0.572601 0.273811
O O13 0.978224 0.500000 0.306446
O O14 0.982274 0.575733 0.175816
O O15 0.991970 0.631293 0.323099
O O16 0.250000 0.688261 0.341278
O O17 0.750000 0.884813 0.916793
O O18 0.000000 0.902617 0.000000
O O19 0.750000 0.406913 0.081298
O O20 0.500000 0.422927 0.000000
#
# Coordination Sequence:
#
# PCOD9400081 Si02
#       7
#     8   8   8   8   8   8   8
#     4  10  20  36  59  87 113 139 175 220 268 322
#     4   9  18  35  57  78 107 149 187 218 263 323
#     4   9  16  29  48  68  95 131 173 219 265 310
#     4   9  19  34  50  71 101 136 173 215 266 318
#     4   9  17  32  54  77 103 135 173 216 260 313
#     4  10  19  31  49  74 103 140 184 226 267 312
#     4  10  19  29  42  64  95 131 172 217 265 313
#
# _framework density 19.025205
#
# number of rings (size 3 to 8) (size 9 to 14) (size 15 to 20)
#    0.000    2.571    1.429    0.857    0.000    4.000 
#    0.000    0.714    0.000    1.286    0.000    0.000 
#    0.000    0.000    0.000    0.000    0.000    0.000 
#
# Total GULP energy -312352.019543 kJ/mol
# GULP energy per Si atom -5577.714635 kJ/mol
# Density = 1.898190 g / cm^3
# Si number density = 19.025205 Si / 1000 Ang^3
#
#
#
# Elastic Constant Matrix: (Units=GPa)
#
#
# Indices 1 2 3 4 5 6 
#
# 1 7.1479 23.2400 14.5219 0.0000 0.0000 0.0000
# 2 23.2400 120.5993 53.1016 0.0000 0.0000 0.0000
# 3 14.5219 53.1016 91.2755 0.0000 0.0000 0.0000
# 4 0.0000 0.0000 0.0000 -2.3569 0.0000 0.0000
# 5 0.0000 0.0000 0.0000 0.0000 25.3232 0.0000
# 6 0.0000 0.0000 0.0000 0.0000 0.0000 6.7741
#
#
#
# Elastic Compliance Matrix: (Units=1/GPa)
#
#
# Indices 1 2 3 4 5 6 
#
# 1 0.416931 -0.068747 -0.026338 0.000000 0.000000 0.000000
# 2 -0.068747 0.022483 -0.002142 0.000000 0.000000 0.000000
# 3 -0.026338 -0.002142 0.016393 0.000000 0.000000 0.000000
# 4 0.000000 0.000000 0.000000 -0.424293 0.000000 0.000000
# 5 0.000000 0.000000 0.000000 0.000000 0.039489 0.000000
# 6 0.000000 0.000000 0.000000 0.000000 0.000000 0.147620
#
#
# Mechanical properties :
#
#
# Convention : Reuss Voigt Hill
#
# Bulk Modulus (GPa) = 3.82628 44.52775 24.17702
# Shear Modulus (GPa) = 9.99608 14.49205 12.24406
#
# Velocity S-wave (km/s) = 2.29467 2.76294 2.53962
# Velocity P-wave (km/s) = 3.00603 5.79947 4.61899
#
# Compressibility (1/GPa) = 0.26135067
#
# Stress axis : x y z
#
# Youngs Moduli (GPa) = 2.39848 44.47771 61.00297
#
# Poissons Ratio (x) = 3.05773 1.60672
# Poissons Ratio (y) = 0.16489 0.13069
# Poissons Ratio (z) = 0.06317 0.09529
#
# Static dielectric constant tensor:
#      x y z
#    x 1.646470 0.000000 0.000000 
#    y 0.000000 1.676060 0.000000 
#    z 0.000000 0.000000 1.667690 
# 
# From -- ./inp_files/21736.got.cif
#   From: 2010.05.17/outbox.cif.g08.bks.cpg/sg51_11_cif.got.tgz:21736.got - 2010.06.03 11:52:47.
