data_PCOD9400673
_publ_section_title
;
Structure prediction by ZEFSAII (Michael W. Deem and Ramdas Pophale) SiO2 
 PCOD9400673
Probable space group: P M M A
;
_chemical_formula_sum "Si O2"
_cell_formula_units_Z 28
_cell_length_a 9.683961
_cell_length_b 5.530244
_cell_length_c 26.157395
_cell_angle_alpha 90.000000
_cell_angle_beta 90.000000
_cell_angle_gamma 90.000000
_cell_volume 1400.850584
_symmetry_space_group_name_H-M "P M M A"
_symmetry_group_IT_number 51
_symmetry_cell_setting 'orthorhombic'
loop_
_space_group_symop_operation_xyz
x,y,z
1/2-x,-y,z
1/2+x,-y,-z
-x,y,-z
-x,-y,-z
1/2+x,y,-z
1/2-x,y,z
x,-y,z
loop_
_atom_site_type_symbol
_atom_site_label
_atom_site_fract_x
_atom_site_fract_y
_atom_site_fract_z
Si Si1 0.750000 0.000000 0.627641
Si Si2 0.583239 0.500000 0.110997
Si Si3 0.948885 0.000000 0.401097
Si Si4 0.086928 0.000000 0.720551
Si Si5 0.027022 0.500000 0.559887
Si Si6 0.250000 0.500000 0.370843
Si Si7 0.080510 0.500000 0.770664
Si Si8 0.918079 0.000000 0.053141
O O1 0.884784 0.000000 0.592513
O O2 0.750000 0.751938 0.658676
O O3 0.750000 0.500000 0.111569
O O4 0.538777 0.500000 0.170054
O O5 0.544263 0.751563 0.083156
O O6 0.900155 0.749637 0.424784
O O7 0.926849 0.000000 0.340465
O O8 0.032687 0.252574 0.743392
O O9 0.250000 0.000000 0.732822
O O10 0.885624 0.500000 0.593495
O O11 0.000000 0.500000 0.500000
O O12 0.250000 0.500000 0.768362
O O13 0.750000 0.000000 0.046235
O O14 0.000000 0.000000 0.000000
#
# Coordination Sequence:
#
# PCOD9400673 Si02
#       8
#     2   4   4   4   4   2   4   4
#     4   8  16  30  50  62  80 110 148 188 212 250
#     4   9  17  30  49  74 101 131 177 216 240 286
#     4  10  19  33  49  69  89 117 152 188 228 271
#     4  10  19  31  47  73 102 122 149 189 248 298
#     4  10  19  33  48  66  90 117 150 182 222 276
#     4   8  16  30  46  64  82 106 146 180 210 254
#     4   9  17  30  49  71  98 130 159 198 240 279
#     4  10  19  31  49  77 106 137 178 216 253 296
#
# _framework density 19.987856000000001
#
# number of rings (size 3 to 8) (size 9 to 14) (size 15 to 20)
#    0.000    2.571    0.000    2.571    0.000    3.429 
#    2.571    0.000    0.000    0.000   11.143    0.000 
#    0.000    0.000    0.000    0.000    0.000    0.000 
#
# Total GULP energy -155993.351753 kJ/mol
# GULP energy per Si atom -5571.191134 kJ/mol
# Density = 1.994236 g / cm^3
# Si number density = 19.987856 Si / 1000 Ang^3
#
#
#
# Elastic Constant Matrix: (Units=GPa)
#
#
# Indices 1 2 3 4 5 6 
#
# 1 53.8555 12.6380 -6.9277 0.0000 0.0000 0.0000
# 2 12.6380 296.3409 123.3602 0.0000 0.0000 0.0000
# 3 -6.9277 123.3602 160.6059 0.0000 0.0000 0.0000
# 4 0.0000 0.0000 0.0000 41.3634 0.0000 0.0000
# 5 0.0000 0.0000 0.0000 0.0000 0.4621 0.0000
# 6 0.0000 0.0000 0.0000 0.0000 0.0000 -43.5918
#
#
#
# Elastic Compliance Matrix: (Units=1/GPa)
#
#
# Indices 1 2 3 4 5 6 
#
# 1 0.019247 -0.001715 0.002147 0.000000 0.000000 0.000000
# 2 -0.001715 0.005113 -0.004001 0.000000 0.000000 0.000000
# 3 0.002147 -0.004001 0.009393 0.000000 0.000000 0.000000
# 4 0.000000 0.000000 0.000000 0.024176 0.000000 0.000000
# 5 0.000000 0.000000 0.000000 0.000000 2.163856 0.000000
# 6 0.000000 0.000000 0.000000 0.000000 0.000000 -0.022940
#
#
# Mechanical properties :
#
#
# Convention : Reuss Voigt Hill
#
# Bulk Modulus (GPa) = 37.57299 85.43811 61.50555
# Shear Modulus (GPa) = 2.25749 25.09554 13.67651
#
# Velocity S-wave (km/s) = 1.06390 3.54720 2.61864
# Velocity P-wave (km/s) = 4.51086 7.72105 6.32308
#
# Compressibility (1/GPa) = 0.02661486
#
# Stress axis : x y z
#
# Youngs Moduli (GPa) = 51.95670 195.56664 106.46733
#
# Poissons Ratio (x) = 0.33533 -0.22861
# Poissons Ratio (y) = 0.08909 0.42603
# Poissons Ratio (z) = -0.11156 0.78256
#
# Static dielectric constant tensor:
#      x y z
#    x 1.728670 0.000000 0.000000 
#    y 0.000000 1.763230 0.000000 
#    z 0.000000 0.000000 1.643900 
# 
# From -- ./inp_files/32733.got.cif
#   From: 2010.05.17/outbox.cif.g08.bks.cpg/sg51_17_cif.got.tgz:32733.got - 2010.06.03 11:52:47.
