data_PCOD9400962
_publ_section_title
;
Structure prediction by ZEFSAII (Michael W. Deem and Ramdas Pophale) SiO2 
 PCOD9400962
Probable space group: P M M A
;
_chemical_formula_sum "Si O2"
_cell_formula_units_Z 56
_cell_length_a 8.990497
_cell_length_b 15.092244
_cell_length_c 23.494953
_cell_angle_alpha 90.000000
_cell_angle_beta 90.000000
_cell_angle_gamma 90.000000
_cell_volume 3187.954387
_symmetry_space_group_name_H-M "P M M A"
_symmetry_group_IT_number 51
_symmetry_cell_setting 'orthorhombic'
loop_
_space_group_symop_operation_xyz
x,y,z
1/2-x,-y,z
1/2+x,-y,-z
-x,y,-z
-x,-y,-z
1/2+x,y,-z
1/2-x,y,z
x,-y,z
loop_
_atom_site_type_symbol
_atom_site_label
_atom_site_fract_x
_atom_site_fract_y
_atom_site_fract_z
Si Si1 0.570530 0.500000 0.062791
Si Si2 0.928687 0.649630 0.153554
Si Si3 0.570535 0.602619 0.724116
Si Si4 0.928211 0.100855 0.437615
Si Si5 0.422973 0.234721 0.350771
Si Si6 0.574560 0.000000 0.939076
Si Si7 0.423967 0.853173 0.864066
Si Si8 0.916567 0.900744 0.752993
O O1 0.750000 0.500000 0.056524
O O2 0.528084 0.416478 0.102625
O O3 0.500000 0.500000 0.000000
O O4 0.750000 0.641958 0.161318
O O5 0.962894 0.749715 0.135250
O O6 0.003357 0.627590 0.214192
O O7 0.750000 0.611051 0.728229
O O8 0.534187 0.500000 0.711939
O O9 0.522647 0.670820 0.674253
O O10 0.750000 0.105687 0.441311
O O11 0.000000 0.108794 0.500000
O O12 0.988079 0.180286 0.398278
O O13 0.966221 0.000000 0.416654
O O14 0.250000 0.243977 0.368850
O O15 0.426933 0.171098 0.295796
O O16 0.518951 0.086102 0.905335
O O17 0.750000 0.000000 0.943523
O O18 0.500000 0.000000 0.000000
O O19 0.250000 0.864024 0.876895
O O20 0.461128 0.885462 0.800570
O O21 0.750000 0.893159 0.779181
O O22 0.929309 0.000000 0.729603
#
# Coordination Sequence:
#
# PCOD9400962 Si02
#       8
#     4   8   8   8   8   4   8   8
#     4  10  22  40  58  80 108 140 179 226 283 344
#     4  10  21  37  58  82 112 144 180 228 286 342
#     4  10  20  34  56  86 116 149 191 234 283 340
#     4  10  21  37  58  85 118 157 198 238 283 335
#     4  10  20  34  54  83 118 153 191 234 280 334
#     4  12  26  44  62  78 104 144 187 232 281 340
#     4  11  22  36  56  83 110 141 181 228 277 333
#     4  10  19  31  50  78 111 147 183 222 274 331
#
# _framework density 17.566123999999999
#
# number of rings (size 3 to 8) (size 9 to 14) (size 15 to 20)
#    0.000    1.714    2.857    1.929    0.000    4.286 
#    0.000    1.429    0.000    0.429    0.000    0.000 
#    0.000    0.000    0.000    0.000    0.000    0.000 
#
# Total GULP energy -312462.013793 kJ/mol
# GULP energy per Si atom -5579.678818 kJ/mol
# Density = 1.752614 g / cm^3
# Si number density = 17.566124 Si / 1000 Ang^3
#
#
#
# Elastic Constant Matrix: (Units=GPa)
#
#
# Indices 1 2 3 4 5 6 
#
# 1 59.4154 58.7271 45.0132 0.0000 0.0000 0.0000
# 2 58.7271 159.1745 65.9552 0.0000 0.0000 0.0000
# 3 45.0132 65.9552 97.2312 0.0000 0.0000 0.0000
# 4 0.0000 0.0000 0.0000 171.1591 0.0000 0.0000
# 5 0.0000 0.0000 0.0000 0.0000 34.2428 0.0000
# 6 0.0000 0.0000 0.0000 0.0000 0.0000 -20.2075
#
#
#
# Elastic Compliance Matrix: (Units=1/GPa)
#
#
# Indices 1 2 3 4 5 6 
#
# 1 0.031615 -0.007789 -0.009353 0.000000 0.000000 0.000000
# 2 -0.007789 0.010658 -0.003623 0.000000 0.000000 0.000000
# 3 -0.009353 -0.003623 0.017073 0.000000 0.000000 0.000000
# 4 0.000000 0.000000 0.000000 0.005843 0.000000 0.000000
# 5 0.000000 0.000000 0.000000 0.000000 0.029203 0.000000
# 6 0.000000 0.000000 0.000000 0.000000 0.000000 -0.049487
#
#
# Mechanical properties :
#
#
# Convention : Reuss Voigt Hill
#
# Bulk Modulus (GPa) = 56.13290 72.80134 64.46712
# Shear Modulus (GPa) = 54.12872 46.78059 50.45466
#
# Velocity S-wave (km/s) = 5.55708 5.16614 5.36517
# Velocity P-wave (km/s) = 8.55567 8.78177 8.66945
#
# Compressibility (1/GPa) = 0.01781486
#
# Stress axis : x y z
#
# Youngs Moduli (GPa) = 31.63063 93.83026 58.57373
#
# Poissons Ratio (x) = 0.73084 0.54782
# Poissons Ratio (y) = 0.24637 0.21224
# Poissons Ratio (z) = 0.29583 0.33999
#
# Static dielectric constant tensor:
#      x y z
#    x 1.601940 0.000000 0.000000 
#    y 0.000000 1.622510 0.000000 
#    z 0.000000 0.000000 1.580480 
# 
# From -- ./inp_files/32146.got.cif
#   From: 2010.05.17/outbox.cif.g08.bks.cpg/sg51_17_cif.got.tgz:32146.got - 2010.06.03 11:52:47.
