data_PCOD9400489
_publ_section_title
;
Structure prediction by ZEFSAII (Michael W. Deem and Ramdas Pophale) SiO2 
 PCOD9400489
Probable space group: P M M A
;
_chemical_formula_sum "Si O2"
_cell_formula_units_Z 64
_cell_length_a 19.140485
_cell_length_b 9.267506
_cell_length_c 21.850942
_cell_angle_alpha 90.000000
_cell_angle_beta 90.000000
_cell_angle_gamma 90.000000
_cell_volume 3876.019723
_symmetry_space_group_name_H-M "P M M A"
_symmetry_group_IT_number 51
_symmetry_cell_setting 'orthorhombic'
loop_
_space_group_symop_operation_xyz
x,y,z
1/2-x,-y,z
1/2+x,-y,-z
-x,y,-z
-x,-y,-z
1/2+x,y,-z
1/2-x,y,z
x,-y,z
loop_
_atom_site_type_symbol
_atom_site_label
_atom_site_fract_x
_atom_site_fract_y
_atom_site_fract_z
Si Si1 0.631149 0.664697 0.263785
Si Si2 0.028143 0.665336 0.314609
Si Si3 0.079503 0.328170 0.978852
Si Si4 0.325600 0.172087 0.617385
Si Si5 0.332427 0.672012 0.099491
Si Si6 0.914727 0.829804 0.148331
Si Si7 0.523456 0.173450 0.431692
Si Si8 0.426658 0.170432 0.198088
O O1 0.654874 0.500000 0.256911
O O2 0.550563 0.662056 0.286997
O O3 0.670060 0.748035 0.317740
O O4 0.630338 0.749532 0.200098
O O5 0.051576 0.500000 0.321529
O O6 0.071834 0.751705 0.263890
O O7 0.020618 0.746607 0.379162
O O8 0.084337 0.500000 0.966265
O O9 0.095570 0.240436 0.917758
O O10 0.130729 0.292824 0.034932
O O11 0.000000 0.298287 0.000000
O O12 0.250000 0.204100 0.588429
O O13 0.394823 0.210974 0.579356
O O14 0.329445 0.000000 0.627911
O O15 0.250000 0.700991 0.097498
O O16 0.342782 0.500000 0.109415
O O17 0.370864 0.758216 0.153029
O O18 0.996345 0.810296 0.167621
O O19 0.900338 0.000000 0.148083
O O20 0.500000 0.211283 0.500000
O O21 0.516181 0.000000 0.424024
O O22 0.415175 0.000000 0.205156
#
# Coordination Sequence:
#
# PCOD9400489 Si02
#       8
#     8   8   8   8   8   8   8   8
#     4   9  17  29  46  69  96 125 159 199 243 291
#     4   9  17  29  48  73  99 126 160 202 245 289
#     4  10  19  32  51  72  95 127 169 211 250 302
#     4   9  17  30  48  70  98 131 166 204 247 295
#     4  10  21  36  52  71  97 128 162 205 259 311
#     4  10  19  30  48  73  98 124 160 206 251 293
#     4   9  17  30  49  74 104 136 170 207 247 293
#     4  10  19  31  50  74  98 124 159 204 250 297
#
# _framework density 16.511783000000001
#
# number of rings (size 3 to 8) (size 9 to 14) (size 15 to 20)
#    0.000    2.500    1.250    1.500    0.000    5.500 
#    0.000    0.625    0.000    3.000    0.000    1.750 
#    0.000    0.000    0.000    0.000    0.000    0.000 
#
# Total GULP energy -356823.225431 kJ/mol
# GULP energy per Si atom -5575.362897 kJ/mol
# Density = 1.647420 g / cm^3
# Si number density = 16.511783 Si / 1000 Ang^3
#
#
#
# Elastic Constant Matrix: (Units=GPa)
#
#
# Indices 1 2 3 4 5 6 
#
# 1 73.4036 46.6185 57.4316 0.0000 0.0000 0.0000
# 2 46.6185 70.9369 79.5800 0.0000 0.0000 0.0000
# 3 57.4316 79.5800 159.8925 0.0000 0.0000 0.0000
# 4 0.0000 0.0000 0.0000 24.0653 0.0000 0.0000
# 5 0.0000 0.0000 0.0000 0.0000 14.0761 0.0000
# 6 0.0000 0.0000 0.0000 0.0000 0.0000 12.3767
#
#
#
# Elastic Compliance Matrix: (Units=1/GPa)
#
#
# Indices 1 2 3 4 5 6 
#
# 1 0.023588 -0.013578 -0.001715 0.000000 0.000000 0.000000
# 2 -0.013578 0.039735 -0.014899 0.000000 0.000000 0.000000
# 3 -0.001715 -0.014899 0.014286 0.000000 0.000000 0.000000
# 4 0.000000 0.000000 0.000000 0.041554 0.000000 0.000000
# 5 0.000000 0.000000 0.000000 0.000000 0.071042 0.000000
# 6 0.000000 0.000000 0.000000 0.000000 0.000000 0.080797
#
#
# Mechanical properties :
#
#
# Convention : Reuss Voigt Hill
#
# Bulk Modulus (GPa) = 58.05665 74.61037 66.33351
# Shear Modulus (GPa) = 14.83113 18.14382 16.48747
#
# Velocity S-wave (km/s) = 3.00027 3.31847 3.16338
# Velocity P-wave (km/s) = 6.87308 7.74385 7.32142
#
# Compressibility (1/GPa) = 0.01722456
#
# Stress axis : x y z
#
# Youngs Moduli (GPa) = 42.39371 25.16652 70.00019
#
# Poissons Ratio (x) = 0.34172 0.12002
# Poissons Ratio (y) = 0.57564 1.04297
# Poissons Ratio (z) = 0.07269 0.37497
#
# Static dielectric constant tensor:
#      x y z
#    x 1.557930 0.000000 0.000000 
#    y 0.000000 1.554370 0.000000 
#    z 0.000000 0.000000 1.522190 
# 
# From -- ./inp_files/33911.got.cif
#   From: 2010.05.17/outbox.cif.g08.bks.cpg/sg51_17_cif.got.tgz:33911.got - 2010.06.03 11:52:47.
