data_PCOD9400188
_publ_section_title
;
Structure prediction by ZEFSAII (Michael W. Deem and Ramdas Pophale) SiO2 
 PCOD9400188
Probable space group: P M M A
;
_chemical_formula_sum "Si O2"
_cell_formula_units_Z 40
_cell_length_a 8.524047
_cell_length_b 21.917972
_cell_length_c 14.640867
_cell_angle_alpha 90.000000
_cell_angle_beta 90.000000
_cell_angle_gamma 90.000000
_cell_volume 2735.350597
_symmetry_space_group_name_H-M "P M M A"
_symmetry_group_IT_number 51
_symmetry_cell_setting 'orthorhombic'
loop_
_space_group_symop_operation_xyz
x,y,z
1/2-x,-y,z
1/2+x,-y,-z
-x,y,-z
-x,-y,-z
1/2+x,y,-z
1/2-x,y,z
x,-y,z
loop_
_atom_site_type_symbol
_atom_site_label
_atom_site_fract_x
_atom_site_fract_y
_atom_site_fract_z
Si Si1 0.560535 0.500000 0.602958
Si Si2 0.438563 0.734648 0.604027
Si Si3 0.060641 0.131267 0.604072
Si Si4 0.937939 0.380230 0.714897
Si Si5 0.439915 0.000000 0.604706
Si Si6 0.562224 0.429162 0.099333
O O1 0.750000 0.500000 0.601477
O O2 0.500000 0.500000 0.500000
O O3 0.508260 0.560647 0.656511
O O4 0.500000 0.727810 0.500000
O O5 0.250000 0.732162 0.601455
O O6 0.488118 0.802166 0.639984
O O7 0.501457 0.680539 0.666415
O O8 0.250000 0.131207 0.603411
O O9 0.000000 0.130818 0.500000
O O10 0.009442 0.065732 0.645262
O O11 0.750000 0.379967 0.715067
O O12 0.998244 0.389527 0.817474
O O13 0.500000 0.000000 0.500000
O O14 0.750000 0.000000 0.396528
O O15 0.750000 0.427774 0.099142
O O16 0.511069 0.500000 0.113672
O O17 0.500000 0.410303 0.000000
#
# Coordination Sequence:
#
# PCOD9400188 Si02
#       6
#     4   8   8   8   4   8
#     4  10  22  34  45  60  81 108 143 182 216 248
#     4  10  19  30  42  60  85 116 150 183 218 259
#     4   8  14  23  36  53  76 104 139 177 212 250
#     4  11  21  34  48  64  85 113 145 181 218 259
#     4   8  12  20  34  52  72 100 135 174 213 246
#     4  10  20  34  53  73  90 109 133 170 216 264
#
# _framework density 14.623354000000001
#
# number of rings (size 3 to 8) (size 9 to 14) (size 15 to 20)
#    0.000    2.400    1.000    2.400    0.000    4.800 
#    0.000    0.000    0.000    0.000    0.000    0.000 
#    0.000    0.000    0.000    0.900    0.000    9.100 
#
# Total GULP energy -222756.461721 kJ/mol
# GULP energy per Si atom -5568.911543 kJ/mol
# Density = 1.459007 g / cm^3
# Si number density = 14.623354 Si / 1000 Ang^3
#
#
#
# Elastic Constant Matrix: (Units=GPa)
#
#
# Indices 1 2 3 4 5 6 
#
# 1 27.5277 28.0348 20.1493 0.0000 0.0000 0.0000
# 2 28.0348 163.7953 62.8334 0.0000 0.0000 0.0000
# 3 20.1493 62.8334 83.2274 0.0000 0.0000 0.0000
# 4 0.0000 0.0000 0.0000 2.3007 0.0000 0.0000
# 5 0.0000 0.0000 0.0000 0.0000 21.4074 0.0000
# 6 0.0000 0.0000 0.0000 0.0000 0.0000 12.2629
#
#
#
# Elastic Compliance Matrix: (Units=1/GPa)
#
#
# Indices 1 2 3 4 5 6 
#
# 1 0.047089 -0.005189 -0.007482 0.000000 0.000000 0.000000
# 2 -0.005189 0.009166 -0.005664 0.000000 0.000000 0.000000
# 3 -0.007482 -0.005664 0.018103 0.000000 0.000000 0.000000
# 4 0.000000 0.000000 0.000000 0.434644 0.000000 0.000000
# 5 0.000000 0.000000 0.000000 0.000000 0.046713 0.000000
# 6 0.000000 0.000000 0.000000 0.000000 0.000000 0.081547
#
#
# Mechanical properties :
#
#
# Convention : Reuss Voigt Hill
#
# Bulk Modulus (GPa) = 26.53462 55.17615 40.85538
# Shear Modulus (GPa) = 7.28339 18.09640 12.68990
#
# Velocity S-wave (km/s) = 2.23416 3.52163 2.94901
# Velocity P-wave (km/s) = 4.98398 7.37220 6.29243
#
# Compressibility (1/GPa) = 0.03768662
#
# Stress axis : x y z
#
# Youngs Moduli (GPa) = 21.23650 109.09889 55.24071
#
# Poissons Ratio (x) = 0.56614 0.41333
# Poissons Ratio (y) = 0.11020 0.31286
# Poissons Ratio (z) = 0.15890 0.61790
#
# Static dielectric constant tensor:
#      x y z
#    x 1.495250 0.000000 0.000000 
#    y 0.000000 1.542130 0.000000 
#    z 0.000000 0.000000 1.436320 
# 
# From -- ./inp_files/14276.got.cif
#   From: 2010.05.17/outbox.cif.g08.bks.cpg/sg51_8_cif.got.tgz:14276.got - 2010.06.03 11:52:47.
