data_PCOD9400810
_publ_section_title
;
Structure prediction by ZEFSAII (Michael W. Deem and Ramdas Pophale) SiO2 
 PCOD9400810
Probable space group: P M M A
;
_chemical_formula_sum "Si O2"
_cell_formula_units_Z 64
_cell_length_a 17.864675
_cell_length_b 9.034843
_cell_length_c 23.604907
_cell_angle_alpha 90.000000
_cell_angle_beta 90.000000
_cell_angle_gamma 90.000000
_cell_volume 3809.939011
_symmetry_space_group_name_H-M "P M M A"
_symmetry_group_IT_number 51
_symmetry_cell_setting 'orthorhombic'
loop_
_space_group_symop_operation_xyz
x,y,z
1/2-x,-y,z
1/2+x,-y,-z
-x,y,-z
-x,-y,-z
1/2+x,y,-z
1/2-x,y,z
x,-y,z
loop_
_atom_site_type_symbol
_atom_site_label
_atom_site_fract_x
_atom_site_fract_y
_atom_site_fract_z
Si Si1 0.666616 0.325697 0.672913
Si Si2 0.520611 0.323743 0.746050
Si Si3 0.480236 0.176964 0.132568
Si Si4 0.835942 0.178314 0.942052
Si Si5 0.951652 0.322975 0.370129
Si Si6 0.925363 0.330598 0.039003
Si Si7 0.092546 0.824159 0.430193
Si Si8 0.163712 0.322745 0.538640
O O1 0.750000 0.300629 0.695047
O O2 0.659753 0.500000 0.657318
O O3 0.602131 0.295036 0.718306
O O4 0.651682 0.229740 0.617199
O O5 0.514160 0.500000 0.756541
O O6 0.513237 0.237325 0.804136
O O7 0.463188 0.281876 0.695527
O O8 0.399574 0.220179 0.104336
O O9 0.546568 0.244250 0.094246
O O10 0.484200 0.000000 0.131221
O O11 0.750000 0.219952 0.928085
O O12 0.838707 0.000000 0.947379
O O13 0.862787 0.250640 0.001071
O O14 0.965946 0.500000 0.373196
O O15 0.873174 0.292951 0.400275
O O16 0.014881 0.242681 0.407255
O O17 0.904611 0.500000 0.051656
O O18 0.000000 0.332759 0.000000
O O19 0.116478 0.756679 0.489985
O O20 0.088607 0.000000 0.433193
O O21 0.250000 0.277224 0.535769
O O22 0.159737 0.500000 0.529106
#
# Coordination Sequence:
#
# PCOD9400810 Si02
#       8
#     8   8   8   8   8   8   8   8
#     4   9  18  33  50  67  93 131 168 200 240 291
#     4   9  18  32  49  69  93 124 164 207 243 276
#     4  10  19  31  49  72  98 132 169 199 235 287
#     4   9  18  32  49  72 104 135 159 190 236 288
#     4   9  19  36  54  70  93 127 164 202 245 293
#     4   9  17  30  49  72  97 126 162 202 237 270
#     4  11  21  31  47  73 101 127 157 195 241 294
#     4  10  20  34  53  74  94 120 156 198 247 302
#
# _framework density 16.798169000000001
#
# number of rings (size 3 to 8) (size 9 to 14) (size 15 to 20)
#    0.000    2.500    0.000    3.375    0.000    8.750 
#    0.000    0.000    0.000    0.750    0.000    1.750 
#    0.000    0.000    0.000    0.000    0.000    0.000 
#
# Total GULP energy -356804.045653 kJ/mol
# GULP energy per Si atom -5575.063213 kJ/mol
# Density = 1.675994 g / cm^3
# Si number density = 16.798169 Si / 1000 Ang^3
#
#
#
# Elastic Constant Matrix: (Units=GPa)
#
#
# Indices 1 2 3 4 5 6 
#
# 1 37.1385 20.6907 38.4871 0.0000 0.0000 0.0000
# 2 20.6907 41.3537 49.0654 0.0000 0.0000 0.0000
# 3 38.4871 49.0654 129.2935 0.0000 0.0000 0.0000
# 4 0.0000 0.0000 0.0000 0.1297 0.0000 0.0000
# 5 0.0000 0.0000 0.0000 0.0000 7.1164 0.0000
# 6 0.0000 0.0000 0.0000 0.0000 0.0000 7.1068
#
#
#
# Elastic Compliance Matrix: (Units=1/GPa)
#
#
# Indices 1 2 3 4 5 6 
#
# 1 0.041575 -0.011129 -0.008153 0.000000 0.000000 0.000000
# 2 -0.011129 0.046966 -0.014510 0.000000 0.000000 0.000000
# 3 -0.008153 -0.014510 0.015668 0.000000 0.000000 0.000000
# 4 0.000000 0.000000 0.000000 7.708646 0.000000 0.000000
# 5 0.000000 0.000000 0.000000 0.000000 0.140521 0.000000
# 6 0.000000 0.000000 0.000000 0.000000 0.000000 0.140711
#
#
# Mechanical properties :
#
#
# Convention : Reuss Voigt Hill
#
# Bulk Modulus (GPa) = 27.30336 47.14135 37.22236
# Shear Modulus (GPa) = 0.61170 9.50674 5.05922
#
# Velocity S-wave (km/s) = 0.60410 2.38153 1.73733
# Velocity P-wave (km/s) = 4.09581 5.97382 5.12163
#
# Compressibility (1/GPa) = 0.03662553
#
# Stress axis : x y z
#
# Youngs Moduli (GPa) = 24.05307 21.29199 63.82581
#
# Poissons Ratio (x) = 0.23695 0.52034
# Poissons Ratio (y) = 0.26768 0.92614
# Poissons Ratio (z) = 0.19609 0.30896
#
# Static dielectric constant tensor:
#      x y z
#    x 1.574760 0.000000 0.000000 
#    y 0.000000 1.564640 0.000000 
#    z 0.000000 0.000000 1.551140 
# 
# From -- ./inp_files/33772.got.cif
#   From: 2010.05.17/outbox.cif.g08.bks.cpg/sg51_17_cif.got.tgz:33772.got - 2010.06.03 11:52:47.
