data_PCOD9400522
_publ_section_title
;
Structure prediction by ZEFSAII (Michael W. Deem and Ramdas Pophale) SiO2 
 PCOD9400522
Probable space group: P M M A
;
_chemical_formula_sum "Si O2"
_cell_formula_units_Z 40
_cell_length_a 20.045859
_cell_length_b 9.280416
_cell_length_c 12.864003
_cell_angle_alpha 90.000000
_cell_angle_beta 90.000000
_cell_angle_gamma 90.000000
_cell_volume 2393.140784
_symmetry_space_group_name_H-M "P M M A"
_symmetry_group_IT_number 51
_symmetry_cell_setting 'orthorhombic'
loop_
_space_group_symop_operation_xyz
x,y,z
1/2-x,-y,z
1/2+x,-y,-z
-x,y,-z
-x,-y,-z
1/2+x,y,-z
1/2-x,y,z
x,-y,z
loop_
_atom_site_type_symbol
_atom_site_label
_atom_site_fract_x
_atom_site_fract_y
_atom_site_fract_z
Si Si1 0.579896 0.166072 0.022397
Si Si2 0.055983 0.669471 0.771412
Si Si3 0.929451 0.828143 0.443879
Si Si4 0.171713 0.829428 0.372556
Si Si5 0.897498 0.669276 0.816140
O O1 0.588520 0.249179 0.130701
O O2 0.601367 0.000000 0.028561
O O3 0.500000 0.166418 0.000000
O O4 0.611887 0.248486 0.925047
O O5 0.071362 0.500000 0.773673
O O6 0.075418 0.741522 0.662787
O O7 0.975660 0.684718 0.784831
O O8 0.871364 0.792791 0.525623
O O9 0.000000 0.796784 0.500000
O O10 0.927892 0.000000 0.422244
O O11 0.250000 0.806826 0.389519
O O12 0.145557 0.739799 0.274819
O O13 0.160340 0.000000 0.351909
O O14 0.883677 0.500000 0.827705
#
# Coordination Sequence:
#
# PCOD9400522 Si02
#       5
#     8   8   8   8   8
#     4   9  17  29  48  73 102 134 167 204 251 305
#     4  10  19  30  48  76 107 135 167 212 263 309
#     4  10  19  32  52  75 101 135 176 218 260 309
#     4  10  21  36  53  74 102 137 176 216 259 310
#     4  10  19  31  49  74 105 135 167 210 260 310
#
# _framework density 16.714435999999999
#
# number of rings (size 3 to 8) (size 9 to 14) (size 15 to 20)
#    0.000    2.200    2.000    1.800    0.000    5.600 
#    0.000    0.000    0.000    1.200    0.000    2.800 
#    0.000    0.000    0.000    0.000    0.000    0.000 
#
# Total GULP energy -223190.296379 kJ/mol
# GULP energy per Si atom -5579.757409 kJ/mol
# Density = 1.667639 g / cm^3
# Si number density = 16.714436 Si / 1000 Ang^3
#
#
#
# Elastic Constant Matrix: (Units=GPa)
#
#
# Indices 1 2 3 4 5 6 
#
# 1 50.8718 55.1082 54.7574 0.0000 0.0000 0.0000
# 2 55.1082 123.2612 117.9332 0.0000 0.0000 0.0000
# 3 54.7574 117.9332 191.7705 0.0000 0.0000 0.0000
# 4 0.0000 0.0000 0.0000 -7.0682 0.0000 0.0000
# 5 0.0000 0.0000 0.0000 0.0000 16.2225 0.0000
# 6 0.0000 0.0000 0.0000 0.0000 0.0000 14.3984
#
#
#
# Elastic Compliance Matrix: (Units=1/GPa)
#
#
# Indices 1 2 3 4 5 6 
#
# 1 0.038195 -0.016136 -0.000983 0.000000 0.000000 0.000000
# 2 -0.016136 0.026527 -0.011706 0.000000 0.000000 0.000000
# 3 -0.000983 -0.011706 0.012694 0.000000 0.000000 0.000000
# 4 0.000000 0.000000 0.000000 -0.141479 0.000000 0.000000
# 5 0.000000 0.000000 0.000000 0.000000 0.061643 0.000000
# 6 0.000000 0.000000 0.000000 0.000000 0.000000 0.069452
#
#
# Mechanical properties :
#
#
# Convention : Reuss Voigt Hill
#
# Bulk Modulus (GPa) = 50.59105 91.27789 70.93447
# Shear Modulus (GPa) = 38.08964 13.91753 26.00358
#
# Velocity S-wave (km/s) = 4.77891 2.88872 3.94859
# Velocity P-wave (km/s) = 7.79642 8.11511 7.95736
#
# Compressibility (1/GPa) = 0.01976634
#
# Stress axis : x y z
#
# Youngs Moduli (GPa) = 26.18154 37.69775 78.77780
#
# Poissons Ratio (x) = 0.60829 0.07743
# Poissons Ratio (y) = 0.42246 0.92216
# Poissons Ratio (z) = 0.02573 0.44128
#
# Static dielectric constant tensor:
#      x y z
#    x 1.542770 0.000000 0.000000 
#    y 0.000000 1.558180 0.000000 
#    z 0.000000 0.000000 1.535880 
# 
# From -- ./inp_files/17086.got.cif
#   From: 2010.05.17/outbox.cif.g08.bks.cpg/sg51_9_cif.got.tgz:17086.got - 2010.06.03 11:52:47.
