data_PCOD9400715
_publ_section_title
;
Structure prediction by ZEFSAII (Michael W. Deem and Ramdas Pophale) SiO2 
 PCOD9400715
Probable space group: P M M A
;
_chemical_formula_sum "Si O2"
_cell_formula_units_Z 64
_cell_length_a 8.745134
_cell_length_b 20.372253
_cell_length_c 20.503891
_cell_angle_alpha 90.000000
_cell_angle_beta 90.000000
_cell_angle_gamma 90.000000
_cell_volume 3652.933902
_symmetry_space_group_name_H-M "P M M A"
_symmetry_group_IT_number 51
_symmetry_cell_setting 'orthorhombic'
loop_
_space_group_symop_operation_xyz
x,y,z
1/2-x,-y,z
1/2+x,-y,-z
-x,y,-z
-x,-y,-z
1/2+x,y,-z
1/2-x,y,z
x,-y,z
loop_
_atom_site_type_symbol
_atom_site_label
_atom_site_fract_x
_atom_site_fract_y
_atom_site_fract_z
Si Si1 0.431143 0.895610 0.758434
Si Si2 0.433526 0.210295 0.432509
Si Si3 0.433176 0.211672 0.932480
Si Si4 0.567717 0.577330 0.429749
Si Si5 0.432366 0.072195 0.104434
Si Si6 0.434793 0.071508 0.381306
Si Si7 0.067349 0.679504 0.329990
Si Si8 0.068961 0.743329 0.791672
O O1 0.250000 0.909106 0.765118
O O2 0.521912 0.924968 0.819407
O O3 0.495130 0.921495 0.690603
O O4 0.452721 0.816923 0.763160
O O5 0.500000 0.235585 0.500000
O O6 0.250000 0.210741 0.436077
O O7 0.486324 0.135593 0.420598
O O8 0.479191 0.256643 0.372768
O O9 0.250000 0.212395 0.933704
O O10 0.486622 0.135906 0.925342
O O11 0.483926 0.250041 0.866928
O O12 0.500000 0.237949 0.000000
O O13 0.500000 0.598331 0.500000
O O14 0.750000 0.585241 0.431936
O O15 0.531750 0.500000 0.422037
O O16 0.501151 0.618663 0.369814
O O17 0.250000 0.078907 0.096859
O O18 0.478902 0.000000 0.079343
O O19 0.250000 0.074430 0.376333
O O20 0.477018 0.000000 0.408659
O O21 0.250000 0.674942 0.330451
O O22 0.010904 0.692437 0.256662
O O23 0.250000 0.729966 0.791968
#
# Coordination Sequence:
#
# PCOD9400715 Si02
#       8
#     8   8   8   8   8   8   8   8
#     4  10  19  31  48  70  94 121 158 209 264 318
#     4  10  22  36  49  70  95 126 168 213 264 315
#     4  10  21  36  53  74 100 133 169 212 266 321
#     4  10  21  37  57  83 118 156 189 221 259 308
#     4  10  20  32  47  67  92 125 163 206 260 322
#     4  10  20  34  49  64  88 122 162 212 268 325
#     4  11  21  34  56  82 107 140 179 220 263 308
#     4   9  19  34  52  75 102 132 169 214 261 309
#
# _framework density 17.520164999999999
#
# number of rings (size 3 to 8) (size 9 to 14) (size 15 to 20)
#    0.000    2.000    1.250    3.375    0.000    9.000 
#    0.000    0.000    0.000    0.000    0.000    0.000 
#    0.000    0.500    0.000    1.625    0.000    2.000 
#
# Total GULP energy -357258.538321 kJ/mol
# GULP energy per Si atom -5582.164661 kJ/mol
# Density = 1.748029 g / cm^3
# Si number density = 17.520165 Si / 1000 Ang^3
#
#
#
# Elastic Constant Matrix: (Units=GPa)
#
#
# Indices 1 2 3 4 5 6 
#
# 1 27.9381 32.6865 31.2781 0.0000 0.0000 0.0000
# 2 32.6865 72.6775 47.7929 0.0000 0.0000 0.0000
# 3 31.2781 47.7929 127.0806 0.0000 0.0000 0.0000
# 4 0.0000 0.0000 0.0000 64.1541 0.0000 0.0000
# 5 0.0000 0.0000 0.0000 0.0000 27.8376 0.0000
# 6 0.0000 0.0000 0.0000 0.0000 0.0000 17.3244
#
#
#
# Elastic Compliance Matrix: (Units=1/GPa)
#
#
# Indices 1 2 3 4 5 6 
#
# 1 0.081721 -0.031257 -0.008358 0.000000 0.000000 0.000000
# 2 -0.031257 0.030236 -0.003678 0.000000 0.000000 0.000000
# 3 -0.008358 -0.003678 0.011310 0.000000 0.000000 0.000000
# 4 0.000000 0.000000 0.000000 0.015587 0.000000 0.000000
# 5 0.000000 0.000000 0.000000 0.000000 0.035923 0.000000
# 6 0.000000 0.000000 0.000000 0.000000 0.000000 0.057722
#
#
# Mechanical properties :
#
#
# Convention : Reuss Voigt Hill
#
# Bulk Modulus (GPa) = 27.26361 50.13461 38.69911
# Shear Modulus (GPa) = 15.09155 29.59245 22.34200
#
# Velocity S-wave (km/s) = 2.93811 4.11427 3.57489
# Velocity P-wave (km/s) = 5.20625 7.15871 6.25908
#
# Compressibility (1/GPa) = 0.03667893
#
# Stress axis : x y z
#
# Youngs Moduli (GPa) = 12.23682 33.07337 88.42124
#
# Poissons Ratio (x) = 1.03378 0.73907
# Poissons Ratio (y) = 0.38249 0.32521
# Poissons Ratio (z) = 0.10228 0.12164
#
# Static dielectric constant tensor:
#      x y z
#    x 1.583950 0.000000 0.000000 
#    y 0.000000 1.605170 0.000000 
#    z 0.000000 0.000000 1.599480 
# 
# From -- ./inp_files/32671.got.cif
#   From: 2010.05.17/outbox.cif.g08.bks.cpg/sg51_17_cif.got.tgz:32671.got - 2010.06.03 11:52:47.
