data_PCOD9400228
_publ_section_title
;
Structure prediction by ZEFSAII (Michael W. Deem and Ramdas Pophale) SiO2 
 PCOD9400228
Probable space group: P M M A
;
_chemical_formula_sum "Si O2"
_cell_formula_units_Z 56
_cell_length_a 7.775109
_cell_length_b 30.754627
_cell_length_c 14.067652
_cell_angle_alpha 90.000000
_cell_angle_beta 90.000000
_cell_angle_gamma 90.000000
_cell_volume 3363.865066
_symmetry_space_group_name_H-M "P M M A"
_symmetry_group_IT_number 51
_symmetry_cell_setting 'orthorhombic'
loop_
_space_group_symop_operation_xyz
x,y,z
1/2-x,-y,z
1/2+x,-y,-z
-x,y,-z
-x,-y,-z
1/2+x,y,-z
1/2-x,y,z
x,-y,z
loop_
_atom_site_type_symbol
_atom_site_label
_atom_site_fract_x
_atom_site_fract_y
_atom_site_fract_z
Si Si1 0.955536 0.218770 0.108049
Si Si2 0.046315 0.867088 0.215384
Si Si3 0.957573 0.048773 0.889908
Si Si4 0.046687 0.272897 0.714509
Si Si5 0.455558 0.187060 0.392236
Si Si6 0.457989 0.358261 0.611748
Si Si7 0.543037 0.453290 0.387793
O O1 0.750000 0.216921 0.117198
O O2 0.022849 0.253205 0.186479
O O3 0.023089 0.171344 0.138553
O O4 0.000000 0.229307 0.000000
O O5 0.250000 0.873599 0.228953
O O6 0.974665 0.912323 0.175833
O O7 0.977095 0.847427 0.314242
O O8 0.750000 0.048226 0.882523
O O9 0.020398 0.000000 0.866960
O O10 0.000000 0.057678 0.000000
O O11 0.250000 0.279844 0.728765
O O12 0.974712 0.317747 0.672884
O O13 0.024673 0.234316 0.638021
O O14 0.500000 0.176292 0.500000
O O15 0.250000 0.189251 0.382952
O O16 0.500000 0.352807 0.500000
O O17 0.250000 0.358379 0.617630
O O18 0.520092 0.406009 0.645757
O O19 0.500000 0.453458 0.500000
O O20 0.750000 0.453391 0.377738
O O21 0.478875 0.500000 0.349092
#
# Coordination Sequence:
#
# PCOD9400228 Si02
#       7
#     8   8   8   8   8   8   8
#     4  10  19  30  44  61  82 107 133 163 199 238
#     4   9  18  31  46  64  84 108 137 165 195 234
#     4   9  17  29  45  65  87 108 130 159 197 239
#     4   9  18  30  42  58  80 106 135 166 200 236
#     4  10  19  30  44  61  82 108 138 170 200 232
#     4   9  16  25  37  54  77 104 132 161 193 229
#     4   8  13  21  33  49  70  97 127 157 189 226
#
# _framework density 16.647516
#
# number of rings (size 3 to 8) (size 9 to 14) (size 15 to 20)
#    0.000    2.857    0.000    1.714    0.000    4.571 
#    0.000    0.000    0.000    0.429    0.000    0.000 
#    0.000    0.571    0.000    0.429    0.000    1.571 
#
# Total GULP energy -311856.804120 kJ/mol
# GULP energy per Si atom -5568.871502 kJ/mol
# Density = 1.660963 g / cm^3
# Si number density = 16.647516 Si / 1000 Ang^3
#
#
#
# Elastic Constant Matrix: (Units=GPa)
#
#
# Indices 1 2 3 4 5 6 
#
# 1 17.9974 0.8250 -3.1532 0.0000 0.0000 0.0000
# 2 0.8250 176.9090 71.7681 0.0000 0.0000 0.0000
# 3 -3.1532 71.7681 87.2189 0.0000 0.0000 0.0000
# 4 0.0000 0.0000 0.0000 27.1633 0.0000 0.0000
# 5 0.0000 0.0000 0.0000 0.0000 16.7476 0.0000
# 6 0.0000 0.0000 0.0000 0.0000 0.0000 13.4894
#
#
#
# Elastic Compliance Matrix: (Units=1/GPa)
#
#
# Indices 1 2 3 4 5 6 
#
# 1 0.056230 -0.001632 0.003375 0.000000 0.000000 0.000000
# 2 -0.001632 0.008532 -0.007080 0.000000 0.000000 0.000000
# 3 0.003375 -0.007080 0.017413 0.000000 0.000000 0.000000
# 4 0.000000 0.000000 0.000000 0.036814 0.000000 0.000000
# 5 0.000000 0.000000 0.000000 0.000000 0.059710 0.000000
# 6 0.000000 0.000000 0.000000 0.000000 0.000000 0.074132
#
#
# Mechanical properties :
#
#
# Convention : Reuss Voigt Hill
#
# Bulk Modulus (GPa) = 13.98538 46.77834 30.38186
# Shear Modulus (GPa) = 17.40109 25.65909 21.53009
#
# Velocity S-wave (km/s) = 3.23657 3.93022 3.60014
# Velocity P-wave (km/s) = 4.73141 6.98253 5.96415
#
# Compressibility (1/GPa) = 0.07150325
#
# Stress axis : x y z
#
# Youngs Moduli (GPa) = 17.78415 117.20078 57.42811
#
# Poissons Ratio (x) = 0.19122 -0.19384
# Poissons Ratio (y) = 0.02902 0.40658
# Poissons Ratio (z) = -0.06003 0.82976
#
# Static dielectric constant tensor:
#      x y z
#    x 1.607020 0.000000 0.000000 
#    y 0.000000 1.611250 0.000000 
#    z 0.000000 0.000000 1.547580 
# 
# From -- ./inp_files/22521.got.cif
#   From: 2010.05.17/outbox.cif.g08.bks.cpg/sg51_12_cif.got.tgz:22521.got - 2010.06.03 11:52:47.
