data_PCOD9400111
_publ_section_title
;
Structure prediction by ZEFSAII (Michael W. Deem and Ramdas Pophale) SiO2 
 PCOD9400111
Probable space group: P M M A
;
_chemical_formula_sum "Si O2"
_cell_formula_units_Z 56
_cell_length_a 7.911467
_cell_length_b 21.148024
_cell_length_c 15.941501
_cell_angle_alpha 90.000000
_cell_angle_beta 90.000000
_cell_angle_gamma 90.000000
_cell_volume 2667.202725
_symmetry_space_group_name_H-M "P M M A"
_symmetry_group_IT_number 51
_symmetry_cell_setting 'orthorhombic'
loop_
_space_group_symop_operation_xyz
x,y,z
1/2-x,-y,z
1/2+x,-y,-z
-x,y,-z
-x,-y,-z
1/2+x,y,-z
1/2-x,y,z
x,-y,z
loop_
_atom_site_type_symbol
_atom_site_label
_atom_site_fract_x
_atom_site_fract_y
_atom_site_fract_z
Si Si1 0.049342 0.673069 0.592808
Si Si2 0.545911 0.241655 0.866639
Si Si3 0.046581 0.380036 0.090190
Si Si4 0.453166 0.794911 0.679508
Si Si5 0.546405 0.569860 0.730921
Si Si6 0.548031 0.896408 0.910091
Si Si7 0.548709 0.068182 0.275645
O O1 0.250000 0.677365 0.596197
O O2 0.980486 0.743662 0.613200
O O3 0.000000 0.652253 0.500000
O O4 0.997358 0.623736 0.664365
O O5 0.750000 0.242094 0.870759
O O6 0.482928 0.307336 0.904413
O O7 0.493341 0.235614 0.769884
O O8 0.485279 0.176633 0.908245
O O9 0.250000 0.378830 0.094252
O O10 0.985718 0.413891 0.174884
O O11 0.000000 0.407811 0.000000
O O12 0.250000 0.799525 0.671221
O O13 0.520363 0.866985 0.683339
O O14 0.750000 0.568187 0.734799
O O15 0.485631 0.500000 0.705908
O O16 0.750000 0.897522 0.902686
O O17 0.477768 0.926145 0.824794
O O18 0.500000 0.924362 0.000000
O O19 0.750000 0.067703 0.290420
O O20 0.479022 0.000000 0.303429
#
# Coordination Sequence:
#
# PCOD9400111 Si02
#       7
#     8   8   8   8   8   8   8
#     4  11  23  39  63  92 118 146 182 228 281 341
#     4   9  17  30  49  73 102 140 182 228 280 326
#     4  10  20  33  52  79 112 150 192 233 277 326
#     4   9  18  33  55  82 108 137 178 224 272 326
#     4  10  22  41  62  84 116 155 192 234 282 332
#     4  10  19  29  43  66  98 136 180 229 278 328
#     4   9  18  33  52  73 100 137 178 222 273 327
#
# _framework density 20.995778999999999
#
# number of rings (size 3 to 8) (size 9 to 14) (size 15 to 20)
#    0.000    2.286    1.429    1.286    0.000    3.714 
#    0.000    0.000    0.000    0.429    0.000    0.000 
#    0.000    0.000    0.000    0.000    0.000    0.143 
#
# Total GULP energy -312444.548442 kJ/mol
# GULP energy per Si atom -5579.366936 kJ/mol
# Density = 2.094799 g / cm^3
# Si number density = 20.995779 Si / 1000 Ang^3
#
#
#
# Elastic Constant Matrix: (Units=GPa)
#
#
# Indices 1 2 3 4 5 6 
#
# 1 17.5857 14.7847 5.1446 0.0000 0.0000 0.0000
# 2 14.7847 143.1731 56.7287 0.0000 0.0000 0.0000
# 3 5.1446 56.7287 99.8702 0.0000 0.0000 0.0000
# 4 0.0000 0.0000 0.0000 4.6911 0.0000 0.0000
# 5 0.0000 0.0000 0.0000 0.0000 19.1502 0.0000
# 6 0.0000 0.0000 0.0000 0.0000 0.0000 3.1922
#
#
#
# Elastic Compliance Matrix: (Units=1/GPa)
#
#
# Indices 1 2 3 4 5 6 
#
# 1 0.062296 -0.006661 0.000574 0.000000 0.000000 0.000000
# 2 -0.006661 0.009725 -0.005181 0.000000 0.000000 0.000000
# 3 0.000574 -0.005181 0.012926 0.000000 0.000000 0.000000
# 4 0.000000 0.000000 0.000000 0.213169 0.000000 0.000000
# 5 0.000000 0.000000 0.000000 0.000000 0.052219 0.000000
# 6 0.000000 0.000000 0.000000 0.000000 0.000000 0.313268
#
#
# Mechanical properties :
#
#
# Convention : Reuss Voigt Hill
#
# Bulk Modulus (GPa) = 16.02232 45.99391 31.00811
# Shear Modulus (GPa) = 7.07271 17.67143 12.37207
#
# Velocity S-wave (km/s) = 1.83738 2.90430 2.43011
# Velocity P-wave (km/s) = 3.48555 5.76198 4.76180
#
# Compressibility (1/GPa) = 0.06241295
#
# Stress axis : x y z
#
# Youngs Moduli (GPa) = 16.05241 102.82550 77.36121
#
# Poissons Ratio (x) = 0.68487 -0.04443
# Poissons Ratio (y) = 0.10692 0.40081
# Poissons Ratio (z) = -0.00922 0.53274
#
# Static dielectric constant tensor:
#      x y z
#    x 1.749340 0.000000 0.000000 
#    y 0.000000 1.816970 0.000000 
#    z 0.000000 0.000000 1.675790 
# 
# From -- ./inp_files/21804.got.cif
#   From: 2010.05.17/outbox.cif.g08.bks.cpg/sg51_11_cif.got.tgz:21804.got - 2010.06.03 11:52:47.
