data_PCOD9400487
_publ_section_title
;
Structure prediction by ZEFSAII (Michael W. Deem and Ramdas Pophale) SiO2 
 PCOD9400487
Probable space group: P M M A
;
_chemical_formula_sum "Si O2"
_cell_formula_units_Z 64
_cell_length_a 8.967884
_cell_length_b 14.752083
_cell_length_c 28.975335
_cell_angle_alpha 90.000000
_cell_angle_beta 90.000000
_cell_angle_gamma 90.000000
_cell_volume 3833.291049
_symmetry_space_group_name_H-M "P M M A"
_symmetry_group_IT_number 51
_symmetry_cell_setting 'orthorhombic'
loop_
_space_group_symop_operation_xyz
x,y,z
1/2-x,-y,z
1/2+x,-y,-z
-x,y,-z
-x,-y,-z
1/2+x,y,-z
1/2-x,y,z
x,-y,z
loop_
_atom_site_type_symbol
_atom_site_label
_atom_site_fract_x
_atom_site_fract_y
_atom_site_fract_z
Si Si1 0.072882 0.392454 0.717145
Si Si2 0.928401 0.724134 0.636683
Si Si3 0.570322 0.894964 0.950698
Si Si4 0.570420 0.395784 0.176406
Si Si5 0.926338 0.106990 0.774097
Si Si6 0.929873 0.776386 0.863364
Si Si7 0.429532 0.604700 0.450707
Si Si8 0.072129 0.104959 0.675974
O O1 0.250000 0.373670 0.712810
O O2 0.051338 0.500000 0.709005
O O3 0.028452 0.374539 0.770273
O O4 0.984014 0.333940 0.680434
O O5 0.750000 0.729553 0.637321
O O6 0.975761 0.671091 0.590456
O O7 0.997732 0.823536 0.641831
O O8 0.750000 0.890727 0.954051
O O9 0.522347 0.829218 0.909392
O O10 0.530944 0.000000 0.940147
O O11 0.500000 0.871513 0.000000
O O12 0.750000 0.390757 0.174057
O O13 0.527383 0.500000 0.166993
O O14 0.497681 0.322689 0.143118
O O15 0.750000 0.122845 0.765378
O O16 0.972869 0.165208 0.818184
O O17 0.016392 0.127737 0.727725
O O18 0.944418 0.000000 0.784333
O O19 0.750000 0.771538 0.863838
O O20 0.500000 0.628069 0.500000
O O21 0.250000 0.607997 0.454334
O O22 0.471080 0.500000 0.439880
O O23 0.250000 0.112371 0.674080
O O24 0.029950 0.000000 0.667215
#
# Coordination Sequence:
#
# PCOD9400487 Si02
#       8
#     8   8   8   8   8   8   8   8
#     4   9  18  32  49  71 101 135 167 198 236 284
#     4  11  21  32  50  75 101 129 163 203 244 288
#     4   9  18  33  51  72  99 126 152 187 233 285
#     4   9  19  34  48  65  94 130 165 201 238 276
#     4   9  17  30  48  71 100 131 160 192 236 288
#     4  10  19  30  48  73  97 124 159 197 237 282
#     4   9  19  35  53  75 102 128 155 191 237 288
#     4  10  21  35  49  68  97 132 169 207 242 280
#
# _framework density 16.695837000000001
#
# number of rings (size 3 to 8) (size 9 to 14) (size 15 to 20)
#    0.000    2.500    0.000    3.000    0.000    7.750 
#    0.000    2.500    0.000    4.500    0.000    0.000 
#    0.000    0.000    0.000    0.000    0.000    0.000 
#
# Total GULP energy -357119.974168 kJ/mol
# GULP energy per Si atom -5579.999596 kJ/mol
# Density = 1.665784 g / cm^3
# Si number density = 16.695837 Si / 1000 Ang^3
#
#
#
# Elastic Constant Matrix: (Units=GPa)
#
#
# Indices 1 2 3 4 5 6 
#
# 1 24.0918 40.5536 38.5323 0.0000 0.0000 0.0000
# 2 40.5536 113.7886 100.6927 0.0000 0.0000 0.0000
# 3 38.5323 100.6927 117.1579 0.0000 0.0000 0.0000
# 4 0.0000 0.0000 0.0000 32.2713 0.0000 0.0000
# 5 0.0000 0.0000 0.0000 0.0000 26.7311 0.0000
# 6 0.0000 0.0000 0.0000 0.0000 0.0000 28.4388
#
#
#
# Elastic Compliance Matrix: (Units=1/GPa)
#
#
# Indices 1 2 3 4 5 6 
#
# 1 0.106506 -0.029069 -0.010045 0.000000 0.000000 0.000000
# 2 -0.029069 0.044635 -0.028801 0.000000 0.000000 0.000000
# 3 -0.010045 -0.028801 0.036593 0.000000 0.000000 0.000000
# 4 0.000000 0.000000 0.000000 0.030987 0.000000 0.000000
# 5 0.000000 0.000000 0.000000 0.000000 0.037410 0.000000
# 6 0.000000 0.000000 0.000000 0.000000 0.000000 0.035163
#
#
# Mechanical properties :
#
#
# Convention : Reuss Voigt Hill
#
# Bulk Modulus (GPa) = 19.26689 68.28838 43.77763
# Shear Modulus (GPa) = 11.25047 22.50557 16.87802
#
# Velocity S-wave (km/s) = 2.59868 3.67546 3.18293
# Velocity P-wave (km/s) = 4.53532 7.68129 6.30759
#
# Compressibility (1/GPa) = 0.05190251
#
# Stress axis : x y z
#
# Youngs Moduli (GPa) = 9.38915 22.40399 27.32764
#
# Poissons Ratio (x) = 0.65126 0.27451
# Poissons Ratio (y) = 0.27293 0.78707
# Poissons Ratio (z) = 0.09432 0.64527
#
# Static dielectric constant tensor:
#      x y z
#    x 1.558130 0.000000 0.000000 
#    y 0.000000 1.570340 0.000000 
#    z 0.000000 0.000000 1.536700 
# 
# From -- ./inp_files/34884.got.cif
#   From: 2010.05.17/outbox.cif.g08.bks.cpg/sg51_18_cif.got.tgz:34884.got - 2010.06.03 11:52:47.
