data_PCOD9400639
_publ_section_title
;
Structure prediction by ZEFSAII (Michael W. Deem and Ramdas Pophale) SiO2 
 PCOD9400639
Probable space group: P M M A
;
_chemical_formula_sum "Si O2"
_cell_formula_units_Z 64
_cell_length_a 9.134837
_cell_length_b 23.821637
_cell_length_c 17.927044
_cell_angle_alpha 90.000000
_cell_angle_beta 90.000000
_cell_angle_gamma 90.000000
_cell_volume 3901.046160
_symmetry_space_group_name_H-M "P M M A"
_symmetry_group_IT_number 51
_symmetry_cell_setting 'orthorhombic'
loop_
_space_group_symop_operation_xyz
x,y,z
1/2-x,-y,z
1/2+x,-y,-z
-x,y,-z
-x,-y,-z
1/2+x,y,-z
1/2-x,y,z
x,-y,z
loop_
_atom_site_type_symbol
_atom_site_label
_atom_site_fract_x
_atom_site_fract_y
_atom_site_fract_z
Si Si1 0.424636 0.065136 0.210455
Si Si2 0.428424 0.563196 0.239240
Si Si3 0.574345 0.319874 0.709140
Si Si4 0.915895 0.568167 0.927275
Si Si5 0.074629 0.232200 0.420392
Si Si6 0.082109 0.238288 0.817631
Si Si7 0.082414 0.146791 0.683471
Si Si8 0.424987 0.153213 0.079113
O O1 0.250000 0.069923 0.223317
O O2 0.508756 0.092313 0.280169
O O3 0.456967 0.102494 0.137119
O O4 0.461467 0.000000 0.199505
O O5 0.250000 0.560924 0.235639
O O6 0.477989 0.500000 0.258173
O O7 0.467212 0.614582 0.292829
O O8 0.478757 0.578547 0.155123
O O9 0.750000 0.315879 0.719192
O O10 0.538322 0.283792 0.635698
O O11 0.496954 0.290942 0.779747
O O12 0.750000 0.589376 0.929390
O O13 0.910490 0.500000 0.931986
O O14 0.000000 0.588874 0.000000
O O15 0.250000 0.228760 0.426904
O O16 0.000000 0.240197 0.500000
O O17 0.011000 0.176349 0.381090
O O18 0.250000 0.249931 0.838795
O O19 0.083877 0.191936 0.751240
O O20 0.992068 0.209326 0.883830
O O21 0.250000 0.137151 0.660275
O O22 0.250000 0.157959 0.071814
O O23 0.500000 0.142846 0.000000
#
# Coordination Sequence:
#
# PCOD9400639 Si02
#       8
#     8   8   8   8   8   8   8   8
#     4   9  18  32  49  70  98 133 169 201 236 281
#     4   8  14  26  45  67  90 120 159 197 231 273
#     4   9  17  30  49  71  93 119 153 193 235 281
#     4   8  13  22  37  56  78 105 138 177 217 254
#     4  10  19  31  50  75  99 122 150 188 236 287
#     4   9  17  30  47  66  89 119 155 196 243 288
#     4   9  17  30  49  72  96 122 155 195 235 277
#     4  10  19  31  47  67  94 128 166 208 249 286
#
# _framework density 16.405856
#
# number of rings (size 3 to 8) (size 9 to 14) (size 15 to 20)
#    0.000    3.000    0.000    2.250    0.000    4.500 
#    0.000    1.250    0.000    3.375    0.000    0.000 
#    0.000    0.000    0.000    0.000    0.000    0.375 
#
# Total GULP energy -356339.593130 kJ/mol
# GULP energy per Si atom -5567.806143 kJ/mol
# Density = 1.636852 g / cm^3
# Si number density = 16.405856 Si / 1000 Ang^3
#
#
#
# Elastic Constant Matrix: (Units=GPa)
#
#
# Indices 1 2 3 4 5 6 
#
# 1 60.9199 43.0823 53.3982 0.0000 0.0000 0.0000
# 2 43.0823 99.4218 58.7313 0.0000 0.0000 0.0000
# 3 53.3982 58.7313 94.9233 0.0000 0.0000 0.0000
# 4 0.0000 0.0000 0.0000 15.6403 0.0000 0.0000
# 5 0.0000 0.0000 0.0000 0.0000 27.3653 0.0000
# 6 0.0000 0.0000 0.0000 0.0000 0.0000 13.2956
#
#
#
# Elastic Compliance Matrix: (Units=1/GPa)
#
#
# Indices 1 2 3 4 5 6 
#
# 1 0.034150 -0.005437 -0.015847 0.000000 0.000000 0.000000
# 2 -0.005437 0.016718 -0.007285 0.000000 0.000000 0.000000
# 3 -0.015847 -0.007285 0.023957 0.000000 0.000000 0.000000
# 4 0.000000 0.000000 0.000000 0.063937 0.000000 0.000000
# 5 0.000000 0.000000 0.000000 0.000000 0.036543 0.000000
# 6 0.000000 0.000000 0.000000 0.000000 0.000000 0.075213
#
#
# Mechanical properties :
#
#
# Convention : Reuss Voigt Hill
#
# Bulk Modulus (GPa) = 56.53949 62.85429 59.69689
# Shear Modulus (GPa) = 15.94636 17.93047 16.93841
#
# Velocity S-wave (km/s) = 3.12106 3.30954 3.21668
# Velocity P-wave (km/s) = 6.89390 7.28006 7.08961
#
# Compressibility (1/GPa) = 0.01768675
#
# Stress axis : x y z
#
# Youngs Moduli (GPa) = 29.28219 59.81692 41.74181
#
# Poissons Ratio (x) = 0.32523 0.66148
# Poissons Ratio (y) = 0.15921 0.30409
# Poissons Ratio (z) = 0.46403 0.43577
#
# Static dielectric constant tensor:
#      x y z
#    x 1.555720 0.000000 0.000000 
#    y 0.000000 1.557040 0.000000 
#    z 0.000000 0.000000 1.538610 
# 
# From -- ./inp_files/22235.got.cif
#   From: 2010.05.17/outbox.cif.g08.bks.cpg/sg51_12_cif.got.tgz:22235.got - 2010.06.03 11:52:47.
