data_PCOD9400355
_publ_section_title
;
Structure prediction by ZEFSAII (Michael W. Deem and Ramdas Pophale) SiO2 
 PCOD9400355
Probable space group: P M M A
;
_chemical_formula_sum "Si O2"
_cell_formula_units_Z 48
_cell_length_a 14.305479
_cell_length_b 7.499156
_cell_length_c 21.538593
_cell_angle_alpha 90.000000
_cell_angle_beta 90.000000
_cell_angle_gamma 90.000000
_cell_volume 2310.639121
_symmetry_space_group_name_H-M "P M M A"
_symmetry_group_IT_number 51
_symmetry_cell_setting 'orthorhombic'
loop_
_space_group_symop_operation_xyz
x,y,z
1/2-x,-y,z
1/2+x,-y,-z
-x,y,-z
-x,-y,-z
1/2+x,y,-z
1/2-x,y,z
x,-y,z
loop_
_atom_site_type_symbol
_atom_site_label
_atom_site_fract_x
_atom_site_fract_y
_atom_site_fract_z
Si Si1 0.139725 0.209861 0.472425
Si Si2 0.854774 0.294529 0.385892
Si Si3 0.355501 0.782560 0.968712
Si Si4 0.542581 0.217382 0.904721
Si Si5 0.358432 0.781623 0.220859
Si Si6 0.551504 0.205251 0.652174
O O1 0.250000 0.226541 0.459662
O O2 0.122987 0.287483 0.540464
O O3 0.086231 0.285849 0.413015
O O4 0.116313 0.000000 0.479089
O O5 0.750000 0.218247 0.378389
O O6 0.852210 0.500000 0.367109
O O7 0.939599 0.207668 0.349215
O O8 0.250000 0.721661 0.956639
O O9 0.436925 0.726233 0.921196
O O10 0.354224 0.000000 0.967870
O O11 0.391674 0.730599 0.037308
O O12 0.584259 0.277799 0.839521
O O13 0.542384 0.000000 0.904111
O O14 0.250000 0.729897 0.217272
O O15 0.404748 0.719255 0.285178
O O16 0.361074 0.000000 0.220513
O O17 0.584433 0.000000 0.649763
#
# Coordination Sequence:
#
# PCOD9400355 Si02
#       6
#     8   8   8   8   8   8
#     4   9  17  30  48  69  92 116 143 179 224 270
#     4  10  21  35  49  65  86 114 148 185 225 267
#     4   8  12  18  29  46  71 104 143 185 222 255
#     4   8  13  20  31  49  73 106 147 184 219 258
#     4   9  16  26  40  58  82 112 146 182 219 264
#     4  10  19  30  46  68  91 116 147 182 221 265
#
# _framework density 20.773472000000002
#
# number of rings (size 3 to 8) (size 9 to 14) (size 15 to 20)
#    0.000    3.000    0.000    3.000    0.000    7.667 
#    0.000    0.833    0.000    4.500    0.000    0.000 
#    0.000    0.000    0.000    3.000    0.000   14.667 
#
# Total GULP energy -267802.687071 kJ/mol
# GULP energy per Si atom -5579.222647 kJ/mol
# Density = 2.072619 g / cm^3
# Si number density = 20.773472 Si / 1000 Ang^3
#
#
#
# Elastic Constant Matrix: (Units=GPa)
#
#
# Indices 1 2 3 4 5 6 
#
# 1 174.1738 -1.1337 83.1133 0.0000 0.0000 0.0000
# 2 -1.1337 52.6812 -1.8011 0.0000 0.0000 0.0000
# 3 83.1133 -1.8011 59.8096 0.0000 0.0000 0.0000
# 4 0.0000 0.0000 0.0000 46.5086 0.0000 0.0000
# 5 0.0000 0.0000 0.0000 0.0000 29.4196 0.0000
# 6 0.0000 0.0000 0.0000 0.0000 0.0000 -11.5494
#
#
#
# Elastic Compliance Matrix: (Units=1/GPa)
#
#
# Indices 1 2 3 4 5 6 
#
# 1 0.017053 -0.000444 -0.023711 0.000000 0.000000 0.000000
# 2 -0.000444 0.019013 0.001189 0.000000 0.000000 0.000000
# 3 -0.023711 0.001189 0.049705 0.000000 0.000000 0.000000
# 4 0.000000 0.000000 0.000000 0.021501 0.000000 0.000000
# 5 0.000000 0.000000 0.000000 0.000000 0.033991 0.000000
# 6 0.000000 0.000000 0.000000 0.000000 0.000000 -0.086585
#
#
# Mechanical properties :
#
#
# Convention : Reuss Voigt Hill
#
# Bulk Modulus (GPa) = 25.10018 49.66908 37.38463
# Shear Modulus (GPa) = 43.90251 26.64149 35.27200
#
# Velocity S-wave (km/s) = 4.60215 3.58505 4.12507
# Velocity P-wave (km/s) = 6.35207 6.41082 6.38151
#
# Compressibility (1/GPa) = 0.03984035
#
# Stress axis : x y z
#
# Youngs Moduli (GPa) = 58.64119 52.59500 20.11889
#
# Poissons Ratio (x) = 0.02334 0.47703
# Poissons Ratio (y) = 0.02602 -0.02392
# Poissons Ratio (z) = 1.39042 -0.06254
#
# Static dielectric constant tensor:
#      x y z
#    x 1.742830 0.000000 0.000000 
#    y 0.000000 1.880270 0.000000 
#    z 0.000000 0.000000 1.716980 
# 
# From -- ./inp_files/33194.got.cif
#   From: 2010.05.17/outbox.cif.g08.bks.cpg/sg51_17_cif.got.tgz:33194.got - 2010.06.03 11:52:47.
