data_PCOD9400543
_publ_section_title
;
Structure prediction by ZEFSAII (Michael W. Deem and Ramdas Pophale) SiO2 
 PCOD9400543
Probable space group: P M M A
;
_chemical_formula_sum "Si O2"
_cell_formula_units_Z 48
_cell_length_a 14.120060
_cell_length_b 10.452680
_cell_length_c 18.429818
_cell_angle_alpha 90.000000
_cell_angle_beta 90.000000
_cell_angle_gamma 90.000000
_cell_volume 2720.102337
_symmetry_space_group_name_H-M "P M M A"
_symmetry_group_IT_number 51
_symmetry_cell_setting 'orthorhombic'
loop_
_space_group_symop_operation_xyz
x,y,z
1/2-x,-y,z
1/2+x,-y,-z
-x,y,-z
-x,-y,-z
1/2+x,y,-z
1/2-x,y,z
x,-y,z
loop_
_atom_site_type_symbol
_atom_site_label
_atom_site_fract_x
_atom_site_fract_y
_atom_site_fract_z
Si Si1 0.363983 0.500000 0.202691
Si Si2 0.029927 0.000000 0.916642
Si Si3 0.864312 0.251090 0.139441
Si Si4 0.138013 0.750331 0.295361
Si Si5 0.024999 0.500000 0.915243
Si Si6 0.636465 0.000000 0.801117
Si Si7 0.012197 0.152193 0.416402
Si Si8 0.138604 0.147593 0.706056
O O1 0.250000 0.500000 0.187850
O O2 0.387729 0.375379 0.250372
O O3 0.427881 0.500000 0.131156
O O4 0.091340 0.874667 0.897551
O O5 0.933804 0.000000 0.868853
O O6 0.000000 0.000000 0.000000
O O7 0.750000 0.253727 0.131212
O O8 0.914065 0.375542 0.106714
O O9 0.885562 0.236375 0.225652
O O10 0.250000 0.747974 0.305412
O O11 0.115172 0.875239 0.247224
O O12 0.089506 0.767798 0.372703
O O13 0.000000 0.500000 0.000000
O O14 0.750000 0.000000 0.818532
O O15 0.000000 0.187997 0.500000
O O16 0.919033 0.170212 0.367080
O O17 0.036236 0.000000 0.414496
O O18 0.250000 0.158739 0.692341
O O19 0.119629 0.000000 0.728944
#
# Coordination Sequence:
#
# PCOD9400543 Si02
#       8
#     4   4   8   8   4   4   8   8
#     4  10  22  39  61  84 110 151 198 239 284 343
#     4  12  23  37  58  86 115 147 186 235 292 347
#     4  11  23  40  61  84 113 152 194 235 282 342
#     4  10  20  36  57  80 109 148 192 236 280 334
#     4  12  25  41  60  88 117 151 186 237 298 345
#     4  10  20  35  57  82 110 147 190 239 286 335
#     4  10  19  30  50  82 116 147 180 229 285 334
#     4   9  17  32  54  78 105 144 187 228 270 324
#
# _framework density 17.646394999999998
#
# number of rings (size 3 to 8) (size 9 to 14) (size 15 to 20)
#    0.000    1.667    1.667    4.000    0.000    2.000 
#    0.000    3.750    0.000    0.000    0.000    2.333 
#    0.000    0.000    0.000    0.000    0.000    0.000 
#
# Total GULP energy -268048.554658 kJ/mol
# GULP energy per Si atom -5584.344889 kJ/mol
# Density = 1.760623 g / cm^3
# Si number density = 17.646395 Si / 1000 Ang^3
#
#
#
# Elastic Constant Matrix: (Units=GPa)
#
#
# Indices 1 2 3 4 5 6 
#
# 1 88.8816 55.2501 76.5173 0.0000 0.0000 0.0000
# 2 55.2501 133.3526 74.7265 0.0000 0.0000 0.0000
# 3 76.5173 74.7265 186.8121 0.0000 0.0000 0.0000
# 4 0.0000 0.0000 0.0000 18.0349 0.0000 0.0000
# 5 0.0000 0.0000 0.0000 0.0000 4.4970 0.0000
# 6 0.0000 0.0000 0.0000 0.0000 0.0000 21.0819
#
#
#
# Elastic Compliance Matrix: (Units=1/GPa)
#
#
# Indices 1 2 3 4 5 6 
#
# 1 0.019353 -0.004610 -0.006083 0.000000 0.000000 0.000000
# 2 -0.004610 0.010763 -0.002417 0.000000 0.000000 0.000000
# 3 -0.006083 -0.002417 0.008812 0.000000 0.000000 0.000000
# 4 0.000000 0.000000 0.000000 0.055448 0.000000 0.000000
# 5 0.000000 0.000000 0.000000 0.000000 0.222369 0.000000
# 6 0.000000 0.000000 0.000000 0.000000 0.000000 0.047434
#
#
# Mechanical properties :
#
#
# Convention : Reuss Voigt Hill
#
# Bulk Modulus (GPa) = 78.69063 91.33713 85.01388
# Shear Modulus (GPa) = 12.66994 22.22627 17.44811
#
# Velocity S-wave (km/s) = 2.68244 3.55284 3.14787
# Velocity P-wave (km/s) = 7.36776 8.28868 7.84175
#
# Compressibility (1/GPa) = 0.01270799
#
# Stress axis : x y z
#
# Youngs Moduli (GPa) = 51.67116 92.90787 113.48745
#
# Poissons Ratio (x) = 0.42826 0.69035
# Poissons Ratio (y) = 0.23818 0.27434
# Poissons Ratio (z) = 0.31432 0.22459
#
# Static dielectric constant tensor:
#      x y z
#    x 1.627520 0.000000 0.000000 
#    y 0.000000 1.594040 0.000000 
#    z 0.000000 0.000000 1.573820 
# 
# From -- ./inp_files/29712.got.cif
#   From: 2010.05.17/outbox.cif.g08.bks.cpg/sg51_15_cif.got.tgz:29712.got - 2010.06.03 11:52:47.
