data_PCOD9400574
_publ_section_title
;
Structure prediction by ZEFSAII (Michael W. Deem and Ramdas Pophale) SiO2 
 PCOD9400574
Probable space group: P M M A
;
_chemical_formula_sum "Si O2"
_cell_formula_units_Z 56
_cell_length_a 8.504308
_cell_length_b 19.362710
_cell_length_c 19.711686
_cell_angle_alpha 90.000000
_cell_angle_beta 90.000000
_cell_angle_gamma 90.000000
_cell_volume 3245.853348
_symmetry_space_group_name_H-M "P M M A"
_symmetry_group_IT_number 51
_symmetry_cell_setting 'orthorhombic'
loop_
_space_group_symop_operation_xyz
x,y,z
1/2-x,-y,z
1/2+x,-y,-z
-x,y,-z
-x,-y,-z
1/2+x,y,-z
1/2-x,y,z
x,-y,z
loop_
_atom_site_type_symbol
_atom_site_label
_atom_site_fract_x
_atom_site_fract_y
_atom_site_fract_z
Si Si1 0.438743 0.574346 0.076496
Si Si2 0.938319 0.077490 0.576593
Si Si3 0.940573 0.716344 0.218846
Si Si4 0.066718 0.722266 0.924310
Si Si5 0.562343 0.648786 0.573124
Si Si6 0.059816 0.421633 0.286549
Si Si7 0.938006 0.784850 0.359535
O O1 0.250000 0.587855 0.077964
O O2 0.464824 0.500000 0.111309
O O3 0.535359 0.641908 0.094526
O O4 0.500000 0.565869 0.000000
O O5 0.750000 0.080869 0.575748
O O6 0.000000 0.086530 0.500000
O O7 0.003801 0.139657 0.621028
O O8 0.985515 0.000000 0.598951
O O9 0.750000 0.712767 0.216333
O O10 0.995043 0.751368 0.147687
O O11 0.986731 0.761918 0.283888
O O12 0.002220 0.639299 0.237055
O O13 0.250000 0.736850 0.930175
O O14 0.000000 0.735254 0.000000
O O15 0.500000 0.626357 0.500000
O O16 0.750000 0.648400 0.571498
O O17 0.512247 0.601665 0.637178
O O18 0.504839 0.726213 0.590232
O O19 0.250000 0.421656 0.282964
O O20 0.005810 0.500000 0.272966
O O21 0.750000 0.782314 0.363649
#
# Coordination Sequence:
#
# PCOD9400574 Si02
#       7
#     8   8   8   8   8   8   8
#     4   9  16  25  37  54  76 102 133 170 216 270
#     4  10  20  33  50  75 106 136 164 192 222 258
#     4   9  20  35  49  67  90 119 154 192 234 282
#     4  10  19  31  46  64  86 110 141 182 228 276
#     4  10  19  31  47  67  91 119 154 195 238 281
#     4   9  19  34  49  65  86 114 151 196 243 288
#     4  10  19  33  51  69  94 127 161 193 227 270
#
# _framework density 17.252780999999999
#
# number of rings (size 3 to 8) (size 9 to 14) (size 15 to 20)
#    0.000    2.429    0.000    3.429    0.000    5.143 
#    0.000    2.857    0.000    0.000    0.000    0.000 
#    0.000    0.571    0.000    1.286    0.000    2.286 
#
# Total GULP energy -311828.325553 kJ/mol
# GULP energy per Si atom -5568.362956 kJ/mol
# Density = 1.721351 g / cm^3
# Si number density = 17.252781 Si / 1000 Ang^3
#
#
#
# Elastic Constant Matrix: (Units=GPa)
#
#
# Indices 1 2 3 4 5 6 
#
# 1 18.1820 10.9240 21.3430 0.0000 0.0000 0.0000
# 2 10.9240 77.9570 35.0064 0.0000 0.0000 0.0000
# 3 21.3430 35.0064 138.1949 0.0000 0.0000 0.0000
# 4 0.0000 0.0000 0.0000 8.8348 0.0000 0.0000
# 5 0.0000 0.0000 0.0000 0.0000 10.9602 0.0000
# 6 0.0000 0.0000 0.0000 0.0000 0.0000 15.1057
#
#
#
# Elastic Compliance Matrix: (Units=1/GPa)
#
#
# Indices 1 2 3 4 5 6 
#
# 1 0.069228 -0.005529 -0.009291 0.000000 0.000000 0.000000
# 2 -0.005529 0.014915 -0.002924 0.000000 0.000000 0.000000
# 3 -0.009291 -0.002924 0.009412 0.000000 0.000000 0.000000
# 4 0.000000 0.000000 0.000000 0.113188 0.000000 0.000000
# 5 0.000000 0.000000 0.000000 0.000000 0.091239 0.000000
# 6 0.000000 0.000000 0.000000 0.000000 0.000000 0.066200
#
#
# Mechanical properties :
#
#
# Convention : Reuss Voigt Hill
#
# Bulk Modulus (GPa) = 17.22156 40.98674 29.10415
# Shear Modulus (GPa) = 11.93240 18.11750 15.02495
#
# Velocity S-wave (km/s) = 2.63272 3.24407 2.95425
# Velocity P-wave (km/s) = 4.38694 6.15144 5.34254
#
# Compressibility (1/GPa) = 0.05806676
#
# Stress axis : x y z
#
# Youngs Moduli (GPa) = 14.44508 67.04437 106.24854
#
# Poissons Ratio (x) = 0.37066 0.98718
# Poissons Ratio (y) = 0.07986 0.31072
# Poissons Ratio (z) = 0.13421 0.19607
#
# Static dielectric constant tensor:
#      x y z
#    x 1.592750 0.000000 0.000000 
#    y 0.000000 1.609330 0.000000 
#    z 0.000000 0.000000 1.550370 
# 
# From -- ./inp_files/32246.got.cif
#   From: 2010.05.17/outbox.cif.g08.bks.cpg/sg51_17_cif.got.tgz:32246.got - 2010.06.03 11:52:47.
