data_PCOD9400416
_publ_section_title
;
Structure prediction by ZEFSAII (Michael W. Deem and Ramdas Pophale) SiO2 
 PCOD9400416
Probable space group: P M M A
;
_chemical_formula_sum "Si O2"
_cell_formula_units_Z 64
_cell_length_a 8.955908
_cell_length_b 25.365464
_cell_length_c 15.548096
_cell_angle_alpha 90.000000
_cell_angle_beta 90.000000
_cell_angle_gamma 90.000000
_cell_volume 3532.072815
_symmetry_space_group_name_H-M "P M M A"
_symmetry_group_IT_number 51
_symmetry_cell_setting 'orthorhombic'
loop_
_space_group_symop_operation_xyz
x,y,z
1/2-x,-y,z
1/2+x,-y,-z
-x,y,-z
-x,-y,-z
1/2+x,y,-z
1/2-x,y,z
x,-y,z
loop_
_atom_site_type_symbol
_atom_site_label
_atom_site_fract_x
_atom_site_fract_y
_atom_site_fract_z
Si Si1 0.069862 0.560912 0.592086
Si Si2 0.574490 0.939055 0.266435
Si Si3 0.927746 0.092627 0.911149
Si Si4 0.421432 0.214635 0.127636
Si Si5 0.570215 0.651307 0.277968
Si Si6 0.576546 0.241364 0.672800
Si Si7 0.929708 0.134519 0.590053
Si Si8 0.073077 0.678067 0.912708
O O1 0.250000 0.563574 0.585464
O O2 0.029176 0.500000 0.610338
O O3 0.021733 0.600838 0.666998
O O4 0.000000 0.575393 0.500000
O O5 0.750000 0.925335 0.263284
O O6 0.503593 0.932305 0.172282
O O7 0.490532 0.901662 0.333372
O O8 0.560535 0.000000 0.293036
O O9 0.750000 0.083707 0.910271
O O10 0.953574 0.155854 0.903275
O O11 0.000000 0.073908 0.000000
O O12 0.250000 0.228231 0.103595
O O13 0.430172 0.216593 0.231206
O O14 0.529845 0.260117 0.094547
O O15 0.750000 0.652017 0.276037
O O16 0.514413 0.704732 0.323356
O O17 0.519151 0.653239 0.178104
O O18 0.750000 0.253592 0.654974
O O19 0.525183 0.195161 0.609735
O O20 0.750000 0.132358 0.588312
O O21 0.000000 0.117580 0.500000
O O22 0.250000 0.672245 0.917902
O O23 0.000000 0.656966 0.000000
#
# Coordination Sequence:
#
# PCOD9400416 Si02
#       8
#     8   8   8   8   8   8   8   8
#     4   9  18  34  55  78 106 140 181 229 275 322
#     4  11  25  44  64  85 109 141 183 231 281 332
#     4  11  22  37  58  85 114 146 183 225 274 331
#     4   9  17  32  52  76 106 140 178 217 261 315
#     4   9  19  33  51  78 109 144 185 222 268 325
#     4   9  18  34  54  79 112 145 178 217 266 320
#     4  11  23  41  63  88 114 145 182 223 274 334
#     4  10  19  30  46  72 105 143 182 221 264 314
#
# _framework density 18.119671
#
# number of rings (size 3 to 8) (size 9 to 14) (size 15 to 20)
#    0.000    2.125    1.250    1.875    0.000    6.000 
#    0.000    2.500    0.000    0.375    0.000    0.000 
#    0.000    0.000    0.000    0.000    0.000    0.375 
#
# Total GULP energy -357229.454578 kJ/mol
# GULP energy per Si atom -5581.710228 kJ/mol
# Density = 1.807843 g / cm^3
# Si number density = 18.119671 Si / 1000 Ang^3
#
#
#
# Elastic Constant Matrix: (Units=GPa)
#
#
# Indices 1 2 3 4 5 6 
#
# 1 45.0026 37.4508 41.2304 0.0000 0.0000 0.0000
# 2 37.4508 70.7697 54.5411 0.0000 0.0000 0.0000
# 3 41.2304 54.5411 114.9459 0.0000 0.0000 0.0000
# 4 0.0000 0.0000 0.0000 -4.8618 0.0000 0.0000
# 5 0.0000 0.0000 0.0000 0.0000 29.2826 0.0000
# 6 0.0000 0.0000 0.0000 0.0000 0.0000 20.2958
#
#
#
# Elastic Compliance Matrix: (Units=1/GPa)
#
#
# Indices 1 2 3 4 5 6 
#
# 1 0.043316 -0.017260 -0.007347 0.000000 0.000000 0.000000
# 2 -0.017260 0.029154 -0.007642 0.000000 0.000000 0.000000
# 3 -0.007347 -0.007642 0.014961 0.000000 0.000000 0.000000
# 4 0.000000 0.000000 0.000000 -0.205686 0.000000 0.000000
# 5 0.000000 0.000000 0.000000 0.000000 0.034150 0.000000
# 6 0.000000 0.000000 0.000000 0.000000 0.000000 0.049271
#
#
# Mechanical properties :
#
#
# Convention : Reuss Voigt Hill
#
# Bulk Modulus (GPa) = 43.60710 55.24032 49.42371
# Shear Modulus (GPa) = 134.00982 15.44305 74.72643
#
# Velocity S-wave (km/s) = 8.60922 2.92255 6.42884
# Velocity P-wave (km/s) = 11.08799 6.47619 9.07977
#
# Compressibility (1/GPa) = 0.02293204
#
# Stress axis : x y z
#
# Youngs Moduli (GPa) = 23.08601 34.30049 66.83825
#
# Poissons Ratio (x) = 0.59203 0.49109
# Poissons Ratio (y) = 0.39847 0.51080
# Poissons Ratio (z) = 0.16962 0.26214
#
# Static dielectric constant tensor:
#      x y z
#    x 1.613410 0.000000 0.000000 
#    y 0.000000 1.606450 0.000000 
#    z 0.000000 0.000000 1.638180 
# 
# From -- ./inp_files/22208.got.cif
#   From: 2010.05.17/outbox.cif.g08.bks.cpg/sg51_12_cif.got.tgz:22208.got - 2010.06.03 11:52:47.
