data_PCOD9400259
_publ_section_title
;
Structure prediction by ZEFSAII (Michael W. Deem and Ramdas Pophale) SiO2 
 PCOD9400259
Probable space group: P M M A
;
_chemical_formula_sum "Si O2"
_cell_formula_units_Z 36
_cell_length_a 8.550760
_cell_length_b 18.985819
_cell_length_c 14.740554
_cell_angle_alpha 90.000000
_cell_angle_beta 90.000000
_cell_angle_gamma 90.000000
_cell_volume 2393.028436
_symmetry_space_group_name_H-M "P M M A"
_symmetry_group_IT_number 51
_symmetry_cell_setting 'orthorhombic'
loop_
_space_group_symop_operation_xyz
x,y,z
1/2-x,-y,z
1/2+x,-y,-z
-x,y,-z
-x,-y,-z
1/2+x,y,-z
1/2-x,y,z
x,-y,z
loop_
_atom_site_type_symbol
_atom_site_label
_atom_site_fract_x
_atom_site_fract_y
_atom_site_fract_z
Si Si1 0.938210 0.418169 0.597051
Si Si2 0.561854 0.230482 0.103294
Si Si3 0.561263 0.075626 0.103232
Si Si4 0.436815 0.500000 0.897752
Si Si5 0.061986 0.364421 0.209893
O O1 0.750000 0.418013 0.594401
O O2 0.989019 0.500000 0.608648
O O3 0.988131 0.374853 0.685435
O O4 0.000000 0.393037 0.500000
O O5 0.750000 0.234082 0.100717
O O6 0.513377 0.152487 0.139144
O O7 0.497330 0.292940 0.164696
O O8 0.500000 0.238028 0.000000
O O9 0.750000 0.075601 0.101954
O O10 0.510646 0.000000 0.144515
O O11 0.500000 0.075153 0.000000
O O12 0.250000 0.500000 0.898738
O O13 0.498009 0.569152 0.846270
O O14 0.500000 0.500000 0.000000
O O15 0.250000 0.366439 0.206519
#
# Coordination Sequence:
#
# PCOD9400259 Si02
#       5
#     8   8   8   4   8
#     4   9  18  33  51  69  87 109 140 181 227 270
#     4  10  19  30  44  65  91 122 157 188 222 262
#     4   8  14  25  41  60  84 114 148 185 221 258
#     4  12  24  36  49  64  85 118 157 192 222 256
#     4  11  21  35  49  65  91 119 149 184 224 266
#
# _framework density 15.043699
#
# number of rings (size 3 to 8) (size 9 to 14) (size 15 to 20)
#    0.000    2.222    1.111    3.000    0.000    2.667 
#    0.000    0.000    0.000    0.000    0.000    0.000 
#    0.000    0.889    0.000    2.000    0.000    3.556 
#
# Total GULP energy -200584.316923 kJ/mol
# GULP energy per Si atom -5571.786581 kJ/mol
# Density = 1.500946 g / cm^3
# Si number density = 15.043699 Si / 1000 Ang^3
#
#
#
# Elastic Constant Matrix: (Units=GPa)
#
#
# Indices 1 2 3 4 5 6 
#
# 1 43.1636 34.1370 28.0525 0.0000 0.0000 0.0000
# 2 34.1370 160.7671 71.7245 0.0000 0.0000 0.0000
# 3 28.0525 71.7245 108.7911 0.0000 0.0000 0.0000
# 4 0.0000 0.0000 0.0000 1.0617 0.0000 0.0000
# 5 0.0000 0.0000 0.0000 0.0000 21.5538 0.0000
# 6 0.0000 0.0000 0.0000 0.0000 0.0000 8.3801
#
#
#
# Elastic Compliance Matrix: (Units=1/GPa)
#
#
# Indices 1 2 3 4 5 6 
#
# 1 0.029609 -0.004081 -0.004944 0.000000 0.000000 0.000000
# 2 -0.004081 0.009375 -0.005128 0.000000 0.000000 0.000000
# 3 -0.004944 -0.005128 0.013848 0.000000 0.000000 0.000000
# 4 0.000000 0.000000 0.000000 0.941927 0.000000 0.000000
# 5 0.000000 0.000000 0.000000 0.000000 0.046396 0.000000
# 6 0.000000 0.000000 0.000000 0.000000 0.000000 0.119331
#
#
# Mechanical properties :
#
#
# Convention : Reuss Voigt Hill
#
# Bulk Modulus (GPa) = 40.77641 64.50552 52.64096
# Shear Modulus (GPa) = 4.17723 18.11962 11.14842
#
# Velocity S-wave (km/s) = 1.66816 3.47431 2.72521
# Velocity P-wave (km/s) = 5.55648 7.68546 6.70600
#
# Compressibility (1/GPa) = 0.02452399
#
# Stress axis : x y z
#
# Youngs Moduli (GPa) = 33.77387 106.67005 72.21390
#
# Poissons Ratio (x) = 0.43536 0.35703
# Poissons Ratio (y) = 0.13784 0.37033
# Poissons Ratio (z) = 0.16698 0.54703
#
# Static dielectric constant tensor:
#      x y z
#    x 1.509830 0.000000 0.000000 
#    y 0.000000 1.532730 0.000000 
#    z 0.000000 0.000000 1.470650 
# 
# From -- ./inp_files/20772.got.cif
#   From: 2010.05.17/outbox.cif.g08.bks.cpg/sg51_11_cif.got.tgz:20772.got - 2010.06.03 11:52:47.
