data_PCOD9400922
_publ_section_title
;
Structure prediction by ZEFSAII (Michael W. Deem and Ramdas Pophale) SiO2 
 PCOD9400922
Probable space group: P M M A
;
_chemical_formula_sum "Si O2"
_cell_formula_units_Z 40
_cell_length_a 21.669440
_cell_length_b 7.582101
_cell_length_c 12.232907
_cell_angle_alpha 90.000000
_cell_angle_beta 90.000000
_cell_angle_gamma 90.000000
_cell_volume 2009.865185
_symmetry_space_group_name_H-M "P M M A"
_symmetry_group_IT_number 51
_symmetry_cell_setting 'orthorhombic'
loop_
_space_group_symop_operation_xyz
x,y,z
1/2-x,-y,z
1/2+x,-y,-z
-x,y,-z
-x,-y,-z
1/2+x,y,-z
1/2-x,y,z
x,-y,z
loop_
_atom_site_type_symbol
_atom_site_label
_atom_site_fract_x
_atom_site_fract_y
_atom_site_fract_z
Si Si1 0.410090 0.214248 0.944997
Si Si2 0.822159 0.207664 0.241236
Si Si3 0.541446 0.214285 0.834162
Si Si4 0.950537 0.794285 0.588101
Si Si5 0.320403 0.297217 0.511001
O O1 0.358506 0.279627 0.862263
O O2 0.474583 0.253552 0.884994
O O3 0.405295 0.000000 0.950122
O O4 0.411947 0.276266 0.070476
O O5 0.750000 0.221822 0.219571
O O6 0.833685 0.290594 0.359240
O O7 0.838080 0.000000 0.254265
O O8 0.546711 0.281987 0.710838
O O9 0.547039 0.000000 0.829666
O O10 0.880004 0.785726 0.546320
O O11 0.000000 0.719408 0.500000
O O12 0.968054 0.000000 0.599623
O O13 0.250000 0.223670 0.495413
O O14 0.318509 0.500000 0.475622
#
# Coordination Sequence:
#
# PCOD9400922 Si02
#       5
#     8   8   8   8   8
#     4   8  13  24  42  65  93 119 144 181 232 283
#     4   9  16  27  46  69  89 112 148 194 238 279
#     4   8  14  24  41  66  94 121 147 182 230 279
#     4  10  19  31  50  76 101 125 159 200 238 280
#     4  10  21  35  49  67  95 130 164 198 238 283
#
# _framework density 19.901831000000001
#
# number of rings (size 3 to 8) (size 9 to 14) (size 15 to 20)
#    0.000    3.000    0.000    3.000    0.000    4.800 
#    0.000    1.000    0.000    4.800    0.000    7.000 
#    0.000    0.000    0.000    0.000    0.000    0.000 
#
# Total GULP energy -222786.734389 kJ/mol
# GULP energy per Si atom -5569.668360 kJ/mol
# Density = 1.985653 g / cm^3
# Si number density = 19.901831 Si / 1000 Ang^3
#
#
#
# Elastic Constant Matrix: (Units=GPa)
#
#
# Indices 1 2 3 4 5 6 
#
# 1 28.1522 10.6481 42.5487 0.0000 0.0000 0.0000
# 2 10.6481 32.9765 14.0093 0.0000 0.0000 0.0000
# 3 42.5487 14.0093 145.0197 0.0000 0.0000 0.0000
# 4 0.0000 0.0000 0.0000 -40.1272 0.0000 0.0000
# 5 0.0000 0.0000 0.0000 0.0000 31.7935 0.0000
# 6 0.0000 0.0000 0.0000 0.0000 0.0000 -7.8989
#
#
#
# Elastic Compliance Matrix: (Units=1/GPa)
#
#
# Indices 1 2 3 4 5 6 
#
# 1 0.069848 -0.014440 -0.019098 0.000000 0.000000 0.000000
# 2 -0.014440 0.034608 0.000894 0.000000 0.000000 0.000000
# 3 -0.019098 0.000894 0.012413 0.000000 0.000000 0.000000
# 4 0.000000 0.000000 0.000000 -0.024921 0.000000 0.000000
# 5 0.000000 0.000000 0.000000 0.000000 0.031453 0.000000
# 6 0.000000 0.000000 0.000000 0.000000 0.000000 -0.126600
#
#
# Mechanical properties :
#
#
# Convention : Reuss Voigt Hill
#
# Bulk Modulus (GPa) = 19.38806 37.84005 28.61406
# Shear Modulus (GPa) = 63.06496 6.01630 34.54063
#
# Velocity S-wave (km/s) = 5.63532 1.74056 4.17051
# Velocity P-wave (km/s) = 7.21841 4.80562 6.13186
#
# Compressibility (1/GPa) = 0.05157813
#
# Stress axis : x y z
#
# Youngs Moduli (GPa) = 14.31686 28.89520 80.56254
#
# Poissons Ratio (x) = 0.41726 1.53861
# Poissons Ratio (y) = 0.20674 -0.07199
# Poissons Ratio (z) = 0.27343 -0.02582
#
# Static dielectric constant tensor:
#      x y z
#    x 1.700280 0.000000 0.000000 
#    y 0.000000 1.773370 0.000000 
#    z 0.000000 0.000000 1.710270 
# 
# From -- ./inp_files/17879.got.cif
#   From: 2010.05.17/outbox.cif.g08.bks.cpg/sg51_9_cif.got.tgz:17879.got - 2010.06.03 11:52:47.
