data_PCOD9400917
_publ_section_title
;
Structure prediction by ZEFSAII (Michael W. Deem and Ramdas Pophale) SiO2 
 PCOD9400917
Probable space group: P M M A
;
_chemical_formula_sum "Si O2"
_cell_formula_units_Z 64
_cell_length_a 8.775983
_cell_length_b 21.151787
_cell_length_c 20.184385
_cell_angle_alpha 90.000000
_cell_angle_beta 90.000000
_cell_angle_gamma 90.000000
_cell_volume 3746.781430
_symmetry_space_group_name_H-M "P M M A"
_symmetry_group_IT_number 51
_symmetry_cell_setting 'orthorhombic'
loop_
_space_group_symop_operation_xyz
x,y,z
1/2-x,-y,z
1/2+x,-y,-z
-x,y,-z
-x,-y,-z
1/2+x,y,-z
1/2-x,y,z
x,-y,z
loop_
_atom_site_type_symbol
_atom_site_label
_atom_site_fract_x
_atom_site_fract_y
_atom_site_fract_z
Si Si1 0.934127 0.070749 0.711367
Si Si2 0.067560 0.730241 0.429636
Si Si3 0.067319 0.312655 0.706246
Si Si4 0.067555 0.380828 0.068502
Si Si5 0.066634 0.188177 0.789522
Si Si6 0.067309 0.879018 0.430406
Si Si7 0.433465 0.570841 0.212752
Si Si8 0.933094 0.760489 0.068861
O O1 0.750000 0.073740 0.712288
O O2 0.982869 0.084818 0.635538
O O3 0.997210 0.125616 0.757886
O O4 0.981145 0.000000 0.730709
O O5 0.250000 0.725761 0.430401
O O6 0.025886 0.804799 0.422173
O O7 0.000000 0.709070 0.500000
O O8 0.000448 0.693659 0.367089
O O9 0.250000 0.313085 0.703457
O O10 0.018911 0.250083 0.747498
O O11 0.009208 0.374438 0.744211
O O12 0.250000 0.376790 0.062542
O O13 0.029632 0.418445 0.135166
O O14 0.999460 0.310299 0.076499
O O15 0.000000 0.407195 0.000000
O O16 0.250000 0.184522 0.785912
O O17 0.024501 0.200138 0.865973
O O18 0.250000 0.882844 0.434516
O O19 0.000000 0.901761 0.500000
O O20 0.250000 0.576247 0.218737
O O21 0.478633 0.500000 0.232730
O O22 0.750000 0.756489 0.064934
O O23 0.000000 0.786023 0.000000
#
# Coordination Sequence:
#
# PCOD9400917 Si02
#       8
#     8   8   8   8   8   8   8   8
#     4  10  21  36  53  76 107 142 181 221 264 317
#     4  10  19  33  54  81 110 142 177 222 270 317
#     4  11  21  35  56  82 109 140 180 226 270 317
#     4  10  19  31  50  75 106 143 181 219 261 314
#     4  10  21  35  54  79 108 138 176 222 268 316
#     4   9  18  31  48  73 105 140 177 214 255 305
#     4  10  22  38  54  76 108 146 185 223 267 320
#     4  10  19  33  52  79 108 136 172 219 268 317
#
# _framework density 17.081327999999999
#
# number of rings (size 3 to 8) (size 9 to 14) (size 15 to 20)
#    0.000    2.000    2.500    2.250    0.000    4.000 
#    0.000    0.000    0.000    0.750    0.000    0.000 
#    0.000    0.000    0.000    0.000    0.000    0.000 
#
# Total GULP energy -357229.157357 kJ/mol
# GULP energy per Si atom -5581.705584 kJ/mol
# Density = 1.704245 g / cm^3
# Si number density = 17.081328 Si / 1000 Ang^3
#
#
#
# Elastic Constant Matrix: (Units=GPa)
#
#
# Indices 1 2 3 4 5 6 
#
# 1 36.2502 35.5353 43.1637 0.0000 0.0000 0.0000
# 2 35.5353 113.4606 73.8306 0.0000 0.0000 0.0000
# 3 43.1637 73.8306 141.9593 0.0000 0.0000 0.0000
# 4 0.0000 0.0000 0.0000 21.3828 0.0000 0.0000
# 5 0.0000 0.0000 0.0000 0.0000 31.4516 0.0000
# 6 0.0000 0.0000 0.0000 0.0000 0.0000 15.2828
#
#
#
# Elastic Compliance Matrix: (Units=1/GPa)
#
#
# Indices 1 2 3 4 5 6 
#
# 1 0.047975 -0.008364 -0.010237 0.000000 0.000000 0.000000
# 2 -0.008364 0.014780 -0.005144 0.000000 0.000000 0.000000
# 3 -0.010237 -0.005144 0.012832 0.000000 0.000000 0.000000
# 4 0.000000 0.000000 0.000000 0.046767 0.000000 0.000000
# 5 0.000000 0.000000 0.000000 0.000000 0.031795 0.000000
# 6 0.000000 0.000000 0.000000 0.000000 0.000000 0.065433
#
#
# Mechanical properties :
#
#
# Convention : Reuss Voigt Hill
#
# Bulk Modulus (GPa) = 35.59066 66.30324 50.94695
# Shear Modulus (GPa) = 18.08730 22.89947 20.49338
#
# Velocity S-wave (km/s) = 3.25759 3.66541 3.46750
# Velocity P-wave (km/s) = 5.91865 7.53752 6.77660
#
# Compressibility (1/GPa) = 0.02809726
#
# Stress axis : x y z
#
# Youngs Moduli (GPa) = 20.84440 67.65708 77.92923
#
# Poissons Ratio (x) = 0.56589 0.79776
# Poissons Ratio (y) = 0.17434 0.40086
# Poissons Ratio (z) = 0.21338 0.34802
#
# Static dielectric constant tensor:
#      x y z
#    x 1.574790 0.000000 0.000000 
#    y 0.000000 1.561660 0.000000 
#    z 0.000000 0.000000 1.577600 
# 
# From -- ./inp_files/28406.got.cif
#   From: 2010.05.17/outbox.cif.g08.bks.cpg/sg51_15_cif.got.tgz:28406.got - 2010.06.03 11:52:47.
