data_PCOD9400550
_publ_section_title
;
Structure prediction by ZEFSAII (Michael W. Deem and Ramdas Pophale) SiO2 
 PCOD9400550
Probable space group: P M M A
;
_chemical_formula_sum "Si O2"
_cell_formula_units_Z 48
_cell_length_a 10.444772
_cell_length_b 28.816394
_cell_length_c 7.078903
_cell_angle_alpha 90.000000
_cell_angle_beta 90.000000
_cell_angle_gamma 90.000000
_cell_volume 2130.612934
_symmetry_space_group_name_H-M "P M M A"
_symmetry_group_IT_number 51
_symmetry_cell_setting 'orthorhombic'
loop_
_space_group_symop_operation_xyz
x,y,z
1/2-x,-y,z
1/2+x,-y,-z
-x,y,-z
-x,-y,-z
1/2+x,y,-z
1/2-x,y,z
x,-y,z
loop_
_atom_site_type_symbol
_atom_site_label
_atom_site_fract_x
_atom_site_fract_y
_atom_site_fract_z
Si Si1 0.897724 0.150488 0.668686
Si Si2 0.100630 0.950006 0.326922
Si Si3 0.019876 0.448376 0.727855
Si Si4 0.479488 0.750806 0.216363
Si Si5 0.750000 0.589854 0.774347
Si Si6 0.250000 0.723358 0.742303
Si Si7 0.750000 0.304357 0.824727
Si Si8 0.750000 0.385292 0.328034
O O1 0.750000 0.152295 0.602764
O O2 0.914835 0.100305 0.770423
O O3 0.924077 0.197446 0.780915
O O4 0.000000 0.150984 0.500000
O O5 0.250000 0.950130 0.392564
O O6 0.000000 0.949965 0.500000
O O7 0.082495 0.000000 0.226208
O O8 0.064228 0.500000 0.781321
O O9 0.881387 0.436961 0.814354
O O10 0.000000 0.449138 0.500000
O O11 0.124231 0.408645 0.761904
O O12 0.617945 0.748294 0.313750
O O13 0.375368 0.713519 0.284574
O O14 0.500000 0.737086 0.000000
O O15 0.750000 0.641219 0.859815
O O16 0.750000 0.599828 0.547999
O O17 0.250000 0.669837 0.682459
O O18 0.250000 0.720932 0.972026
#
# Coordination Sequence:
#
# PCOD9400550 Si02
#       8
#     8   8   8   8   4   4   4   4
#     4  10  20  33  52  80 109 135 170 218 265 306
#     4   8  14  26  45  70 101 135 167 202 251 309
#     4   9  17  30  49  74 101 127 157 194 240 297
#     4  10  21  37  54  71  98 139 179 213 257 313
#     4  10  19  30  52  74  98 125 161 200 247 293
#     4  10  22  35  53  73  97 131 176 209 255 308
#     4  10  20  37  53  71  97 135 168 211 257 306
#     4  10  19  32  50  76  96 125 161 204 245 291
#
# _framework density 22.528727
#
# number of rings (size 3 to 8) (size 9 to 14) (size 15 to 20)
#    0.000    2.500    0.833    1.500    1.167    3.333 
#    0.000    0.000    0.000    3.500    0.000    0.000 
#    0.000    0.000    0.000    0.000    0.000    0.000 
#
# Total GULP energy -267717.661723 kJ/mol
# GULP energy per Si atom -5577.451286 kJ/mol
# Density = 2.247745 g / cm^3
# Si number density = 22.528727 Si / 1000 Ang^3
#
#
#
# Elastic Constant Matrix: (Units=GPa)
#
#
# Indices 1 2 3 4 5 6 
#
# 1 146.6242 68.6516 1.0105 0.0000 0.0000 0.0000
# 2 68.6516 142.1873 -27.2893 0.0000 0.0000 0.0000
# 3 1.0105 -27.2893 41.3601 0.0000 0.0000 0.0000
# 4 0.0000 0.0000 0.0000 6.4731 0.0000 0.0000
# 5 0.0000 0.0000 0.0000 0.0000 -2.7577 0.0000
# 6 0.0000 0.0000 0.0000 0.0000 0.0000 32.4621
#
#
#
# Elastic Compliance Matrix: (Units=1/GPa)
#
#
# Indices 1 2 3 4 5 6 
#
# 1 0.009267 -0.005173 -0.003640 0.000000 0.000000 0.000000
# 2 -0.005173 0.010940 0.007345 0.000000 0.000000 0.000000
# 3 -0.003640 0.007345 0.029113 0.000000 0.000000 0.000000
# 4 0.000000 0.000000 0.000000 0.154485 0.000000 0.000000
# 5 0.000000 0.000000 0.000000 0.000000 -0.362624 0.000000
# 6 0.000000 0.000000 0.000000 0.000000 0.000000 0.030805
#
#
# Mechanical properties :
#
#
# Convention : Reuss Voigt Hill
#
# Bulk Modulus (GPa) = 21.55875 46.10190 33.83032
# Shear Modulus (GPa) = -45.61389 26.42210 -9.59590
#
# Velocity S-wave (km/s) = -4.50455 3.42836 -2.06607
# Velocity P-wave (km/s) = 4.17904 6.01494 3.05902
#
# Compressibility (1/GPa) = 0.04638488
#
# Stress axis : x y z
#
# Youngs Moduli (GPa) = 107.90607 91.40529 34.34904
#
# Poissons Ratio (x) = 0.47284 0.12502
# Poissons Ratio (y) = 0.55820 -0.25229
# Poissons Ratio (z) = 0.39273 -0.67135
#
# Static dielectric constant tensor:
#      x y z
#    x 1.888170 0.000000 0.000000 
#    y 0.000000 1.823620 0.000000 
#    z 0.000000 0.000000 1.850160 
# 
# From -- ./inp_files/6317.got.cif
#   From: 2010.05.17/outbox.cif.g08.bks.cpg/sg51_4_cif.got.tgz:6317.got - 2010.06.03 11:52:47.
