data_PCOD9400389
_publ_section_title
;
Structure prediction by ZEFSAII (Michael W. Deem and Ramdas Pophale) SiO2 
 PCOD9400389
Probable space group: P M M A
;
_chemical_formula_sum "Si O2"
_cell_formula_units_Z 48
_cell_length_a 19.798694
_cell_length_b 7.446785
_cell_length_c 15.524232
_cell_angle_alpha 90.000000
_cell_angle_beta 90.000000
_cell_angle_gamma 90.000000
_cell_volume 2288.840255
_symmetry_space_group_name_H-M "P M M A"
_symmetry_group_IT_number 51
_symmetry_cell_setting 'orthorhombic'
loop_
_space_group_symop_operation_xyz
x,y,z
1/2-x,-y,z
1/2+x,-y,-z
-x,y,-z
-x,-y,-z
1/2+x,y,-z
1/2-x,y,z
x,-y,z
loop_
_atom_site_type_symbol
_atom_site_label
_atom_site_fract_x
_atom_site_fract_y
_atom_site_fract_z
Si Si1 0.073215 0.292839 0.238011
Si Si2 0.826304 0.788359 0.612483
Si Si3 0.673276 0.281568 0.104039
Si Si4 0.078134 0.720290 0.740362
Si Si5 0.173470 0.283949 0.586693
Si Si6 0.826810 0.280503 0.907330
O O1 0.061490 0.500000 0.213229
O O2 0.118766 0.289964 0.323414
O O3 0.118589 0.214438 0.161111
O O4 0.999027 0.216525 0.254795
O O5 0.750000 0.716752 0.626833
O O6 0.842866 0.761038 0.512068
O O7 0.824727 0.000000 0.629271
O O8 0.750000 0.226111 0.125579
O O9 0.673129 0.500000 0.104477
O O10 0.619898 0.224076 0.175181
O O11 0.658604 0.226790 0.005801
O O12 0.077968 0.500000 0.737839
O O13 0.119139 0.780098 0.655911
O O14 0.250000 0.219083 0.604693
O O15 0.175364 0.500000 0.592752
O O16 0.750000 0.225202 0.885481
O O17 0.826598 0.500000 0.905314
#
# Coordination Sequence:
#
# PCOD9400389 Si02
#       6
#     8   8   8   8   8   8
#     4  10  19  30  46  70 100 128 153 187 231 278
#     4  10  21  36  52  69  89 117 156 197 234 276
#     4   8  13  23  40  64  96 128 156 191 232 270
#     4   9  17  27  42  68  98 126 155 188 230 278
#     4   9  17  31  51  71  91 119 156 196 235 274
#     4   8  14  24  40  64  93 125 158 190 227 270
#
# _framework density 20.971319999999999
#
# number of rings (size 3 to 8) (size 9 to 14) (size 15 to 20)
#    0.000    3.000    0.000    2.500    0.000    5.000 
#    0.000    7.500    0.000    0.000    0.000    3.500 
#    0.000    5.333    0.000    0.000    0.000    0.000 
#
# Total GULP energy -267921.234596 kJ/mol
# GULP energy per Si atom -5581.692387 kJ/mol
# Density = 2.092359 g / cm^3
# Si number density = 20.971320 Si / 1000 Ang^3
#
#
#
# Elastic Constant Matrix: (Units=GPa)
#
#
# Indices 1 2 3 4 5 6 
#
# 1 183.8175 -1.0406 130.5036 0.0000 0.0000 0.0000
# 2 -1.0406 62.3147 -8.6604 0.0000 0.0000 0.0000
# 3 130.5036 -8.6604 133.7817 0.0000 0.0000 0.0000
# 4 0.0000 0.0000 0.0000 -57.6200 0.0000 0.0000
# 5 0.0000 0.0000 0.0000 0.0000 -34.8724 0.0000
# 6 0.0000 0.0000 0.0000 0.0000 0.0000 -8.4414
#
#
#
# Elastic Compliance Matrix: (Units=1/GPa)
#
#
# Indices 1 2 3 4 5 6 
#
# 1 0.017978 -0.002157 -0.017677 0.000000 0.000000 0.000000
# 2 -0.002157 0.016452 0.003169 0.000000 0.000000 0.000000
# 3 -0.017677 0.003169 0.024924 0.000000 0.000000 0.000000
# 4 0.000000 0.000000 0.000000 -0.017355 0.000000 0.000000
# 5 0.000000 0.000000 0.000000 0.000000 -0.028676 0.000000
# 6 0.000000 0.000000 0.000000 0.000000 0.000000 -0.118464
#
#
# Mechanical properties :
#
#
# Convention : Reuss Voigt Hill
#
# Bulk Modulus (GPa) = 38.42599 69.05768 53.74183
# Shear Modulus (GPa) = -79.19430 -2.91267 -41.05349
#
# Velocity S-wave (km/s) = -6.15184 -1.17979 -4.42928
# Velocity P-wave (km/s) = 5.66545 5.58079 0.68995
#
# Compressibility (1/GPa) = 0.02602405
#
# Stress axis : x y z
#
# Youngs Moduli (GPa) = 55.62306 60.78309 40.12186
#
# Poissons Ratio (x) = 0.13108 0.70924
# Poissons Ratio (y) = 0.11995 -0.12713
# Poissons Ratio (z) = 0.98326 -0.19260
#
# Static dielectric constant tensor:
#      x y z
#    x 1.731080 0.000000 0.000000 
#    y 0.000000 1.804160 0.000000 
#    z 0.000000 0.000000 1.713470 
# 
# From -- ./inp_files/24794.got.cif
#   From: 2010.05.17/outbox.cif.g08.bks.cpg/sg51_13_cif.got.tgz:24794.got - 2010.06.03 11:52:47.
