data_PCOD9400490
_publ_section_title
;
Structure prediction by ZEFSAII (Michael W. Deem and Ramdas Pophale) SiO2 
 PCOD9400490
Probable space group: P M M A
;
_chemical_formula_sum "Si O2"
_cell_formula_units_Z 48
_cell_length_a 8.691009
_cell_length_b 14.138664
_cell_length_c 24.387616
_cell_angle_alpha 90.000000
_cell_angle_beta 90.000000
_cell_angle_gamma 90.000000
_cell_volume 2996.732111
_symmetry_space_group_name_H-M "P M M A"
_symmetry_group_IT_number 51
_symmetry_cell_setting 'orthorhombic'
loop_
_space_group_symop_operation_xyz
x,y,z
1/2-x,-y,z
1/2+x,-y,-z
-x,y,-z
-x,-y,-z
1/2+x,y,-z
1/2-x,y,z
x,-y,z
loop_
_atom_site_type_symbol
_atom_site_label
_atom_site_fract_x
_atom_site_fract_y
_atom_site_fract_z
Si Si1 0.565310 0.715658 0.663860
Si Si2 0.065851 0.889254 0.940668
Si Si3 0.564961 0.206395 0.833494
Si Si4 0.065400 0.891108 0.725655
Si Si5 0.565722 0.389991 0.440170
Si Si6 0.936847 0.606155 0.773847
O O1 0.750000 0.719074 0.662210
O O2 0.501285 0.817723 0.681489
O O3 0.500768 0.675719 0.607351
O O4 0.519443 0.645094 0.713737
O O5 0.250000 0.882329 0.941202
O O6 0.998114 0.828302 0.891317
O O7 0.024412 0.000000 0.931705
O O8 0.000000 0.861697 0.000000
O O9 0.750000 0.201702 0.832986
O O10 0.501128 0.140748 0.784548
O O11 0.516991 0.313324 0.817178
O O12 0.250000 0.883043 0.727234
O O13 0.024631 0.000000 0.714558
O O14 0.500000 0.365527 0.500000
O O15 0.750000 0.383982 0.441113
O O16 0.522437 0.500000 0.429168
O O17 0.750000 0.603400 0.774677
O O18 0.993806 0.500000 0.783535
#
# Coordination Sequence:
#
# PCOD9400490 Si02
#       6
#     8   8   8   8   8   8
#     4  10  19  31  50  74  99 128 162 202 246 290
#     4  10  20  33  49  69  94 124 156 193 238 286
#     4  10  19  30  48  73  98 126 159 196 238 284
#     4  10  20  33  49  70  98 131 164 199 240 287
#     4  10  20  33  50  73 101 132 165 201 241 287
#     4   8  15  28  46  69  96 125 156 190 231 278
#
# _framework density 16.017447000000001
#
# number of rings (size 3 to 8) (size 9 to 14) (size 15 to 20)
#    0.000    2.333    0.000    4.500    0.000    6.000 
#    0.000    0.000    0.000   11.000    0.000    0.000 
#    0.000    0.000    0.000    0.000    0.000    0.000 
#
# Total GULP energy -267791.314254 kJ/mol
# GULP energy per Si atom -5578.985714 kJ/mol
# Density = 1.598099 g / cm^3
# Si number density = 16.017447 Si / 1000 Ang^3
#
#
#
# Elastic Constant Matrix: (Units=GPa)
#
#
# Indices 1 2 3 4 5 6 
#
# 1 52.3813 46.7753 48.9724 0.0000 0.0000 0.0000
# 2 46.7753 140.4987 98.3186 0.0000 0.0000 0.0000
# 3 48.9724 98.3186 154.4928 0.0000 0.0000 0.0000
# 4 0.0000 0.0000 0.0000 21.6825 0.0000 0.0000
# 5 0.0000 0.0000 0.0000 0.0000 31.1591 0.0000
# 6 0.0000 0.0000 0.0000 0.0000 0.0000 21.2042
#
#
#
# Elastic Compliance Matrix: (Units=1/GPa)
#
#
# Indices 1 2 3 4 5 6 
#
# 1 0.029646 -0.005938 -0.005618 0.000000 0.000000 0.000000
# 2 -0.005938 0.014022 -0.007041 0.000000 0.000000 0.000000
# 3 -0.005618 -0.007041 0.012735 0.000000 0.000000 0.000000
# 4 0.000000 0.000000 0.000000 0.046120 0.000000 0.000000
# 5 0.000000 0.000000 0.000000 0.000000 0.032093 0.000000
# 6 0.000000 0.000000 0.000000 0.000000 0.000000 0.047160
#
#
# Mechanical properties :
#
#
# Convention : Reuss Voigt Hill
#
# Bulk Modulus (GPa) = 52.06374 81.72283 66.89328
# Shear Modulus (GPa) = 22.18532 25.02958 23.60745
#
# Velocity S-wave (km/s) = 3.72569 3.95732 3.84325
# Velocity P-wave (km/s) = 7.14721 8.48601 7.84522
#
# Compressibility (1/GPa) = 0.01920723
#
# Stress axis : x y z
#
# Youngs Moduli (GPa) = 33.73105 71.31845 78.52624
#
# Poissons Ratio (x) = 0.42351 0.44119
# Poissons Ratio (y) = 0.20030 0.55290
# Poissons Ratio (z) = 0.18952 0.50215
#
# Static dielectric constant tensor:
#      x y z
#    x 1.537330 0.000000 0.000000 
#    y 0.000000 1.537130 0.000000 
#    z 0.000000 0.000000 1.503990 
# 
# From -- ./inp_files/31633.got.cif
#   From: 2010.05.17/outbox.cif.g08.bks.cpg/sg51_16_cif.got.tgz:31633.got - 2010.06.03 11:52:47.
