data_PCOD9400677
_publ_section_title
;
Structure prediction by ZEFSAII (Michael W. Deem and Ramdas Pophale) SiO2 
 PCOD9400677
Probable space group: P M M A
;
_chemical_formula_sum "Si O2"
_cell_formula_units_Z 64
_cell_length_a 8.562006
_cell_length_b 24.295793
_cell_length_c 19.762492
_cell_angle_alpha 90.000000
_cell_angle_beta 90.000000
_cell_angle_gamma 90.000000
_cell_volume 4111.007922
_symmetry_space_group_name_H-M "P M M A"
_symmetry_group_IT_number 51
_symmetry_cell_setting 'orthorhombic'
loop_
_space_group_symop_operation_xyz
x,y,z
1/2-x,-y,z
1/2+x,-y,-z
-x,y,-z
-x,-y,-z
1/2+x,y,-z
1/2-x,y,z
x,-y,z
loop_
_atom_site_type_symbol
_atom_site_label
_atom_site_fract_x
_atom_site_fract_y
_atom_site_fract_z
Si Si1 0.437427 0.231557 0.924787
Si Si2 0.438156 0.115696 0.572139
Si Si3 0.435482 0.663609 0.156440
Si Si4 0.558873 0.062149 0.287096
Si Si5 0.938172 0.755963 0.427909
Si Si6 0.437069 0.436317 0.925499
Si Si7 0.438668 0.276598 0.717316
Si Si8 0.060528 0.165620 0.797358
O O1 0.250000 0.232527 0.925946
O O2 0.494579 0.288788 0.892031
O O3 0.489576 0.183882 0.872281
O O4 0.500000 0.224558 0.000000
O O5 0.500000 0.095287 0.500000
O O6 0.250000 0.114867 0.570588
O O7 0.488765 0.081632 0.637736
O O8 0.487040 0.179805 0.579570
O O9 0.250000 0.665695 0.152253
O O10 0.496262 0.605497 0.129359
O O11 0.490009 0.678870 0.232104
O O12 0.750000 0.062598 0.286477
O O13 0.505220 0.108159 0.233562
O O14 0.508034 0.000000 0.272991
O O15 0.750000 0.755593 0.429190
O O16 0.988272 0.723283 0.360888
O O17 0.000000 0.735816 0.500000
O O18 0.250000 0.432833 0.926283
O O19 0.482241 0.500000 0.913186
O O20 0.500000 0.420955 0.000000
O O21 0.250000 0.280879 0.720444
O O22 0.480466 0.216538 0.748115
O O23 0.250000 0.163475 0.797909
#
# Coordination Sequence:
#
# PCOD9400677 Si02
#       8
#     8   8   8   8   8   8   8   8
#     4  10  19  31  48  66  88 114 143 181 225 272
#     4   9  16  26  40  59  83 111 143 178 217 260
#     4  11  21  31  46  70  98 123 153 191 227 264
#     4   9  15  24  41  62  81 105 143 185 219 262
#     4   9  16  26  42  61  86 118 150 185 225 273
#     4  10  20  34  51  70  96 132 168 195 220 255
#     4   9  16  29  46  62  86 120 154 188 229 272
#     4   8  14  26  42  59  80 108 140 178 222 268
#
# _framework density 15.567958000000001
#
# number of rings (size 3 to 8) (size 9 to 14) (size 15 to 20)
#    0.000    2.625    1.250    3.000    0.000    1.500 
#    0.000    0.000    0.000    0.375    0.000    0.000 
#    0.000    0.500    0.000    1.625    0.000    2.500 
#
# Total GULP energy -356708.208315 kJ/mol
# GULP energy per Si atom -5573.565755 kJ/mol
# Density = 1.553252 g / cm^3
# Si number density = 15.567958 Si / 1000 Ang^3
#
#
#
# Elastic Constant Matrix: (Units=GPa)
#
#
# Indices 1 2 3 4 5 6 
#
# 1 29.8188 21.5788 29.1615 0.0000 0.0000 0.0000
# 2 21.5788 83.3480 62.8983 0.0000 0.0000 0.0000
# 3 29.1615 62.8983 140.6925 0.0000 0.0000 0.0000
# 4 0.0000 0.0000 0.0000 25.9838 0.0000 0.0000
# 5 0.0000 0.0000 0.0000 0.0000 23.8039 0.0000
# 6 0.0000 0.0000 0.0000 0.0000 0.0000 9.6505
#
#
#
# Elastic Compliance Matrix: (Units=1/GPa)
#
#
# Indices 1 2 3 4 5 6 
#
# 1 0.044537 -0.006888 -0.006152 0.000000 0.000000 0.000000
# 2 -0.006888 0.019172 -0.007143 0.000000 0.000000 0.000000
# 3 -0.006152 -0.007143 0.011576 0.000000 0.000000 0.000000
# 4 0.000000 0.000000 0.000000 0.038485 0.000000 0.000000
# 5 0.000000 0.000000 0.000000 0.000000 0.042010 0.000000
# 6 0.000000 0.000000 0.000000 0.000000 0.000000 0.103622
#
#
# Mechanical properties :
#
#
# Convention : Reuss Voigt Hill
#
# Bulk Modulus (GPa) = 28.63811 53.45961 41.04886
# Shear Modulus (GPa) = 16.05609 21.23569 18.64589
#
# Velocity S-wave (km/s) = 3.21496 3.69733 3.46455
# Velocity P-wave (km/s) = 5.67598 7.25542 6.51375
#
# Compressibility (1/GPa) = 0.03491851
#
# Stress axis : x y z
#
# Youngs Moduli (GPa) = 22.45336 52.15963 86.38347
#
# Poissons Ratio (x) = 0.35928 0.53141
# Poissons Ratio (y) = 0.15466 0.61707
# Poissons Ratio (z) = 0.13813 0.37259
#
# Static dielectric constant tensor:
#      x y z
#    x 1.524850 0.000000 0.000000 
#    y 0.000000 1.508740 0.000000 
#    z 0.000000 0.000000 1.525740 
# 
# From -- ./inp_files/32674.got.cif
#   From: 2010.05.17/outbox.cif.g08.bks.cpg/sg51_17_cif.got.tgz:32674.got - 2010.06.03 11:52:47.
