data_PCOD9400862
_publ_section_title
;
Structure prediction by ZEFSAII (Michael W. Deem and Ramdas Pophale) SiO2 
 PCOD9400862
Probable space group: P M M A
;
_chemical_formula_sum "Si O2"
_cell_formula_units_Z 32
_cell_length_a 8.887637
_cell_length_b 10.407023
_cell_length_c 19.809540
_cell_angle_alpha 90.000000
_cell_angle_beta 90.000000
_cell_angle_gamma 90.000000
_cell_volume 1832.260476
_symmetry_space_group_name_H-M "P M M A"
_symmetry_group_IT_number 51
_symmetry_cell_setting 'orthorhombic'
loop_
_space_group_symop_operation_xyz
x,y,z
1/2-x,-y,z
1/2+x,-y,-z
-x,y,-z
-x,-y,-z
1/2+x,y,-z
1/2-x,y,z
x,-y,z
loop_
_atom_site_type_symbol
_atom_site_label
_atom_site_fract_x
_atom_site_fract_y
_atom_site_fract_z
Si Si1 0.070836 0.653351 0.211011
Si Si2 0.923312 0.343680 0.069431
Si Si3 0.069468 0.000000 0.574501
Si Si4 0.930677 0.259860 0.346711
Si Si5 0.430338 0.500000 0.425618
O O1 0.250000 0.669353 0.216083
O O2 0.038521 0.500000 0.219775
O O3 0.012773 0.691929 0.136983
O O4 0.987285 0.729543 0.270025
O O5 0.750000 0.302608 0.073252
O O6 0.924251 0.500000 0.067539
O O7 0.000000 0.299427 0.000000
O O8 0.028181 0.126941 0.616648
O O9 0.000000 0.000000 0.500000
O O10 0.250000 0.000000 0.567248
O O11 0.750000 0.275116 0.349054
O O12 0.009821 0.375458 0.386509
O O13 0.250000 0.500000 0.428028
O O14 0.500000 0.500000 0.500000
#
# Coordination Sequence:
#
# PCOD9400862 Si02
#       5
#     8   8   4   8   4
#     4  10  19  31  49  76 109 142 181 224 269 321
#     4   9  16  26  42  67 102 143 182 220 268 318
#     4  10  24  42  60  82 107 140 181 226 274 330
#     4  11  22  38  58  81 109 142 180 224 275 326
#     4  12  24  38  56  82 109 138 177 220 270 328
#
# _framework density 17.464766000000001
#
# number of rings (size 3 to 8) (size 9 to 14) (size 15 to 20)
#    0.000    1.750    1.250    4.125    0.000    8.000 
#    0.000    0.000    0.000    0.000    0.000    0.875 
#    0.000    0.000    0.000    0.000    0.000    0.000 
#
# Total GULP energy -178694.554589 kJ/mol
# GULP energy per Si atom -5584.204831 kJ/mol
# Density = 1.742502 g / cm^3
# Si number density = 17.464766 Si / 1000 Ang^3
#
#
#
# Elastic Constant Matrix: (Units=GPa)
#
#
# Indices 1 2 3 4 5 6 
#
# 1 101.3148 50.4084 68.4151 0.0000 0.0000 0.0000
# 2 50.4084 95.6762 65.2077 0.0000 0.0000 0.0000
# 3 68.4151 65.2077 180.4809 0.0000 0.0000 0.0000
# 4 0.0000 0.0000 0.0000 4.1595 0.0000 0.0000
# 5 0.0000 0.0000 0.0000 0.0000 40.4624 0.0000
# 6 0.0000 0.0000 0.0000 0.0000 0.0000 -2.4612
#
#
#
# Elastic Compliance Matrix: (Units=1/GPa)
#
#
# Indices 1 2 3 4 5 6 
#
# 1 0.015099 -0.005379 -0.003780 0.000000 0.000000 0.000000
# 2 -0.005379 0.015782 -0.003663 0.000000 0.000000 0.000000
# 3 -0.003780 -0.003663 0.008297 0.000000 0.000000 0.000000
# 4 0.000000 0.000000 0.000000 0.240413 0.000000 0.000000
# 5 0.000000 0.000000 0.000000 0.000000 0.024714 0.000000
# 6 0.000000 0.000000 0.000000 0.000000 0.000000 -0.406298
#
#
# Mechanical properties :
#
#
# Convention : Reuss Voigt Hill
#
# Bulk Modulus (GPa) = 73.88663 82.83714 78.36189
# Shear Modulus (GPa) = -69.60366 21.32817 -24.13775
#
# Velocity S-wave (km/s) = -6.31983 3.49837 -3.72167
# Velocity P-wave (km/s) = 3.29481 7.99075 5.14764
#
# Compressibility (1/GPa) = 0.01353425
#
# Stress axis : x y z
#
# Youngs Moduli (GPa) = 66.22903 63.36142 120.52116
#
# Poissons Ratio (x) = 0.34080 0.45561
# Poissons Ratio (y) = 0.35623 0.44150
# Poissons Ratio (z) = 0.25037 0.23211
#
# Static dielectric constant tensor:
#      x y z
#    x 1.582550 0.000000 0.000000 
#    y 0.000000 1.576010 0.000000 
#    z 0.000000 0.000000 1.592390 
# 
# From -- ./inp_files/26953.got.cif
#   From: 2010.05.17/outbox.cif.g08.bks.cpg/sg51_14_cif.got.tgz:26953.got - 2010.06.03 11:52:47.
