data_PCOD9400182
_publ_section_title
;
Structure prediction by ZEFSAII (Michael W. Deem and Ramdas Pophale) SiO2 
 PCOD9400182
Probable space group: P M M A
;
_chemical_formula_sum "Si O2"
_cell_formula_units_Z 64
_cell_length_a 24.854327
_cell_length_b 16.266524
_cell_length_c 9.376279
_cell_angle_alpha 90.000000
_cell_angle_beta 90.000000
_cell_angle_gamma 90.000000
_cell_volume 3790.768716
_symmetry_space_group_name_H-M "P M M A"
_symmetry_group_IT_number 51
_symmetry_cell_setting 'orthorhombic'
loop_
_space_group_symop_operation_xyz
x,y,z
1/2-x,-y,z
1/2+x,-y,-z
-x,y,-z
-x,-y,-z
1/2+x,y,-z
1/2-x,y,z
x,-y,z
loop_
_atom_site_type_symbol
_atom_site_label
_atom_site_fract_x
_atom_site_fract_y
_atom_site_fract_z
Si Si1 0.577110 0.173416 0.179465
Si Si2 0.186863 0.091196 0.257086
Si Si3 0.567759 0.693599 0.943268
Si Si4 0.966936 0.405703 0.181669
Si Si5 0.889941 0.228986 0.684852
Si Si6 0.811769 0.903249 0.085310
Si Si7 0.058409 0.695600 0.570332
Si Si8 0.483090 0.092423 0.332509
O O1 0.637859 0.141682 0.158254
O O2 0.572128 0.236956 0.310349
O O3 0.533994 0.105381 0.227862
O O4 0.560311 0.223552 0.037260
O O5 0.250000 0.092178 0.284742
O O6 0.158524 0.166388 0.333786
O O7 0.166455 0.000000 0.296397
O O8 0.179732 0.101694 0.086169
O O9 0.517374 0.655772 0.852750
O O10 0.612106 0.718198 0.828907
O O11 0.576002 0.623510 0.062649
O O12 0.982301 0.500000 0.163678
O O13 0.945696 0.387587 0.339214
O O14 0.899928 0.290765 0.555722
O O15 0.940904 0.165717 0.696650
O O16 0.750000 0.874775 0.115223
O O17 0.813871 0.000000 0.122300
O O18 0.000000 0.708623 0.500000
O O19 0.500000 0.097871 0.500000
O O20 0.461512 0.000000 0.310100
#
# Coordination Sequence:
#
# PCOD9400182 Si02
#       8
#     8   8   8   8   8   8   8   8
#     4  11  18  34  49  72 100 137 175 218 262 304
#     4   9  19  35  53  73 101 139 180 228 275 302
#     4  10  19  29  53  73  98 135 167 206 254 292
#     4  10  20  35  51  76 111 140 165 200 249 317
#     4  12  18  35  49  73 104 135 177 212 255 310
#     4   9  18  33  51  72  99 134 180 232 275 303
#     4  11  20  34  50  70 106 145 166 198 257 315
#     4  11  21  30  44  66  98 141 175 208 253 303
#
# _framework density 16.883119000000001
#
# number of rings (size 3 to 8) (size 9 to 14) (size 15 to 20)
#    0.000    1.625    5.000    3.750    0.000    0.250 
#    0.000    1.250    0.000    1.500    0.000    0.000 
#    0.000   31.000    0.000    0.000    0.000    0.000 
#
# Total GULP energy -356330.151340 kJ/mol
# GULP energy per Si atom -5567.658615 kJ/mol
# Density = 1.684469 g / cm^3
# Si number density = 16.883119 Si / 1000 Ang^3
#
#
#
# Elastic Constant Matrix: (Units=GPa)
#
#
# Indices 1 2 3 4 5 6 
#
# 1 67.2644 27.8117 17.6451 0.0000 0.0000 0.0000
# 2 27.8117 70.5925 24.7713 0.0000 0.0000 0.0000
# 3 17.6451 24.7713 79.3343 0.0000 0.0000 0.0000
# 4 0.0000 0.0000 0.0000 15.4651 0.0000 0.0000
# 5 0.0000 0.0000 0.0000 0.0000 14.0646 0.0000
# 6 0.0000 0.0000 0.0000 0.0000 0.0000 11.8710
#
#
#
# Elastic Compliance Matrix: (Units=1/GPa)
#
#
# Indices 1 2 3 4 5 6 
#
# 1 0.018042 -0.006401 -0.002014 0.000000 0.000000 0.000000
# 2 -0.006401 0.018180 -0.004253 0.000000 0.000000 0.000000
# 3 -0.002014 -0.004253 0.014381 0.000000 0.000000 0.000000
# 4 0.000000 0.000000 0.000000 0.064662 0.000000 0.000000
# 5 0.000000 0.000000 0.000000 0.000000 0.071100 0.000000
# 6 0.000000 0.000000 0.000000 0.000000 0.000000 0.084239
#
#
# Mechanical properties :
#
#
# Convention : Reuss Voigt Hill
#
# Bulk Modulus (GPa) = 39.57830 39.73861 39.65846
# Shear Modulus (GPa) = 16.42778 18.07766 17.25272
#
# Velocity S-wave (km/s) = 3.12273 3.27579 3.20017
# Velocity P-wave (km/s) = 6.04114 6.15600 6.09884
#
# Compressibility (1/GPa) = 0.02526637
#
# Stress axis : x y z
#
# Youngs Moduli (GPa) = 55.42697 55.00519 69.53747
#
# Poissons Ratio (x) = 0.35210 0.14005
# Poissons Ratio (y) = 0.35480 0.29573
# Poissons Ratio (z) = 0.11163 0.23393
#
# Static dielectric constant tensor:
#      x y z
#    x 1.577600 0.000000 0.000000 
#    y 0.000000 1.579550 0.000000 
#    z 0.000000 0.000000 1.618480 
# 
# From -- ./inp_files/11960.got.cif
#   From: 2010.05.17/outbox.cif.g08.bks.cpg/sg51_6_cif.got.tgz:11960.got - 2010.06.03 11:52:47.
