data_PCOD9400578
_publ_section_title
;
Structure prediction by ZEFSAII (Michael W. Deem and Ramdas Pophale) SiO2 
 PCOD9400578
Probable space group: P M M A
;
_chemical_formula_sum "Si O2"
_cell_formula_units_Z 64
_cell_length_a 7.662106
_cell_length_b 20.616067
_cell_length_c 20.959423
_cell_angle_alpha 90.000000
_cell_angle_beta 90.000000
_cell_angle_gamma 90.000000
_cell_volume 3310.802660
_symmetry_space_group_name_H-M "P M M A"
_symmetry_group_IT_number 51
_symmetry_cell_setting 'orthorhombic'
loop_
_space_group_symop_operation_xyz
x,y,z
1/2-x,-y,z
1/2+x,-y,-z
-x,y,-z
-x,-y,-z
1/2+x,y,-z
1/2-x,y,z
x,-y,z
loop_
_atom_site_type_symbol
_atom_site_label
_atom_site_fract_x
_atom_site_fract_y
_atom_site_fract_z
Si Si1 0.463295 0.928069 0.207698
Si Si2 0.457921 0.390003 0.930693
Si Si3 0.961909 0.711037 0.757504
Si Si4 0.045036 0.569896 0.209397
Si Si5 0.540264 0.927007 0.574184
Si Si6 0.463399 0.830414 0.317672
Si Si7 0.544425 0.752708 0.100161
Si Si8 0.554467 0.104981 0.929696
O O1 0.250000 0.923481 0.206461
O O2 0.519621 0.874067 0.257455
O O3 0.533585 0.917869 0.135971
O O4 0.507714 0.000000 0.230154
O O5 0.250000 0.389206 0.922823
O O6 0.531022 0.423244 0.867441
O O7 0.521921 0.315193 0.928497
O O8 0.500000 0.418110 0.000000
O O9 0.750000 0.709184 0.758344
O O10 0.027230 0.636808 0.761186
O O11 0.017810 0.757020 0.699191
O O12 0.016798 0.744632 0.824027
O O13 0.250000 0.568726 0.225400
O O14 0.968386 0.500000 0.227911
O O15 0.500000 0.915709 0.500000
O O16 0.750000 0.928982 0.581312
O O17 0.476408 0.869246 0.619822
O O18 0.475716 0.000000 0.590823
O O19 0.250000 0.829535 0.319345
O O20 0.750000 0.759275 0.086625
O O21 0.453770 0.816848 0.074497
O O22 0.750000 0.081409 0.923918
O O23 0.500000 0.084699 0.000000
#
# Coordination Sequence:
#
# PCOD9400578 Si02
#       8
#     8   8   8   8   8   8   8   8
#     4   9  17  29  46  67  87 110 147 190 229 271
#     4  10  20  31  44  62  82 109 144 183 226 278
#     4   9  16  29  49  70  90 114 149 188 224 267
#     4   9  18  31  46  64  88 115 140 176 229 281
#     4   9  17  29  47  72 103 135 163 189 221 265
#     4   9  15  27  49  74  93 119 157 193 223 259
#     4  10  19  31  46  65  87 111 143 185 235 284
#     4  11  21  32  46  63  83 111 147 190 241 287
#
# _framework density 19.330660999999999
#
# number of rings (size 3 to 8) (size 9 to 14) (size 15 to 20)
#    0.000    2.500    1.250    1.875    0.000    4.750 
#    0.000    0.625    0.000    1.125    0.000    0.000 
#    0.000    0.500    0.000    0.375    0.000    0.750 
#
# Total GULP energy -356994.522405 kJ/mol
# GULP energy per Si atom -5578.039413 kJ/mol
# Density = 1.928666 g / cm^3
# Si number density = 19.330661 Si / 1000 Ang^3
#
#
#
# Elastic Constant Matrix: (Units=GPa)
#
#
# Indices 1 2 3 4 5 6 
#
# 1 36.7248 2.0488 -1.6383 0.0000 0.0000 0.0000
# 2 2.0488 140.4379 60.5201 0.0000 0.0000 0.0000
# 3 -1.6383 60.5201 90.4028 0.0000 0.0000 0.0000
# 4 0.0000 0.0000 0.0000 160.0243 0.0000 0.0000
# 5 0.0000 0.0000 0.0000 0.0000 14.8356 0.0000
# 6 0.0000 0.0000 0.0000 0.0000 0.0000 3.8383
#
#
#
# Elastic Compliance Matrix: (Units=1/GPa)
#
#
# Indices 1 2 3 4 5 6 
#
# 1 0.027325 -0.000860 0.001071 0.000000 0.000000 0.000000
# 2 -0.000860 0.010035 -0.006733 0.000000 0.000000 0.000000
# 3 0.001071 -0.006733 0.015589 0.000000 0.000000 0.000000
# 4 0.000000 0.000000 0.000000 0.006249 0.000000 0.000000
# 5 0.000000 0.000000 0.000000 0.000000 0.067405 0.000000
# 6 0.000000 0.000000 0.000000 0.000000 0.000000 0.260531
#
#
# Mechanical properties :
#
#
# Convention : Reuss Voigt Hill
#
# Bulk Modulus (GPa) = 25.06027 43.26961 34.16494
# Shear Modulus (GPa) = 12.09248 49.51532 30.80390
#
# Velocity S-wave (km/s) = 2.50383 5.06661 3.99623
# Velocity P-wave (km/s) = 4.62072 7.52728 6.24544
#
# Compressibility (1/GPa) = 0.03990380
#
# Stress axis : x y z
#
# Youngs Moduli (GPa) = 36.59605 99.65314 64.14914
#
# Poissons Ratio (x) = 0.08572 -0.06871
# Poissons Ratio (y) = 0.03148 0.43194
# Poissons Ratio (z) = -0.03920 0.67100
#
# Static dielectric constant tensor:
#      x y z
#    x 1.730750 0.000000 0.000000 
#    y 0.000000 1.725020 0.000000 
#    z 0.000000 0.000000 1.668120 
# 
# From -- ./inp_files/32549.got.cif
#   From: 2010.05.17/outbox.cif.g08.bks.cpg/sg51_17_cif.got.tgz:32549.got - 2010.06.03 11:52:47.
