data_PCOD9400098
_publ_section_title
;
Structure prediction by ZEFSAII (Michael W. Deem and Ramdas Pophale) SiO2 
 PCOD9400098
Probable space group: P M M A
;
_chemical_formula_sum "Si O2"
_cell_formula_units_Z 56
_cell_length_a 9.057442
_cell_length_b 21.540052
_cell_length_c 18.736943
_cell_angle_alpha 90.000000
_cell_angle_beta 90.000000
_cell_angle_gamma 90.000000
_cell_volume 3655.535827
_symmetry_space_group_name_H-M "P M M A"
_symmetry_group_IT_number 51
_symmetry_cell_setting 'orthorhombic'
loop_
_space_group_symop_operation_xyz
x,y,z
1/2-x,-y,z
1/2+x,-y,-z
-x,y,-z
-x,-y,-z
1/2+x,y,-z
1/2-x,y,z
x,-y,z
loop_
_atom_site_type_symbol
_atom_site_label
_atom_site_fract_x
_atom_site_fract_y
_atom_site_fract_z
Si Si1 0.424000 0.823481 0.333192
Si Si2 0.918548 0.758682 0.209762
Si Si3 0.425033 0.428369 0.167005
Si Si4 0.926014 0.302935 0.577326
Si Si5 0.580038 0.371131 0.297886
Si Si6 0.428047 0.680696 0.923052
Si Si7 0.425589 0.927496 0.576022
O O1 0.250000 0.835255 0.333437
O O2 0.479249 0.804270 0.254695
O O3 0.452250 0.763776 0.384447
O O4 0.510110 0.881689 0.365041
O O5 0.750000 0.781898 0.208515
O O6 0.917617 0.693838 0.253831
O O7 0.964430 0.737513 0.130755
O O8 0.250000 0.414548 0.167734
O O9 0.445848 0.500000 0.146283
O O10 0.492097 0.416919 0.245758
O O11 0.506989 0.381372 0.113678
O O12 0.750000 0.311656 0.572448
O O13 0.000000 0.303315 0.500000
O O14 0.998466 0.354607 0.628732
O O15 0.750000 0.390319 0.308616
O O16 0.250000 0.676146 0.926677
O O17 0.500000 0.688749 0.000000
O O18 0.500000 0.912432 0.500000
O O19 0.250000 0.919758 0.569926
O O20 0.456990 0.000000 0.591445
#
# Coordination Sequence:
#
# PCOD9400098 Si02
#       7
#     8   8   8   8   8   8   8
#     4  10  19  29  45  67  90 119 153 190 227 265
#     4   8  16  30  46  65  89 117 148 182 221 265
#     4  10  20  33  49  68  90 118 151 184 218 262
#     4  10  19  29  43  65  90 115 146 185 230 275
#     4   9  17  30  47  65  86 113 145 183 226 269
#     4  10  20  33  50  71  96 124 150 181 222 266
#     4  10  20  32  45  62  89 126 163 198 234 270
#
# _framework density 15.319232
#
# number of rings (size 3 to 8) (size 9 to 14) (size 15 to 20)
#    0.000    2.429    0.000    3.857    0.000    9.143 
#    0.000    0.000    0.000    0.429    0.000    0.000 
#    0.000    0.571    0.000    1.857    0.000    2.286 
#
# Total GULP energy -312235.983150 kJ/mol
# GULP energy per Si atom -5575.642556 kJ/mol
# Density = 1.528436 g / cm^3
# Si number density = 15.319232 Si / 1000 Ang^3
#
#
#
# Elastic Constant Matrix: (Units=GPa)
#
#
# Indices 1 2 3 4 5 6 
#
# 1 79.4096 39.9838 66.9405 0.0000 0.0000 0.0000
# 2 39.9838 49.3786 44.0544 0.0000 0.0000 0.0000
# 3 66.9405 44.0544 129.2271 0.0000 0.0000 0.0000
# 4 0.0000 0.0000 0.0000 16.9679 0.0000 0.0000
# 5 0.0000 0.0000 0.0000 0.0000 29.4393 0.0000
# 6 0.0000 0.0000 0.0000 0.0000 0.0000 21.9994
#
#
#
# Elastic Compliance Matrix: (Units=1/GPa)
#
#
# Indices 1 2 3 4 5 6 
#
# 1 0.027654 -0.013814 -0.009616 0.000000 0.000000 0.000000
# 2 -0.013814 0.036004 -0.005118 0.000000 0.000000 0.000000
# 3 -0.009616 -0.005118 0.014464 0.000000 0.000000 0.000000
# 4 0.000000 0.000000 0.000000 0.058935 0.000000 0.000000
# 5 0.000000 0.000000 0.000000 0.000000 0.033968 0.000000
# 6 0.000000 0.000000 0.000000 0.000000 0.000000 0.045456
#
#
# Mechanical properties :
#
#
# Convention : Reuss Voigt Hill
#
# Bulk Modulus (GPa) = 47.55935 62.21920 54.88927
# Shear Modulus (GPa) = 17.81987 20.81709 19.31848
#
# Velocity S-wave (km/s) = 3.41432 3.69031 3.55499
# Velocity P-wave (km/s) = 6.83055 7.67210 7.26352
#
# Compressibility (1/GPa) = 0.02102636
#
# Stress axis : x y z
#
# Youngs Moduli (GPa) = 36.16064 27.77501 69.13575
#
# Poissons Ratio (x) = 0.38368 0.66481
# Poissons Ratio (y) = 0.49951 0.35386
# Poissons Ratio (z) = 0.34772 0.14216
#
# Static dielectric constant tensor:
#      x y z
#    x 1.513420 0.000000 0.000000 
#    y 0.000000 1.493730 0.000000 
#    z 0.000000 0.000000 1.503560 
# 
# From -- ./inp_files/28215.got.cif
#   From: 2010.05.17/outbox.cif.g08.bks.cpg/sg51_15_cif.got.tgz:28215.got - 2010.06.03 11:52:47.
