data_PCOD9400739
_publ_section_title
;
Structure prediction by ZEFSAII (Michael W. Deem and Ramdas Pophale) SiO2 
 PCOD9400739
Probable space group: P M M A
;
_chemical_formula_sum "Si O2"
_cell_formula_units_Z 64
_cell_length_a 8.736304
_cell_length_b 15.463073
_cell_length_c 25.649943
_cell_angle_alpha 90.000000
_cell_angle_beta 90.000000
_cell_angle_gamma 90.000000
_cell_volume 3465.053532
_symmetry_space_group_name_H-M "P M M A"
_symmetry_group_IT_number 51
_symmetry_cell_setting 'orthorhombic'
loop_
_space_group_symop_operation_xyz
x,y,z
1/2-x,-y,z
1/2+x,-y,-z
-x,y,-z
-x,-y,-z
1/2+x,y,-z
1/2-x,y,z
x,-y,z
loop_
_atom_site_type_symbol
_atom_site_label
_atom_site_fract_x
_atom_site_fract_y
_atom_site_fract_z
Si Si1 0.933590 0.598368 0.557964
Si Si2 0.933281 0.593834 0.265853
Si Si3 0.427043 0.664098 0.165171
Si Si4 0.067888 0.094694 0.912905
Si Si5 0.933257 0.723528 0.945762
Si Si6 0.427389 0.134716 0.196170
Si Si7 0.065411 0.096734 0.690617
Si Si8 0.435306 0.723520 0.644865
O O1 0.750000 0.602653 0.556412
O O2 0.977339 0.500000 0.574991
O O3 0.000000 0.609960 0.500000
O O4 0.997545 0.671397 0.596311
O O5 0.750000 0.594542 0.268259
O O6 0.989233 0.500000 0.284278
O O7 0.986440 0.670279 0.303668
O O8 0.982135 0.608196 0.206530
O O9 0.250000 0.636227 0.164149
O O10 0.485098 0.671656 0.105868
O O11 0.432153 0.762038 0.187324
O O12 0.250000 0.104402 0.919177
O O13 0.985450 0.176964 0.938011
O O14 0.024686 0.097395 0.851662
O O15 0.021379 0.000000 0.933275
O O16 0.750000 0.721717 0.946383
O O17 0.000000 0.690851 0.000000
O O18 0.250000 0.107771 0.191591
O O19 0.493293 0.110564 0.252284
O O20 0.250000 0.101368 0.696205
O O21 0.019049 0.176657 0.653653
O O22 0.025882 0.000000 0.672005
O O23 0.250000 0.720531 0.641590
#
# Coordination Sequence:
#
# PCOD9400739 Si02
#       8
#     8   8   8   8   8   8   8   8
#     4  10  21  37  59  87 117 151 190 231 277 331
#     4  10  20  33  53  82 111 142 178 213 263 328
#     4   9  19  34  51  73 102 134 170 211 261 321
#     4  10  20  32  47  68  95 129 169 214 265 321
#     4  10  21  36  53  73  94 125 169 215 266 324
#     4  10  19  31  48  71 101 137 178 222 268 318
#     4  10  20  33  51  76 107 148 194 232 271 321
#     4  10  20  35  55  81 117 154 187 230 275 320
#
# _framework density 18.470134000000002
#
# number of rings (size 3 to 8) (size 9 to 14) (size 15 to 20)
#    0.000    2.125    1.250    3.000    0.000    8.000 
#    0.000    0.000    0.000    0.750    0.000    0.000 
#    0.000    0.000    0.000    0.000    0.000    0.000 
#
# Total GULP energy -357124.215612 kJ/mol
# GULP energy per Si atom -5580.065869 kJ/mol
# Density = 1.842810 g / cm^3
# Si number density = 18.470134 Si / 1000 Ang^3
#
#
#
# Elastic Constant Matrix: (Units=GPa)
#
#
# Indices 1 2 3 4 5 6 
#
# 1 21.3405 23.0551 18.8214 0.0000 0.0000 0.0000
# 2 23.0551 97.1511 55.0214 0.0000 0.0000 0.0000
# 3 18.8214 55.0214 108.0803 0.0000 0.0000 0.0000
# 4 0.0000 0.0000 0.0000 5.5735 0.0000 0.0000
# 5 0.0000 0.0000 0.0000 0.0000 30.7691 0.0000
# 6 0.0000 0.0000 0.0000 0.0000 0.0000 14.2761
#
#
#
# Elastic Compliance Matrix: (Units=1/GPa)
#
#
# Indices 1 2 3 4 5 6 
#
# 1 0.064778 -0.012623 -0.004854 0.000000 0.000000 0.000000
# 2 -0.012623 0.016923 -0.006417 0.000000 0.000000 0.000000
# 3 -0.004854 -0.006417 0.013364 0.000000 0.000000 0.000000
# 4 0.000000 0.000000 0.000000 0.179420 0.000000 0.000000
# 5 0.000000 0.000000 0.000000 0.000000 0.032500 0.000000
# 6 0.000000 0.000000 0.000000 0.000000 0.000000 0.070047
#
#
# Mechanical properties :
#
#
# Convention : Reuss Voigt Hill
#
# Bulk Modulus (GPa) = 21.15217 46.70755 33.92986
# Shear Modulus (GPa) = 11.34864 18.76867 15.05866
#
# Velocity S-wave (km/s) = 2.48146 3.19119 2.85844
# Velocity P-wave (km/s) = 4.43702 6.23869 5.41334
#
# Compressibility (1/GPa) = 0.04727647
#
# Stress axis : x y z
#
# Youngs Moduli (GPa) = 15.43727 59.09064 74.82525
#
# Poissons Ratio (x) = 0.74592 0.36323
# Poissons Ratio (y) = 0.19487 0.48015
# Poissons Ratio (z) = 0.07494 0.37918
#
# Static dielectric constant tensor:
#      x y z
#    x 1.620250 0.000000 0.000000 
#    y 0.000000 1.666610 0.000000 
#    z 0.000000 0.000000 1.619830 
# 
# From -- ./inp_files/34948.got.cif
#   From: 2010.05.17/outbox.cif.g08.bks.cpg/sg51_18_cif.got.tgz:34948.got - 2010.06.03 11:52:47.
