data_PCOD9400685
_publ_section_title
;
Structure prediction by ZEFSAII (Michael W. Deem and Ramdas Pophale) SiO2 
 PCOD9400685
Probable space group: P M M A
;
_chemical_formula_sum "Si O2"
_cell_formula_units_Z 64
_cell_length_a 14.912184
_cell_length_b 7.715241
_cell_length_c 25.785937
_cell_angle_alpha 90.000000
_cell_angle_beta 90.000000
_cell_angle_gamma 90.000000
_cell_volume 2966.700246
_symmetry_space_group_name_H-M "P M M A"
_symmetry_group_IT_number 51
_symmetry_cell_setting 'orthorhombic'
loop_
_space_group_symop_operation_xyz
x,y,z
1/2-x,-y,z
1/2+x,-y,-z
-x,y,-z
-x,-y,-z
1/2+x,y,-z
1/2-x,y,z
x,-y,z
loop_
_atom_site_type_symbol
_atom_site_label
_atom_site_fract_x
_atom_site_fract_y
_atom_site_fract_z
Si Si1 0.648959 0.802078 0.713690
Si Si2 0.959249 0.790596 0.275942
Si Si3 0.033275 0.288673 0.922164
Si Si4 0.103190 0.205836 0.510059
Si Si5 0.645921 0.314843 0.603878
Si Si6 0.353709 0.288799 0.024395
Si Si7 0.351635 0.708328 0.825691
Si Si8 0.648634 0.211758 0.374929
O O1 0.750000 0.727246 0.720948
O O2 0.559038 0.720529 0.737269
O O3 0.621181 0.804905 0.652121
O O4 0.655496 0.000000 0.731359
O O5 0.889618 0.749072 0.230856
O O6 0.919971 0.728151 0.331083
O O7 0.966126 0.000000 0.279131
O O8 0.030724 0.500000 0.921806
O O9 0.078632 0.227402 0.869140
O O10 0.930906 0.233025 0.934517
O O11 0.100565 0.241106 0.969306
O O12 0.144040 0.261305 0.455689
O O13 0.131792 0.275156 0.566122
O O14 0.000000 0.244430 0.500000
O O15 0.116651 0.000000 0.513003
O O16 0.750000 0.334657 0.614271
O O17 0.598840 0.500000 0.609337
O O18 0.250000 0.229491 0.030200
O O19 0.350496 0.500000 0.025808
O O20 0.250000 0.773773 0.832808
O O21 0.348087 0.500000 0.831102
O O22 0.750000 0.256636 0.360023
O O23 0.642676 0.000000 0.376608
#
# Coordination Sequence:
#
# PCOD9400685 Si02
#       8
#     8   8   8   8   8   8   8   8
#     4   9  18  34  55  74  92 120 160 203 245 291
#     4  10  20  35  54  73  93 121 163 211 250 287
#     4   8  14  24  39  63  96 131 165 202 245 292
#     4  10  19  31  48  68  90 119 156 194 234 286
#     4  10  20  32  47  70  98 124 150 184 232 292
#     4   8  12  20  38  64  94 129 168 207 244 283
#     4  10  20  33  49  71 101 134 165 200 247 299
#     4   9  17  29  46  67  89 115 150 194 240 281
#
# _framework density 21.572789
#
# number of rings (size 3 to 8) (size 9 to 14) (size 15 to 20)
#    0.000    2.750    0.000    3.000    0.000    6.250 
#    0.000    1.250    0.000    3.000    0.000    1.750 
#    0.000    1.000    0.000    0.000    0.000    0.000 
#
# Total GULP energy -356370.132322 kJ/mol
# GULP energy per Si atom -5568.283318 kJ/mol
# Density = 2.152369 g / cm^3
# Si number density = 21.572789 Si / 1000 Ang^3
#
#
#
# Elastic Constant Matrix: (Units=GPa)
#
#
# Indices 1 2 3 4 5 6 
#
# 1 176.6104 -4.2016 29.2208 0.0000 0.0000 0.0000
# 2 -4.2016 38.1865 -6.0107 0.0000 0.0000 0.0000
# 3 29.2208 -6.0107 41.7889 0.0000 0.0000 0.0000
# 4 0.0000 0.0000 0.0000 -3.0871 0.0000 0.0000
# 5 0.0000 0.0000 0.0000 0.0000 34.5714 0.0000
# 6 0.0000 0.0000 0.0000 0.0000 0.0000 5.1706
#
#
#
# Elastic Compliance Matrix: (Units=1/GPa)
#
#
# Indices 1 2 3 4 5 6 
#
# 1 0.006403 0.000000 -0.004477 0.000000 0.000000 0.000000
# 2 0.000000 0.026794 0.003854 0.000000 0.000000 0.000000
# 3 -0.004477 0.003854 0.027615 0.000000 0.000000 0.000000
# 4 0.000000 0.000000 0.000000 -0.323930 0.000000 0.000000
# 5 0.000000 0.000000 0.000000 0.000000 0.028926 0.000000
# 6 0.000000 0.000000 0.000000 0.000000 0.000000 0.193402
#
#
# Mechanical properties :
#
#
# Convention : Reuss Voigt Hill
#
# Bulk Modulus (GPa) = 16.78845 32.73366 24.76105
# Shear Modulus (GPa) = -253.94689 23.16946 -115.38871
#
# Velocity S-wave (km/s) = -10.86148 3.28077 -7.32149
# Velocity P-wave (km/s) = 12.22688 5.43671 7.74399
#
# Compressibility (1/GPa) = 0.05956477
#
# Stress axis : x y z
#
# Youngs Moduli (GPa) = 156.17780 37.32197 36.21233
#
# Poissons Ratio (x) = 0.00001 0.16213
# Poissons Ratio (y) = 0.00004 -0.13956
# Poissons Ratio (z) = 0.69925 -0.14384
#
# Static dielectric constant tensor:
#      x y z
#    x 1.807630 0.000000 0.000000 
#    y 0.000000 1.940550 0.000000 
#    z 0.000000 0.000000 1.822810 
# 
# From -- ./inp_files/35764.got.cif
#   From: 2010.05.17/outbox.cif.g08.bks.cpg/sg51_18_cif.got.tgz:35764.got - 2010.06.03 11:52:47.
