data_PCOD9400230
_publ_section_title
;
Structure prediction by ZEFSAII (Michael W. Deem and Ramdas Pophale) SiO2 
 PCOD9400230
Probable space group: P M M A
;
_chemical_formula_sum "Si O2"
_cell_formula_units_Z 64
_cell_length_a 8.852710
_cell_length_b 15.845785
_cell_length_c 30.956615
_cell_angle_alpha 90.000000
_cell_angle_beta 90.000000
_cell_angle_gamma 90.000000
_cell_volume 4342.536352
_symmetry_space_group_name_H-M "P M M A"
_symmetry_group_IT_number 51
_symmetry_cell_setting 'orthorhombic'
loop_
_space_group_symop_operation_xyz
x,y,z
1/2-x,-y,z
1/2+x,-y,-z
-x,y,-z
-x,-y,-z
1/2+x,y,-z
1/2-x,y,z
x,-y,z
loop_
_atom_site_type_symbol
_atom_site_label
_atom_site_fract_x
_atom_site_fract_y
_atom_site_fract_z
Si Si1 0.568422 0.776200 0.048141
Si Si2 0.929678 0.900177 0.388353
Si Si3 0.068119 0.590340 0.951868
Si Si4 0.069606 0.234763 0.451908
Si Si5 0.424196 0.102660 0.791416
Si Si6 0.069699 0.900613 0.117685
Si Si7 0.568799 0.592840 0.451664
Si Si8 0.423192 0.897509 0.297521
O O1 0.750000 0.781836 0.045468
O O2 0.525911 0.682336 0.065934
O O3 0.504750 0.846419 0.079987
O O4 0.500000 0.784654 0.000000
O O5 0.750000 0.889094 0.392823
O O6 0.015822 0.842718 0.422683
O O7 0.982187 0.875656 0.340078
O O8 0.963660 0.000000 0.394230
O O9 0.250000 0.590285 0.954802
O O10 0.022747 0.500000 0.931285
O O11 0.000000 0.589680 0.000000
O O12 0.250000 0.238806 0.454871
O O13 0.000000 0.225731 0.500000
O O14 0.005123 0.322923 0.432552
O O15 0.250000 0.129278 0.792509
O O16 0.508194 0.126949 0.835414
O O17 0.504290 0.131893 0.747458
O O18 0.426476 0.000000 0.790305
O O19 0.250000 0.892050 0.116531
O O20 0.032716 0.000000 0.112408
O O21 0.500000 0.589867 0.500000
O O22 0.750000 0.602728 0.454028
O O23 0.536937 0.500000 0.431992
O O24 0.250000 0.869507 0.301720
O O25 0.422234 0.000000 0.295800
#
# Coordination Sequence:
#
# PCOD9400230 Si02
#       8
#     8   8   8   8   8   8   8   8
#     4  10  19  30  44  61  83 112 144 177 211 249
#     4  10  20  33  47  63  86 117 152 187 220 256
#     4   8  14  25  41  60  80 102 130 166 209 253
#     4  11  21  32  46  63  87 118 151 186 221 260
#     4   9  16  27  44  64  84 107 137 174 216 258
#     4  10  20  32  44  59  82 113 147 181 214 248
#     4   9  16  27  44  64  85 109 139 177 220 263
#     4   9  16  27  44  65  87 110 138 174 217 261
#
# _framework density 14.737931
#
# number of rings (size 3 to 8) (size 9 to 14) (size 15 to 20)
#    0.000    2.500    0.000    4.125    0.000    6.250 
#    0.000    0.000    0.000    0.000    0.000    0.000 
#    0.000    1.000    0.000    6.000    0.000    4.875 
#
# Total GULP energy -356336.936518 kJ/mol
# GULP energy per Si atom -5567.764633 kJ/mol
# Density = 1.470439 g / cm^3
# Si number density = 14.737931 Si / 1000 Ang^3
#
#
#
# Elastic Constant Matrix: (Units=GPa)
#
#
# Indices 1 2 3 4 5 6 
#
# 1 84.7589 49.3704 39.5159 0.0000 0.0000 0.0000
# 2 49.3704 80.4702 48.8824 0.0000 0.0000 0.0000
# 3 39.5159 48.8824 76.7223 0.0000 0.0000 0.0000
# 4 0.0000 0.0000 0.0000 -1.2353 0.0000 0.0000
# 5 0.0000 0.0000 0.0000 0.0000 25.8035 0.0000
# 6 0.0000 0.0000 0.0000 0.0000 0.0000 17.5449
#
#
#
# Elastic Compliance Matrix: (Units=1/GPa)
#
#
# Indices 1 2 3 4 5 6 
#
# 1 0.019033 -0.009336 -0.003855 0.000000 0.000000 0.000000
# 2 -0.009336 0.024852 -0.011026 0.000000 0.000000 0.000000
# 3 -0.003855 -0.011026 0.022045 0.000000 0.000000 0.000000
# 4 0.000000 0.000000 0.000000 -0.809543 0.000000 0.000000
# 5 0.000000 0.000000 0.000000 0.000000 0.038754 0.000000
# 6 0.000000 0.000000 0.000000 0.000000 0.000000 0.056996
#
#
# Mechanical properties :
#
#
# Convention : Reuss Voigt Hill
#
# Bulk Modulus (GPa) = 57.15280 57.49876 57.32578
# Shear Modulus (GPa) = -8.42323 15.36816 3.47246
#
# Velocity S-wave (km/s) = -2.39327 3.23269 1.53664
# Velocity P-wave (km/s) = 5.58807 7.28234 6.49073
#
# Compressibility (1/GPa) = 0.01749695
#
# Stress axis : x y z
#
# Youngs Moduli (GPa) = 52.53961 40.23761 45.36252
#
# Poissons Ratio (x) = 0.37564 0.17488
# Poissons Ratio (y) = 0.49049 0.50017
# Poissons Ratio (z) = 0.20255 0.44366
#
# Static dielectric constant tensor:
#      x y z
#    x 1.492360 0.000000 0.000000 
#    y 0.000000 1.518480 0.000000 
#    z 0.000000 0.000000 1.464020 
# 
# From -- ./inp_files/37637.got.cif
#   From: 2010.05.17/outbox.cif.g08.bks.cpg/sg51_19_cif.got.tgz:37637.got - 2010.06.03 11:52:47.
