data_PCOD9400248
_publ_section_title
;
Structure prediction by ZEFSAII (Michael W. Deem and Ramdas Pophale) SiO2 
 PCOD9400248
Probable space group: P M M A
;
_chemical_formula_sum "Si O2"
_cell_formula_units_Z 56
_cell_length_a 18.792301
_cell_length_b 9.213527
_cell_length_c 20.823764
_cell_angle_alpha 90.000000
_cell_angle_beta 90.000000
_cell_angle_gamma 90.000000
_cell_volume 3605.496730
_symmetry_space_group_name_H-M "P M M A"
_symmetry_group_IT_number 51
_symmetry_cell_setting 'orthorhombic'
loop_
_space_group_symop_operation_xyz
x,y,z
1/2-x,-y,z
1/2+x,-y,-z
-x,y,-z
-x,-y,-z
1/2+x,y,-z
1/2-x,y,z
x,-y,z
loop_
_atom_site_type_symbol
_atom_site_label
_atom_site_fract_x
_atom_site_fract_y
_atom_site_fract_z
Si Si1 0.168675 0.174634 0.010328
Si Si2 0.470956 0.833482 0.073579
Si Si3 0.542727 0.667023 0.567834
Si Si4 0.332922 0.173365 0.498407
Si Si5 0.394562 0.672797 0.885277
Si Si6 0.584089 0.827092 0.368859
Si Si7 0.333159 0.673598 0.744933
O O1 0.250000 0.207688 0.026940
O O2 0.147188 0.251625 0.943897
O O3 0.161771 0.000000 0.001451
O O4 0.110563 0.214826 0.064436
O O5 0.524971 0.733527 0.112313
O O6 0.474102 0.000000 0.096685
O O7 0.500000 0.833370 0.000000
O O8 0.500000 0.668430 0.500000
O O9 0.551298 0.500000 0.587584
O O10 0.617427 0.743169 0.552083
O O11 0.491998 0.754992 0.615813
O O12 0.250000 0.213717 0.495518
O O13 0.365085 0.202670 0.569357
O O14 0.339099 0.000000 0.488050
O O15 0.394281 0.500000 0.894866
O O16 0.358274 0.705845 0.817328
O O17 0.620225 0.758340 0.306690
O O18 0.577038 0.000000 0.363033
O O19 0.250000 0.710264 0.737572
O O20 0.340974 0.500000 0.735095
#
# Coordination Sequence:
#
# PCOD9400248 Si02
#       7
#     8   8   8   8   8   8   8
#     4   9  17  29  45  65  89 116 145 180 222 264
#     4   8  15  28  44  62  85 113 145 180 219 263
#     4   9  17  29  45  65  89 118 150 182 221 268
#     4   9  17  29  45  67  94 119 145 183 226 263
#     4  10  19  30  44  63  89 120 151 182 218 260
#     4  10  19  31  47  66  89 119 154 187 220 260
#     4  10  21  34  45  61  89 122 152 183 219 258
#
# _framework density 15.531841
#
# number of rings (size 3 to 8) (size 9 to 14) (size 15 to 20)
#    0.000    2.714    0.000    3.000    0.000    8.000 
#    0.000    0.000    0.000    0.000    0.000    1.000 
#    0.000    3.429    0.000    0.000    0.000    0.000 
#
# Total GULP energy -312067.821329 kJ/mol
# GULP energy per Si atom -5572.639667 kJ/mol
# Density = 1.549649 g / cm^3
# Si number density = 15.531841 Si / 1000 Ang^3
#
#
#
# Elastic Constant Matrix: (Units=GPa)
#
#
# Indices 1 2 3 4 5 6 
#
# 1 90.8099 21.7546 -0.2249 0.0000 0.0000 0.0000
# 2 21.7546 31.4579 10.5711 0.0000 0.0000 0.0000
# 3 -0.2249 10.5711 14.5936 0.0000 0.0000 0.0000
# 4 0.0000 0.0000 0.0000 22.5933 0.0000 0.0000
# 5 0.0000 0.0000 0.0000 0.0000 24.6242 0.0000
# 6 0.0000 0.0000 0.0000 0.0000 0.0000 23.6746
#
#
#
# Elastic Compliance Matrix: (Units=1/GPa)
#
#
# Indices 1 2 3 4 5 6 
#
# 1 0.014160 -0.013039 0.009664 0.000000 0.000000 0.000000
# 2 -0.013039 0.054024 -0.039334 0.000000 0.000000 0.000000
# 3 0.009664 -0.039334 0.097164 0.000000 0.000000 0.000000
# 4 0.000000 0.000000 0.000000 0.044261 0.000000 0.000000
# 5 0.000000 0.000000 0.000000 0.000000 0.040611 0.000000
# 6 0.000000 0.000000 0.000000 0.000000 0.000000 0.042239
#
#
# Mechanical properties :
#
#
# Convention : Reuss Voigt Hill
#
# Bulk Modulus (GPa) = 12.51127 22.34035 17.42581
# Shear Modulus (GPa) = 12.36032 21.16246 16.76139
#
# Velocity S-wave (km/s) = 2.82406 3.69524 3.28863
# Velocity P-wave (km/s) = 4.32510 5.71150 5.06595
#
# Compressibility (1/GPa) = 0.07992794
#
# Stress axis : x y z
#
# Youngs Moduli (GPa) = 70.62291 18.51043 10.29187
#
# Poissons Ratio (x) = 0.24137 -0.09946
# Poissons Ratio (y) = 0.92088 0.40482
# Poissons Ratio (z) = -0.68247 0.72809
#
# Static dielectric constant tensor:
#      x y z
#    x 1.535720 0.000000 0.000000 
#    y 0.000000 1.519640 0.000000 
#    z 0.000000 0.000000 1.486410 
# 
# From -- ./inp_files/33680.got.cif
#   From: 2010.05.17/outbox.cif.g08.bks.cpg/sg51_17_cif.got.tgz:33680.got - 2010.06.03 11:52:47.
