data_PCOD9400627
_publ_section_title
;
Structure prediction by ZEFSAII (Michael W. Deem and Ramdas Pophale) SiO2 
 PCOD9400627
Probable space group: P M M A
;
_chemical_formula_sum "Si O2"
_cell_formula_units_Z 64
_cell_length_a 21.008264
_cell_length_b 7.447679
_cell_length_c 21.853639
_cell_angle_alpha 90.000000
_cell_angle_beta 90.000000
_cell_angle_gamma 90.000000
_cell_volume 3419.281693
_symmetry_space_group_name_H-M "P M M A"
_symmetry_group_IT_number 51
_symmetry_cell_setting 'orthorhombic'
loop_
_space_group_symop_operation_xyz
x,y,z
1/2-x,-y,z
1/2+x,-y,-z
-x,y,-z
-x,-y,-z
1/2+x,y,-z
1/2-x,y,z
x,-y,z
loop_
_atom_site_type_symbol
_atom_site_label
_atom_site_fract_x
_atom_site_fract_y
_atom_site_fract_z
Si Si1 0.818334 0.794865 0.076409
Si Si2 0.659557 0.293103 0.211884
Si Si3 0.984414 0.791186 0.676977
Si Si4 0.511727 0.218185 0.193823
Si Si5 0.320678 0.716776 0.525732
Si Si6 0.962213 0.219592 0.060195
Si Si7 0.633649 0.281527 0.340996
Si Si8 0.552727 0.211728 0.547492
O O1 0.750000 0.713702 0.056945
O O2 0.817333 0.798695 0.150433
O O3 0.888182 0.717670 0.060542
O O4 0.818922 0.000000 0.053901
O O5 0.679357 0.500000 0.208429
O O6 0.583364 0.281271 0.206667
O O7 0.671502 0.222602 0.280145
O O8 0.973652 0.718150 0.745916
O O9 0.060367 0.779954 0.663708
O O10 0.952708 0.711650 0.616071
O O11 0.965660 0.000000 0.680495
O O12 0.501981 0.272876 0.123285
O O13 0.511057 0.000000 0.195017
O O14 0.250000 0.777846 0.508051
O O15 0.320263 0.500000 0.526911
O O16 0.337025 0.776304 0.594836
O O17 0.377909 0.770820 0.481597
O O18 0.959780 0.000000 0.060972
O O19 0.000000 0.275428 0.000000
O O20 0.633052 0.500000 0.339313
O O21 0.500000 0.286478 0.500000
O O22 0.537701 0.000000 0.553475
#
# Coordination Sequence:
#
# PCOD9400627 Si02
#       8
#     8   8   8   8   8   8   8   8
#     4   9  17  28  40  56  80 109 140 171 202 239
#     4   9  16  25  39  59  82 110 141 171 200 235
#     4   9  16  27  44  64  86 109 139 179 215 251
#     4   8  14  25  41  61  85 112 137 166 205 247
#     4  10  21  34  45  60  85 115 146 181 222 268
#     4   8  13  23  41  63  83 106 137 168 198 239
#     4   9  17  28  42  60  83 112 143 174 209 248
#     4  10  19  31  47  67  86 109 144 184 221 258
#
# _framework density 18.717382000000001
#
# number of rings (size 3 to 8) (size 9 to 14) (size 15 to 20)
#    0.000    3.000    1.250    1.125    0.000    2.250 
#    0.000    1.250    0.000    6.000    0.000    0.875 
#    0.000    5.000    0.000    1.250    0.000    2.000 
#
# Total GULP energy -356308.916388 kJ/mol
# GULP energy per Si atom -5567.326819 kJ/mol
# Density = 1.867478 g / cm^3
# Si number density = 18.717382 Si / 1000 Ang^3
#
#
#
# Elastic Constant Matrix: (Units=GPa)
#
#
# Indices 1 2 3 4 5 6 
#
# 1 82.6009 -6.3468 69.2410 0.0000 0.0000 0.0000
# 2 -6.3468 57.5217 4.2758 0.0000 0.0000 0.0000
# 3 69.2410 4.2758 171.2050 0.0000 0.0000 0.0000
# 4 0.0000 0.0000 0.0000 5.6160 0.0000 0.0000
# 5 0.0000 0.0000 0.0000 0.0000 4.5684 0.0000
# 6 0.0000 0.0000 0.0000 0.0000 0.0000 12.4267
#
#
#
# Elastic Compliance Matrix: (Units=1/GPa)
#
#
# Indices 1 2 3 4 5 6 
#
# 1 0.018705 0.002631 -0.007631 0.000000 0.000000 0.000000
# 2 0.002631 0.017787 -0.001508 0.000000 0.000000 0.000000
# 3 -0.007631 -0.001508 0.008965 0.000000 0.000000 0.000000
# 4 0.000000 0.000000 0.000000 0.178064 0.000000 0.000000
# 5 0.000000 0.000000 0.000000 0.000000 0.218897 0.000000
# 6 0.000000 0.000000 0.000000 0.000000 0.000000 0.080472
#
#
# Mechanical properties :
#
#
# Convention : Reuss Voigt Hill
#
# Bulk Modulus (GPa) = 30.82507 49.51862 40.17184
# Shear Modulus (GPa) = 9.14546 20.79938 14.97242
#
# Velocity S-wave (km/s) = 2.21285 3.33713 2.83136
# Velocity P-wave (km/s) = 4.79931 6.43133 5.67430
#
# Compressibility (1/GPa) = 0.03244113
#
# Stress axis : x y z
#
# Youngs Moduli (GPa) = 53.46154 56.22028 111.54858
#
# Poissons Ratio (x) = -0.14792 0.85119
# Poissons Ratio (y) = -0.14066 0.16825
# Poissons Ratio (z) = 0.40795 0.08480
#
# Static dielectric constant tensor:
#      x y z
#    x 1.640670 0.000000 0.000000 
#    y 0.000000 1.744390 0.000000 
#    z 0.000000 0.000000 1.692350 
# 
# From -- ./inp_files/34202.got.cif
#   From: 2010.05.17/outbox.cif.g08.bks.cpg/sg51_18_cif.got.tgz:34202.got - 2010.06.03 11:52:47.
