data_PCOD9400250
_publ_section_title
;
Structure prediction by ZEFSAII (Michael W. Deem and Ramdas Pophale) SiO2 
 PCOD9400250
Probable space group: P M M A
;
_chemical_formula_sum "Si O2"
_cell_formula_units_Z 64
_cell_length_a 8.859969
_cell_length_b 14.766578
_cell_length_c 31.969567
_cell_angle_alpha 90.000000
_cell_angle_beta 90.000000
_cell_angle_gamma 90.000000
_cell_volume 4182.623953
_symmetry_space_group_name_H-M "P M M A"
_symmetry_group_IT_number 51
_symmetry_cell_setting 'orthorhombic'
loop_
_space_group_symop_operation_xyz
x,y,z
1/2-x,-y,z
1/2+x,-y,-z
-x,y,-z
-x,-y,-z
1/2+x,y,-z
1/2-x,y,z
x,-y,z
loop_
_atom_site_type_symbol
_atom_site_label
_atom_site_fract_x
_atom_site_fract_y
_atom_site_fract_z
Si Si1 0.424342 0.610127 0.956909
Si Si2 0.069591 0.394055 0.454876
Si Si3 0.432043 0.605676 0.130518
Si Si4 0.066293 0.710721 0.212759
Si Si5 0.431506 0.101471 0.659745
Si Si6 0.068331 0.606962 0.297681
Si Si7 0.930900 0.290091 0.377054
Si Si8 0.932260 0.101169 0.752022
O O1 0.250000 0.636180 0.956044
O O2 0.432218 0.500000 0.957453
O O3 0.505417 0.637891 0.914081
O O4 0.500000 0.641819 0.000000
O O5 0.250000 0.385743 0.456427
O O6 0.032980 0.500000 0.446218
O O7 0.000000 0.371389 0.500000
O O8 0.003280 0.333028 0.418166
O O9 0.250000 0.608584 0.129041
O O10 0.475122 0.500000 0.136558
O O11 0.485572 0.664218 0.169986
O O12 0.250000 0.709166 0.211625
O O13 0.022997 0.653581 0.253929
O O14 0.018296 0.814495 0.219718
O O15 0.250000 0.104259 0.664729
O O16 0.474228 0.185024 0.630318
O O17 0.505210 0.114840 0.705251
O O18 0.472565 0.000000 0.645070
O O19 0.250000 0.617913 0.302214
O O20 0.036070 0.500000 0.296892
O O21 0.988539 0.655112 0.336527
O O22 0.750000 0.296289 0.379595
O O23 0.750000 0.103246 0.749985
O O24 0.977987 0.000000 0.765903
#
# Coordination Sequence:
#
# PCOD9400250 Si02
#       8
#     8   8   8   8   8   8   8   8
#     4   9  16  26  40  58  80 107 142 184 224 261
#     4  10  21  37  56  76  98 124 152 184 223 267
#     4   9  16  26  40  57  80 115 153 183 216 261
#     4   9  16  27  42  61  87 118 152 187 222 265
#     4   9  18  32  48  67  92 121 153 189 230 272
#     4  10  19  30  44  63  90 125 160 190 220 260
#     4  11  21  32  49  72  96 122 153 190 229 268
#     4   9  16  27  45  66  86 112 150 195 234 266
#
# _framework density 15.301399999999999
#
# number of rings (size 3 to 8) (size 9 to 14) (size 15 to 20)
#    0.000    2.500    1.250    1.875    0.000    6.000 
#    0.000    1.250    0.000    1.875    0.000    0.000 
#    0.000    0.500    0.000    0.875    0.000    1.250 
#
# Total GULP energy -356721.674862 kJ/mol
# GULP energy per Si atom -5573.776170 kJ/mol
# Density = 1.526657 g / cm^3
# Si number density = 15.301400 Si / 1000 Ang^3
#
#
#
# Elastic Constant Matrix: (Units=GPa)
#
#
# Indices 1 2 3 4 5 6 
#
# 1 22.5375 33.8598 38.0638 0.0000 0.0000 0.0000
# 2 33.8598 112.3012 84.6086 0.0000 0.0000 0.0000
# 3 38.0638 84.6086 144.0440 0.0000 0.0000 0.0000
# 4 0.0000 0.0000 0.0000 8.8455 0.0000 0.0000
# 5 0.0000 0.0000 0.0000 0.0000 23.3538 0.0000
# 6 0.0000 0.0000 0.0000 0.0000 0.0000 14.9451
#
#
#
# Elastic Compliance Matrix: (Units=1/GPa)
#
#
# Indices 1 2 3 4 5 6 
#
# 1 0.096471 -0.017724 -0.015082 0.000000 0.000000 0.000000
# 2 -0.017724 0.019230 -0.006612 0.000000 0.000000 0.000000
# 3 -0.015082 -0.006612 0.014811 0.000000 0.000000 0.000000
# 4 0.000000 0.000000 0.000000 0.113052 0.000000 0.000000
# 5 0.000000 0.000000 0.000000 0.000000 0.042819 0.000000
# 6 0.000000 0.000000 0.000000 0.000000 0.000000 0.066912
#
#
# Mechanical properties :
#
#
# Convention : Reuss Voigt Hill
#
# Bulk Modulus (GPa) = 19.35104 65.77192 42.56148
# Shear Modulus (GPa) = 11.12707 17.58559 14.35633
#
# Velocity S-wave (km/s) = 2.69958 3.39378 3.06639
# Velocity P-wave (km/s) = 4.73191 7.64425 6.35710
#
# Compressibility (1/GPa) = 0.05167680
#
# Stress axis : x y z
#
# Youngs Moduli (GPa) = 10.36586 52.00248 67.51641
#
# Poissons Ratio (x) = 0.92170 1.01826
# Poissons Ratio (y) = 0.18373 0.44639
# Poissons Ratio (z) = 0.15633 0.34382
#
# Static dielectric constant tensor:
#      x y z
#    x 1.515380 0.000000 0.000000 
#    y 0.000000 1.519270 0.000000 
#    z 0.000000 0.000000 1.483090 
# 
# From -- ./inp_files/37611.got.cif
#   From: 2010.05.17/outbox.cif.g08.bks.cpg/sg51_19_cif.got.tgz:37611.got - 2010.06.03 11:52:47.
