data_PCOD9400710
_publ_section_title
;
Structure prediction by ZEFSAII (Michael W. Deem and Ramdas Pophale) SiO2 
 PCOD9400710
Probable space group: P M M A
;
_chemical_formula_sum "Si O2"
_cell_formula_units_Z 64
_cell_length_a 8.622549
_cell_length_b 19.558638
_cell_length_c 24.439622
_cell_angle_alpha 90.000000
_cell_angle_beta 90.000000
_cell_angle_gamma 90.000000
_cell_volume 4121.627739
_symmetry_space_group_name_H-M "P M M A"
_symmetry_group_IT_number 51
_symmetry_cell_setting 'orthorhombic'
loop_
_space_group_symop_operation_xyz
x,y,z
1/2-x,-y,z
1/2+x,-y,-z
-x,y,-z
-x,-y,-z
1/2+x,y,-z
1/2-x,y,z
x,-y,z
loop_
_atom_site_type_symbol
_atom_site_label
_atom_site_fract_x
_atom_site_fract_y
_atom_site_fract_z
Si Si1 0.936005 0.420960 0.728714
Si Si2 0.936411 0.340637 0.166766
Si Si3 0.061389 0.924300 0.611255
Si Si4 0.936801 0.922561 0.260467
Si Si5 0.062784 0.216402 0.559107
Si Si6 0.562993 0.421103 0.059503
Si Si7 0.436292 0.297561 0.666595
Si Si8 0.065763 0.216824 0.228821
O O1 0.750000 0.415771 0.731039
O O2 0.979702 0.500000 0.722187
O O3 0.004744 0.390204 0.784787
O O4 0.998464 0.372065 0.680839
O O5 0.750000 0.338701 0.168611
O O6 0.986854 0.372027 0.108816
O O7 0.001166 0.265871 0.181261
O O8 0.250000 0.924372 0.609843
O O9 0.019569 0.915028 0.675207
O O10 0.008003 0.859976 0.575998
O O11 0.008827 0.000000 0.593477
O O12 0.750000 0.916300 0.257743
O O13 0.012692 0.861552 0.226825
O O14 0.978392 0.000000 0.243927
O O15 0.250000 0.215465 0.557620
O O16 0.016450 0.267104 0.608143
O O17 0.000000 0.235521 0.500000
O O18 0.750000 0.420327 0.057859
O O19 0.514381 0.500000 0.070285
O O20 0.500000 0.401465 0.000000
O O21 0.250000 0.298345 0.669510
O O22 0.496887 0.248273 0.714916
O O23 0.250000 0.222057 0.230458
#
# Coordination Sequence:
#
# PCOD9400710 Si02
#       8
#     8   8   8   8   8   8   8   8
#     4  10  20  32  48  72  97 118 143 184 238 282
#     4  10  19  31  48  69  96 129 166 197 223 268
#     4   8  14  27  46  64  85 114 147 181 216 260
#     4   9  16  29  49  67  88 122 158 189 226 278
#     4  10  20  32  47  66  87 113 148 185 225 271
#     4   9  18  31  47  68  95 130 168 202 233 266
#     4  10  19  33  50  66  87 117 153 185 221 278
#     4  11  20  29  45  69  97 123 151 194 241 276
#
# _framework density 15.527846
#
# number of rings (size 3 to 8) (size 9 to 14) (size 15 to 20)
#    0.000    2.375    1.250    4.875    0.000    4.000 
#    0.000    1.250    0.000    0.375    0.000    0.000 
#    0.000    0.500    0.000    1.625    0.000    2.000 
#
# Total GULP energy -356890.938942 kJ/mol
# GULP energy per Si atom -5576.420921 kJ/mol
# Density = 1.549250 g / cm^3
# Si number density = 15.527846 Si / 1000 Ang^3
#
#
#
# Elastic Constant Matrix: (Units=GPa)
#
#
# Indices 1 2 3 4 5 6 
#
# 1 34.5845 33.7691 21.9572 0.0000 0.0000 0.0000
# 2 33.7691 121.9178 65.5758 0.0000 0.0000 0.0000
# 3 21.9572 65.5758 105.5346 0.0000 0.0000 0.0000
# 4 0.0000 0.0000 0.0000 26.8467 0.0000 0.0000
# 5 0.0000 0.0000 0.0000 0.0000 20.2960 0.0000
# 6 0.0000 0.0000 0.0000 0.0000 0.0000 135.5783
#
#
#
# Elastic Compliance Matrix: (Units=1/GPa)
#
#
# Indices 1 2 3 4 5 6 
#
# 1 0.039958 -0.009907 -0.002158 0.000000 0.000000 0.000000
# 2 -0.009907 0.014776 -0.007120 0.000000 0.000000 0.000000
# 3 -0.002158 -0.007120 0.014349 0.000000 0.000000 0.000000
# 4 0.000000 0.000000 0.000000 0.037248 0.000000 0.000000
# 5 0.000000 0.000000 0.000000 0.000000 0.049271 0.000000
# 6 0.000000 0.000000 0.000000 0.000000 0.000000 0.007376
#
#
# Mechanical properties :
#
#
# Convention : Reuss Voigt Hill
#
# Bulk Modulus (GPa) = 32.55943 56.07124 44.31534
# Shear Modulus (GPa) = 23.63114 45.92653 34.77883
#
# Velocity S-wave (km/s) = 3.90533 5.44436 4.73776
# Velocity P-wave (km/s) = 6.43035 8.70115 7.65047
#
# Compressibility (1/GPa) = 0.03071307
#
# Stress axis : x y z
#
# Youngs Moduli (GPa) = 25.02625 67.67711 69.69291
#
# Poissons Ratio (x) = 0.67049 0.15037
# Poissons Ratio (y) = 0.24794 0.49622
# Poissons Ratio (z) = 0.05400 0.48187
#
# Static dielectric constant tensor:
#      x y z
#    x 1.523790 0.000000 0.000000 
#    y 0.000000 1.534980 0.000000 
#    z 0.000000 0.000000 1.492570 
# 
# From -- ./inp_files/35197.got.cif
#   From: 2010.05.17/outbox.cif.g08.bks.cpg/sg51_18_cif.got.tgz:35197.got - 2010.06.03 11:52:47.
