data_PCOD9400060
_publ_section_title
;
Structure prediction by ZEFSAII (Michael W. Deem and Ramdas Pophale) SiO2 
 PCOD9400060
Probable space group: P M M A
;
_chemical_formula_sum "Si O2"
_cell_formula_units_Z 64
_cell_length_a 7.685034
_cell_length_b 14.946035
_cell_length_c 32.239846
_cell_angle_alpha 90.000000
_cell_angle_beta 90.000000
_cell_angle_gamma 90.000000
_cell_volume 3703.094089
_symmetry_space_group_name_H-M "P M M A"
_symmetry_group_IT_number 51
_symmetry_cell_setting 'orthorhombic'
loop_
_space_group_symop_operation_xyz
x,y,z
1/2-x,-y,z
1/2+x,-y,-z
-x,y,-z
-x,-y,-z
1/2+x,y,-z
1/2-x,y,z
x,-y,z
loop_
_atom_site_type_symbol
_atom_site_label
_atom_site_fract_x
_atom_site_fract_y
_atom_site_fract_z
Si Si1 0.460377 0.102780 0.204319
Si Si2 0.963631 0.788374 0.713799
Si Si3 0.540673 0.101998 0.046951
Si Si4 0.039644 0.599452 0.840145
Si Si5 0.542670 0.217780 0.123107
Si Si6 0.458261 0.401133 0.257002
Si Si7 0.043003 0.897797 0.365453
Si Si8 0.543837 0.898241 0.455591
O O1 0.250000 0.101556 0.204939
O O2 0.517124 0.155035 0.245696
O O3 0.515325 0.155720 0.163310
O O4 0.521115 0.000000 0.203931
O O5 0.750000 0.787416 0.713711
O O6 0.023579 0.686082 0.718990
O O7 0.023675 0.837137 0.671994
O O8 0.750000 0.098480 0.050865
O O9 0.472513 0.167836 0.082468
O O10 0.475146 0.000000 0.052632
O O11 0.500000 0.130041 0.000000
O O12 0.250000 0.599324 0.842253
O O13 0.978502 0.500000 0.852419
O O14 0.972957 0.683421 0.866439
O O15 0.991755 0.613002 0.791945
O O16 0.750000 0.227493 0.117226
O O17 0.250000 0.403789 0.262627
O O18 0.527767 0.500000 0.267979
O O19 0.250000 0.904509 0.359558
O O20 0.014344 0.859468 0.411606
O O21 0.972400 0.000000 0.364086
O O22 0.500000 0.855490 0.500000
O O23 0.750000 0.904344 0.453749
O O24 0.468022 0.000000 0.456611
#
# Coordination Sequence:
#
# PCOD9400060 Si02
#       8
#     8   8   8   8   8   8   8   8
#     4  10  19  29  42  62  88 118 150 180 208 246
#     4   9  16  27  41  59  85 115 146 177 210 251
#     4   9  18  32  48  65  85 109 138 172 211 255
#     4   9  17  29  45  65  87 111 141 175 213 258
#     4  10  19  31  47  66  88 113 141 176 217 256
#     4   9  16  27  44  63  83 110 145 184 220 251
#     4   9  16  26  40  56  78 113 149 176 207 248
#     4   9  16  26  40  58  80 106 140 181 218 252
#
# _framework density 17.282844999999998
#
# number of rings (size 3 to 8) (size 9 to 14) (size 15 to 20)
#    0.000    2.750    1.250    1.125    0.000    4.250 
#    0.000    2.500    0.000    1.875    0.000    0.000 
#    0.000    0.500    0.000    0.875    0.000    1.250 
#
# Total GULP energy -356698.869908 kJ/mol
# GULP energy per Si atom -5573.419842 kJ/mol
# Density = 1.724351 g / cm^3
# Si number density = 17.282845 Si / 1000 Ang^3
#
#
#
# Elastic Constant Matrix: (Units=GPa)
#
#
# Indices 1 2 3 4 5 6 
#
# 1 29.4876 5.3341 -2.0085 0.0000 0.0000 0.0000
# 2 5.3341 137.0742 88.4477 0.0000 0.0000 0.0000
# 3 -2.0085 88.4477 148.2798 0.0000 0.0000 0.0000
# 4 0.0000 0.0000 0.0000 9.6974 0.0000 0.0000
# 5 0.0000 0.0000 0.0000 0.0000 17.3442 0.0000
# 6 0.0000 0.0000 0.0000 0.0000 0.0000 7.6391
#
#
#
# Elastic Compliance Matrix: (Units=1/GPa)
#
#
# Indices 1 2 3 4 5 6 
#
# 1 0.034537 -0.002676 0.002064 0.000000 0.000000 0.000000
# 2 -0.002676 0.012067 -0.007234 0.000000 0.000000 0.000000
# 3 0.002064 -0.007234 0.011087 0.000000 0.000000 0.000000
# 4 0.000000 0.000000 0.000000 0.103120 0.000000 0.000000
# 5 0.000000 0.000000 0.000000 0.000000 0.057656 0.000000
# 6 0.000000 0.000000 0.000000 0.000000 0.000000 0.130905
#
#
# Mechanical properties :
#
#
# Convention : Reuss Voigt Hill
#
# Bulk Modulus (GPa) = 23.80991 55.37649 39.59320
# Shear Modulus (GPa) = 13.19032 21.80736 17.49884
#
# Velocity S-wave (km/s) = 2.76561 3.55603 3.18543
# Velocity P-wave (km/s) = 4.89945 6.99795 6.04053
#
# Compressibility (1/GPa) = 0.04199931
#
# Stress axis : x y z
#
# Youngs Moduli (GPa) = 28.95437 82.86745 90.19393
#
# Poissons Ratio (x) = 0.22173 -0.18615
# Poissons Ratio (y) = 0.07747 0.65250
# Poissons Ratio (z) = -0.05976 0.59950
#
# Static dielectric constant tensor:
#      x y z
#    x 1.639850 0.000000 0.000000 
#    y 0.000000 1.605910 0.000000 
#    z 0.000000 0.000000 1.580100 
# 
# From -- ./inp_files/37624.got.cif
#   From: 2010.05.17/outbox.cif.g08.bks.cpg/sg51_19_cif.got.tgz:37624.got - 2010.06.03 11:52:47.
