data_PCOD9400513
_publ_section_title
;
Structure prediction by ZEFSAII (Michael W. Deem and Ramdas Pophale) SiO2 
 PCOD9400513
Probable space group: P M M A
;
_chemical_formula_sum "Si O2"
_cell_formula_units_Z 48
_cell_length_a 9.118693
_cell_length_b 15.998917
_cell_length_c 19.670314
_cell_angle_alpha 90.000000
_cell_angle_beta 90.000000
_cell_angle_gamma 90.000000
_cell_volume 2869.686618
_symmetry_space_group_name_H-M "P M M A"
_symmetry_group_IT_number 51
_symmetry_cell_setting 'orthorhombic'
loop_
_space_group_symop_operation_xyz
x,y,z
1/2-x,-y,z
1/2+x,-y,-z
-x,y,-z
-x,-y,-z
1/2+x,y,-z
1/2-x,y,z
x,-y,z
loop_
_atom_site_type_symbol
_atom_site_label
_atom_site_fract_x
_atom_site_fract_y
_atom_site_fract_z
Si Si1 0.425648 0.760187 0.324816
Si Si2 0.921437 0.408621 0.327514
Si Si3 0.424871 0.903534 0.926462
Si Si4 0.925572 0.236437 0.834953
Si Si5 0.573360 0.095868 0.572382
Si Si6 0.921669 0.406947 0.162545
O O1 0.250000 0.754318 0.328017
O O2 0.492963 0.673093 0.350415
O O3 0.463641 0.771586 0.245278
O O4 0.473394 0.837993 0.370703
O O5 0.750000 0.401900 0.345182
O O6 0.976149 0.500000 0.350570
O O7 0.929892 0.408855 0.245011
O O8 0.250000 0.890627 0.931696
O O9 0.496658 0.837124 0.876018
O O10 0.449839 0.000000 0.904516
O O11 0.500000 0.893873 0.000000
O O12 0.750000 0.231952 0.842003
O O13 0.983890 0.327256 0.859119
O O14 0.500000 0.114360 0.500000
O O15 0.750000 0.100509 0.565676
O O16 0.536093 0.000000 0.590855
O O17 0.750000 0.395327 0.144943
O O18 0.967918 0.500000 0.138941
#
# Coordination Sequence:
#
# PCOD9400513 Si02
#       6
#     8   8   8   8   8   8
#     4   9  18  30  46  71  99 126 156 193 237 280
#     4   8  14  25  42  65  93 124 156 191 232 276
#     4  10  21  37  55  73  95 126 163 200 238 284
#     4  10  19  30  48  75 103 129 158 195 239 285
#     4   9  18  33  50  67  90 122 159 196 236 284
#     4   8  14  26  44  66  95 130 163 195 233 277
#
# _framework density 16.726565000000001
#
# number of rings (size 3 to 8) (size 9 to 14) (size 15 to 20)
#    0.000    3.000    0.000    2.000    0.000    3.667 
#    0.000    5.000    0.000    3.000    0.000    0.000 
#    0.000    0.000    0.000    0.000    0.000    0.000 
#
# Total GULP energy -267316.492394 kJ/mol
# GULP energy per Si atom -5569.093592 kJ/mol
# Density = 1.668849 g / cm^3
# Si number density = 16.726565 Si / 1000 Ang^3
#
#
#
# Elastic Constant Matrix: (Units=GPa)
#
#
# Indices 1 2 3 4 5 6 
#
# 1 48.6862 71.9160 34.9322 0.0000 0.0000 0.0000
# 2 71.9160 182.3940 77.7790 0.0000 0.0000 0.0000
# 3 34.9322 77.7790 46.8622 0.0000 0.0000 0.0000
# 4 0.0000 0.0000 0.0000 -9.6866 0.0000 0.0000
# 5 0.0000 0.0000 0.0000 0.0000 21.1231 0.0000
# 6 0.0000 0.0000 0.0000 0.0000 0.0000 30.7587
#
#
#
# Elastic Compliance Matrix: (Units=1/GPa)
#
#
# Indices 1 2 3 4 5 6 
#
# 1 0.052625 -0.013761 -0.016389 0.000000 0.000000 0.000000
# 2 -0.013761 0.022360 -0.026853 0.000000 0.000000 0.000000
# 3 -0.016389 -0.026853 0.078125 0.000000 0.000000 0.000000
# 4 0.000000 0.000000 0.000000 -0.103236 0.000000 0.000000
# 5 0.000000 0.000000 0.000000 0.000000 0.047342 0.000000
# 6 0.000000 0.000000 0.000000 0.000000 0.000000 0.032511
#
#
# Mechanical properties :
#
#
# Convention : Reuss Voigt Hill
#
# Bulk Modulus (GPa) = 25.57268 71.91075 48.74171
# Shear Modulus (GPa) = 19.47282 14.66005 17.06643
#
# Velocity S-wave (km/s) = 3.41572 2.96371 3.19771
# Velocity P-wave (km/s) = 5.55680 7.40248 6.54502
#
# Compressibility (1/GPa) = 0.03910423
#
# Stress axis : x y z
#
# Youngs Moduli (GPa) = 19.00231 44.72350 12.79992
#
# Poissons Ratio (x) = 0.61543 0.20977
# Poissons Ratio (y) = 0.26149 0.34372
# Poissons Ratio (z) = 0.31142 1.20098
#
# Static dielectric constant tensor:
#      x y z
#    x 1.556770 0.000000 0.000000 
#    y 0.000000 1.580570 0.000000 
#    z 0.000000 0.000000 1.542270 
# 
# From -- ./inp_files/31605.got.cif
#   From: 2010.05.17/outbox.cif.g08.bks.cpg/sg51_16_cif.got.tgz:31605.got - 2010.06.03 11:52:47.
