data_PCOD9400579
_publ_section_title
;
Structure prediction by ZEFSAII (Michael W. Deem and Ramdas Pophale) SiO2 
 PCOD9400579
Probable space group: P M M A
;
_chemical_formula_sum "Si O2"
_cell_formula_units_Z 52
_cell_length_a 7.320018
_cell_length_b 15.572351
_cell_length_c 21.366789
_cell_angle_alpha 90.000000
_cell_angle_beta 90.000000
_cell_angle_gamma 90.000000
_cell_volume 2435.597920
_symmetry_space_group_name_H-M "P M M A"
_symmetry_group_IT_number 51
_symmetry_cell_setting 'orthorhombic'
loop_
_space_group_symop_operation_xyz
x,y,z
1/2-x,-y,z
1/2+x,-y,-z
-x,y,-z
-x,-y,-z
1/2+x,y,-z
1/2-x,y,z
x,-y,z
loop_
_atom_site_type_symbol
_atom_site_label
_atom_site_fract_x
_atom_site_fract_y
_atom_site_fract_z
Si Si1 0.466053 0.500000 0.426009
Si Si2 0.972855 0.600200 0.810891
Si Si3 0.968955 0.906264 0.913936
Si Si4 0.468171 0.686581 0.426821
Si Si5 0.467596 0.713605 0.069028
Si Si6 0.530618 0.908589 0.765577
Si Si7 0.473428 0.734344 0.294708
O O1 0.250000 0.500000 0.411315
O O2 0.500000 0.500000 0.500000
O O3 0.540501 0.591923 0.408079
O O4 0.750000 0.599163 0.811618
O O5 0.030483 0.500000 0.811649
O O6 0.031467 0.655201 0.872502
O O7 0.027575 0.652758 0.748163
O O8 0.750000 0.906943 0.926053
O O9 0.040250 0.812247 0.933400
O O10 0.997486 0.906579 0.839600
O O11 0.040326 0.000000 0.935826
O O12 0.500000 0.707413 0.500000
O O13 0.250000 0.681948 0.423994
O O14 0.529312 0.740556 0.367434
O O15 0.250000 0.721402 0.078533
O O16 0.500000 0.675101 0.000000
O O17 0.750000 0.908188 0.756289
O O18 0.461114 0.820987 0.737520
O O19 0.461986 0.000000 0.740828
O O20 0.250000 0.732543 0.293523
#
# Coordination Sequence:
#
# PCOD9400579 Si02
#       7
#     4   8   8   8   8   8   8
#     4   8  14  24  36  54  80 110 137 164 200 246
#     4   9  17  28  43  64  88 112 145 187 223 252
#     4   8  13  23  40  62  88 113 137 173 221 264
#     4   9  17  27  41  62  89 116 143 174 213 258
#     4  10  19  31  46  65  89 117 147 179 217 261
#     4   8  12  20  37  61  86 108 134 176 224 258
#     4   9  15  24  41  64  86 110 143 183 218 252
#
# _framework density 21.349993999999999
#
# number of rings (size 3 to 8) (size 9 to 14) (size 15 to 20)
#    0.000    3.231    1.538    0.923    1.077    0.615 
#    0.000    0.000    0.000    1.385    0.000    0.000 
#    0.000    0.000    0.000    0.000    0.000    0.000 
#
# Total GULP energy -289492.009022 kJ/mol
# GULP energy per Si atom -5567.154020 kJ/mol
# Density = 2.130140 g / cm^3
# Si number density = 21.349994 Si / 1000 Ang^3
#
#
#
# Elastic Constant Matrix: (Units=GPa)
#
#
# Indices 1 2 3 4 5 6 
#
# 1 82.4020 6.5975 8.7983 0.0000 0.0000 0.0000
# 2 6.5975 153.5901 85.2698 0.0000 0.0000 0.0000
# 3 8.7983 85.2698 144.6015 0.0000 0.0000 0.0000
# 4 0.0000 0.0000 0.0000 0.6707 0.0000 0.0000
# 5 0.0000 0.0000 0.0000 0.0000 7.6476 0.0000
# 6 0.0000 0.0000 0.0000 0.0000 0.0000 -15.0450
#
#
#
# Elastic Compliance Matrix: (Units=1/GPa)
#
#
# Indices 1 2 3 4 5 6 
#
# 1 0.012218 -0.000167 -0.000645 0.000000 0.000000 0.000000
# 2 -0.000167 0.009682 -0.005699 0.000000 0.000000 0.000000
# 3 -0.000645 -0.005699 0.010316 0.000000 0.000000 0.000000
# 4 0.000000 0.000000 0.000000 1.491059 0.000000 0.000000
# 5 0.000000 0.000000 0.000000 0.000000 0.130759 0.000000
# 6 0.000000 0.000000 0.000000 0.000000 0.000000 -0.066467
#
#
# Mechanical properties :
#
#
# Convention : Reuss Voigt Hill
#
# Bulk Modulus (GPa) = 52.10114 64.65831 58.37972
# Shear Modulus (GPa) = 3.11141 17.31653 10.21397
#
# Velocity S-wave (km/s) = 1.20851 2.85103 2.18962
# Velocity P-wave (km/s) = 5.13845 6.41783 5.81344
#
# Compressibility (1/GPa) = 0.01919344
#
# Stress axis : x y z
#
# Youngs Moduli (GPa) = 81.84746 103.28323 96.94046
#
# Poissons Ratio (x) = 0.01721 0.06254
# Poissons Ratio (y) = 0.01364 0.55249
# Poissons Ratio (z) = 0.05280 0.58864
#
# Static dielectric constant tensor:
#      x y z
#    x 2.416450 0.000000 0.000000 
#    y 0.000000 1.809400 0.000000 
#    z 0.000000 0.000000 1.753830 
# 
# From -- ./inp_files/33097.got.cif
#   From: 2010.05.17/outbox.cif.g08.bks.cpg/sg51_17_cif.got.tgz:33097.got - 2010.06.03 11:52:47.
