data_PCOD9400580
_publ_section_title
;
Structure prediction by ZEFSAII (Michael W. Deem and Ramdas Pophale) SiO2 
 PCOD9400580
Probable space group: P M M A
;
_chemical_formula_sum "Si O2"
_cell_formula_units_Z 48
_cell_length_a 13.297086
_cell_length_b 29.057483
_cell_length_c 5.276287
_cell_angle_alpha 90.000000
_cell_angle_beta 90.000000
_cell_angle_gamma 90.000000
_cell_volume 2038.650982
_symmetry_space_group_name_H-M "P M M A"
_symmetry_group_IT_number 51
_symmetry_cell_setting 'orthorhombic'
loop_
_space_group_symop_operation_xyz
x,y,z
1/2-x,-y,z
1/2+x,-y,-z
-x,y,-z
-x,-y,-z
1/2+x,y,-z
1/2-x,y,z
x,-y,z
loop_
_atom_site_type_symbol
_atom_site_label
_atom_site_fract_x
_atom_site_fract_y
_atom_site_fract_z
Si Si1 0.127590 0.895516 0.155522
Si Si2 0.568755 0.649036 0.250427
Si Si3 0.126767 0.795313 0.347668
Si Si4 0.570513 0.549583 0.250136
Si Si5 0.366401 0.749214 0.851796
Si Si6 0.627451 0.052037 0.342561
O O1 0.250000 0.894215 0.149889
O O2 0.095542 0.844893 0.242444
O O3 0.099759 0.931234 0.376945
O O4 0.096918 0.912531 0.877539
O O5 0.500000 0.651063 0.500000
O O6 0.624029 0.599322 0.253391
O O7 0.628172 0.696446 0.233471
O O8 0.500000 0.648736 0.000000
O O9 0.250000 0.795910 0.363593
O O10 0.092935 0.781774 0.629041
O O11 0.095577 0.757666 0.136572
O O12 0.500000 0.549620 0.500000
O O13 0.625304 0.500000 0.249900
O O14 0.500000 0.549564 0.000000
O O15 0.250000 0.762232 0.871768
O O16 0.750000 0.051531 0.338362
O O17 0.594438 0.000000 0.288456
#
# Coordination Sequence:
#
# PCOD9400580 Si02
#       6
#     8   8   8   8   8   8
#     4   9  15  23  34  48  69  99 139 180 211 250
#     4  10  19  31  48  70  94 120 152 188 229 273
#     4   9  17  28  42  59  80 112 153 190 220 259
#     4   8  14  25  42  64  88 114 146 183 219 261
#     4  10  19  31  46  65  90 119 154 192 227 265
#     4   9  15  21  30  46  69  98 134 176 217 255
#
# _framework density 23.544983999999999
#
# number of rings (size 3 to 8) (size 9 to 14) (size 15 to 20)
#    0.000    2.833    0.000    2.500    0.000    6.000 
#    0.000    0.000    0.000    0.500    0.000    0.000 
#    0.000   17.333    0.000    0.000    0.000  212.667 
#
# Total GULP energy -268183.254769 kJ/mol
# GULP energy per Si atom -5587.151141 kJ/mol
# Density = 2.349139 g / cm^3
# Si number density = 23.544984 Si / 1000 Ang^3
#
#
#
# Elastic Constant Matrix: (Units=GPa)
#
#
# Indices 1 2 3 4 5 6 
#
# 1 59.0514 -2.6667 23.9800 0.0000 0.0000 0.0000
# 2 -2.6667 153.0094 47.3394 0.0000 0.0000 0.0000
# 3 23.9800 47.3394 175.9455 0.0000 0.0000 0.0000
# 4 0.0000 0.0000 0.0000 40.8778 0.0000 0.0000
# 5 0.0000 0.0000 0.0000 0.0000 33.7725 0.0000
# 6 0.0000 0.0000 0.0000 0.0000 0.0000 -3.4020
#
#
#
# Elastic Compliance Matrix: (Units=1/GPa)
#
#
# Indices 1 2 3 4 5 6 
#
# 1 0.018119 0.001178 -0.002786 0.000000 0.000000 0.000000
# 2 0.001178 0.007206 -0.002099 0.000000 0.000000 0.000000
# 3 -0.002786 -0.002099 0.006628 0.000000 0.000000 0.000000
# 4 0.000000 0.000000 0.000000 0.024463 0.000000 0.000000
# 5 0.000000 0.000000 0.000000 0.000000 0.029610 0.000000
# 6 0.000000 0.000000 0.000000 0.000000 0.000000 -0.293948
#
#
# Mechanical properties :
#
#
# Convention : Reuss Voigt Hill
#
# Bulk Modulus (GPa) = 40.75434 58.36798 49.56116
# Shear Modulus (GPa) = -25.99737 35.53990 4.77126
#
# Velocity S-wave (km/s) = -3.32649 3.88937 1.42508
# Velocity P-wave (km/s) = 1.61017 6.70921 4.87884
#
# Compressibility (1/GPa) = 0.02453726
#
# Stress axis : x y z
#
# Youngs Moduli (GPa) = 55.19034 138.78175 150.87145
#
# Poissons Ratio (x) = -0.16347 0.42039
# Poissons Ratio (y) = -0.06501 0.31672
# Poissons Ratio (z) = 0.15378 0.29134
#
# Static dielectric constant tensor:
#      x y z
#    x 1.972690 0.000000 0.000000 
#    y 0.000000 1.890820 0.000000 
#    z 0.000000 0.000000 1.829020 
# 
# From -- ./inp_files/1442.got.cif
#   From: 2010.05.17/outbox.cif.g08.bks.cpg/sg51_1_cif.got.tgz:1442.got - 2010.06.03 11:52:47.
