data_PCOD9400135
_publ_section_title
;
Structure prediction by ZEFSAII (Michael W. Deem and Ramdas Pophale) SiO2 
 PCOD9400135
Probable space group: P M M A
;
_chemical_formula_sum "Si O2"
_cell_formula_units_Z 64
_cell_length_a 24.588802
_cell_length_b 9.151042
_cell_length_c 17.189775
_cell_angle_alpha 90.000000
_cell_angle_beta 90.000000
_cell_angle_gamma 90.000000
_cell_volume 3867.925590
_symmetry_space_group_name_H-M "P M M A"
_symmetry_group_IT_number 51
_symmetry_cell_setting 'orthorhombic'
loop_
_space_group_symop_operation_xyz
x,y,z
1/2-x,-y,z
1/2+x,-y,-z
-x,y,-z
-x,-y,-z
1/2+x,y,-z
1/2-x,y,z
x,-y,z
loop_
_atom_site_type_symbol
_atom_site_label
_atom_site_fract_x
_atom_site_fract_y
_atom_site_fract_z
Si Si1 0.591364 0.824857 0.637841
Si Si2 0.813852 0.323343 0.083296
Si Si3 0.187143 0.175957 0.248966
Si Si4 0.528026 0.825522 0.329353
Si Si5 0.315902 0.667178 0.090715
Si Si6 0.870942 0.174082 0.226348
Si Si7 0.312032 0.330371 0.635744
Si Si8 0.086101 0.328453 0.528053
O O1 0.644571 0.776251 0.685217
O O2 0.535382 0.795736 0.684405
O O3 0.585292 0.748925 0.554715
O O4 0.595064 0.000000 0.626368
O O5 0.750000 0.282503 0.095393
O O6 0.816068 0.500000 0.087262
O O7 0.851599 0.252681 0.148323
O O8 0.831309 0.280392 0.995627
O O9 0.250000 0.221685 0.263602
O O10 0.169340 0.237129 0.165044
O O11 0.186415 0.000000 0.246369
O O12 0.569443 0.784450 0.260169
O O13 0.546858 0.744885 0.408062
O O14 0.534468 0.000000 0.341682
O O15 0.250000 0.663976 0.088667
O O16 0.334586 0.500000 0.101123
O O17 0.830309 0.226327 0.294522
O O18 0.868910 0.000000 0.216659
O O19 0.250000 0.304095 0.613095
O O20 0.316816 0.500000 0.662438
O O21 0.353837 0.312136 0.565310
O O22 0.073604 0.500000 0.520884
#
# Coordination Sequence:
#
# PCOD9400135 Si02
#       8
#     8   8   8   8   8   8   8   8
#     4  10  20  34  51  68  90 122 153 183 229 284
#     4   9  17  29  46  69  97 127 154 180 220 275
#     4   9  18  32  50  73  97 118 146 188 233 273
#     4   9  19  35  50  64  89 125 158 187 226 275
#     4   8  15  29  48  69  94 124 153 180 218 271
#     4  10  19  29  44  68  93 118 155 197 226 255
#     4   9  18  32  46  61  90 129 156 178 223 281
#     4  10  20  32  48  71  93 115 153 201 234 260
#
# _framework density 16.546337000000001
#
# number of rings (size 3 to 8) (size 9 to 14) (size 15 to 20)
#    0.000    2.750    0.000    2.250    0.000    6.500 
#    0.000    1.250    0.000    0.750    0.000    5.250 
#    0.000    0.000    0.000    0.000    0.000    0.000 
#
# Total GULP energy -356629.281307 kJ/mol
# GULP energy per Si atom -5572.332520 kJ/mol
# Density = 1.650868 g / cm^3
# Si number density = 16.546337 Si / 1000 Ang^3
#
#
#
# Elastic Constant Matrix: (Units=GPa)
#
#
# Indices 1 2 3 4 5 6 
#
# 1 94.7451 29.7632 49.5573 0.0000 0.0000 0.0000
# 2 29.7632 20.4953 26.6637 0.0000 0.0000 0.0000
# 3 49.5573 26.6637 87.3570 0.0000 0.0000 0.0000
# 4 0.0000 0.0000 0.0000 29.1159 0.0000 0.0000
# 5 0.0000 0.0000 0.0000 0.0000 11.9637 0.0000
# 6 0.0000 0.0000 0.0000 0.0000 0.0000 16.5472
#
#
#
# Elastic Compliance Matrix: (Units=1/GPa)
#
#
# Indices 1 2 3 4 5 6 
#
# 1 0.020287 -0.024030 -0.004174 0.000000 0.000000 0.000000
# 2 -0.024030 0.109391 -0.019757 0.000000 0.000000 0.000000
# 3 -0.004174 -0.019757 0.019845 0.000000 0.000000 0.000000
# 4 0.000000 0.000000 0.000000 0.034346 0.000000 0.000000
# 5 0.000000 0.000000 0.000000 0.000000 0.083586 0.000000
# 6 0.000000 0.000000 0.000000 0.000000 0.000000 0.060433
#
#
# Mechanical properties :
#
#
# Convention : Reuss Voigt Hill
#
# Bulk Modulus (GPa) = 18.65628 46.06287 32.35957
# Shear Modulus (GPa) = 11.32050 17.96623 14.64336
#
# Velocity S-wave (km/s) = 2.61850 3.29874 2.97811
# Velocity P-wave (km/s) = 4.52125 6.51215 5.60579
#
# Compressibility (1/GPa) = 0.05360126
#
# Stress axis : x y z
#
# Youngs Moduli (GPa) = 49.29366 9.14154 50.38931
#
# Poissons Ratio (x) = 0.21967 0.21032
# Poissons Ratio (y) = 1.18452 0.99554
# Poissons Ratio (z) = 0.20575 0.18061
#
# Static dielectric constant tensor:
#      x y z
#    x 1.567850 0.000000 0.000000 
#    y 0.000000 1.557290 0.000000 
#    z 0.000000 0.000000 1.538550 
# 
# From -- ./inp_files/30896.got.cif
#   From: 2010.05.17/outbox.cif.g08.bks.cpg/sg51_16_cif.got.tgz:30896.got - 2010.06.03 11:52:47.
