data_PCOD9400223
_publ_section_title
;
Structure prediction by ZEFSAII (Michael W. Deem and Ramdas Pophale) SiO2 
 PCOD9400223
Probable space group: P M M A
;
_chemical_formula_sum "Si O2"
_cell_formula_units_Z 56
_cell_length_a 9.180577
_cell_length_b 18.952698
_cell_length_c 21.329968
_cell_angle_alpha 90.000000
_cell_angle_beta 90.000000
_cell_angle_gamma 90.000000
_cell_volume 3711.344114
_symmetry_space_group_name_H-M "P M M A"
_symmetry_group_IT_number 51
_symmetry_cell_setting 'orthorhombic'
loop_
_space_group_symop_operation_xyz
x,y,z
1/2-x,-y,z
1/2+x,-y,-z
-x,y,-z
-x,-y,-z
1/2+x,y,-z
1/2-x,y,z
x,-y,z
loop_
_atom_site_type_symbol
_atom_site_label
_atom_site_fract_x
_atom_site_fract_y
_atom_site_fract_z
Si Si1 0.082143 0.782645 0.617632
Si Si2 0.927291 0.919957 0.316429
Si Si3 0.421848 0.915400 0.065102
Si Si4 0.916559 0.705801 0.246362
Si Si5 0.575191 0.419879 0.694462
Si Si6 0.426580 0.152408 0.815174
Si Si7 0.076383 0.347030 0.437238
O O1 0.250000 0.783482 0.594711
O O2 0.028117 0.861826 0.631981
O O3 0.084856 0.746422 0.686580
O O4 0.983110 0.731880 0.576210
O O5 0.750000 0.919028 0.317496
O O6 0.968374 0.892576 0.246941
O O7 0.976304 0.000000 0.326960
O O8 0.250000 0.899632 0.062421
O O9 0.497878 0.878078 0.123702
O O10 0.438301 0.000000 0.072686
O O11 0.500000 0.895792 0.000000
O O12 0.750000 0.686808 0.231714
O O13 0.966996 0.766042 0.198283
O O14 0.009958 0.636204 0.257022
O O15 0.750000 0.418260 0.698597
O O16 0.524970 0.500000 0.703913
O O17 0.537565 0.393043 0.624197
O O18 0.250000 0.148910 0.820253
O O19 0.250000 0.346840 0.444103
O O20 0.000000 0.373996 0.500000
#
# Coordination Sequence:
#
# PCOD9400223 Si02
#       7
#     8   8   8   8   8   8   8
#     4   8  14  26  42  59  80 104 132 166 203 246
#     4   8  13  22  40  64  84 104 132 167 209 253
#     4  10  20  31  42  59  86 121 158 191 222 254
#     4   8  15  27  43  64  86 110 140 171 206 249
#     4   9  18  31  45  63  88 114 137 165 205 250
#     4   9  16  27  44  64  87 114 145 179 212 251
#     4  10  19  30  44  60  79 105 137 170 203 244
#
# _framework density 15.088873
#
# number of rings (size 3 to 8) (size 9 to 14) (size 15 to 20)
#    0.000    3.143    0.000    3.000    0.000    3.143 
#    0.000    2.143    0.000    1.714    0.000    0.000 
#    0.000    0.571    0.000    1.857    0.000    2.714 
#
# Total GULP energy -311776.204229 kJ/mol
# GULP energy per Si atom -5567.432218 kJ/mol
# Density = 1.505453 g / cm^3
# Si number density = 15.088873 Si / 1000 Ang^3
#
#
#
# Elastic Constant Matrix: (Units=GPa)
#
#
# Indices 1 2 3 4 5 6 
#
# 1 32.4756 26.6368 16.9562 0.0000 0.0000 0.0000
# 2 26.6368 99.0820 9.0166 0.0000 0.0000 0.0000
# 3 16.9562 9.0166 24.1157 0.0000 0.0000 0.0000
# 4 0.0000 0.0000 0.0000 15.3198 0.0000 0.0000
# 5 0.0000 0.0000 0.0000 0.0000 22.8646 0.0000
# 6 0.0000 0.0000 0.0000 0.0000 0.0000 20.2870
#
#
#
# Elastic Compliance Matrix: (Units=1/GPa)
#
#
# Indices 1 2 3 4 5 6 
#
# 1 0.061542 -0.013051 -0.038392 0.000000 0.000000 0.000000
# 2 -0.013051 0.013216 0.004235 0.000000 0.000000 0.000000
# 3 -0.038392 0.004235 0.066877 0.000000 0.000000 0.000000
# 4 0.000000 0.000000 0.000000 0.065275 0.000000 0.000000
# 5 0.000000 0.000000 0.000000 0.000000 0.043736 0.000000
# 6 0.000000 0.000000 0.000000 0.000000 0.000000 0.049293
#
#
# Mechanical properties :
#
#
# Convention : Reuss Voigt Hill
#
# Bulk Modulus (GPa) = 21.17749 28.98806 25.08277
# Shear Modulus (GPa) = 12.19235 18.56519 15.37877
#
# Velocity S-wave (km/s) = 2.84568 3.51150 3.19597
# Velocity P-wave (km/s) = 4.98627 5.97445 5.50259
#
# Compressibility (1/GPa) = 0.04721995
#
# Stress axis : x y z
#
# Youngs Moduli (GPa) = 16.24911 75.66702 14.95276
#
# Poissons Ratio (x) = 0.98752 0.57406
# Poissons Ratio (y) = 0.21207 -0.06333
# Poissons Ratio (z) = 0.62383 -0.32046
#
# Static dielectric constant tensor:
#      x y z
#    x 1.502770 0.000000 0.000000 
#    y 0.000000 1.517810 0.000000 
#    z 0.000000 0.000000 1.482570 
# 
# From -- ./inp_files/32219.got.cif
#   From: 2010.05.17/outbox.cif.g08.bks.cpg/sg51_17_cif.got.tgz:32219.got - 2010.06.03 11:52:47.
