data_PCOD9400071
_publ_section_title
;
Structure prediction by ZEFSAII (Michael W. Deem and Ramdas Pophale) SiO2 
 PCOD9400071
Probable space group: P M M A
;
_chemical_formula_sum "Si O2"
_cell_formula_units_Z 48
_cell_length_a 8.831145
_cell_length_b 14.048725
_cell_length_c 24.613242
_cell_angle_alpha 90.000000
_cell_angle_beta 90.000000
_cell_angle_gamma 90.000000
_cell_volume 3053.674544
_symmetry_space_group_name_H-M "P M M A"
_symmetry_group_IT_number 51
_symmetry_cell_setting 'orthorhombic'
loop_
_space_group_symop_operation_xyz
x,y,z
1/2-x,-y,z
1/2+x,-y,-z
-x,y,-z
-x,-y,-z
1/2+x,y,-z
1/2-x,y,z
x,-y,z
loop_
_atom_site_type_symbol
_atom_site_label
_atom_site_fract_x
_atom_site_fract_y
_atom_site_fract_z
Si Si1 0.432052 0.200737 0.722780
Si Si2 0.568388 0.711641 0.442414
Si Si3 0.569961 0.113146 0.829783
Si Si4 0.068457 0.890568 0.383933
Si Si5 0.433678 0.393934 0.667316
Si Si6 0.075328 0.884227 0.943797
O O1 0.250000 0.193699 0.718952
O O2 0.488165 0.167858 0.781271
O O3 0.505352 0.135635 0.675774
O O4 0.478226 0.309109 0.707901
O O5 0.500000 0.683436 0.500000
O O6 0.750000 0.714973 0.445221
O O7 0.505944 0.814972 0.424700
O O8 0.524495 0.640941 0.393256
O O9 0.750000 0.125398 0.825978
O O10 0.512048 0.143892 0.889180
O O11 0.537089 0.000000 0.824116
O O12 0.250000 0.879347 0.384312
O O13 0.032152 0.000000 0.396999
O O14 0.250000 0.396784 0.668535
O O15 0.490201 0.500000 0.679118
O O16 0.250000 0.854979 0.941006
O O17 0.071815 0.000000 0.944989
O O18 0.000000 0.851439 0.000000
#
# Coordination Sequence:
#
# PCOD9400071 Si02
#       6
#     8   8   8   8   8   8
#     4  10  19  30  47  69  91 116 147 185 225 266
#     4  10  20  33  50  70  91 115 143 178 217 260
#     4  10  19  29  42  62  91 127 161 191 223 259
#     4  10  20  33  48  65  88 119 150 181 218 259
#     4   8  16  32  51  69  89 113 141 176 222 272
#     4   9  16  26  40  59  86 121 160 197 229 262
#
# _framework density 15.718767
#
# number of rings (size 3 to 8) (size 9 to 14) (size 15 to 20)
#    0.000    2.500    0.000    4.000    0.000    7.000 
#    0.000    0.000    0.000   17.500    0.000    0.000 
#    0.000    0.667    0.000    1.833    0.000    2.667 
#
# Total GULP energy -267647.469882 kJ/mol
# GULP energy per Si atom -5575.988956 kJ/mol
# Density = 1.568299 g / cm^3
# Si number density = 15.718767 Si / 1000 Ang^3
#
#
#
# Elastic Constant Matrix: (Units=GPa)
#
#
# Indices 1 2 3 4 5 6 
#
# 1 51.2301 23.0805 27.7222 0.0000 0.0000 0.0000
# 2 23.0805 58.4187 15.9593 0.0000 0.0000 0.0000
# 3 27.7222 15.9593 90.6974 0.0000 0.0000 0.0000
# 4 0.0000 0.0000 0.0000 8.1275 0.0000 0.0000
# 5 0.0000 0.0000 0.0000 0.0000 32.7370 0.0000
# 6 0.0000 0.0000 0.0000 0.0000 0.0000 7.7537
#
#
#
# Elastic Compliance Matrix: (Units=1/GPa)
#
#
# Indices 1 2 3 4 5 6 
#
# 1 0.027175 -0.008895 -0.006741 0.000000 0.000000 0.000000
# 2 -0.008895 0.020894 -0.000958 0.000000 0.000000 0.000000
# 3 -0.006741 -0.000958 0.013255 0.000000 0.000000 0.000000
# 4 0.000000 0.000000 0.000000 0.123039 0.000000 0.000000
# 5 0.000000 0.000000 0.000000 0.000000 0.030547 0.000000
# 6 0.000000 0.000000 0.000000 0.000000 0.000000 0.128971
#
#
# Mechanical properties :
#
#
# Convention : Reuss Voigt Hill
#
# Bulk Modulus (GPa) = 35.54169 37.09671 36.31920
# Shear Modulus (GPa) = 12.93844 18.62924 15.78384
#
# Velocity S-wave (km/s) = 2.87212 3.44635 3.17225
# Velocity P-wave (km/s) = 5.80162 6.28394 6.04759
#
# Compressibility (1/GPa) = 0.02813597
#
# Stress axis : x y z
#
# Youngs Moduli (GPa) = 36.79856 47.86128 75.44531
#
# Poissons Ratio (x) = 0.42572 0.50858
# Poissons Ratio (y) = 0.32732 0.07226
# Poissons Ratio (z) = 0.24806 0.04584
#
# Static dielectric constant tensor:
#      x y z
#    x 1.527080 0.000000 0.000000 
#    y 0.000000 1.516250 0.000000 
#    z 0.000000 0.000000 1.513150 
# 
# From -- ./inp_files/34528.got.cif
#   From: 2010.05.17/outbox.cif.g08.bks.cpg/sg51_18_cif.got.tgz:34528.got - 2010.06.03 11:52:47.
