data_PCOD9400028
_publ_section_title
;
Structure prediction by ZEFSAII (Michael W. Deem and Ramdas Pophale) SiO2 
 PCOD9400028
Probable space group: P M M A
;
_chemical_formula_sum "Si O2"
_cell_formula_units_Z 56
_cell_length_a 9.163566
_cell_length_b 13.851027
_cell_length_c 29.711046
_cell_angle_alpha 90.000000
_cell_angle_beta 90.000000
_cell_angle_gamma 90.000000
_cell_volume 3771.068574
_symmetry_space_group_name_H-M "P M M A"
_symmetry_group_IT_number 51
_symmetry_cell_setting 'orthorhombic'
loop_
_space_group_symop_operation_xyz
x,y,z
1/2-x,-y,z
1/2+x,-y,-z
-x,y,-z
-x,-y,-z
1/2+x,y,-z
1/2-x,y,z
x,-y,z
loop_
_atom_site_type_symbol
_atom_site_label
_atom_site_fract_x
_atom_site_fract_y
_atom_site_fract_z
Si Si1 0.081773 0.382558 0.363681
Si Si2 0.423723 0.803841 0.953076
Si Si3 0.081373 0.617684 0.545544
Si Si4 0.075903 0.302896 0.183502
Si Si5 0.076322 0.391117 0.902664
Si Si6 0.422644 0.615964 0.728588
Si Si7 0.576746 0.891097 0.867272
O O1 0.250000 0.351254 0.362470
O O2 0.081655 0.500000 0.364505
O O3 0.001731 0.350807 0.409323
O O4 0.996002 0.354562 0.318602
O O5 0.250000 0.815649 0.956397
O O6 0.455893 0.692637 0.938628
O O7 0.487772 0.866865 0.912320
O O8 0.500000 0.826828 0.000000
O O9 0.250000 0.647685 0.545762
O O10 0.080032 0.500000 0.545647
O O11 0.000000 0.648380 0.500000
O O12 0.250000 0.315851 0.186770
O O13 0.044551 0.192326 0.168904
O O14 0.011767 0.366522 0.142565
O O15 0.999253 0.332921 0.229509
O O16 0.250000 0.385014 0.892650
O O17 0.044278 0.500000 0.917912
O O18 0.250000 0.634946 0.727929
O O19 0.442409 0.500000 0.733543
O O20 0.750000 0.883703 0.877492
O O21 0.546349 0.000000 0.851990
#
# Coordination Sequence:
#
# PCOD9400028 Si02
#       7
#     8   8   8   8   8   8   8
#     4   9  16  25  36  51  72  99 135 178 217 250
#     4  10  20  33  49  69  91 113 138 167 199 237
#     4   9  15  22  32  46  66  95 133 176 219 258
#     4  10  19  30  46  67  86 105 134 170 205 243
#     4   9  18  32  47  63  86 115 142 167 197 235
#     4  10  19  29  41  58  83 114 142 169 205 248
#     4   9  19  36  54  69  86 108 134 166 204 245
#
# _framework density 14.849902
#
# number of rings (size 3 to 8) (size 9 to 14) (size 15 to 20)
#    0.000    2.571    0.000    2.571    0.000    8.286 
#    0.000    0.000    0.000    0.000    0.000    0.000 
#    0.000    0.000    0.000    0.000    0.000    0.714 
#
# Total GULP energy -312189.574840 kJ/mol
# GULP energy per Si atom -5574.813836 kJ/mol
# Density = 1.481610 g / cm^3
# Si number density = 14.849902 Si / 1000 Ang^3
#
#
#
# Elastic Constant Matrix: (Units=GPa)
#
#
# Indices 1 2 3 4 5 6 
#
# 1 82.8022 18.1640 61.0908 0.0000 0.0000 0.0000
# 2 18.1640 36.1190 5.4824 0.0000 0.0000 0.0000
# 3 61.0908 5.4824 108.7963 0.0000 0.0000 0.0000
# 4 0.0000 0.0000 0.0000 8.3159 0.0000 0.0000
# 5 0.0000 0.0000 0.0000 0.0000 29.4109 0.0000
# 6 0.0000 0.0000 0.0000 0.0000 0.0000 13.2023
#
#
#
# Elastic Compliance Matrix: (Units=1/GPa)
#
#
# Indices 1 2 3 4 5 6 
#
# 1 0.023725 -0.009985 -0.012819 0.000000 0.000000 0.000000
# 2 -0.009985 0.032102 0.003989 0.000000 0.000000 0.000000
# 3 -0.012819 0.003989 0.016188 0.000000 0.000000 0.000000
# 4 0.000000 0.000000 0.000000 0.120252 0.000000 0.000000
# 5 0.000000 0.000000 0.000000 0.000000 0.034001 0.000000
# 6 0.000000 0.000000 0.000000 0.000000 0.000000 0.075744
#
#
# Mechanical properties :
#
#
# Convention : Reuss Voigt Hill
#
# Bulk Modulus (GPa) = 29.08169 44.13243 36.60706
# Shear Modulus (GPa) = 14.24077 19.71784 16.97931
#
# Velocity S-wave (km/s) = 3.10010 3.64787 3.38508
# Velocity P-wave (km/s) = 5.69565 6.89392 6.32323
#
# Compressibility (1/GPa) = 0.03438590
#
# Stress axis : x y z
#
# Youngs Moduli (GPa) = 42.14958 31.15043 61.77260
#
# Poissons Ratio (x) = 0.31105 0.79185
# Poissons Ratio (y) = 0.42088 -0.24643
# Poissons Ratio (z) = 0.54031 -0.12427
#
# Static dielectric constant tensor:
#      x y z
#    x 1.495060 0.000000 0.000000 
#    y 0.000000 1.479560 0.000000 
#    z 0.000000 0.000000 1.470130 
# 
# From -- ./inp_files/37484.got.cif
#   From: 2010.05.17/outbox.cif.g08.bks.cpg/sg51_19_cif.got.tgz:37484.got - 2010.06.03 11:52:47.
