data_PCOD9400818
_publ_section_title
;
Structure prediction by ZEFSAII (Michael W. Deem and Ramdas Pophale) SiO2 
 PCOD9400818
Probable space group: P M M A
;
_chemical_formula_sum "Si O2"
_cell_formula_units_Z 56
_cell_length_a 8.707774
_cell_length_b 19.615857
_cell_length_c 19.104773
_cell_angle_alpha 90.000000
_cell_angle_beta 90.000000
_cell_angle_gamma 90.000000
_cell_volume 3263.294865
_symmetry_space_group_name_H-M "P M M A"
_symmetry_group_IT_number 51
_symmetry_cell_setting 'orthorhombic'
loop_
_space_group_symop_operation_xyz
x,y,z
1/2-x,-y,z
1/2+x,-y,-z
-x,y,-z
-x,-y,-z
1/2+x,y,-z
1/2-x,y,z
x,-y,z
loop_
_atom_site_type_symbol
_atom_site_label
_atom_site_fract_x
_atom_site_fract_y
_atom_site_fract_z
Si Si1 0.065929 0.158525 0.925315
Si Si2 0.563520 0.076619 0.212973
Si Si3 0.564366 0.211410 0.287216
Si Si4 0.432689 0.285746 0.151457
Si Si5 0.566337 0.577462 0.192749
Si Si6 0.433466 0.422353 0.349665
Si Si7 0.433681 0.292392 0.575304
O O1 0.250000 0.160289 0.927385
O O2 0.018681 0.107621 0.862501
O O3 0.004106 0.233097 0.903912
O O4 0.000000 0.137809 0.000000
O O5 0.750000 0.074088 0.213227
O O6 0.519944 0.133511 0.270145
O O7 0.506173 0.000000 0.223824
O O8 0.750000 0.217221 0.279146
O O9 0.488397 0.257306 0.226980
O O10 0.522965 0.239395 0.363273
O O11 0.250000 0.283982 0.147352
O O12 0.493507 0.362712 0.146912
O O13 0.750000 0.584962 0.193952
O O14 0.528533 0.500000 0.170547
O O15 0.504160 0.585440 0.272088
O O16 0.250000 0.413887 0.345029
O O17 0.466070 0.500000 0.372848
O O18 0.502972 0.365614 0.400024
O O19 0.500000 0.274101 0.500000
O O20 0.250000 0.295404 0.571848
#
# Coordination Sequence:
#
# PCOD9400818 Si02
#       7
#     8   8   8   8   8   8   8
#     4  10  20  34  52  77 110 142 174 207 247 300
#     4   8  15  30  54  81 106 134 168 207 251 300
#     4   9  18  33  52  74 100 131 170 214 257 306
#     4  11  20  31  52  76 101 135 174 215 258 301
#     4  10  19  31  49  73 101 133 170 214 261 305
#     4  10  20  33  49  71  99 131 169 213 261 313
#     4  11  22  34  50  70  98 135 175 218 266 314
#
# _framework density 17.160568999999999
#
# number of rings (size 3 to 8) (size 9 to 14) (size 15 to 20)
#    0.000    2.143    1.429    3.857    0.000    2.857 
#    0.000    0.000    0.000   11.143    0.000    0.000 
#    0.000    0.000    0.000    0.000    0.000    0.143 
#
# Total GULP energy -312465.572174 kJ/mol
# GULP energy per Si atom -5579.742360 kJ/mol
# Density = 1.712151 g / cm^3
# Si number density = 17.160569 Si / 1000 Ang^3
#
#
#
# Elastic Constant Matrix: (Units=GPa)
#
#
# Indices 1 2 3 4 5 6 
#
# 1 49.5611 33.2838 20.6778 0.0000 0.0000 0.0000
# 2 33.2838 131.3992 43.3782 0.0000 0.0000 0.0000
# 3 20.6778 43.3782 57.2476 0.0000 0.0000 0.0000
# 4 0.0000 0.0000 0.0000 13.8688 0.0000 0.0000
# 5 0.0000 0.0000 0.0000 0.0000 26.4702 0.0000
# 6 0.0000 0.0000 0.0000 0.0000 0.0000 8.7511
#
#
#
# Elastic Compliance Matrix: (Units=1/GPa)
#
#
# Indices 1 2 3 4 5 6 
#
# 1 0.025679 -0.004591 -0.005796 0.000000 0.000000 0.000000
# 2 -0.004591 0.010970 -0.006654 0.000000 0.000000 0.000000
# 3 -0.005796 -0.006654 0.024604 0.000000 0.000000 0.000000
# 4 0.000000 0.000000 0.000000 0.072104 0.000000 0.000000
# 5 0.000000 0.000000 0.000000 0.000000 0.037778 0.000000
# 6 0.000000 0.000000 0.000000 0.000000 0.000000 0.114272
#
#
# Mechanical properties :
#
#
# Convention : Reuss Voigt Hill
#
# Bulk Modulus (GPa) = 36.80608 48.09862 42.45235
# Shear Modulus (GPa) = 15.21860 19.20924 17.21392
#
# Velocity S-wave (km/s) = 2.98121 3.34935 3.17063
# Velocity P-wave (km/s) = 5.77449 6.56101 6.18028
#
# Compressibility (1/GPa) = 0.02716942
#
# Stress axis : x y z
#
# Youngs Moduli (GPa) = 38.94292 91.15811 40.64448
#
# Poissons Ratio (x) = 0.41850 0.23559
# Poissons Ratio (y) = 0.17878 0.27045
# Poissons Ratio (z) = 0.22573 0.60657
#
# Static dielectric constant tensor:
#      x y z
#    x 1.577010 0.000000 0.000000 
#    y 0.000000 1.599450 0.000000 
#    z 0.000000 0.000000 1.560810 
# 
# From -- ./inp_files/28204.got.cif
#   From: 2010.05.17/outbox.cif.g08.bks.cpg/sg51_15_cif.got.tgz:28204.got - 2010.06.03 11:52:47.
