data_PCOD9400335
_publ_section_title
;
Structure prediction by ZEFSAII (Michael W. Deem and Ramdas Pophale) SiO2 
 PCOD9400335
Probable space group: P M M A
;
_chemical_formula_sum "Si O2"
_cell_formula_units_Z 64
_cell_length_a 20.202058
_cell_length_b 7.484901
_cell_length_c 19.582374
_cell_angle_alpha 90.000000
_cell_angle_beta 90.000000
_cell_angle_gamma 90.000000
_cell_volume 2961.058686
_symmetry_space_group_name_H-M "P M M A"
_symmetry_group_IT_number 51
_symmetry_cell_setting 'orthorhombic'
loop_
_space_group_symop_operation_xyz
x,y,z
1/2-x,-y,z
1/2+x,-y,-z
-x,y,-z
-x,-y,-z
1/2+x,y,-z
1/2-x,y,z
x,-y,z
loop_
_atom_site_type_symbol
_atom_site_label
_atom_site_fract_x
_atom_site_fract_y
_atom_site_fract_z
Si Si1 0.175216 0.718794 0.466231
Si Si2 0.384826 0.705682 0.323634
Si Si3 0.820934 0.784645 0.809656
Si Si4 0.528201 0.199999 0.292570
Si Si5 0.556545 0.289139 0.448363
Si Si6 0.562409 0.781425 0.142838
Si Si7 0.673209 0.217739 0.042228
Si Si8 0.574970 0.782192 0.919992
O O1 0.250000 0.781797 0.471063
O O2 0.177751 0.500000 0.464298
O O3 0.140847 0.775286 0.395534
O O4 0.127650 0.778276 0.527048
O O5 0.405043 0.500000 0.333794
O O6 0.328527 0.717855 0.267001
O O7 0.448546 0.801965 0.293259
O O8 0.750000 0.730371 0.839494
O O9 0.882877 0.725913 0.853992
O O10 0.822378 0.000000 0.808721
O O11 0.544991 0.269876 0.367987
O O12 0.550991 0.282919 0.220583
O O13 0.554996 0.000000 0.291716
O O14 0.500000 0.215685 0.500000
O O15 0.557404 0.500000 0.461695
O O16 0.633133 0.732487 0.110829
O O17 0.500793 0.725649 0.093660
O O18 0.559107 0.000000 0.143868
O O19 0.750000 0.277788 0.037174
O O20 0.675738 0.000000 0.038914
O O21 0.621897 0.274791 0.982610
O O22 0.572816 0.000000 0.924171
#
# Coordination Sequence:
#
# PCOD9400335 Si02
#       8
#     8   8   8   8   8   8   8   8
#     4   9  18  33  53  75 100 130 166 209 255 301
#     4  11  20  33  52  74 103 137 176 215 254 306
#     4  10  19  30  45  71 108 142 168 204 256 310
#     4  11  21  34  52  77 105 136 173 212 265 317
#     4  10  19  35  56  78 102 132 172 215 254 299
#     4   9  17  29  45  66  98 135 170 209 255 309
#     4   9  16  26  43  69  98 131 172 216 260 305
#     4   9  15  26  44  68  98 133 169 207 253 307
#
# _framework density 21.613889
#
# number of rings (size 3 to 8) (size 9 to 14) (size 15 to 20)
#    0.000    2.250    2.500    1.875    0.000    4.000 
#    0.000    0.625    0.000    2.625    0.000    2.625 
#    0.000    2.000    0.000    0.000    0.000    0.000 
#
# Total GULP energy -357015.425097 kJ/mol
# GULP energy per Si atom -5578.366017 kJ/mol
# Density = 2.156469 g / cm^3
# Si number density = 21.613889 Si / 1000 Ang^3
#
#
#
# Elastic Constant Matrix: (Units=GPa)
#
#
# Indices 1 2 3 4 5 6 
#
# 1 125.7118 1.6784 85.4463 0.0000 0.0000 0.0000
# 2 1.6784 54.0943 -1.6699 0.0000 0.0000 0.0000
# 3 85.4463 -1.6699 137.4695 0.0000 0.0000 0.0000
# 4 0.0000 0.0000 0.0000 12.2333 0.0000 0.0000
# 5 0.0000 0.0000 0.0000 0.0000 27.7668 0.0000
# 6 0.0000 0.0000 0.0000 0.0000 0.0000 2.4882
#
#
#
# Elastic Compliance Matrix: (Units=1/GPa)
#
#
# Indices 1 2 3 4 5 6 
#
# 1 0.013800 -0.000693 -0.008586 0.000000 0.000000 0.000000
# 2 -0.000693 0.018528 0.000656 0.000000 0.000000 0.000000
# 3 -0.008586 0.000656 0.012619 0.000000 0.000000 0.000000
# 4 0.000000 0.000000 0.000000 0.081744 0.000000 0.000000
# 5 0.000000 0.000000 0.000000 0.000000 0.036014 0.000000
# 6 0.000000 0.000000 0.000000 0.000000 0.000000 0.401903
#
#
# Mechanical properties :
#
#
# Convention : Reuss Voigt Hill
#
# Bulk Modulus (GPa) = 36.10051 54.24281 45.17166
# Shear Modulus (GPa) = 8.45898 23.95237 16.20567
#
# Velocity S-wave (km/s) = 1.98045 3.33257 2.74118
# Velocity P-wave (km/s) = 4.68703 6.32129 5.56449
#
# Compressibility (1/GPa) = 0.02770044
#
# Stress axis : x y z
#
# Youngs Moduli (GPa) = 72.46479 53.97241 79.24546
#
# Poissons Ratio (x) = 0.03742 0.68039
# Poissons Ratio (y) = 0.05023 -0.05198
# Poissons Ratio (z) = 0.62218 -0.03540
#
# Static dielectric constant tensor:
#      x y z
#    x 1.772370 0.000000 0.000000 
#    y 0.000000 1.848900 0.000000 
#    z 0.000000 0.000000 1.796850 
# 
# From -- ./inp_files/30596.got.cif
#   From: 2010.05.17/outbox.cif.g08.bks.cpg/sg51_16_cif.got.tgz:30596.got - 2010.06.03 11:52:47.
