data_PCOD9400814
_publ_section_title
;
Structure prediction by ZEFSAII (Michael W. Deem and Ramdas Pophale) SiO2 
 PCOD9400814
Probable space group: P M M A
;
_chemical_formula_sum "Si O2"
_cell_formula_units_Z 64
_cell_length_a 9.004807
_cell_length_b 14.236926
_cell_length_c 29.354023
_cell_angle_alpha 90.000000
_cell_angle_beta 90.000000
_cell_angle_gamma 90.000000
_cell_volume 3763.208378
_symmetry_space_group_name_H-M "P M M A"
_symmetry_group_IT_number 51
_symmetry_cell_setting 'orthorhombic'
loop_
_space_group_symop_operation_xyz
x,y,z
1/2-x,-y,z
1/2+x,-y,-z
-x,y,-z
-x,-y,-z
1/2+x,y,-z
1/2-x,y,z
x,-y,z
loop_
_atom_site_type_symbol
_atom_site_label
_atom_site_fract_x
_atom_site_fract_y
_atom_site_fract_z
Si Si1 0.928693 0.890989 0.359517
Si Si2 0.928000 0.098985 0.049934
Si Si3 0.573026 0.214374 0.453001
Si Si4 0.927646 0.391104 0.592277
Si Si5 0.926964 0.285228 0.686904
Si Si6 0.427964 0.306318 0.949941
Si Si7 0.572938 0.388059 0.227839
Si Si8 0.917057 0.388653 0.865071
O O1 0.750000 0.884207 0.353880
O O2 0.963302 0.854140 0.410642
O O3 0.006786 0.816414 0.326239
O O4 0.971482 0.000000 0.353528
O O5 0.750000 0.098752 0.045096
O O6 0.966040 0.201076 0.068455
O O7 0.971196 0.000000 0.072974
O O8 0.000000 0.097713 0.000000
O O9 0.500000 0.182797 0.500000
O O10 0.750000 0.218442 0.457545
O O11 0.510624 0.317436 0.440052
O O12 0.750000 0.384556 0.584465
O O13 0.971801 0.500000 0.587101
O O14 0.956028 0.353755 0.643597
O O15 0.750000 0.278969 0.692766
O O16 0.001627 0.330264 0.731063
O O17 0.250000 0.316025 0.953715
O O18 0.496031 0.372307 0.911854
O O19 0.500000 0.318273 0.000000
O O20 0.750000 0.376743 0.227179
O O21 0.541791 0.500000 0.233897
O O22 0.504846 0.355347 0.179598
O O23 0.750000 0.349199 0.867554
O O24 0.905321 0.500000 0.859205
#
# Coordination Sequence:
#
# PCOD9400814 Si02
#       8
#     8   8   8   8   8   8   8   8
#     4   9  19  36  55  75 101 133 170 212 256 302
#     4   8  14  25  42  65  91 118 150 189 233 279
#     4  10  20  33  49  70  97 131 171 213 256 301
#     4   9  18  32  49  70  98 131 165 202 246 297
#     4  10  19  32  53  80 106 130 160 202 250 301
#     4  10  19  31  49  72  99 132 169 209 251 297
#     4  10  20  34  54  79 105 133 164 199 244 300
#     4  10  21  36  52  71  98 132 169 209 251 294
#
# _framework density 17.006765000000001
#
# number of rings (size 3 to 8) (size 9 to 14) (size 15 to 20)
#    0.000    2.500    0.000    2.250    0.000    4.750 
#    0.000    0.000    0.000    0.750    0.000    1.750 
#    0.000    0.000    0.000    0.000    0.000    0.000 
#
# Total GULP energy -356591.886491 kJ/mol
# GULP energy per Si atom -5571.748226 kJ/mol
# Density = 1.696806 g / cm^3
# Si number density = 17.006765 Si / 1000 Ang^3
#
#
#
# Elastic Constant Matrix: (Units=GPa)
#
#
# Indices 1 2 3 4 5 6 
#
# 1 66.0611 38.1695 55.4581 0.0000 0.0000 0.0000
# 2 38.1695 71.2735 29.6398 0.0000 0.0000 0.0000
# 3 55.4581 29.6398 102.9924 0.0000 0.0000 0.0000
# 4 0.0000 0.0000 0.0000 15.6232 0.0000 0.0000
# 5 0.0000 0.0000 0.0000 0.0000 26.9792 0.0000
# 6 0.0000 0.0000 0.0000 0.0000 0.0000 21.5083
#
#
#
# Elastic Compliance Matrix: (Units=1/GPa)
#
#
# Indices 1 2 3 4 5 6 
#
# 1 0.035289 -0.012491 -0.015407 0.000000 0.000000 0.000000
# 2 -0.012491 0.020359 0.000867 0.000000 0.000000 0.000000
# 3 -0.015407 0.000867 0.017756 0.000000 0.000000 0.000000
# 4 0.000000 0.000000 0.000000 0.064007 0.000000 0.000000
# 5 0.000000 0.000000 0.000000 0.000000 0.037066 0.000000
# 6 0.000000 0.000000 0.000000 0.000000 0.000000 0.046494
#
#
# Mechanical properties :
#
#
# Convention : Reuss Voigt Hill
#
# Bulk Modulus (GPa) = 51.70168 54.09574 52.89871
# Shear Modulus (GPa) = 17.76312 20.62612 19.19462
#
# Velocity S-wave (km/s) = 3.23534 3.48633 3.36318
# Velocity P-wave (km/s) = 6.66507 6.93422 6.80098
#
# Compressibility (1/GPa) = 0.01934173
#
# Stress axis : x y z
#
# Youngs Moduli (GPa) = 28.33722 49.11712 56.31818
#
# Poissons Ratio (x) = 0.61354 0.86771
# Poissons Ratio (y) = 0.35397 -0.04883
# Poissons Ratio (z) = 0.43660 -0.04259
#
# Static dielectric constant tensor:
#      x y z
#    x 1.564610 0.000000 0.000000 
#    y 0.000000 1.604450 0.000000 
#    z 0.000000 0.000000 1.540480 
# 
# From -- ./inp_files/34958.got.cif
#   From: 2010.05.17/outbox.cif.g08.bks.cpg/sg51_18_cif.got.tgz:34958.got - 2010.06.03 11:52:47.
