data_PCOD9400910
_publ_section_title
;
Structure prediction by ZEFSAII (Michael W. Deem and Ramdas Pophale) SiO2 
 PCOD9400910
Probable space group: P M M A
;
_chemical_formula_sum "Si O2"
_cell_formula_units_Z 64
_cell_length_a 9.445744
_cell_length_b 16.046386
_cell_length_c 21.325726
_cell_angle_alpha 90.000000
_cell_angle_beta 90.000000
_cell_angle_gamma 90.000000
_cell_volume 3232.341447
_symmetry_space_group_name_H-M "P M M A"
_symmetry_group_IT_number 51
_symmetry_cell_setting 'orthorhombic'
loop_
_space_group_symop_operation_xyz
x,y,z
1/2-x,-y,z
1/2+x,-y,-z
-x,y,-z
-x,-y,-z
1/2+x,y,-z
1/2-x,y,z
x,-y,z
loop_
_atom_site_type_symbol
_atom_site_label
_atom_site_fract_x
_atom_site_fract_y
_atom_site_fract_z
Si Si1 0.911899 0.861256 0.317026
Si Si2 0.912501 0.901026 0.806662
Si Si3 0.088769 0.840895 0.059143
Si Si4 0.087379 0.339809 0.438651
Si Si5 0.587720 0.400952 0.183136
Si Si6 0.588077 0.660784 0.318399
Si Si7 0.411470 0.640185 0.059868
Si Si8 0.413562 0.864098 0.438353
O O1 0.750000 0.891857 0.318640
O O2 0.906672 0.760893 0.322168
O O3 0.990026 0.881199 0.252346
O O4 0.004368 0.891718 0.375894
O O5 0.750000 0.870196 0.796445
O O6 0.967666 0.864010 0.872162
O O7 0.906606 0.000000 0.813760
O O8 0.250000 0.872661 0.055956
O O9 0.093003 0.740695 0.055347
O O10 0.000000 0.872172 0.000000
O O11 0.250000 0.366795 0.441584
O O12 0.087593 0.237834 0.438185
O O13 0.000000 0.365519 0.500000
O O14 0.010107 0.368371 0.375200
O O15 0.750000 0.371108 0.172012
O O16 0.591800 0.500000 0.190554
O O17 0.537077 0.363029 0.248996
O O18 0.490393 0.380557 0.124209
O O19 0.750000 0.629394 0.325041
O O20 0.250000 0.609516 0.059038
O O21 0.500000 0.608966 0.000000
O O22 0.500000 0.889969 0.500000
O O23 0.250000 0.891035 0.439421
#
# Coordination Sequence:
#
# PCOD9400910 Si02
#       8
#     8   8   8   8   8   8   8   8
#     4  10  19  31  50  75 101 131 169 210 250 296
#     4  10  21  36  52  72 102 137 169 204 248 296
#     4   9  19  35  55  79 104 131 165 205 249 296
#     4   9  16  26  44  71 101 131 164 206 253 299
#     4  10  21  36  53  74 102 135 169 207 252 300
#     4   9  18  32  50  73 101 132 166 207 254 300
#     4  10  20  35  56  79 103 131 165 206 249 296
#     4   9  16  27  45  71 102 132 164 205 253 301
#
# _framework density 19.799889
#
# number of rings (size 3 to 8) (size 9 to 14) (size 15 to 20)
#    0.000    2.500    0.000    2.250    0.000    6.000 
#    0.000    0.000    0.000    0.750    0.000    0.000 
#    0.000    0.000    0.000    0.000    0.000    0.000 
#
# Total GULP energy -357254.172269 kJ/mol
# GULP energy per Si atom -5582.096442 kJ/mol
# Density = 1.975482 g / cm^3
# Si number density = 19.799889 Si / 1000 Ang^3
#
#
#
# Elastic Constant Matrix: (Units=GPa)
#
#
# Indices 1 2 3 4 5 6 
#
# 1 355.2240 -196.2315 363.3401 0.0000 0.0000 0.0000
# 2 -196.2315 223.9709 -227.8668 0.0000 0.0000 0.0000
# 3 363.3401 -227.8668 491.3940 0.0000 0.0000 0.0000
# 4 0.0000 0.0000 0.0000 -94.1915 0.0000 0.0000
# 5 0.0000 0.0000 0.0000 0.0000 40.6320 0.0000
# 6 0.0000 0.0000 0.0000 0.0000 0.0000 0.2055
#
#
#
# Elastic Compliance Matrix: (Units=1/GPa)
#
#
# Indices 1 2 3 4 5 6 
#
# 1 0.012490 0.002929 -0.007877 0.000000 0.000000 0.000000
# 2 0.002929 0.009140 0.002072 0.000000 0.000000 0.000000
# 3 -0.007877 0.002072 0.008820 0.000000 0.000000 0.000000
# 4 0.000000 0.000000 0.000000 -0.010617 0.000000 0.000000
# 5 0.000000 0.000000 0.000000 0.000000 0.024611 0.000000
# 6 0.000000 0.000000 0.000000 0.000000 0.000000 4.865342
#
#
# Mechanical properties :
#
#
# Convention : Reuss Voigt Hill
#
# Bulk Modulus (GPa) = 40.48697 105.45248 72.96973
# Shear Modulus (GPa) = 1.01548 64.75237 32.88392
#
# Velocity S-wave (km/s) = 0.71693 5.72489 4.07973
# Velocity P-wave (km/s) = 4.60193 9.85261 7.68933
#
# Compressibility (1/GPa) = 0.02469930
#
# Stress axis : x y z
#
# Youngs Moduli (GPa) = 80.06106 109.41312 113.37344
#
# Poissons Ratio (x) = -0.32050 0.89306
# Poissons Ratio (y) = -0.23452 -0.23494
# Poissons Ratio (z) = 0.63066 -0.22673
#
# Static dielectric constant tensor:
#      x y z
#    x 1.694040 0.000000 0.000000 
#    y 0.000000 1.690590 0.000000 
#    z 0.000000 0.000000 1.664780 
# 
# From -- ./inp_files/28373.got.cif
#   From: 2010.05.17/outbox.cif.g08.bks.cpg/sg51_15_cif.got.tgz:28373.got - 2010.06.03 11:52:47.
