data_PCOD9400724
_publ_section_title
;
Structure prediction by ZEFSAII (Michael W. Deem and Ramdas Pophale) SiO2 
 PCOD9400724
Probable space group: P M M A
;
_chemical_formula_sum "Si O2"
_cell_formula_units_Z 48
_cell_length_a 8.969595
_cell_length_b 24.010802
_cell_length_c 14.070893
_cell_angle_alpha 90.000000
_cell_angle_beta 90.000000
_cell_angle_gamma 90.000000
_cell_volume 3030.408399
_symmetry_space_group_name_H-M "P M M A"
_symmetry_group_IT_number 51
_symmetry_cell_setting 'orthorhombic'
loop_
_space_group_symop_operation_xyz
x,y,z
1/2-x,-y,z
1/2+x,-y,-z
-x,y,-z
-x,-y,-z
1/2+x,y,-z
1/2-x,y,z
x,-y,z
loop_
_atom_site_type_symbol
_atom_site_label
_atom_site_fract_x
_atom_site_fract_y
_atom_site_fract_z
Si Si1 0.427345 0.270105 0.603035
Si Si2 0.071830 0.840381 0.724899
Si Si3 0.072983 0.934232 0.397804
Si Si4 0.571697 0.667580 0.773334
Si Si5 0.927993 0.777536 0.896538
Si Si6 0.070423 0.436158 0.102464
O O1 0.500000 0.273979 0.500000
O O2 0.250000 0.275276 0.595642
O O3 0.461061 0.210142 0.651223
O O4 0.491064 0.315502 0.676434
O O5 0.250000 0.844900 0.734254
O O6 0.002077 0.895916 0.681348
O O7 0.998994 0.822021 0.824180
O O8 0.250000 0.923864 0.402137
O O9 0.000000 0.921135 0.500000
O O10 0.049303 0.000000 0.379920
O O11 0.750000 0.666470 0.757138
O O12 0.541870 0.717078 0.849018
O O13 0.524400 0.609332 0.819942
O O14 0.750000 0.784666 0.901786
O O15 0.000000 0.780717 0.000000
O O16 0.250000 0.433063 0.093861
O O17 0.030554 0.500000 0.126952
O O18 0.000000 0.423278 0.000000
#
# Coordination Sequence:
#
# PCOD9400724 Si02
#       6
#     8   8   8   8   8   8
#     4  10  20  32  48  70  95 123 155 193 235 280
#     4  10  20  33  50  72  97 126 159 194 235 281
#     4  10  20  33  50  73 100 129 160 194 233 277
#     4   9  18  31  47  68  95 126 157 192 234 278
#     4  10  19  31  48  70  97 127 159 195 235 280
#     4   9  17  29  46  69  96 125 156 191 232 277
#
# _framework density 15.839449
#
# number of rings (size 3 to 8) (size 9 to 14) (size 15 to 20)
#    0.000    2.333    0.000    3.000    0.000    5.667 
#    0.000    0.000    0.000    1.000    0.000    0.000 
#    0.000    0.000    0.000    0.000    0.000    0.000 
#
# Total GULP energy -267837.222455 kJ/mol
# GULP energy per Si atom -5579.942134 kJ/mol
# Density = 1.580340 g / cm^3
# Si number density = 15.839449 Si / 1000 Ang^3
#
#
#
# Elastic Constant Matrix: (Units=GPa)
#
#
# Indices 1 2 3 4 5 6 
#
# 1 57.3144 46.3842 67.7622 0.0000 0.0000 0.0000
# 2 46.3842 67.7280 61.1187 0.0000 0.0000 0.0000
# 3 67.7622 61.1187 151.5661 0.0000 0.0000 0.0000
# 4 0.0000 0.0000 0.0000 25.9883 0.0000 0.0000
# 5 0.0000 0.0000 0.0000 0.0000 33.3518 0.0000
# 6 0.0000 0.0000 0.0000 0.0000 0.0000 20.4843
#
#
#
# Elastic Compliance Matrix: (Units=1/GPa)
#
#
# Indices 1 2 3 4 5 6 
#
# 1 0.053799 -0.023800 -0.014455 0.000000 0.000000 0.000000
# 2 -0.023800 0.033741 -0.002965 0.000000 0.000000 0.000000
# 3 -0.014455 -0.002965 0.014256 0.000000 0.000000 0.000000
# 4 0.000000 0.000000 0.000000 0.038479 0.000000 0.000000
# 5 0.000000 0.000000 0.000000 0.000000 0.029983 0.000000
# 6 0.000000 0.000000 0.000000 0.000000 0.000000 0.048818
#
#
# Mechanical properties :
#
#
# Convention : Reuss Voigt Hill
#
# Bulk Modulus (GPa) = 51.66724 69.68208 60.67466
# Shear Modulus (GPa) = 16.23538 22.72111 19.47824
#
# Velocity S-wave (km/s) = 3.20503 3.79154 3.51055
# Velocity P-wave (km/s) = 6.81076 7.95336 7.40413
#
# Compressibility (1/GPa) = 0.01935462
#
# Stress axis : x y z
#
# Youngs Moduli (GPa) = 18.58759 29.63774 70.14549
#
# Poissons Ratio (x) = 0.70539 1.01396
# Poissons Ratio (y) = 0.44239 0.20799
# Poissons Ratio (z) = 0.26869 0.08788
#
# Static dielectric constant tensor:
#      x y z
#    x 1.523120 0.000000 0.000000 
#    y 0.000000 1.527230 0.000000 
#    z 0.000000 0.000000 1.493650 
# 
# From -- ./inp_files/14401.got.cif
#   From: 2010.05.17/outbox.cif.g08.bks.cpg/sg51_8_cif.got.tgz:14401.got - 2010.06.03 11:52:47.
