data_PCOD9400044
_publ_section_title
;
Structure prediction by ZEFSAII (Michael W. Deem and Ramdas Pophale) SiO2 
 PCOD9400044
Probable space group: P M M A
;
_chemical_formula_sum "Si O2"
_cell_formula_units_Z 64
_cell_length_a 19.755641
_cell_length_b 9.453537
_cell_length_c 19.201685
_cell_angle_alpha 90.000000
_cell_angle_beta 90.000000
_cell_angle_gamma 90.000000
_cell_volume 3586.119808
_symmetry_space_group_name_H-M "P M M A"
_symmetry_group_IT_number 51
_symmetry_cell_setting 'orthorhombic'
loop_
_space_group_symop_operation_xyz
x,y,z
1/2-x,-y,z
1/2+x,-y,-z
-x,y,-z
-x,-y,-z
1/2+x,y,-z
1/2-x,y,z
x,-y,z
loop_
_atom_site_type_symbol
_atom_site_label
_atom_site_fract_x
_atom_site_fract_y
_atom_site_fract_z
Si Si1 0.530449 0.667917 0.577086
Si Si2 0.045919 0.336444 0.156163
Si Si3 0.170760 0.157990 0.612832
Si Si4 0.613137 0.662315 0.108674
Si Si5 0.420702 0.836797 0.023211
Si Si6 0.827895 0.667493 0.520172
Si Si7 0.858835 0.160470 0.235761
Si Si8 0.487582 0.160798 0.285153
O O1 0.500000 0.698640 0.500000
O O2 0.518189 0.500000 0.589909
O O3 0.611773 0.693425 0.574266
O O4 0.503683 0.763014 0.640355
O O5 0.067658 0.500000 0.159063
O O6 0.082271 0.246716 0.095828
O O7 0.052766 0.259002 0.230593
O O8 0.966219 0.338867 0.133070
O O9 0.250000 0.141400 0.599316
O O10 0.147950 0.255867 0.550360
O O11 0.165794 0.218326 0.690244
O O12 0.139104 0.000000 0.612759
O O13 0.633466 0.500000 0.098995
O O14 0.653078 0.740938 0.170161
O O15 0.616480 0.751926 0.038016
O O16 0.399091 0.000000 0.029069
O O17 0.500000 0.838843 0.000000
O O18 0.750000 0.708627 0.538409
O O19 0.827011 0.500000 0.507054
O O20 0.939187 0.149718 0.248692
O O21 0.832745 0.000000 0.226188
O O22 0.461410 0.000000 0.292743
#
# Coordination Sequence:
#
# PCOD9400044 Si02
#       8
#     8   8   8   8   8   8   8   8
#     4  10  20  32  46  65  89 116 146 181 222 267
#     4   9  16  26  39  55  79 110 142 175 210 251
#     4   9  17  29  45  63  82 107 141 179 217 257
#     4   9  16  24  36  55  78 108 144 176 207 247
#     4   9  15  23  36  54  78 108 141 175 210 249
#     4   9  18  32  48  65  86 113 145 181 221 264
#     4   9  17  28  40  57  84 114 142 175 215 256
#     4  10  19  29  42  61  85 113 144 177 216 261
#
# _framework density 17.846587
#
# number of rings (size 3 to 8) (size 9 to 14) (size 15 to 20)
#    0.000    2.750    0.000    2.250    0.000    6.250 
#    0.000    0.000    0.000    0.000    0.000    0.000 
#    0.000    1.000    0.000    2.750    0.000    4.000 
#
# Total GULP energy -356318.209379 kJ/mol
# GULP energy per Si atom -5567.472022 kJ/mol
# Density = 1.780597 g / cm^3
# Si number density = 17.846587 Si / 1000 Ang^3
#
#
#
# Elastic Constant Matrix: (Units=GPa)
#
#
# Indices 1 2 3 4 5 6 
#
# 1 24.4706 10.0726 -0.1643 0.0000 0.0000 0.0000
# 2 10.0726 112.4210 65.3216 0.0000 0.0000 0.0000
# 3 -0.1643 65.3216 92.5698 0.0000 0.0000 0.0000
# 4 0.0000 0.0000 0.0000 35.2116 0.0000 0.0000
# 5 0.0000 0.0000 0.0000 0.0000 12.9395 0.0000
# 6 0.0000 0.0000 0.0000 0.0000 0.0000 4.4593
#
#
#
# Elastic Compliance Matrix: (Units=1/GPa)
#
#
# Indices 1 2 3 4 5 6 
#
# 1 0.043658 -0.006706 0.004810 0.000000 0.000000 0.000000
# 2 -0.006706 0.016107 -0.011378 0.000000 0.000000 0.000000
# 3 0.004810 -0.011378 0.018840 0.000000 0.000000 0.000000
# 4 0.000000 0.000000 0.000000 0.028400 0.000000 0.000000
# 5 0.000000 0.000000 0.000000 0.000000 0.077283 0.000000
# 6 0.000000 0.000000 0.000000 0.000000 0.000000 0.224251
#
#
# Mechanical properties :
#
#
# Convention : Reuss Voigt Hill
#
# Bulk Modulus (GPa) = 19.20990 42.21346 30.71168
# Shear Modulus (GPa) = 11.05122 20.80419 15.92770
#
# Velocity S-wave (km/s) = 2.49114 3.41797 2.99068
# Velocity P-wave (km/s) = 4.36597 6.26750 5.40108
#
# Compressibility (1/GPa) = 0.05205648
#
# Stress axis : x y z
#
# Youngs Moduli (GPa) = 22.90520 62.08489 53.07891
#
# Poissons Ratio (x) = 0.41636 -0.25530
# Poissons Ratio (y) = 0.15361 0.60392
# Poissons Ratio (z) = -0.11017 0.70639
#
# Static dielectric constant tensor:
#      x y z
#    x 1.656560 0.000000 0.000000 
#    y 0.000000 1.635590 0.000000 
#    z 0.000000 0.000000 1.606140 
# 
# From -- ./inp_files/30907.got.cif
#   From: 2010.05.17/outbox.cif.g08.bks.cpg/sg51_16_cif.got.tgz:30907.got - 2010.06.03 11:52:47.
