data_PCOD9400378
_publ_section_title
;
Structure prediction by ZEFSAII (Michael W. Deem and Ramdas Pophale) SiO2 
 PCOD9400378
Probable space group: P M M A
;
_chemical_formula_sum "Si O2"
_cell_formula_units_Z 56
_cell_length_a 7.697363
_cell_length_b 19.853312
_cell_length_c 19.243372
_cell_angle_alpha 90.000000
_cell_angle_beta 90.000000
_cell_angle_gamma 90.000000
_cell_volume 2940.736494
_symmetry_space_group_name_H-M "P M M A"
_symmetry_group_IT_number 51
_symmetry_cell_setting 'orthorhombic'
loop_
_space_group_symop_operation_xyz
x,y,z
1/2-x,-y,z
1/2+x,-y,-z
-x,y,-z
-x,-y,-z
1/2+x,y,-z
1/2-x,y,z
x,-y,z
loop_
_atom_site_type_symbol
_atom_site_label
_atom_site_fract_x
_atom_site_fract_y
_atom_site_fract_z
Si Si1 0.959340 0.218685 0.080979
Si Si2 0.544869 0.425434 0.288597
Si Si3 0.541207 0.706407 0.212275
Si Si4 0.459176 0.209879 0.345240
Si Si5 0.543336 0.344668 0.579629
Si Si6 0.541290 0.928498 0.082219
Si Si7 0.540844 0.924283 0.581094
O O1 0.750000 0.216971 0.085261
O O2 0.023554 0.273035 0.136264
O O3 0.024638 0.144513 0.104761
O O4 0.000000 0.229904 0.000000
O O5 0.750000 0.429198 0.273167
O O6 0.470316 0.500000 0.278404
O O7 0.470886 0.363834 0.242892
O O8 0.527543 0.400538 0.367841
O O9 0.750000 0.700164 0.208971
O O10 0.504631 0.765452 0.267963
O O11 0.250000 0.207806 0.349970
O O12 0.521668 0.271120 0.394845
O O13 0.524396 0.137400 0.371514
O O14 0.500000 0.356426 0.500000
O O15 0.750000 0.344663 0.587886
O O16 0.750000 0.928567 0.090563
O O17 0.474921 0.000000 0.111504
O O18 0.500000 0.929549 0.000000
O O19 0.500000 0.910821 0.500000
O O20 0.750000 0.926045 0.587542
O O21 0.475659 0.000000 0.597702
#
# Coordination Sequence:
#
# PCOD9400378 Si02
#       7
#     8   8   8   8   8   8   8
#     4   9  17  29  46  68  91 115 145 182 222 263
#     4   9  18  33  51  68  88 118 152 183 219 264
#     4   9  18  32  49  69  91 115 147 186 225 269
#     4   9  18  31  46  65  90 121 155 189 227 269
#     4  10  19  30  46  69  95 121 150 185 223 264
#     4   8  13  22  37  57  82 110 137 166 202 245
#     4   9  17  29  45  65  90 121 158 198 234 267
#
# _framework density 19.042850000000001
#
# number of rings (size 3 to 8) (size 9 to 14) (size 15 to 20)
#    0.000    3.000    0.000    0.857    0.000    2.286 
#    0.000    0.714    0.000    1.286    0.000    4.000 
#    0.000    0.000    0.000    0.000    0.000    0.000 
#
# Total GULP energy -311921.406522 kJ/mol
# GULP energy per Si atom -5570.025116 kJ/mol
# Density = 1.899951 g / cm^3
# Si number density = 19.042850 Si / 1000 Ang^3
#
#
#
# Elastic Constant Matrix: (Units=GPa)
#
#
# Indices 1 2 3 4 5 6 
#
# 1 32.9840 9.9695 -3.3924 0.0000 0.0000 0.0000
# 2 9.9695 160.5275 85.1101 0.0000 0.0000 0.0000
# 3 -3.3924 85.1101 106.1624 0.0000 0.0000 0.0000
# 4 0.0000 0.0000 0.0000 13.6113 0.0000 0.0000
# 5 0.0000 0.0000 0.0000 0.0000 14.5717 0.0000
# 6 0.0000 0.0000 0.0000 0.0000 0.0000 6.8747
#
#
#
# Elastic Compliance Matrix: (Units=1/GPa)
#
#
# Indices 1 2 3 4 5 6 
#
# 1 0.032122 -0.004416 0.004567 0.000000 0.000000 0.000000
# 2 -0.004416 0.011442 -0.009314 0.000000 0.000000 0.000000
# 3 0.004567 -0.009314 0.017033 0.000000 0.000000 0.000000
# 4 0.000000 0.000000 0.000000 0.073468 0.000000 0.000000
# 5 0.000000 0.000000 0.000000 0.000000 0.068626 0.000000
# 6 0.000000 0.000000 0.000000 0.000000 0.000000 0.145461
#
#
# Mechanical properties :
#
#
# Convention : Reuss Voigt Hill
#
# Bulk Modulus (GPa) = 23.65743 53.67203 38.66473
# Shear Modulus (GPa) = 13.13819 20.87730 17.00775
#
# Velocity S-wave (km/s) = 2.62950 3.31468 2.99177
# Velocity P-wave (km/s) = 4.65502 6.54947 5.68176
#
# Compressibility (1/GPa) = 0.04227003
#
# Stress axis : x y z
#
# Youngs Moduli (GPa) = 31.13098 87.39713 58.71087
#
# Poissons Ratio (x) = 0.38598 -0.26813
# Poissons Ratio (y) = 0.13748 0.54684
# Poissons Ratio (z) = -0.14218 0.81403
#
# Static dielectric constant tensor:
#      x y z
#    x 1.694310 0.000000 0.000000 
#    y 0.000000 1.719890 0.000000 
#    z 0.000000 0.000000 1.614430 
# 
# From -- ./inp_files/28237.got.cif
#   From: 2010.05.17/outbox.cif.g08.bks.cpg/sg51_15_cif.got.tgz:28237.got - 2010.06.03 11:52:47.
