data_PCOD9400615
_publ_section_title
;
Structure prediction by ZEFSAII (Michael W. Deem and Ramdas Pophale) SiO2 
 PCOD9400615
Probable space group: P M M A
;
_chemical_formula_sum "Si O2"
_cell_formula_units_Z 64
_cell_length_a 7.757305
_cell_length_b 24.717255
_cell_length_c 19.556424
_cell_angle_alpha 90.000000
_cell_angle_beta 90.000000
_cell_angle_gamma 90.000000
_cell_volume 3749.734771
_symmetry_space_group_name_H-M "P M M A"
_symmetry_group_IT_number 51
_symmetry_cell_setting 'orthorhombic'
loop_
_space_group_symop_operation_xyz
x,y,z
1/2-x,-y,z
1/2+x,-y,-z
-x,y,-z
-x,-y,-z
1/2+x,y,-z
1/2-x,y,z
x,-y,z
loop_
_atom_site_type_symbol
_atom_site_label
_atom_site_fract_x
_atom_site_fract_y
_atom_site_fract_z
Si Si1 0.544694 0.223029 0.921329
Si Si2 0.455742 0.106343 0.423544
Si Si3 0.461660 0.667600 0.153639
Si Si4 0.546628 0.059180 0.280540
Si Si5 0.042419 0.769058 0.423878
Si Si6 0.542496 0.439657 0.920561
Si Si7 0.550719 0.276979 0.712956
Si Si8 0.047582 0.168247 0.787027
O O1 0.750000 0.221636 0.913936
O O2 0.485899 0.282619 0.895616
O O3 0.471380 0.179841 0.867464
O O4 0.500000 0.214195 0.000000
O O5 0.500000 0.087257 0.500000
O O6 0.250000 0.106770 0.416880
O O7 0.527539 0.072097 0.360928
O O8 0.520311 0.168672 0.417353
O O9 0.250000 0.667519 0.154454
O O10 0.520991 0.610212 0.124832
O O11 0.523360 0.682868 0.229876
O O12 0.750000 0.057018 0.264783
O O13 0.477454 0.110849 0.239016
O O14 0.471626 0.000000 0.265423
O O15 0.250000 0.771304 0.417455
O O16 0.973890 0.732414 0.362043
O O17 0.000000 0.750098 0.500000
O O18 0.750000 0.440580 0.914557
O O19 0.477977 0.500000 0.902841
O O20 0.500000 0.429721 0.000000
O O21 0.750000 0.292986 0.703850
O O22 0.543975 0.217867 0.748558
O O23 0.250000 0.171734 0.768972
#
# Coordination Sequence:
#
# PCOD9400615 Si02
#       8
#     8   8   8   8   8   8   8   8
#     4  10  19  31  48  68  91 114 140 174 215 259
#     4  10  19  31  47  66  87 113 145 177 213 254
#     4   8  15  26  42  63  88 117 145 178 214 248
#     4  10  21  35  49  65  86 112 142 177 214 255
#     4   9  17  27  42  62  85 112 140 172 211 257
#     4   9  16  26  40  59  85 119 154 182 208 242
#     4   9  16  29  45  62  86 114 143 176 217 259
#     4  10  19  31  48  67  87 110 138 172 214 259
#
# _framework density 17.067874
#
# number of rings (size 3 to 8) (size 9 to 14) (size 15 to 20)
#    0.000    2.625    1.250    2.250    0.000    2.000 
#    0.000    2.500    0.000    0.375    0.000    0.000 
#    0.000    0.500    0.000    0.375    0.000    0.750 
#
# Total GULP energy -356763.498970 kJ/mol
# GULP energy per Si atom -5574.429671 kJ/mol
# Density = 1.702903 g / cm^3
# Si number density = 17.067874 Si / 1000 Ang^3
#
#
#
# Elastic Constant Matrix: (Units=GPa)
#
#
# Indices 1 2 3 4 5 6 
#
# 1 27.5237 -0.0761 -10.6879 0.0000 0.0000 0.0000
# 2 -0.0761 116.4507 62.1919 0.0000 0.0000 0.0000
# 3 -10.6879 62.1919 110.8907 0.0000 0.0000 0.0000
# 4 0.0000 0.0000 0.0000 -0.9312 0.0000 0.0000
# 5 0.0000 0.0000 0.0000 0.0000 16.2962 0.0000
# 6 0.0000 0.0000 0.0000 0.0000 0.0000 3.7997
#
#
#
# Elastic Compliance Matrix: (Units=1/GPa)
#
#
# Indices 1 2 3 4 5 6 
#
# 1 0.038367 -0.002784 0.005259 0.000000 0.000000 0.000000
# 2 -0.002784 0.012461 -0.007257 0.000000 0.000000 0.000000
# 3 0.005259 -0.007257 0.013595 0.000000 0.000000 0.000000
# 4 0.000000 0.000000 0.000000 -1.073877 0.000000 0.000000
# 5 0.000000 0.000000 0.000000 0.000000 0.061364 0.000000
# 6 0.000000 0.000000 0.000000 0.000000 0.000000 0.263178
#
#
# Mechanical properties :
#
#
# Convention : Reuss Voigt Hill
#
# Bulk Modulus (GPa) = 18.22835 39.74678 28.98756
# Shear Modulus (GPa) = -7.60962 17.39541 4.89290
#
# Velocity S-wave (km/s) = -2.11379 3.19594 1.69498
# Velocity P-wave (km/s) = 2.17844 6.07921 4.56631
#
# Compressibility (1/GPa) = 0.05485959
#
# Stress axis : x y z
#
# Youngs Moduli (GPa) = 26.06421 80.24907 73.55760
#
# Poissons Ratio (x) = 0.22338 -0.38684
# Poissons Ratio (y) = 0.07255 0.53381
# Poissons Ratio (z) = -0.13707 0.58237
#
# Static dielectric constant tensor:
#      x y z
#    x 1.624570 0.000000 0.000000 
#    y 0.000000 1.584730 0.000000 
#    z 0.000000 0.000000 1.590360 
# 
# From -- ./inp_files/32675.got.cif
#   From: 2010.05.17/outbox.cif.g08.bks.cpg/sg51_17_cif.got.tgz:32675.got - 2010.06.03 11:52:47.
