data_PCOD9400562
_publ_section_title
;
Structure prediction by ZEFSAII (Michael W. Deem and Ramdas Pophale) SiO2 
 PCOD9400562
Probable space group: P M M A
;
_chemical_formula_sum "Si O2"
_cell_formula_units_Z 64
_cell_length_a 9.020331
_cell_length_b 14.735395
_cell_length_c 31.845127
_cell_angle_alpha 90.000000
_cell_angle_beta 90.000000
_cell_angle_gamma 90.000000
_cell_volume 4232.795059
_symmetry_space_group_name_H-M "P M M A"
_symmetry_group_IT_number 51
_symmetry_cell_setting 'orthorhombic'
loop_
_space_group_symop_operation_xyz
x,y,z
1/2-x,-y,z
1/2+x,-y,-z
-x,y,-z
-x,-y,-z
1/2+x,y,-z
1/2-x,y,z
x,-y,z
loop_
_atom_site_type_symbol
_atom_site_label
_atom_site_fract_x
_atom_site_fract_y
_atom_site_fract_z
Si Si1 0.928450 0.398563 0.836627
Si Si2 0.428082 0.397920 0.745168
Si Si3 0.928001 0.106351 0.206259
Si Si4 0.927090 0.106872 0.629952
Si Si5 0.420692 0.889632 0.542676
Si Si6 0.071600 0.209834 0.707396
Si Si7 0.571754 0.893964 0.955820
Si Si8 0.429075 0.209368 0.127818
O O1 0.750000 0.396817 0.832585
O O2 0.971415 0.500000 0.851049
O O3 0.971797 0.314619 0.865959
O O4 0.998192 0.384450 0.790649
O O5 0.250000 0.393539 0.750628
O O6 0.466084 0.500000 0.730598
O O7 0.469669 0.314956 0.715080
O O8 0.750000 0.114214 0.201449
O O9 0.967556 0.156070 0.249797
O O10 0.005305 0.153797 0.166870
O O11 0.966153 0.000000 0.208312
O O12 0.750000 0.114238 0.628689
O O13 0.994834 0.136000 0.585213
O O14 0.993732 0.164551 0.667846
O O15 0.964888 0.000000 0.636252
O O16 0.500000 0.858510 0.500000
O O17 0.250000 0.860501 0.543891
O O18 0.422087 0.000000 0.541602
O O19 0.250000 0.203670 0.702232
O O20 0.750000 0.888024 0.959282
O O21 0.522953 0.834120 0.916232
O O22 0.533993 0.000000 0.948058
O O23 0.500000 0.866936 0.000000
O O24 0.250000 0.203195 0.129539
#
# Coordination Sequence:
#
# PCOD9400562 Si02
#       8
#     8   8   8   8   8   8   8   8
#     4   9  17  29  46  68  91 114 142 178 221 266
#     4   9  17  30  48  67  87 114 149 188 227 266
#     4  10  20  31  43  63  91 121 152 184 218 260
#     4  10  20  31  43  62  89 123 162 197 229 269
#     4   9  16  27  44  64  87 117 154 196 238 276
#     4  10  19  31  45  62  89 122 153 185 224 269
#     4   9  18  32  48  66  87 112 143 179 219 262
#     4  10  19  31  48  68  90 115 146 182 220 263
#
# _framework density 15.120032
#
# number of rings (size 3 to 8) (size 9 to 14) (size 15 to 20)
#    0.000    2.500    1.250    1.500    0.000    5.000 
#    0.000    1.250    0.000    0.375    0.000    0.000 
#    0.000    0.500    0.000    1.375    0.000    2.000 
#
# Total GULP energy -356742.346675 kJ/mol
# GULP energy per Si atom -5574.099167 kJ/mol
# Density = 1.508562 g / cm^3
# Si number density = 15.120032 Si / 1000 Ang^3
#
#
#
# Elastic Constant Matrix: (Units=GPa)
#
#
# Indices 1 2 3 4 5 6 
#
# 1 26.4943 37.2008 45.1887 0.0000 0.0000 0.0000
# 2 37.2008 111.2552 81.8906 0.0000 0.0000 0.0000
# 3 45.1887 81.8906 145.9748 0.0000 0.0000 0.0000
# 4 0.0000 0.0000 0.0000 8.4590 0.0000 0.0000
# 5 0.0000 0.0000 0.0000 0.0000 28.8194 0.0000
# 6 0.0000 0.0000 0.0000 0.0000 0.0000 16.7136
#
#
#
# Elastic Compliance Matrix: (Units=1/GPa)
#
#
# Indices 1 2 3 4 5 6 
#
# 1 0.096568 -0.017521 -0.020065 0.000000 0.000000 0.000000
# 2 -0.017521 0.018489 -0.004948 0.000000 0.000000 0.000000
# 3 -0.020065 -0.004948 0.015838 0.000000 0.000000 0.000000
# 4 0.000000 0.000000 0.000000 0.118217 0.000000 0.000000
# 5 0.000000 0.000000 0.000000 0.000000 0.034699 0.000000
# 6 0.000000 0.000000 0.000000 0.000000 0.000000 0.059831
#
#
# Mechanical properties :
#
#
# Convention : Reuss Voigt Hill
#
# Bulk Modulus (GPa) = 21.82142 68.03162 44.92652
# Shear Modulus (GPa) = 11.26161 18.76136 15.01148
#
# Velocity S-wave (km/s) = 2.73209 3.52636 3.15432
# Velocity P-wave (km/s) = 4.94124 7.85317 6.56080
#
# Compressibility (1/GPa) = 0.04582654
#
# Stress axis : x y z
#
# Youngs Moduli (GPa) = 10.35543 54.08582 63.13915
#
# Poissons Ratio (x) = 0.94761 1.26690
# Poissons Ratio (y) = 0.18143 0.31244
# Poissons Ratio (z) = 0.20778 0.26764
#
# Static dielectric constant tensor:
#      x y z
#    x 1.506180 0.000000 0.000000 
#    y 0.000000 1.512680 0.000000 
#    z 0.000000 0.000000 1.469570 
# 
# From -- ./inp_files/37567.got.cif
#   From: 2010.05.17/outbox.cif.g08.bks.cpg/sg51_19_cif.got.tgz:37567.got - 2010.06.03 11:52:47.
