data_PCOD9400143
_publ_section_title
;
Structure prediction by ZEFSAII (Michael W. Deem and Ramdas Pophale) SiO2 
 PCOD9400143
Probable space group: P M M A
;
_chemical_formula_sum "Si O2"
_cell_formula_units_Z 56
_cell_length_a 18.575128
_cell_length_b 9.062655
_cell_length_c 20.761241
_cell_angle_alpha 90.000000
_cell_angle_beta 90.000000
_cell_angle_gamma 90.000000
_cell_volume 3494.946825
_symmetry_space_group_name_H-M "P M M A"
_symmetry_group_IT_number 51
_symmetry_cell_setting 'orthorhombic'
loop_
_space_group_symop_operation_xyz
x,y,z
1/2-x,-y,z
1/2+x,-y,-z
-x,y,-z
-x,-y,-z
1/2+x,y,-z
1/2-x,y,z
x,-y,z
loop_
_atom_site_type_symbol
_atom_site_label
_atom_site_fract_x
_atom_site_fract_y
_atom_site_fract_z
Si Si1 0.834271 0.325018 0.986168
Si Si2 0.470365 0.330633 0.573593
Si Si3 0.411771 0.822339 0.135506
Si Si4 0.389957 0.824359 0.381857
Si Si5 0.166101 0.324605 0.254154
Si Si6 0.167342 0.823586 0.525781
Si Si7 0.449660 0.830631 0.935945
O O1 0.750000 0.294346 0.994954
O O2 0.843997 0.500000 0.977196
O O3 0.863781 0.242387 0.922756
O O4 0.882227 0.269397 0.045974
O O5 0.500000 0.330043 0.500000
O O6 0.468879 0.500000 0.595766
O O7 0.528408 0.235028 0.612430
O O8 0.391433 0.260103 0.568675
O O9 0.383029 0.755146 0.201409
O O10 0.495026 0.783439 0.119702
O O11 0.406756 0.000000 0.135100
O O12 0.350628 0.741614 0.324099
O O13 0.351733 0.794111 0.450631
O O14 0.388917 0.000000 0.371610
O O15 0.250000 0.299031 0.238027
O O16 0.153426 0.500000 0.253773
O O17 0.250000 0.782382 0.538381
O O18 0.159438 0.000000 0.534751
O O19 0.426919 0.000000 0.925299
O O20 0.500000 0.830071 0.000000
#
# Coordination Sequence:
#
# PCOD9400143 Si02
#       7
#     8   8   8   8   8   8   8
#     4  10  19  29  44  69  97 122 150 186 229 274
#     4   9  17  29  45  66  92 121 153 190 233 277
#     4  10  20  33  48  66  90 122 159 193 225 268
#     4  10  19  32  49  67  91 125 161 193 227 270
#     4  11  23  35  47  67  95 125 157 191 226 268
#     4   9  17  29  46  69  95 122 154 192 232 274
#     4   8  16  30  46  65  88 116 152 190 227 269
#
# _framework density 16.023133000000001
#
# number of rings (size 3 to 8) (size 9 to 14) (size 15 to 20)
#    0.000    2.429    0.000    3.857    0.000   10.286 
#    0.000    0.000    0.000    0.000    0.000    1.000 
#    0.000    3.429    0.000    0.000    0.000    0.000 
#
# Total GULP energy -312238.888034 kJ/mol
# GULP energy per Si atom -5575.694429 kJ/mol
# Density = 1.598666 g / cm^3
# Si number density = 16.023133 Si / 1000 Ang^3
#
#
#
# Elastic Constant Matrix: (Units=GPa)
#
#
# Indices 1 2 3 4 5 6 
#
# 1 64.5448 24.8143 -6.9621 0.0000 0.0000 0.0000
# 2 24.8143 46.8547 5.3690 0.0000 0.0000 0.0000
# 3 -6.9621 5.3690 15.1257 0.0000 0.0000 0.0000
# 4 0.0000 0.0000 0.0000 22.5555 0.0000 0.0000
# 5 0.0000 0.0000 0.0000 0.0000 24.7122 0.0000
# 6 0.0000 0.0000 0.0000 0.0000 0.0000 28.6685
#
#
#
# Elastic Compliance Matrix: (Units=1/GPa)
#
#
# Indices 1 2 3 4 5 6 
#
# 1 0.022333 -0.013557 0.015091 0.000000 0.000000 0.000000
# 2 -0.013557 0.030477 -0.017058 0.000000 0.000000 0.000000
# 3 0.015091 -0.017058 0.079113 0.000000 0.000000 0.000000
# 4 0.000000 0.000000 0.000000 0.044335 0.000000 0.000000
# 5 0.000000 0.000000 0.000000 0.000000 0.040466 0.000000
# 6 0.000000 0.000000 0.000000 0.000000 0.000000 0.034882
#
#
# Mechanical properties :
#
#
# Convention : Reuss Voigt Hill
#
# Bulk Modulus (GPa) = 9.91309 19.21864 14.56586
# Shear Modulus (GPa) = 15.80889 22.07417 18.94153
#
# Velocity S-wave (km/s) = 3.14447 3.71569 3.44195
# Velocity P-wave (km/s) = 4.40270 5.51623 4.99062
#
# Compressibility (1/GPa) = 0.10087670
#
# Stress axis : x y z
#
# Youngs Moduli (GPa) = 44.77711 32.81178 12.64007
#
# Poissons Ratio (x) = 0.44482 -0.19076
# Poissons Ratio (y) = 0.60703 0.21561
# Poissons Ratio (z) = -0.67575 0.55970
#
# Static dielectric constant tensor:
#      x y z
#    x 1.539470 0.000000 0.000000 
#    y 0.000000 1.536110 0.000000 
#    z 0.000000 0.000000 1.522740 
# 
# From -- ./inp_files/33681.got.cif
#   From: 2010.05.17/outbox.cif.g08.bks.cpg/sg51_17_cif.got.tgz:33681.got - 2010.06.03 11:52:47.
