data_PCOD9400342
_publ_section_title
;
Structure prediction by ZEFSAII (Michael W. Deem and Ramdas Pophale) SiO2 
 PCOD9400342
Probable space group: P M M A
;
_chemical_formula_sum "Si O2"
_cell_formula_units_Z 64
_cell_length_a 8.760989
_cell_length_b 27.472145
_cell_length_c 18.769177
_cell_angle_alpha 90.000000
_cell_angle_beta 90.000000
_cell_angle_gamma 90.000000
_cell_volume 4517.424834
_symmetry_space_group_name_H-M "P M M A"
_symmetry_group_IT_number 51
_symmetry_cell_setting 'orthorhombic'
loop_
_space_group_symop_operation_xyz
x,y,z
1/2-x,-y,z
1/2+x,-y,-z
-x,y,-z
-x,-y,-z
1/2+x,y,-z
1/2-x,y,z
x,-y,z
loop_
_atom_site_type_symbol
_atom_site_label
_atom_site_fract_x
_atom_site_fract_y
_atom_site_fract_z
Si Si1 0.566920 0.446534 0.919840
Si Si2 0.567098 0.346437 0.080327
Si Si3 0.434004 0.945999 0.661269
Si Si4 0.065247 0.251547 0.154416
Si Si5 0.075064 0.202440 0.295123
Si Si6 0.432309 0.844318 0.921928
Si Si7 0.568535 0.150150 0.422558
Si Si8 0.074562 0.898480 0.205204
O O1 0.750000 0.440581 0.923120
O O2 0.534378 0.500000 0.887420
O O3 0.491066 0.398125 0.888527
O O4 0.500000 0.448402 0.000000
O O5 0.750000 0.345467 0.077072
O O6 0.501898 0.301330 0.124514
O O7 0.500000 0.342436 0.000000
O O8 0.250000 0.943760 0.664532
O O9 0.485619 0.902046 0.609868
O O10 0.498226 0.935872 0.740186
O O11 0.479223 0.000000 0.636871
O O12 0.250000 0.250739 0.149880
O O13 0.022242 0.241878 0.237114
O O14 0.000219 0.206536 0.108277
O O15 0.250000 0.212651 0.315375
O O16 0.074281 0.152413 0.249245
O O17 0.979369 0.190890 0.365137
O O18 0.250000 0.841043 0.924160
O O19 0.484709 0.886114 0.866705
O O20 0.500000 0.852791 0.000000
O O21 0.500000 0.158324 0.500000
O O22 0.750000 0.148396 0.427595
O O23 0.250000 0.911232 0.190074
#
# Coordination Sequence:
#
# PCOD9400342 Si02
#       8
#     8   8   8   8   8   8   8   8
#     4   9  16  26  39  53  71  99 137 180 223 263
#     4  11  20  28  39  56  80 109 142 181 222 260
#     4   9  18  32  48  66  87 111 137 164 196 233
#     4  10  19  31  44  60  83 108 136 171 210 251
#     4   8  16  30  46  61  80 106 134 164 197 237
#     4  11  20  30  44  62  83 106 133 166 205 246
#     4  10  19  30  46  66  89 113 137 165 193 228
#     4   9  17  30  46  64  83 105 134 164 197 239
#
# _framework density 14.167363
#
# number of rings (size 3 to 8) (size 9 to 14) (size 15 to 20)
#    0.000    2.375    0.000    5.625    0.000    5.250 
#    0.000    0.000    0.000    0.375    0.000    0.000 
#    0.000    0.000    0.000    0.000    0.000    0.625 
#
# Total GULP energy -356597.271726 kJ/mol
# GULP energy per Si atom -5571.832371 kJ/mol
# Density = 1.413512 g / cm^3
# Si number density = 14.167363 Si / 1000 Ang^3
#
#
#
# Elastic Constant Matrix: (Units=GPa)
#
#
# Indices 1 2 3 4 5 6 
#
# 1 73.8318 19.6822 40.6263 0.0000 0.0000 0.0000
# 2 19.6822 51.0328 30.3334 0.0000 0.0000 0.0000
# 3 40.6263 30.3334 93.3367 0.0000 0.0000 0.0000
# 4 0.0000 0.0000 0.0000 10.3055 0.0000 0.0000
# 5 0.0000 0.0000 0.0000 0.0000 18.5481 0.0000
# 6 0.0000 0.0000 0.0000 0.0000 0.0000 18.9381
#
#
#
# Elastic Compliance Matrix: (Units=1/GPa)
#
#
# Indices 1 2 3 4 5 6 
#
# 1 0.018139 -0.002854 -0.006968 0.000000 0.000000 0.000000
# 2 -0.002854 0.024736 -0.006796 0.000000 0.000000 0.000000
# 3 -0.006968 -0.006796 0.015956 0.000000 0.000000 0.000000
# 4 0.000000 0.000000 0.000000 0.097036 0.000000 0.000000
# 5 0.000000 0.000000 0.000000 0.000000 0.053914 0.000000
# 6 0.000000 0.000000 0.000000 0.000000 0.000000 0.052804
#
#
# Mechanical properties :
#
#
# Convention : Reuss Voigt Hill
#
# Bulk Modulus (GPa) = 39.07253 44.38725 41.72989
# Shear Modulus (GPa) = 16.42833 18.06228 17.24530
#
# Velocity S-wave (km/s) = 3.40897 3.57448 3.49270
# Velocity P-wave (km/s) = 6.56764 6.95949 6.76640
#
# Compressibility (1/GPa) = 0.02559343
#
# Stress axis : x y z
#
# Youngs Moduli (GPa) = 55.12906 40.42715 62.67425
#
# Poissons Ratio (x) = 0.11539 0.43670
# Poissons Ratio (y) = 0.15736 0.42596
# Poissons Ratio (z) = 0.38413 0.27476
#
# Static dielectric constant tensor:
#      x y z
#    x 1.475440 0.000000 0.000000 
#    y 0.000000 1.483750 0.000000 
#    z 0.000000 0.000000 1.451440 
# 
# From -- ./inp_files/28679.got.cif
#   From: 2010.05.17/outbox.cif.g08.bks.cpg/sg51_15_cif.got.tgz:28679.got - 2010.06.03 11:52:47.
