data_PCOD9400653
_publ_section_title
;
Structure prediction by ZEFSAII (Michael W. Deem and Ramdas Pophale) SiO2 
 PCOD9400653
Probable space group: P M M A
;
_chemical_formula_sum "Si O2"
_cell_formula_units_Z 64
_cell_length_a 31.154018
_cell_length_b 8.932232
_cell_length_c 14.775425
_cell_angle_alpha 90.000000
_cell_angle_beta 90.000000
_cell_angle_gamma 90.000000
_cell_volume 4111.630158
_symmetry_space_group_name_H-M "P M M A"
_symmetry_group_IT_number 51
_symmetry_cell_setting 'orthorhombic'
loop_
_space_group_symop_operation_xyz
x,y,z
1/2-x,-y,z
1/2+x,-y,-z
-x,y,-z
-x,-y,-z
1/2+x,y,-z
1/2-x,y,z
x,-y,z
loop_
_atom_site_type_symbol
_atom_site_label
_atom_site_fract_x
_atom_site_fract_y
_atom_site_fract_z
Si Si1 0.298259 0.317746 0.847610
Si Si2 0.956322 0.819219 0.947143
Si Si3 0.885426 0.676879 0.071536
Si Si4 0.118323 0.824778 0.562881
Si Si5 0.973365 0.175396 0.743566
Si Si6 0.543581 0.679085 0.553147
Si Si7 0.924232 0.170380 0.240488
Si Si8 0.799524 0.319930 0.362372
O O1 0.250000 0.269478 0.871809
O O2 0.298548 0.500000 0.847212
O O3 0.336390 0.269460 0.913764
O O4 0.306709 0.272873 0.742948
O O5 0.957400 0.772675 0.842103
O O6 0.956372 0.000000 0.949203
O O7 0.914684 0.758370 0.998077
O O8 0.000000 0.771197 0.000000
O O9 0.885369 0.500000 0.053958
O O10 0.907266 0.712476 0.168063
O O11 0.085545 0.744786 0.495307
O O12 0.097446 0.809939 0.662624
O O13 0.165345 0.753715 0.573243
O O14 0.121103 0.000000 0.540806
O O15 0.958508 0.266005 0.656359
O O16 0.024931 0.183848 0.748380
O O17 0.961859 0.000000 0.731938
O O18 0.500000 0.729402 0.500000
O O19 0.544672 0.500000 0.549130
O O20 0.915199 0.000000 0.207589
O O21 0.750000 0.283308 0.384354
O O22 0.803994 0.500000 0.365338
#
# Coordination Sequence:
#
# PCOD9400653 Si02
#       8
#     8   8   8   8   8   8   8   8
#     4   8  15  28  45  67  97 131 162 194 240 294
#     4  10  20  35  51  68  96 134 168 197 241 298
#     4  11  20  29  48  74  98 128 167 209 243 284
#     4  11  21  32  50  73 100 134 170 207 243 293
#     4  10  20  36  53  67  93 134 173 205 240 290
#     4  11  23  35  50  73 101 130 164 208 253 297
#     4  10  19  31  47  68  98 134 168 201 240 291
#     4   9  17  31  50  71 100 134 165 202 248 297
#
# _framework density 15.565602999999999
#
# number of rings (size 3 to 8) (size 9 to 14) (size 15 to 20)
#    0.000    2.000    3.750    1.875    0.000    2.500 
#    0.000    0.000    0.000    1.500    0.000    0.875 
#    0.000    3.000    0.000    0.000    0.000    0.000 
#
# Total GULP energy -356898.034987 kJ/mol
# GULP energy per Si atom -5576.531797 kJ/mol
# Density = 1.553017 g / cm^3
# Si number density = 15.565603 Si / 1000 Ang^3
#
#
#
# Elastic Constant Matrix: (Units=GPa)
#
#
# Indices 1 2 3 4 5 6 
#
# 1 123.2945 34.5833 64.6252 0.0000 0.0000 0.0000
# 2 34.5833 29.4252 36.8698 0.0000 0.0000 0.0000
# 3 64.6252 36.8698 90.9559 0.0000 0.0000 0.0000
# 4 0.0000 0.0000 0.0000 22.7823 0.0000 0.0000
# 5 0.0000 0.0000 0.0000 0.0000 21.6947 0.0000
# 6 0.0000 0.0000 0.0000 0.0000 0.0000 12.3394
#
#
#
# Elastic Compliance Matrix: (Units=1/GPa)
#
#
# Indices 1 2 3 4 5 6 
#
# 1 0.013789 -0.007987 -0.006560 0.000000 0.000000 0.000000
# 2 -0.007987 0.073688 -0.024195 0.000000 0.000000 0.000000
# 3 -0.006560 -0.024195 0.025463 0.000000 0.000000 0.000000
# 4 0.000000 0.000000 0.000000 0.043894 0.000000 0.000000
# 5 0.000000 0.000000 0.000000 0.000000 0.046094 0.000000
# 6 0.000000 0.000000 0.000000 0.000000 0.000000 0.081041
#
#
# Mechanical properties :
#
#
# Convention : Reuss Voigt Hill
#
# Bulk Modulus (GPa) = 28.20381 57.31470 42.75926
# Shear Modulus (GPa) = 13.39501 18.53644 15.96572
#
# Velocity S-wave (km/s) = 2.93670 3.45463 3.20614
# Velocity P-wave (km/s) = 5.44588 7.26732 6.42151
#
# Compressibility (1/GPa) = 0.03545620
#
# Stress axis : x y z
#
# Youngs Moduli (GPa) = 72.51971 13.57064 39.27252
#
# Poissons Ratio (x) = 0.10839 0.25762
# Poissons Ratio (y) = 0.57921 0.95022
# Poissons Ratio (z) = 0.47572 0.32835
#
# Static dielectric constant tensor:
#      x y z
#    x 1.524740 0.000000 0.000000 
#    y 0.000000 1.528940 0.000000 
#    z 0.000000 0.000000 1.501420 
# 
# From -- ./inp_files/26599.got.cif
#   From: 2010.05.17/outbox.cif.g08.bks.cpg/sg51_14_cif.got.tgz:26599.got - 2010.06.03 11:52:47.
