data_PCOD9400951
_publ_section_title
;
Structure prediction by ZEFSAII (Michael W. Deem and Ramdas Pophale) SiO2 
 PCOD9400951
Probable space group: P M M A
;
_chemical_formula_sum "Si O2"
_cell_formula_units_Z 64
_cell_length_a 8.902619
_cell_length_b 22.994122
_cell_length_c 16.544814
_cell_angle_alpha 90.000000
_cell_angle_beta 90.000000
_cell_angle_gamma 90.000000
_cell_volume 3386.854252
_symmetry_space_group_name_H-M "P M M A"
_symmetry_group_IT_number 51
_symmetry_cell_setting 'orthorhombic'
loop_
_space_group_symop_operation_xyz
x,y,z
1/2-x,-y,z
1/2+x,-y,-z
-x,y,-z
-x,-y,-z
1/2+x,y,-z
1/2-x,y,z
x,-y,z
loop_
_atom_site_type_symbol
_atom_site_label
_atom_site_fract_x
_atom_site_fract_y
_atom_site_fract_z
Si Si1 0.569836 0.063778 0.252448
Si Si2 0.073991 0.729768 0.080110
Si Si3 0.419668 0.187795 0.800207
Si Si4 0.928001 0.900387 0.580361
Si Si5 0.567874 0.348228 0.585581
Si Si6 0.567868 0.564879 0.731236
Si Si7 0.931729 0.594907 0.914404
Si Si8 0.577538 0.777992 0.387039
O O1 0.750000 0.068454 0.265340
O O2 0.528736 0.120708 0.201153
O O3 0.490840 0.070383 0.338773
O O4 0.537300 0.000000 0.217847
O O5 0.250000 0.727773 0.070001
O O6 0.024073 0.663034 0.090303
O O7 0.027922 0.769694 0.153324
O O8 0.000000 0.754387 0.000000
O O9 0.250000 0.190974 0.833842
O O10 0.413400 0.210169 0.708569
O O11 0.750000 0.903605 0.577580
O O12 0.000000 0.926668 0.500000
O O13 0.983006 0.833279 0.583553
O O14 0.500000 0.370392 0.500000
O O15 0.750000 0.347024 0.581392
O O16 0.522522 0.387133 0.664221
O O17 0.502238 0.283137 0.596253
O O18 0.750000 0.568176 0.733773
O O19 0.524704 0.500000 0.704027
O O20 0.520576 0.571504 0.825754
O O21 0.750000 0.588883 0.919653
O O22 0.000000 0.572583 0.000000
O O23 0.750000 0.778288 0.418675
#
# Coordination Sequence:
#
# PCOD9400951 Si02
#       8
#     8   8   8   8   8   8   8   8
#     4   9  19  36  54  72  98 134 174 213 256 306
#     4  10  19  31  50  77 108 138 167 204 252 309
#     4   9  18  32  52  77 103 132 166 208 257 307
#     4  11  21  33  50  73 102 133 168 211 258 309
#     4  11  22  36  55  78 104 138 182 229 276 322
#     4   9  19  36  56  77 105 143 183 220 262 319
#     4   9  18  33  54  81 110 139 172 210 259 318
#     4  10  20  35  54  77 105 135 169 212 266 323
#
# _framework density 18.89659
#
# number of rings (size 3 to 8) (size 9 to 14) (size 15 to 20)
#    0.000    2.250    0.000    4.125    0.000    5.000 
#    0.000    1.250    0.000    3.000    0.000    0.000 
#    0.000    0.000    0.000    0.000    0.000    0.000 
#
# Total GULP energy -356865.752203 kJ/mol
# GULP energy per Si atom -5576.027378 kJ/mol
# Density = 1.885358 g / cm^3
# Si number density = 18.896590 Si / 1000 Ang^3
#
#
#
# Elastic Constant Matrix: (Units=GPa)
#
#
# Indices 1 2 3 4 5 6 
#
# 1 28.9287 15.5751 8.6312 0.0000 0.0000 0.0000
# 2 15.5751 90.1300 29.6588 0.0000 0.0000 0.0000
# 3 8.6312 29.6588 66.4302 0.0000 0.0000 0.0000
# 4 0.0000 0.0000 0.0000 61.0799 0.0000 0.0000
# 5 0.0000 0.0000 0.0000 0.0000 31.6978 0.0000
# 6 0.0000 0.0000 0.0000 0.0000 0.0000 16.2298
#
#
#
# Elastic Compliance Matrix: (Units=1/GPa)
#
#
# Indices 1 2 3 4 5 6 
#
# 1 0.038431 -0.005859 -0.002378 0.000000 0.000000 0.000000
# 2 -0.005859 0.013899 -0.005444 0.000000 0.000000 0.000000
# 3 -0.002378 -0.005444 0.017793 0.000000 0.000000 0.000000
# 4 0.000000 0.000000 0.000000 0.016372 0.000000 0.000000
# 5 0.000000 0.000000 0.000000 0.000000 0.031548 0.000000
# 6 0.000000 0.000000 0.000000 0.000000 0.000000 0.061615
#
#
# Mechanical properties :
#
#
# Convention : Reuss Voigt Hill
#
# Bulk Modulus (GPa) = 23.38513 32.57991 27.98252
# Shear Modulus (GPa) = 22.59645 30.57643 26.58644
#
# Velocity S-wave (km/s) = 3.46178 4.02692 3.75499
# Velocity P-wave (km/s) = 5.32736 6.23699 5.80003
#
# Compressibility (1/GPa) = 0.04276221
#
# Stress axis : x y z
#
# Youngs Moduli (GPa) = 26.02033 71.94742 56.20204
#
# Poissons Ratio (x) = 0.42153 0.13362
# Poissons Ratio (y) = 0.15245 0.30598
# Poissons Ratio (z) = 0.06187 0.39170
#
# Static dielectric constant tensor:
#      x y z
#    x 1.650420 0.000000 0.000000 
#    y 0.000000 1.670440 0.000000 
#    z 0.000000 0.000000 1.665150 
# 
# From -- ./inp_files/28411.got.cif
#   From: 2010.05.17/outbox.cif.g08.bks.cpg/sg51_15_cif.got.tgz:28411.got - 2010.06.03 11:52:47.
