data_PCOD9400067
_publ_section_title
;
Structure prediction by ZEFSAII (Michael W. Deem and Ramdas Pophale) SiO2 
 PCOD9400067
Probable space group: P M M A
;
_chemical_formula_sum "Si O2"
_cell_formula_units_Z 56
_cell_length_a 18.545046
_cell_length_b 9.176021
_cell_length_c 19.712063
_cell_angle_alpha 90.000000
_cell_angle_beta 90.000000
_cell_angle_gamma 90.000000
_cell_volume 3354.396469
_symmetry_space_group_name_H-M "P M M A"
_symmetry_group_IT_number 51
_symmetry_cell_setting 'orthorhombic'
loop_
_space_group_symop_operation_xyz
x,y,z
1/2-x,-y,z
1/2+x,-y,-z
-x,y,-z
-x,-y,-z
1/2+x,y,-z
1/2-x,y,z
x,-y,z
loop_
_atom_site_type_symbol
_atom_site_label
_atom_site_fract_x
_atom_site_fract_y
_atom_site_fract_z
Si Si1 0.543749 0.173264 0.203629
Si Si2 0.663224 0.328354 0.591302
Si Si3 0.162275 0.167847 0.545422
Si Si4 0.167190 0.177838 0.695705
Si Si5 0.169760 0.674528 0.144928
Si Si6 0.478461 0.324547 0.075432
Si Si7 0.391267 0.827723 0.275432
O O1 0.613733 0.224064 0.244919
O O2 0.527914 0.254917 0.133658
O O3 0.473764 0.194026 0.251514
O O4 0.549992 0.000000 0.190683
O O5 0.750000 0.307006 0.597233
O O6 0.648974 0.500000 0.594811
O O7 0.640278 0.263489 0.518621
O O8 0.625946 0.245531 0.653139
O O9 0.250000 0.166356 0.547075
O O10 0.140908 0.221810 0.620364
O O11 0.138719 0.000000 0.536380
O O12 0.250000 0.224528 0.705637
O O13 0.167174 0.000000 0.694347
O O14 0.250000 0.708932 0.119372
O O15 0.165764 0.500000 0.155995
O O16 0.104067 0.714365 0.095127
O O17 0.155920 0.753913 0.216203
O O18 0.484593 0.500000 0.078586
O O19 0.500000 0.277329 0.000000
O O20 0.376934 0.000000 0.278605
#
# Coordination Sequence:
#
# PCOD9400067 Si02
#       7
#     8   8   8   8   8   8   8
#     4   9  18  32  50  72  94 117 149 186 225 271
#     4  10  19  29  42  62  89 121 156 192 229 270
#     4   8  14  26  45  66  86 113 151 191 229 268
#     4   8  14  28  51  73  91 115 150 191 231 271
#     4   9  17  30  48  68  90 120 157 191 222 261
#     4   9  18  33  51  70  95 126 154 181 221 272
#     4  10  19  29  43  65  93 122 151 187 229 271
#
# _framework density 16.694509
#
# number of rings (size 3 to 8) (size 9 to 14) (size 15 to 20)
#    0.000    3.000    0.000    2.143    0.000    3.714 
#    0.000    2.143    0.000    6.429    0.000    0.000 
#    0.000    0.000    0.000    0.000    0.000    0.000 
#
# Total GULP energy -312004.912763 kJ/mol
# GULP energy per Si atom -5571.516299 kJ/mol
# Density = 1.665651 g / cm^3
# Si number density = 16.694509 Si / 1000 Ang^3
#
#
#
# Elastic Constant Matrix: (Units=GPa)
#
#
# Indices 1 2 3 4 5 6 
#
# 1 69.5048 31.7884 75.5958 0.0000 0.0000 0.0000
# 2 31.7884 32.0695 51.7080 0.0000 0.0000 0.0000
# 3 75.5958 51.7080 169.5182 0.0000 0.0000 0.0000
# 4 0.0000 0.0000 0.0000 14.4654 0.0000 0.0000
# 5 0.0000 0.0000 0.0000 0.0000 18.1728 0.0000
# 6 0.0000 0.0000 0.0000 0.0000 0.0000 14.3614
#
#
#
# Elastic Compliance Matrix: (Units=1/GPa)
#
#
# Indices 1 2 3 4 5 6 
#
# 1 0.032136 -0.017214 -0.009080 0.000000 0.000000 0.000000
# 2 -0.017214 0.070581 -0.013853 0.000000 0.000000 0.000000
# 3 -0.009080 -0.013853 0.014174 0.000000 0.000000 0.000000
# 4 0.000000 0.000000 0.000000 0.069131 0.000000 0.000000
# 5 0.000000 0.000000 0.000000 0.000000 0.055027 0.000000
# 6 0.000000 0.000000 0.000000 0.000000 0.000000 0.069631
#
#
# Mechanical properties :
#
#
# Convention : Reuss Voigt Hill
#
# Bulk Modulus (GPa) = 27.32436 65.47522 46.39979
# Shear Modulus (GPa) = 12.40161 16.86662 14.63411
#
# Velocity S-wave (km/s) = 2.72849 3.18198 2.96393
# Velocity P-wave (km/s) = 5.13118 7.26669 6.29022
#
# Compressibility (1/GPa) = 0.03659739
#
# Stress axis : x y z
#
# Youngs Moduli (GPa) = 31.11727 14.16809 70.55197
#
# Poissons Ratio (x) = 0.24389 0.64064
# Poissons Ratio (y) = 0.53565 0.97735
# Poissons Ratio (z) = 0.28256 0.19627
#
# Static dielectric constant tensor:
#      x y z
#    x 1.573840 0.000000 0.000000 
#    y 0.000000 1.556400 0.000000 
#    z 0.000000 0.000000 1.542940 
# 
# From -- ./inp_files/33732.got.cif
#   From: 2010.05.17/outbox.cif.g08.bks.cpg/sg51_17_cif.got.tgz:33732.got - 2010.06.03 11:52:47.
