data_PCOD9400295
_publ_section_title
;
Structure prediction by ZEFSAII (Michael W. Deem and Ramdas Pophale) SiO2 
 PCOD9400295
Probable space group: P M M A
;
_chemical_formula_sum "Si O2"
_cell_formula_units_Z 44
_cell_length_a 8.427737
_cell_length_b 22.354625
_cell_length_c 13.990424
_cell_angle_alpha 90.000000
_cell_angle_beta 90.000000
_cell_angle_gamma 90.000000
_cell_volume 2635.780495
_symmetry_space_group_name_H-M "P M M A"
_symmetry_group_IT_number 51
_symmetry_cell_setting 'orthorhombic'
loop_
_space_group_symop_operation_xyz
x,y,z
1/2-x,-y,z
1/2+x,-y,-z
-x,y,-z
-x,-y,-z
1/2+x,y,-z
1/2-x,y,z
x,-y,z
loop_
_atom_site_type_symbol
_atom_site_label
_atom_site_fract_x
_atom_site_fract_y
_atom_site_fract_z
Si Si1 0.559707 0.752250 0.205758
Si Si2 0.556737 0.066500 0.701870
Si Si3 0.560214 0.129905 0.895538
Si Si4 0.557887 0.630379 0.109268
Si Si5 0.439946 0.812279 0.395505
Si Si6 0.558557 0.500000 0.109401
O O1 0.750000 0.752960 0.205624
O O2 0.500595 0.804465 0.134852
O O3 0.503616 0.687495 0.169629
O O4 0.499705 0.769667 0.310833
O O5 0.750000 0.065788 0.699630
O O6 0.510350 0.085671 0.809619
O O7 0.504665 0.120411 0.633118
O O8 0.500249 0.000000 0.677709
O O9 0.750000 0.131382 0.896440
O O10 0.500000 0.113070 0.000000
O O11 0.750000 0.631217 0.107957
O O12 0.506504 0.564868 0.148174
O O13 0.500000 0.636105 0.000000
O O14 0.500000 0.796019 0.500000
O O15 0.250000 0.812083 0.394166
O O16 0.750000 0.500000 0.110849
O O17 0.500000 0.500000 0.000000
#
# Coordination Sequence:
#
# PCOD9400295 Si02
#       6
#     8   8   8   8   8   4
#     4  10  19  31  47  68  92 119 153 189 226 268
#     4   8  16  31  48  66  89 116 147 182 221 268
#     4  10  19  30  45  65  91 123 155 188 225 263
#     4   9  17  27  43  66  94 127 157 186 218 256
#     4  10  20  34  52  71  91 115 143 182 230 275
#     4   8  14  26  40  60  91 124 157 186 215 252
#
# _framework density 16.693346999999999
#
# number of rings (size 3 to 8) (size 9 to 14) (size 15 to 20)
#    0.000    2.727    0.000    3.273    0.000    3.636 
#    0.000    0.000    0.000   18.545    0.000    0.636 
#    0.000    0.000    0.000    0.000    0.000    0.000 
#
# Total GULP energy -245184.305615 kJ/mol
# GULP energy per Si atom -5572.370582 kJ/mol
# Density = 1.665535 g / cm^3
# Si number density = 16.693347 Si / 1000 Ang^3
#
#
#
# Elastic Constant Matrix: (Units=GPa)
#
#
# Indices 1 2 3 4 5 6 
#
# 1 25.4864 8.4936 7.4995 0.0000 0.0000 0.0000
# 2 8.4936 119.8086 21.4109 0.0000 0.0000 0.0000
# 3 7.4995 21.4109 64.7859 0.0000 0.0000 0.0000
# 4 0.0000 0.0000 0.0000 14.6829 0.0000 0.0000
# 5 0.0000 0.0000 0.0000 0.0000 23.3630 0.0000
# 6 0.0000 0.0000 0.0000 0.0000 0.0000 12.8402
#
#
#
# Elastic Compliance Matrix: (Units=1/GPa)
#
#
# Indices 1 2 3 4 5 6 
#
# 1 0.041157 -0.002196 -0.004038 0.000000 0.000000 0.000000
# 2 -0.002196 0.008988 -0.002716 0.000000 0.000000 0.000000
# 3 -0.004038 -0.002716 0.016801 0.000000 0.000000 0.000000
# 4 0.000000 0.000000 0.000000 0.068106 0.000000 0.000000
# 5 0.000000 0.000000 0.000000 0.000000 0.042803 0.000000
# 6 0.000000 0.000000 0.000000 0.000000 0.000000 0.077880
#
#
# Mechanical properties :
#
#
# Convention : Reuss Voigt Hill
#
# Bulk Modulus (GPa) = 20.38990 31.65432 26.02211
# Shear Modulus (GPa) = 17.24233 21.68901 19.46567
#
# Velocity S-wave (km/s) = 3.21734 3.60844 3.41849
# Velocity P-wave (km/s) = 5.10320 6.03030 5.58601
#
# Compressibility (1/GPa) = 0.04904390
#
# Stress axis : x y z
#
# Youngs Moduli (GPa) = 24.29730 111.26284 59.52171
#
# Poissons Ratio (x) = 0.24434 0.24038
# Poissons Ratio (y) = 0.05336 0.16167
# Poissons Ratio (z) = 0.09812 0.30220
#
# Static dielectric constant tensor:
#      x y z
#    x 1.572280 0.000000 0.000000 
#    y 0.000000 1.598700 0.000000 
#    z 0.000000 0.000000 1.525130 
# 
# From -- ./inp_files/21411.got.cif
#   From: 2010.05.17/outbox.cif.g08.bks.cpg/sg51_11_cif.got.tgz:21411.got - 2010.06.03 11:52:47.
