data_PCOD9400747
_publ_section_title
;
Structure prediction by ZEFSAII (Michael W. Deem and Ramdas Pophale) SiO2 
 PCOD9400747
Probable space group: P M M A
;
_chemical_formula_sum "Si O2"
_cell_formula_units_Z 64
_cell_length_a 8.714031
_cell_length_b 30.057631
_cell_length_c 14.237409
_cell_angle_alpha 90.000000
_cell_angle_beta 90.000000
_cell_angle_gamma 90.000000
_cell_volume 3729.106704
_symmetry_space_group_name_H-M "P M M A"
_symmetry_group_IT_number 51
_symmetry_cell_setting 'orthorhombic'
loop_
_space_group_symop_operation_xyz
x,y,z
1/2-x,-y,z
1/2+x,-y,-z
-x,y,-z
-x,-y,-z
1/2+x,y,-z
1/2-x,y,z
x,-y,z
loop_
_atom_site_type_symbol
_atom_site_label
_atom_site_fract_x
_atom_site_fract_y
_atom_site_fract_z
Si Si1 0.433396 0.135509 0.897520
Si Si2 0.935309 0.361656 0.395485
Si Si3 0.422176 0.446482 0.093453
Si Si4 0.933712 0.268989 0.606194
Si Si5 0.433178 0.549741 0.708029
Si Si6 0.065360 0.050377 0.204491
Si Si7 0.565395 0.817142 0.295303
Si Si8 0.933921 0.097031 0.601645
O O1 0.250000 0.135128 0.903372
O O2 0.491083 0.087189 0.862541
O O3 0.477004 0.168569 0.811431
O O4 0.500000 0.146285 0.000000
O O5 0.750000 0.359661 0.394326
O O6 0.000000 0.362349 0.500000
O O7 0.002396 0.315889 0.354470
O O8 0.988583 0.407853 0.349574
O O9 0.250000 0.452163 0.697332
O O10 0.410596 0.500000 0.081803
O O11 0.524922 0.440523 0.184592
O O12 0.500000 0.428165 0.000000
O O13 0.750000 0.270171 0.600616
O O14 0.000000 0.263295 0.500000
O O15 0.991235 0.228445 0.669702
O O16 0.750000 0.570581 0.892618
O O17 0.494243 0.500000 0.683972
O O18 0.250000 0.053182 0.194459
O O19 0.030071 0.063213 0.312957
O O20 0.016605 0.000000 0.184250
O O21 0.750000 0.814660 0.301369
O O22 0.505586 0.856333 0.363605
O O23 0.750000 0.101225 0.595276
O O24 0.000000 0.084587 0.500000
#
# Coordination Sequence:
#
# PCOD9400747 Si02
#       8
#     8   8   8   8   8   8   8   8
#     4  10  21  36  56  79 103 132 166 208 254 301
#     4  10  20  34  51  72 101 135 170 208 247 291
#     4   9  16  26  43  67  93 121 155 197 243 289
#     4  11  21  34  54  78 104 133 164 201 246 296
#     4   9  18  32  49  70  98 133 171 210 252 295
#     4   9  19  35  52  71  99 136 177 217 254 295
#     4  10  20  35  54  77 102 128 162 203 249 300
#     4  10  19  31  48  72 102 134 168 207 252 301
#
# _framework density 17.162286999999999
#
# number of rings (size 3 to 8) (size 9 to 14) (size 15 to 20)
#    0.000    2.250    0.000    4.125    0.000    5.500 
#    0.000    0.000    0.000    0.750    0.000    3.500 
#    0.000    0.000    0.000    0.000    0.000    0.000 
#
# Total GULP energy -356823.376584 kJ/mol
# GULP energy per Si atom -5575.365259 kJ/mol
# Density = 1.712323 g / cm^3
# Si number density = 17.162287 Si / 1000 Ang^3
#
#
#
# Elastic Constant Matrix: (Units=GPa)
#
#
# Indices 1 2 3 4 5 6 
#
# 1 53.4181 32.3806 22.4254 0.0000 0.0000 0.0000
# 2 32.3806 119.7499 41.2261 0.0000 0.0000 0.0000
# 3 22.4254 41.2261 73.2138 0.0000 0.0000 0.0000
# 4 0.0000 0.0000 0.0000 20.2581 0.0000 0.0000
# 5 0.0000 0.0000 0.0000 0.0000 27.6371 0.0000
# 6 0.0000 0.0000 0.0000 0.0000 0.0000 21.0579
#
#
#
# Elastic Compliance Matrix: (Units=1/GPa)
#
#
# Indices 1 2 3 4 5 6 
#
# 1 0.023525 -0.004814 -0.004495 0.000000 0.000000 0.000000
# 2 -0.004814 0.011344 -0.004913 0.000000 0.000000 0.000000
# 3 -0.004495 -0.004913 0.017802 0.000000 0.000000 0.000000
# 4 0.000000 0.000000 0.000000 0.049363 0.000000 0.000000
# 5 0.000000 0.000000 0.000000 0.000000 0.036183 0.000000
# 6 0.000000 0.000000 0.000000 0.000000 0.000000 0.047488
#
#
# Mechanical properties :
#
#
# Convention : Reuss Voigt Hill
#
# Bulk Modulus (GPa) = 41.27631 48.71622 44.99627
# Shear Modulus (GPa) = 22.49966 23.81393 23.15679
#
# Velocity S-wave (km/s) = 3.62469 3.72906 3.67724
# Velocity P-wave (km/s) = 6.45141 6.85481 6.65616
#
# Compressibility (1/GPa) = 0.02422697
#
# Stress axis : x y z
#
# Youngs Moduli (GPa) = 42.50740 88.15365 56.17318
#
# Poissons Ratio (x) = 0.42435 0.25251
# Poissons Ratio (y) = 0.20462 0.27599
# Poissons Ratio (z) = 0.19108 0.43312
#
# Static dielectric constant tensor:
#      x y z
#    x 1.582260 0.000000 0.000000 
#    y 0.000000 1.589070 0.000000 
#    z 0.000000 0.000000 1.798660 
# 
# From -- ./inp_files/14856.got.cif
#   From: 2010.05.17/outbox.cif.g08.bks.cpg/sg51_8_cif.got.tgz:14856.got - 2010.06.03 11:52:47.
