data_PCOD9401916
_publ_section_title
;
Structure prediction by ZEFSAII (Michael W. Deem and Ramdas Pophale) SiO2 
 PCOD9401916
Probable space group: P M M A
;
_chemical_formula_sum "Si O2"
_cell_formula_units_Z 58
_cell_length_a 23.261721
_cell_length_b 9.104835
_cell_length_c 14.648894
_cell_angle_alpha 90.000000
_cell_angle_beta 90.000000
_cell_angle_gamma 90.000000
_cell_volume 3102.549782
_symmetry_space_group_name_H-M "P M M A"
_symmetry_group_IT_number 51
_symmetry_cell_setting 'orthorhombic'
loop_
_space_group_symop_operation_xyz
x,y,z
1/2-x,-y,z
1/2+x,-y,-z
-x,y,-z
-x,-y,-z
1/2+x,y,-z
1/2-x,y,z
x,-y,z
loop_
_atom_site_type_symbol
_atom_site_label
_atom_site_fract_x
_atom_site_fract_y
_atom_site_fract_z
Si Si1 0.434969 0.672470 0.725898
Si Si2 0.509814 0.671483 0.894927
Si Si3 0.472026 0.172228 0.400449
Si Si4 0.817859 0.668446 0.013655
Si Si5 0.139433 0.662737 0.336095
Si Si6 0.813786 0.679107 0.224752
Si Si7 0.375882 0.826300 0.154151
Si Si8 0.250000 0.500000 0.397157
O O1 0.437616 0.500000 0.700282
O O2 0.453571 0.681827 0.832142
O O3 0.481499 0.759988 0.668567
O O4 0.369307 0.726172 0.718351
O O5 0.528069 0.500000 0.893279
O O6 0.558445 0.771761 0.850500
O O7 0.500000 0.712390 0.000000
O O8 0.500000 0.189204 0.500000
O O9 0.411040 0.253971 0.389429
O O10 0.463465 0.000000 0.381426
O O11 0.750000 0.664411 0.992783
O O12 0.839944 0.500000 0.008203
O O13 0.848325 0.767629 0.939322
O O14 0.822171 0.719608 0.118420
O O15 0.116114 0.500000 0.309975
O O16 0.151640 0.749028 0.242467
O O17 0.198215 0.625959 0.389124
O O18 0.750000 0.726995 0.254487
O O19 0.813743 0.500000 0.225879
O O20 0.371796 0.000000 0.161141
#
# Coordination Sequence:
#
# PCOD9401916 Si02
#       8
#     8   8   8   8   8   8   8   2
#     4  10  19  33  59  90 117 154 200 250 303 355
#     4  10  20  34  53  79 113 158 206 253 304 358
#     4  11  24  42  66  94 124 158 196 246 309 376
#     4   9  18  32  52  74 104 155 211 252 287 347
#     4  10  21  41  64  89 118 152 199 245 299 356
#     4   8  15  31  55  83 114 149 198 253 302 352
#     4  12  23  32  48  78 118 159 200 250 306 361
#     4   8  24  40  68  92 118 152 198 256 298 356
#
# _framework density 18.694302
#
# number of rings (size 3 to 8) (size 9 to 14) (size 15 to 20)
#    0.414    1.655    1.379    3.724    0.966    3.862 
#    0.000    3.103    1.517    1.241    0.000    0.000 
#    0.000    0.000    0.000    0.000    0.000    0.000 
#
# Total GULP energy -322896.470849 kJ/mol
# GULP energy per Si atom -5567.180532 kJ/mol
# Density = 1.865175 g / cm^3
# Si number density = 18.694302 Si / 1000 Ang^3
#
#
#
# Elastic Constant Matrix: (Units=GPa)
#
#
# Indices 1 2 3 4 5 6 
#
# 1 144.4339 43.7954 29.3266 0.0000 0.0000 0.0000
# 2 43.7954 84.4827 25.5219 0.0000 0.0000 0.0000
# 3 29.3266 25.5219 35.5380 0.0000 0.0000 0.0000
# 4 0.0000 0.0000 0.0000 20.9440 0.0000 0.0000
# 5 0.0000 0.0000 0.0000 0.0000 9.1392 0.0000
# 6 0.0000 0.0000 0.0000 0.0000 0.0000 0.4284
#
#
#
# Elastic Compliance Matrix: (Units=1/GPa)
#
#
# Indices 1 2 3 4 5 6 
#
# 1 0.008895 -0.003057 -0.005145 0.000000 0.000000 0.000000
# 2 -0.003057 0.016167 -0.009088 0.000000 0.000000 0.000000
# 3 -0.005145 -0.009088 0.038911 0.000000 0.000000 0.000000
# 4 0.000000 0.000000 0.000000 0.047746 0.000000 0.000000
# 5 0.000000 0.000000 0.000000 0.000000 0.109419 0.000000
# 6 0.000000 0.000000 0.000000 0.000000 0.000000 2.334381
#
#
# Mechanical properties :
#
#
# Convention : Reuss Voigt Hill
#
# Bulk Modulus (GPa) = 34.02094 51.30470 42.66282
# Shear Modulus (GPa) = 1.92315 17.15637 9.53976
#
# Velocity S-wave (km/s) = 1.01537 3.03270 2.26144
# Velocity P-wave (km/s) = 4.42862 6.30608 5.44882
#
# Compressibility (1/GPa) = 0.02939367
#
# Stress axis : x y z
#
# Youngs Moduli (GPa) = 112.42025 61.85529 25.69962
#
# Poissons Ratio (x) = 0.18909 0.13223
# Poissons Ratio (y) = 0.34366 0.23355
# Poissons Ratio (z) = 0.57842 0.56212
#
# Static dielectric constant tensor:
#      x y z
#    x 1.675270 0.000000 0.000000 
#    y 0.000000 1.633180 0.000000 
#    z 0.000000 0.000000 1.658280 
# 
# From -- ./inp_files/26137.got.cif
#   From: 2010.05.17/outbox.cif.g08.bks.cpg/sg51_14_cif.got.tgz:26137.got - 2010.06.03 11:52:47.
