data_PCOD9401488
_publ_section_title
;
Structure prediction by ZEFSAII (Michael W. Deem and Ramdas Pophale) SiO2 
 PCOD9401488
Probable space group: P M M A
;
_chemical_formula_sum "Si O2"
_cell_formula_units_Z 44
_cell_length_a 8.823707
_cell_length_b 18.295844
_cell_length_c 14.658903
_cell_angle_alpha 90.000000
_cell_angle_beta 90.000000
_cell_angle_gamma 90.000000
_cell_volume 2366.491768
_symmetry_space_group_name_H-M "P M M A"
_symmetry_group_IT_number 51
_symmetry_cell_setting 'orthorhombic'
loop_
_space_group_symop_operation_xyz
x,y,z
1/2-x,-y,z
1/2+x,-y,-z
-x,y,-z
-x,-y,-z
1/2+x,y,-z
1/2-x,y,z
x,-y,z
loop_
_atom_site_type_symbol
_atom_site_label
_atom_site_fract_x
_atom_site_fract_y
_atom_site_fract_z
Si Si1 0.067641 0.417358 0.788856
Si Si2 0.069867 0.000000 0.898887
Si Si3 0.931918 0.188351 0.594813
Si Si4 0.931092 0.283852 0.899905
Si Si5 0.068008 0.135928 0.208189
Si Si6 0.068500 0.351040 0.594390
O O1 0.250000 0.412703 0.798502
O O2 0.020258 0.500000 0.810578
O O3 0.032174 0.398195 0.683541
O O4 0.992927 0.356636 0.852209
O O5 0.013599 0.929055 0.844074
O O6 0.250000 0.000000 0.906244
O O7 0.000000 0.000000 0.000000
O O8 0.750000 0.193710 0.588204
O O9 0.970118 0.142155 0.684744
O O10 0.000000 0.159535 0.500000
O O11 0.999015 0.269983 0.607028
O O12 0.750000 0.287474 0.905806
O O13 0.970954 0.213282 0.838775
O O14 0.000000 0.275480 0.000000
O O15 0.250000 0.126022 0.200494
O O16 0.250000 0.345191 0.586110
O O17 0.000000 0.380581 0.500000
#
# Coordination Sequence:
#
# PCOD9401488 Si02
#       6
#     8   4   8   8   8   8
#     4  10  22  39  57  81 115 154 197 246 297 349
#     4  12  26  42  65  94 125 158 197 240 294 350
#     4  10  19  34  58  89 121 155 195 239 286 343
#     4  11  23  40  62  87 113 149 196 243 296 354
#     4  10  22  41  64  90 123 157 195 241 291 346
#     4  10  19  32  54  82 115 153 194 241 290 346
#
# _framework density 18.592924
#
# number of rings (size 3 to 8) (size 9 to 14) (size 15 to 20)
#    0.000    1.636    1.818    4.091    0.000    6.182 
#    0.000    0.455    0.000    0.000    0.000    0.000 
#    0.000    0.000    0.000    0.000    0.000    0.000 
#
# Total GULP energy -245861.941700 kJ/mol
# GULP energy per Si atom -5587.771402 kJ/mol
# Density = 1.855061 g / cm^3
# Si number density = 18.592924 Si / 1000 Ang^3
#
#
#
# Elastic Constant Matrix: (Units=GPa)
#
#
# Indices 1 2 3 4 5 6 
#
# 1 63.5023 54.0912 66.3103 0.0000 0.0000 0.0000
# 2 54.0912 118.6385 81.4464 0.0000 0.0000 0.0000
# 3 66.3103 81.4464 166.3822 0.0000 0.0000 0.0000
# 4 0.0000 0.0000 0.0000 5.3187 0.0000 0.0000
# 5 0.0000 0.0000 0.0000 0.0000 31.9641 0.0000
# 6 0.0000 0.0000 0.0000 0.0000 0.0000 28.4174
#
#
#
# Elastic Compliance Matrix: (Units=1/GPa)
#
#
# Indices 1 2 3 4 5 6 
#
# 1 0.032119 -0.008820 -0.008483 0.000000 0.000000 0.000000
# 2 -0.008820 0.015118 -0.003885 0.000000 0.000000 0.000000
# 3 -0.008483 -0.003885 0.011293 0.000000 0.000000 0.000000
# 4 0.000000 0.000000 0.000000 0.188016 0.000000 0.000000
# 5 0.000000 0.000000 0.000000 0.000000 0.031285 0.000000
# 6 0.000000 0.000000 0.000000 0.000000 0.000000 0.035190
#
#
# Mechanical properties :
#
#
# Convention : Reuss Voigt Hill
#
# Bulk Modulus (GPa) = 61.90994 83.57988 72.74491
# Shear Modulus (GPa) = 13.85885 22.91837 18.38861
#
# Velocity S-wave (km/s) = 2.73313 3.51471 3.14827
# Velocity P-wave (km/s) = 6.58254 7.84353 7.24054
#
# Compressibility (1/GPa) = 0.01615250
#
# Stress axis : x y z
#
# Youngs Moduli (GPa) = 31.13447 66.14836 88.55177
#
# Poissons Ratio (x) = 0.58345 0.75118
# Poissons Ratio (y) = 0.27462 0.34402
# Poissons Ratio (z) = 0.26411 0.25698
#
# Static dielectric constant tensor:
#      x y z
#    x 1.623710 0.000000 0.000000 
#    y 0.000000 1.614780 0.000000 
#    z 0.000000 0.000000 1.638560 
# 
# From -- ./inp_files/20970.got.cif
#   From: 2010.05.17/outbox.cif.g08.bks.cpg/sg51_11_cif.got.tgz:20970.got - 2010.06.03 11:52:47.
