data_PCOD9401515
_publ_section_title
;
Structure prediction by ZEFSAII (Michael W. Deem and Ramdas Pophale) SiO2 
 PCOD9401515
Probable space group: P M M A
;
_chemical_formula_sum "Si O2"
_cell_formula_units_Z 56
_cell_length_a 15.330362
_cell_length_b 14.525738
_cell_length_c 13.694915
_cell_angle_alpha 90.000000
_cell_angle_beta 90.000000
_cell_angle_gamma 90.000000
_cell_volume 3049.649707
_symmetry_space_group_name_H-M "P M M A"
_symmetry_group_IT_number 51
_symmetry_cell_setting 'orthorhombic'
loop_
_space_group_symop_operation_xyz
x,y,z
1/2-x,-y,z
1/2+x,-y,-z
-x,y,-z
-x,-y,-z
1/2+x,y,-z
1/2-x,y,z
x,-y,z
loop_
_atom_site_type_symbol
_atom_site_label
_atom_site_fract_x
_atom_site_fract_y
_atom_site_fract_z
Si Si1 0.353438 0.896293 0.300360
Si Si2 0.643737 0.779294 0.886970
Si Si3 0.974300 0.601001 0.887761
Si Si4 0.143464 0.107758 0.916749
Si Si5 0.148544 0.805134 0.711932
Si Si6 0.602383 0.102127 0.489418
Si Si7 0.348444 0.603217 0.766299
O O1 0.250000 0.904452 0.287018
O O2 0.383753 0.839311 0.207241
O O3 0.367060 0.854264 0.408089
O O4 0.391820 0.000000 0.300955
O O5 0.750000 0.768469 0.887594
O O6 0.594164 0.682831 0.875380
O O7 0.618775 0.832854 0.987304
O O8 0.938344 0.500000 0.859485
O O9 0.067863 0.611043 0.835249
O O10 0.000000 0.599563 0.000000
O O11 0.250000 0.107788 0.917079
O O12 0.112638 0.156039 0.815497
O O13 0.116379 0.000000 0.921877
O O14 0.250000 0.829539 0.716749
O O15 0.115687 0.848880 0.612801
O O16 0.142816 0.694790 0.702731
O O17 0.500000 0.093375 0.500000
O O18 0.643360 0.000000 0.484713
O O19 0.250000 0.610553 0.812239
O O20 0.351605 0.500000 0.722095
#
# Coordination Sequence:
#
# PCOD9401515 Si02
#       7
#     8   8   8   8   8   8   8
#     4   9  18  34  55  76 104 147 191 223 257 314
#     4  10  20  34  55  82 113 150 184 216 264 324
#     4  10  21  35  53  78 108 143 182 225 271 322
#     4   9  17  30  50  79 112 143 179 222 268 318
#     4  10  19  32  56  82 104 137 177 226 283 325
#     4  10  21  34  50  77 111 144 180 224 269 315
#     4   9  19  36  57  80 105 135 176 228 283 334
#
# _framework density 18.362765
#
# number of rings (size 3 to 8) (size 9 to 14) (size 15 to 20)
#    0.000    2.429    0.000    2.143    2.000    5.143 
#    0.000    1.429    0.000    3.000    0.000    2.000 
#    0.000    0.000    0.000    0.000    0.000    0.000 
#
# Total GULP energy -311782.716483 kJ/mol
# GULP energy per Si atom -5567.548509 kJ/mol
# Density = 1.832097 g / cm^3
# Si number density = 18.362765 Si / 1000 Ang^3
#
#
#
# Elastic Constant Matrix: (Units=GPa)
#
#
# Indices 1 2 3 4 5 6 
#
# 1 41.3247 46.5969 29.7325 0.0000 0.0000 0.0000
# 2 46.5969 135.7426 84.7442 0.0000 0.0000 0.0000
# 3 29.7325 84.7442 155.2590 0.0000 0.0000 0.0000
# 4 0.0000 0.0000 0.0000 20.8404 0.0000 0.0000
# 5 0.0000 0.0000 0.0000 0.0000 2.2449 0.0000
# 6 0.0000 0.0000 0.0000 0.0000 0.0000 23.0972
#
#
#
# Elastic Compliance Matrix: (Units=1/GPa)
#
#
# Indices 1 2 3 4 5 6 
#
# 1 0.039486 -0.013400 -0.000248 0.000000 0.000000 0.000000
# 2 -0.013400 0.015722 -0.006015 0.000000 0.000000 0.000000
# 3 -0.000248 -0.006015 0.009772 0.000000 0.000000 0.000000
# 4 0.000000 0.000000 0.000000 0.047984 0.000000 0.000000
# 5 0.000000 0.000000 0.000000 0.000000 0.445460 0.000000
# 6 0.000000 0.000000 0.000000 0.000000 0.000000 0.043295
#
#
# Mechanical properties :
#
#
# Convention : Reuss Voigt Hill
#
# Bulk Modulus (GPa) = 38.98033 72.71928 55.84980
# Shear Modulus (GPa) = 7.69709 20.65333 14.17521
#
# Velocity S-wave (km/s) = 2.04958 3.35735 2.78142
# Velocity P-wave (km/s) = 5.18411 7.39706 6.38716
#
# Compressibility (1/GPa) = 0.02565397
#
# Stress axis : x y z
#
# Youngs Moduli (GPa) = 25.32518 63.60433 102.33688
#
# Poissons Ratio (x) = 0.85230 0.02535
# Poissons Ratio (y) = 0.33936 0.61560
# Poissons Ratio (z) = 0.00627 0.38261
#
# Static dielectric constant tensor:
#      x y z
#    x 1.819120 0.000000 0.000000 
#    y 0.000000 1.679650 0.000000 
#    z 0.000000 0.000000 1.810020 
# 
# From -- ./inp_files/16610.got.cif
#   From: 2010.05.17/outbox.cif.g08.bks.cpg/sg51_9_cif.got.tgz:16610.got - 2010.06.03 11:52:47.
