data_PCOD9401591
_publ_section_title
;
Structure prediction by ZEFSAII (Michael W. Deem and Ramdas Pophale) SiO2 
 PCOD9401591
Probable space group: P M M A
;
_chemical_formula_sum "Si O2"
_cell_formula_units_Z 44
_cell_length_a 8.466662
_cell_length_b 30.140040
_cell_length_c 9.157397
_cell_angle_alpha 90.000000
_cell_angle_beta 90.000000
_cell_angle_gamma 90.000000
_cell_volume 2336.835219
_symmetry_space_group_name_H-M "P M M A"
_symmetry_group_IT_number 51
_symmetry_cell_setting 'orthorhombic'
loop_
_space_group_symop_operation_xyz
x,y,z
1/2-x,-y,z
1/2+x,-y,-z
-x,y,-z
-x,-y,-z
1/2+x,y,-z
1/2-x,y,z
x,-y,z
loop_
_atom_site_type_symbol
_atom_site_label
_atom_site_fract_x
_atom_site_fract_y
_atom_site_fract_z
Si Si1 0.440815 0.500000 0.835045
Si Si2 0.058782 0.047743 0.668157
Si Si3 0.937842 0.325876 0.835536
Si Si4 0.439456 0.588286 0.664811
Si Si5 0.059311 0.143077 0.667313
Si Si6 0.940089 0.759815 0.333021
O O1 0.250000 0.500000 0.835978
O O2 0.493783 0.544348 0.751222
O O3 0.500000 0.500000 0.000000
O O4 0.250000 0.047721 0.667572
O O5 0.006732 0.095474 0.732656
O O6 0.000000 0.047753 0.500000
O O7 0.006623 0.000000 0.732337
O O8 0.750000 0.327241 0.835787
O O9 0.001482 0.367589 0.744481
O O10 0.994282 0.280390 0.761032
O O11 0.000000 0.328528 0.000000
O O12 0.500000 0.587019 0.500000
O O13 0.250000 0.588634 0.664075
O O14 0.250000 0.143014 0.666981
O O15 0.009751 0.191289 0.726157
O O16 0.000000 0.142925 0.500000
O O17 0.750000 0.757755 0.334116
O O18 0.000000 0.755923 0.500000
#
# Coordination Sequence:
#
# PCOD9401591 Si02
#       6
#     4   8   8   8   8   8
#     4  10  23  40  62  90 122 156 191 228 269 314
#     4   8  12  18  29  48  77 114 154 195 240 292
#     4  12  25  41  59  81 108 140 177 221 271 323
#     4  11  23  41  63  90 119 151 188 226 267 313
#     4   8  14  23  37  58  86 121 161 203 248 299
#     4  10  19  33  52  75 103 137 176 218 263 314
#
# _framework density 18.828883000000001
#
# number of rings (size 3 to 8) (size 9 to 14) (size 15 to 20)
#    0.000    2.182    0.000    4.091    0.000    3.636 
#    0.000    0.000    0.000    0.000    0.000    0.000 
#    0.000    0.727    0.000    1.273    0.000    9.091 
#
# Total GULP energy -245295.993250 kJ/mol
# GULP energy per Si atom -5574.908937 kJ/mol
# Density = 1.878603 g / cm^3
# Si number density = 18.828883 Si / 1000 Ang^3
#
#
#
# Elastic Constant Matrix: (Units=GPa)
#
#
# Indices 1 2 3 4 5 6 
#
# 1 55.9847 43.8473 24.8613 0.0000 0.0000 0.0000
# 2 43.8473 251.8466 88.2581 0.0000 0.0000 0.0000
# 3 24.8613 88.2581 98.4211 0.0000 0.0000 0.0000
# 4 0.0000 0.0000 0.0000 -11.3784 0.0000 0.0000
# 5 0.0000 0.0000 0.0000 0.0000 26.0351 0.0000
# 6 0.0000 0.0000 0.0000 0.0000 0.0000 -0.1618
#
#
#
# Elastic Compliance Matrix: (Units=1/GPa)
#
#
# Indices 1 2 3 4 5 6 
#
# 1 0.021270 -0.002654 -0.002992 0.000000 0.000000 0.000000
# 2 -0.002654 0.006122 -0.004819 0.000000 0.000000 0.000000
# 3 -0.002992 -0.004819 0.015238 0.000000 0.000000 0.000000
# 4 0.000000 0.000000 0.000000 -0.087886 0.000000 0.000000
# 5 0.000000 0.000000 0.000000 0.000000 0.038410 0.000000
# 6 0.000000 0.000000 0.000000 0.000000 0.000000 -6.179368
#
#
# Mechanical properties :
#
#
# Convention : Reuss Voigt Hill
#
# Bulk Modulus (GPa) = 46.08848 80.02066 63.05457
# Shear Modulus (GPa) = -0.81195 19.51802 9.35304
#
# Velocity S-wave (km/s) = -0.65739 3.22312 2.23118
# Velocity P-wave (km/s) = 4.89433 7.51282 6.34023
#
# Compressibility (1/GPa) = 0.02169739
#
# Stress axis : x y z
#
# Youngs Moduli (GPa) = 47.01491 163.35615 65.62690
#
# Poissons Ratio (x) = 0.43362 0.19638
# Poissons Ratio (y) = 0.12480 0.31625
# Poissons Ratio (z) = 0.14069 0.78721
#
# Static dielectric constant tensor:
#      x y z
#    x 1.633330 0.000000 0.000000 
#    y 0.000000 1.724050 0.000000 
#    z 0.000000 0.000000 1.590570 
# 
# From -- ./inp_files/5696.got.cif
#   From: 2010.05.17/outbox.cif.g08.bks.cpg/sg51_3_cif.got.tgz:5696.got - 2010.06.03 11:52:47.
