data_PCOD9401004
_publ_section_title
;
Structure prediction by ZEFSAII (Michael W. Deem and Ramdas Pophale) SiO2 
 PCOD9401004
Probable space group: P M M A
;
_chemical_formula_sum "Si O2"
_cell_formula_units_Z 64
_cell_length_a 9.212821
_cell_length_b 24.623883
_cell_length_c 15.734893
_cell_angle_alpha 90.000000
_cell_angle_beta 90.000000
_cell_angle_gamma 90.000000
_cell_volume 3569.545861
_symmetry_space_group_name_H-M "P M M A"
_symmetry_group_IT_number 51
_symmetry_cell_setting 'orthorhombic'
loop_
_space_group_symop_operation_xyz
x,y,z
1/2-x,-y,z
1/2+x,-y,-z
-x,y,-z
-x,-y,-z
1/2+x,y,-z
1/2-x,y,z
x,-y,z
loop_
_atom_site_type_symbol
_atom_site_label
_atom_site_fract_x
_atom_site_fract_y
_atom_site_fract_z
Si Si1 0.079600 0.563236 0.244863
Si Si2 0.576250 0.168924 0.584024
Si Si3 0.077881 0.637514 0.087050
Si Si4 0.579386 0.736967 0.803312
Si Si5 0.921550 0.137446 0.775187
Si Si6 0.421530 0.064733 0.912002
Si Si7 0.080352 0.597169 0.584415
Si Si8 0.419386 0.278541 0.631892
O O1 0.250000 0.575937 0.260807
O O2 0.068336 0.500000 0.222049
O O3 0.030350 0.600418 0.166399
O O4 0.991659 0.574603 0.330274
O O5 0.500000 0.145393 0.500000
O O6 0.750000 0.169559 0.574736
O O7 0.541284 0.140367 0.674486
O O8 0.516724 0.230418 0.593814
O O9 0.250000 0.629564 0.077086
O O10 0.052955 0.699993 0.114949
O O11 0.000000 0.624186 0.000000
O O12 0.750000 0.729319 0.778805
O O13 0.556424 0.801282 0.810536
O O14 0.476768 0.716265 0.728085
O O15 0.750000 0.125037 0.781622
O O16 0.011926 0.096344 0.832163
O O17 0.250000 0.075014 0.918956
O O18 0.443680 0.000000 0.901523
O O19 0.500000 0.081034 0.000000
O O20 0.250000 0.583733 0.581437
O O21 0.066219 0.662810 0.589445
O O22 0.000000 0.577515 0.500000
O O23 0.250000 0.262505 0.629180
#
# Coordination Sequence:
#
# PCOD9401004 Si02
#       8
#     8   8   8   8   8   8   8   8
#     4  10  22  41  62  80 102 137 180 226 276 327
#     4  10  20  33  51  78 114 153 190 228 272 320
#     4  10  21  37  58  82 110 142 176 220 271 326
#     4   9  18  34  54  78 111 148 179 217 271 323
#     4   9  19  34  54  82 114 148 187 227 275 328
#     4  10  21  37  58  83 111 146 188 234 282 329
#     4  11  23  36  55  82 109 140 177 219 270 327
#     4  10  19  31  51  79 108 142 182 220 265 320
#
# _framework density 17.929451
#
# number of rings (size 3 to 8) (size 9 to 14) (size 15 to 20)
#    0.000    2.125    1.250    2.625    0.000    8.000 
#    0.000    1.250    0.000    0.375    0.000    0.000 
#    0.000    0.000    0.000    0.000    0.000    0.000 
#
# Total GULP energy -357170.243850 kJ/mol
# GULP energy per Si atom -5580.785060 kJ/mol
# Density = 1.788864 g / cm^3
# Si number density = 17.929451 Si / 1000 Ang^3
#
#
#
# Elastic Constant Matrix: (Units=GPa)
#
#
# Indices 1 2 3 4 5 6 
#
# 1 71.8511 43.2621 68.7963 0.0000 0.0000 0.0000
# 2 43.2621 49.6296 52.2293 0.0000 0.0000 0.0000
# 3 68.7963 52.2293 150.4025 0.0000 0.0000 0.0000
# 4 0.0000 0.0000 0.0000 6.5100 0.0000 0.0000
# 5 0.0000 0.0000 0.0000 0.0000 36.9962 0.0000
# 6 0.0000 0.0000 0.0000 0.0000 0.0000 21.1340
#
#
#
# Elastic Compliance Matrix: (Units=1/GPa)
#
#
# Indices 1 2 3 4 5 6 
#
# 1 0.035129 -0.021609 -0.008565 0.000000 0.000000 0.000000
# 2 -0.021609 0.045046 -0.005759 0.000000 0.000000 0.000000
# 3 -0.008565 -0.005759 0.012566 0.000000 0.000000 0.000000
# 4 0.000000 0.000000 0.000000 0.153611 0.000000 0.000000
# 5 0.000000 0.000000 0.000000 0.000000 0.027030 0.000000
# 6 0.000000 0.000000 0.000000 0.000000 0.000000 0.047317
#
#
# Mechanical properties :
#
#
# Convention : Reuss Voigt Hill
#
# Bulk Modulus (GPa) = 47.89931 66.71761 57.30846
# Shear Modulus (GPa) = 12.51498 20.10107 16.30803
#
# Velocity S-wave (km/s) = 2.64486 3.35195 3.01917
# Velocity P-wave (km/s) = 6.00837 7.22999 6.64730
#
# Compressibility (1/GPa) = 0.02087713
#
# Stress axis : x y z
#
# Youngs Moduli (GPa) = 28.46666 22.19958 79.57893
#
# Poissons Ratio (x) = 0.47970 0.68156
# Poissons Ratio (y) = 0.61513 0.45827
# Poissons Ratio (z) = 0.24380 0.12784
#
# Static dielectric constant tensor:
#      x y z
#    x 1.602330 0.000000 0.000000 
#    y 0.000000 1.609300 0.000000 
#    z 0.000000 0.000000 1.610930 
# 
# From -- ./inp_files/22278.got.cif
#   From: 2010.05.17/outbox.cif.g08.bks.cpg/sg51_12_cif.got.tgz:22278.got - 2010.06.03 11:52:47.
