data_PCOD9401074
_publ_section_title
;
Structure prediction by ZEFSAII (Michael W. Deem and Ramdas Pophale) SiO2 
 PCOD9401074
Probable space group: P M M A
;
_chemical_formula_sum "Si O2"
_cell_formula_units_Z 52
_cell_length_a 9.332980
_cell_length_b 12.543029
_cell_length_c 30.811007
_cell_angle_alpha 90.000000
_cell_angle_beta 90.000000
_cell_angle_gamma 90.000000
_cell_volume 3606.854757
_symmetry_space_group_name_H-M "P M M A"
_symmetry_group_IT_number 51
_symmetry_cell_setting 'orthorhombic'
loop_
_space_group_symop_operation_xyz
x,y,z
1/2-x,-y,z
1/2+x,-y,-z
-x,y,-z
-x,-y,-z
1/2+x,y,-z
1/2-x,y,z
x,-y,z
loop_
_atom_site_type_symbol
_atom_site_label
_atom_site_fract_x
_atom_site_fract_y
_atom_site_fract_z
Si Si1 0.078390 0.790385 0.397227
Si Si2 0.918366 0.372858 0.455404
Si Si3 0.584855 0.129839 0.215685
Si Si4 0.419358 0.872748 0.302166
Si Si5 0.584478 0.870036 0.870347
Si Si6 0.921050 0.000000 0.545888
Si Si7 0.084350 0.870077 0.956778
O O1 0.250000 0.772487 0.400488
O O2 0.044595 0.815053 0.347123
O O3 0.991540 0.692727 0.417051
O O4 0.044414 0.895195 0.425896
O O5 0.750000 0.347752 0.459290
O O6 0.933022 0.500000 0.449082
O O7 0.000000 0.344606 0.500000
O O8 0.750000 0.163471 0.213061
O O9 0.510671 0.162265 0.260692
O O10 0.495125 0.164307 0.173597
O O11 0.583151 0.000000 0.215412
O O12 0.250000 0.857938 0.293314
O O13 0.440886 0.000000 0.308627
O O14 0.750000 0.836253 0.871507
O O15 0.498107 0.836528 0.913217
O O16 0.584407 0.000000 0.870289
O O17 0.000000 0.000000 0.500000
O O18 0.750000 0.000000 0.538679
O O19 0.250000 0.836132 0.957073
O O20 0.084706 0.000000 0.956808
O O21 0.000000 0.836430 0.000000
#
# Coordination Sequence:
#
# PCOD9401074 Si02
#       7
#     8   8   8   8   8   4   8
#     4  10  19  32  49  67  89 113 138 166 200 241
#     4  10  21  36  52  69  88 110 138 171 204 238
#     4   9  16  24  34  49  68  90 118 152 185 223
#     4   9  16  28  43  58  79 106 130 155 190 234
#     4   9  15  22  31  42  56  78 109 143 182 228
#     4  10  20  32  44  64  90 114 136 162 195 236
#     4   9  15  21  28  38  53  73  99 136 182 230
#
# _framework density 14.416992
#
# number of rings (size 3 to 8) (size 9 to 14) (size 15 to 20)
#    0.000    2.615    0.769    2.308    0.000    8.923 
#    0.000    0.000    0.000    0.000    0.000    0.000 
#    0.000    0.000    0.000    0.000    0.000    0.000 
#
# Total GULP energy -289791.453486 kJ/mol
# GULP energy per Si atom -5572.912567 kJ/mol
# Density = 1.438418 g / cm^3
# Si number density = 14.416992 Si / 1000 Ang^3
#
#
#
# Elastic Constant Matrix: (Units=GPa)
#
#
# Indices 1 2 3 4 5 6 
#
# 1 119.8313 25.5688 99.4750 0.0000 0.0000 0.0000
# 2 25.5688 15.7345 25.0594 0.0000 0.0000 0.0000
# 3 99.4750 25.0594 159.8396 0.0000 0.0000 0.0000
# 4 0.0000 0.0000 0.0000 6.5784 0.0000 0.0000
# 5 0.0000 0.0000 0.0000 0.0000 30.9374 0.0000
# 6 0.0000 0.0000 0.0000 0.0000 0.0000 13.3302
#
#
#
# Elastic Compliance Matrix: (Units=1/GPa)
#
#
# Indices 1 2 3 4 5 6 
#
# 1 0.020203 -0.017067 -0.009897 0.000000 0.000000 0.000000
# 2 -0.017067 0.099122 -0.004919 0.000000 0.000000 0.000000
# 3 -0.009897 -0.004919 0.013187 0.000000 0.000000 0.000000
# 4 0.000000 0.000000 0.000000 0.152013 0.000000 0.000000
# 5 0.000000 0.000000 0.000000 0.000000 0.032323 0.000000
# 6 0.000000 0.000000 0.000000 0.000000 0.000000 0.075017
#
#
# Mechanical properties :
#
#
# Convention : Reuss Voigt Hill
#
# Bulk Modulus (GPa) = 14.54629 66.17911 40.36270
# Shear Modulus (GPa) = 10.44829 19.85602 15.15216
#
# Velocity S-wave (km/s) = 2.69498 3.71518 3.24542
# Velocity P-wave (km/s) = 4.44921 8.02537 6.48853
#
# Compressibility (1/GPa) = 0.06874604
#
# Stress axis : x y z
#
# Youngs Moduli (GPa) = 49.49858 10.08854 75.83283
#
# Poissons Ratio (x) = 0.17218 0.75053
# Poissons Ratio (y) = 0.84478 0.37301
# Poissons Ratio (z) = 0.48990 0.04962
#
# Static dielectric constant tensor:
#      x y z
#    x 1.490220 0.000000 0.000000 
#    y 0.000000 1.441370 0.000000 
#    z 0.000000 0.000000 1.471750 
# 
# From -- ./inp_files/37331.got.cif
#   From: 2010.05.17/outbox.cif.g08.bks.cpg/sg51_19_cif.got.tgz:37331.got - 2010.06.03 11:52:47.
