data_PCOD9401076
_publ_section_title
;
Structure prediction by ZEFSAII (Michael W. Deem and Ramdas Pophale) SiO2 
 PCOD9401076
Probable space group: P M M A
;
_chemical_formula_sum "Si O2"
_cell_formula_units_Z 48
_cell_length_a 8.527896
_cell_length_b 18.189633
_cell_length_c 18.597669
_cell_angle_alpha 90.000000
_cell_angle_beta 90.000000
_cell_angle_gamma 90.000000
_cell_volume 2884.857369
_symmetry_space_group_name_H-M "P M M A"
_symmetry_group_IT_number 51
_symmetry_cell_setting 'orthorhombic'
loop_
_space_group_symop_operation_xyz
x,y,z
1/2-x,-y,z
1/2+x,-y,-z
-x,y,-z
-x,-y,-z
1/2+x,y,-z
1/2-x,y,z
x,-y,z
loop_
_atom_site_type_symbol
_atom_site_label
_atom_site_fract_x
_atom_site_fract_y
_atom_site_fract_z
Si Si1 0.436421 0.204591 0.183252
Si Si2 0.936616 0.087217 0.078614
Si Si3 0.567691 0.302646 0.301429
Si Si4 0.559995 0.416814 0.418651
Si Si5 0.070311 0.584731 0.195297
Si Si6 0.935570 0.330290 0.078324
O O1 0.250000 0.209599 0.178749
O O2 0.490515 0.128127 0.147634
O O3 0.487574 0.232113 0.263136
O O4 0.516329 0.262906 0.129395
O O5 0.750000 0.099023 0.079086
O O6 0.968892 0.000000 0.082892
O O7 0.000000 0.112795 0.000000
O O8 0.750000 0.285164 0.312237
O O9 0.504982 0.346531 0.371635
O O10 0.546395 0.367479 0.242908
O O11 0.500000 0.410279 0.500000
O O12 0.750000 0.415608 0.417056
O O13 0.512232 0.500000 0.393199
O O14 0.250000 0.609642 0.207679
O O15 0.059278 0.500000 0.212984
O O16 0.022728 0.600241 0.113544
O O17 0.750000 0.339858 0.078106
O O18 0.000000 0.315660 0.000000
#
# Coordination Sequence:
#
# PCOD9401076 Si02
#       6
#     8   8   8   8   8   8
#     4  11  21  33  49  69  94 122 155 192 232 279
#     4  10  20  34  52  74 100 129 161 197 238 284
#     4  10  19  32  49  68  92 122 157 193 232 279
#     4   9  18  31  48  71  98 128 161 198 240 286
#     4  10  20  32  45  62  83 109 145 188 233 278
#     4  11  21  33  47  61  81 110 147 189 232 276
#
# _framework density 16.638604000000001
#
# number of rings (size 3 to 8) (size 9 to 14) (size 15 to 20)
#    0.000    1.833    0.000    7.500    0.000    4.667 
#    0.000    1.667    0.000    0.000    0.000    0.000 
#    0.000    0.667    0.000    2.167    0.000    2.667 
#
# Total GULP energy -267459.641786 kJ/mol
# GULP energy per Si atom -5572.075871 kJ/mol
# Density = 1.660073 g / cm^3
# Si number density = 16.638604 Si / 1000 Ang^3
#
#
#
# Elastic Constant Matrix: (Units=GPa)
#
#
# Indices 1 2 3 4 5 6 
#
# 1 25.9650 19.1882 4.9364 0.0000 0.0000 0.0000
# 2 19.1882 58.5830 27.3338 0.0000 0.0000 0.0000
# 3 4.9364 27.3338 73.7399 0.0000 0.0000 0.0000
# 4 0.0000 0.0000 0.0000 28.9263 0.0000 0.0000
# 5 0.0000 0.0000 0.0000 0.0000 22.7574 0.0000
# 6 0.0000 0.0000 0.0000 0.0000 0.0000 -70.3535
#
#
#
# Elastic Compliance Matrix: (Units=1/GPa)
#
#
# Indices 1 2 3 4 5 6 
#
# 1 0.051505 -0.018453 0.003392 0.000000 0.000000 0.000000
# 2 -0.018453 0.027250 -0.008866 0.000000 0.000000 0.000000
# 3 0.003392 -0.008866 0.016620 0.000000 0.000000 0.000000
# 4 0.000000 0.000000 0.000000 0.034571 0.000000 0.000000
# 5 0.000000 0.000000 0.000000 0.000000 0.043942 0.000000
# 6 0.000000 0.000000 0.000000 0.000000 0.000000 -0.014214
#
#
# Mechanical properties :
#
#
# Convention : Reuss Voigt Hill
#
# Bulk Modulus (GPa) = 21.04235 29.02272 25.03253
# Shear Modulus (GPa) = 22.38460 3.38802 12.88631
#
# Velocity S-wave (km/s) = 3.67187 1.42852 2.78597
# Velocity P-wave (km/s) = 5.53633 4.49464 5.04246
#
# Compressibility (1/GPa) = 0.04752322
#
# Stress axis : x y z
#
# Youngs Moduli (GPa) = 19.41558 36.69680 60.16678
#
# Poissons Ratio (x) = 0.67715 -0.20409
# Poissons Ratio (y) = 0.35827 0.53343
# Poissons Ratio (z) = -0.06586 0.32535
#
# Static dielectric constant tensor:
#      x y z
#    x 1.562570 0.000000 0.000000 
#    y 0.000000 1.606220 0.000000 
#    z 0.000000 0.000000 1.611300 
# 
# From -- ./inp_files/27847.got.cif
#   From: 2010.05.17/outbox.cif.g08.bks.cpg/sg51_14_cif.got.tgz:27847.got - 2010.06.03 11:52:47.
