data_PCOD9401332
_publ_section_title
;
Structure prediction by ZEFSAII (Michael W. Deem and Ramdas Pophale) SiO2 
 PCOD9401332
Probable space group: P M M A
;
_chemical_formula_sum "Si O2"
_cell_formula_units_Z 64
_cell_length_a 29.432653
_cell_length_b 7.465598
_cell_length_c 13.253953
_cell_angle_alpha 90.000000
_cell_angle_beta 90.000000
_cell_angle_gamma 90.000000
_cell_volume 2912.322311
_symmetry_space_group_name_H-M "P M M A"
_symmetry_group_IT_number 51
_symmetry_cell_setting 'orthorhombic'
loop_
_space_group_symop_operation_xyz
x,y,z
1/2-x,-y,z
1/2+x,-y,-z
-x,y,-z
-x,-y,-z
1/2+x,y,-z
1/2-x,y,z
x,-y,z
loop_
_atom_site_type_symbol
_atom_site_label
_atom_site_fract_x
_atom_site_fract_y
_atom_site_fract_z
Si Si1 0.145731 0.284257 0.523996
Si Si2 0.638603 0.283716 0.869646
Si Si3 0.801261 0.787145 0.270398
Si Si4 0.866336 0.210477 0.096441
Si Si5 0.048877 0.718667 0.460766
Si Si6 0.197618 0.281104 0.321699
Si Si7 0.953939 0.716060 0.770393
Si Si8 0.032202 0.790719 0.912651
O O1 0.144754 0.500000 0.518889
O O2 0.173168 0.236499 0.623736
O O3 0.093352 0.222593 0.522046
O O4 0.171107 0.222498 0.422194
O O5 0.638329 0.500000 0.868590
O O6 0.671850 0.224298 0.780029
O O7 0.587507 0.222651 0.841344
O O8 0.651119 0.226735 0.982067
O O9 0.750000 0.713944 0.273734
O O10 0.832183 0.713202 0.179537
O O11 0.797226 0.000000 0.253754
O O12 0.917545 0.287834 0.097581
O O13 0.870979 0.000000 0.120713
O O14 0.048213 0.500000 0.463539
O O15 0.054759 0.771527 0.344197
O O16 0.000000 0.779828 0.500000
O O17 0.250000 0.225082 0.323645
O O18 0.196934 0.500000 0.321982
O O19 0.953960 0.500000 0.771877
O O20 0.002263 0.777154 0.812196
O O21 0.038379 0.000000 0.938597
O O22 0.000000 0.710455 0.000000
#
# Coordination Sequence:
#
# PCOD9401332 Si02
#       8
#     8   8   8   8   8   8   8   8
#     4  10  19  35  60  86 110 141 184 224 264 326
#     4  10  19  33  53  80 109 137 175 221 267 320
#     4  10  23  42  59  76 106 147 186 231 284 328
#     4  10  22  39  56  75 106 146 185 223 272 327
#     4   9  18  32  51  80 116 147 172 210 268 325
#     4   9  17  31  53  80 108 136 167 214 275 323
#     4  10  19  32  52  77 108 142 175 213 262 318
#     4  10  20  34  52  75 103 138 177 216 259 311
#
# _framework density 21.97559
#
# number of rings (size 3 to 8) (size 9 to 14) (size 15 to 20)
#    0.000    2.250    2.500    0.375    1.750    2.500 
#    0.000    1.250    0.000    1.500    0.000    0.000 
#    0.000    0.000    0.000    0.000    0.000    0.000 
#
# Total GULP energy -357575.190830 kJ/mol
# GULP energy per Si atom -5587.112357 kJ/mol
# Density = 2.192557 g / cm^3
# Si number density = 21.975590 Si / 1000 Ang^3
#
#
#
# Elastic Constant Matrix: (Units=GPa)
#
#
# Indices 1 2 3 4 5 6 
#
# 1 209.7183 9.1974 113.2887 0.0000 0.0000 0.0000
# 2 9.1974 62.3207 -8.1036 0.0000 0.0000 0.0000
# 3 113.2887 -8.1036 153.0944 0.0000 0.0000 0.0000
# 4 0.0000 0.0000 0.0000 3.6410 0.0000 0.0000
# 5 0.0000 0.0000 0.0000 0.0000 29.1112 0.0000
# 6 0.0000 0.0000 0.0000 0.0000 0.0000 2.9923
#
#
#
# Elastic Compliance Matrix: (Units=1/GPa)
#
#
# Indices 1 2 3 4 5 6 
#
# 1 0.008186 -0.002010 -0.006164 0.000000 0.000000 0.000000
# 2 -0.002010 0.016651 0.002368 0.000000 0.000000 0.000000
# 3 -0.006164 0.002368 0.011219 0.000000 0.000000 0.000000
# 4 0.000000 0.000000 0.000000 0.274652 0.000000 0.000000
# 5 0.000000 0.000000 0.000000 0.000000 0.034351 0.000000
# 6 0.000000 0.000000 0.000000 0.000000 0.000000 0.334190
#
#
# Mechanical properties :
#
#
# Convention : Reuss Voigt Hill
#
# Bulk Modulus (GPa) = 40.90830 72.65539 56.78184
# Shear Modulus (GPa) = 7.15300 27.86562 17.50931
#
# Velocity S-wave (km/s) = 1.80611 3.56480 2.82576
# Velocity P-wave (km/s) = 4.79637 7.07654 6.04494
#
# Compressibility (1/GPa) = 0.02444492
#
# Stress axis : x y z
#
# Youngs Moduli (GPa) = 122.15549 60.05789 89.13668
#
# Poissons Ratio (x) = 0.12070 0.54945
# Poissons Ratio (y) = 0.24549 -0.21112
# Poissons Ratio (z) = 0.75299 -0.14225
#
# Static dielectric constant tensor:
#      x y z
#    x 1.798470 0.000000 0.000000 
#    y 0.000000 1.843350 0.000000 
#    z 0.000000 0.000000 1.766940 
# 
# From -- ./inp_files/19539.got.cif
#   From: 2010.05.17/outbox.cif.g08.bks.cpg/sg51_10_cif.got.tgz:19539.got - 2010.06.03 11:52:47.
