data_PCOD9401817
_publ_section_title
;
Structure prediction by ZEFSAII (Michael W. Deem and Ramdas Pophale) SiO2 
 PCOD9401817
Probable space group: P M M A
;
_chemical_formula_sum "Si O2"
_cell_formula_units_Z 44
_cell_length_a 9.493601
_cell_length_b 7.986231
_cell_length_c 30.958656
_cell_angle_alpha 90.000000
_cell_angle_beta 90.000000
_cell_angle_gamma 90.000000
_cell_volume 2347.226186
_symmetry_space_group_name_H-M "P M M A"
_symmetry_group_IT_number 51
_symmetry_cell_setting 'orthorhombic'
loop_
_space_group_symop_operation_xyz
x,y,z
1/2-x,-y,z
1/2+x,-y,-z
-x,y,-z
-x,-y,-z
1/2+x,y,-z
1/2-x,y,z
x,-y,z
loop_
_atom_site_type_symbol
_atom_site_label
_atom_site_fract_x
_atom_site_fract_y
_atom_site_fract_z
Si Si1 0.421033 0.314914 0.895681
Si Si2 0.578727 0.000000 0.045435
Si Si3 0.087371 0.800561 0.801634
Si Si4 0.411216 0.798035 0.540788
Si Si5 0.911761 0.298395 0.364499
Si Si6 0.411386 0.297151 0.282129
O O1 0.250000 0.312025 0.894866
O O2 0.466774 0.500000 0.909745
O O3 0.462533 0.164245 0.926986
O O4 0.464238 0.281868 0.846169
O O5 0.750000 0.000000 0.040344
O O6 0.500000 0.000000 0.000000
O O7 0.250000 0.747241 0.793743
O O8 0.993465 0.757392 0.760638
O O9 0.088171 0.000000 0.808547
O O10 0.500000 0.736426 0.500000
O O11 0.250000 0.737005 0.538053
O O12 0.466484 0.749359 0.588062
O O13 0.408922 0.000000 0.538906
O O14 0.750000 0.236526 0.360642
O O15 0.907629 0.500000 0.362361
O O16 0.006198 0.237767 0.324854
O O17 0.250000 0.239546 0.281838
O O18 0.411022 0.500000 0.283020
#
# Coordination Sequence:
#
# PCOD9401817 Si02
#       6
#     8   4   8   8   8   8
#     4   9  17  32  56  82 109 143 183 229 275 320
#     4  10  20  36  56  82 114 146 186 230 273 324
#     4  10  19  33  55  81 105 134 179 227 267 316
#     4   9  18  32  49  69  93 121 156 200 251 306
#     4   9  18  33  51  70  95 129 169 211 253 303
#     4  10  21  35  50  73 106 140 172 210 262 321
#
# _framework density 18.745529999999999
#
# number of rings (size 3 to 8) (size 9 to 14) (size 15 to 20)
#    0.000    2.545    0.909    1.091    0.000    4.364 
#    0.000    2.727    0.000    1.091    0.000    0.000 
#    0.000    0.000    0.000    0.000    0.000    0.000 
#
# Total GULP energy -245473.221642 kJ/mol
# GULP energy per Si atom -5578.936855 kJ/mol
# Density = 1.870286 g / cm^3
# Si number density = 18.745530 Si / 1000 Ang^3
#
#
#
# Elastic Constant Matrix: (Units=GPa)
#
#
# Indices 1 2 3 4 5 6 
#
# 1 60.8784 25.3915 68.6051 0.0000 0.0000 0.0000
# 2 25.3915 67.4746 54.0703 0.0000 0.0000 0.0000
# 3 68.6051 54.0703 185.8585 0.0000 0.0000 0.0000
# 4 0.0000 0.0000 0.0000 40.8597 0.0000 0.0000
# 5 0.0000 0.0000 0.0000 0.0000 33.2288 0.0000
# 6 0.0000 0.0000 0.0000 0.0000 0.0000 12.0061
#
#
#
# Elastic Compliance Matrix: (Units=1/GPa)
#
#
# Indices 1 2 3 4 5 6 
#
# 1 0.028584 -0.003001 -0.009678 0.000000 0.000000 0.000000
# 2 -0.003001 0.019641 -0.004606 0.000000 0.000000 0.000000
# 3 -0.009678 -0.004606 0.010293 0.000000 0.000000 0.000000
# 4 0.000000 0.000000 0.000000 0.024474 0.000000 0.000000
# 5 0.000000 0.000000 0.000000 0.000000 0.030094 0.000000
# 6 0.000000 0.000000 0.000000 0.000000 0.000000 0.083291
#
#
# Mechanical properties :
#
#
# Convention : Reuss Voigt Hill
#
# Bulk Modulus (GPa) = 41.75836 67.81614 54.78725
# Shear Modulus (GPa) = 20.92656 28.29522 24.61089
#
# Velocity S-wave (km/s) = 3.34481 3.88936 3.62732
# Velocity P-wave (km/s) = 6.10260 7.51168 6.84350
#
# Compressibility (1/GPa) = 0.02394730
#
# Stress axis : x y z
#
# Youngs Moduli (GPa) = 34.98413 50.91422 97.15432
#
# Poissons Ratio (x) = 0.15280 0.94027
# Poissons Ratio (y) = 0.10499 0.44751
# Poissons Ratio (z) = 0.33858 0.23452
#
# Static dielectric constant tensor:
#      x y z
#    x 1.638010 0.000000 0.000000 
#    y 0.000000 1.671850 0.000000 
#    z 0.000000 0.000000 1.621290 
# 
# From -- ./inp_files/36718.got.cif
#   From: 2010.05.17/outbox.cif.g08.bks.cpg/sg51_19_cif.got.tgz:36718.got - 2010.06.03 11:52:47.
