data_PCOD9401042
_publ_section_title
;
Structure prediction by ZEFSAII (Michael W. Deem and Ramdas Pophale) SiO2 
 PCOD9401042
Probable space group: P M M A
;
_chemical_formula_sum "Si O2"
_cell_formula_units_Z 48
_cell_length_a 15.741534
_cell_length_b 7.760351
_cell_length_c 19.386271
_cell_angle_alpha 90.000000
_cell_angle_beta 90.000000
_cell_angle_gamma 90.000000
_cell_volume 2368.223553
_symmetry_space_group_name_H-M "P M M A"
_symmetry_group_IT_number 51
_symmetry_cell_setting 'orthorhombic'
loop_
_space_group_symop_operation_xyz
x,y,z
1/2-x,-y,z
1/2+x,-y,-z
-x,y,-z
-x,-y,-z
1/2+x,y,-z
1/2-x,y,z
x,-y,z
loop_
_atom_site_type_symbol
_atom_site_label
_atom_site_fract_x
_atom_site_fract_y
_atom_site_fract_z
Si Si1 0.844238 0.703136 0.330922
Si Si2 0.250000 0.296528 0.917533
Si Si3 0.997867 0.711327 0.579394
Si Si4 0.096294 0.203114 0.820445
Si Si5 0.750000 0.208525 0.921977
Si Si6 0.092895 0.794874 0.168087
Si Si7 0.653532 0.291322 0.678046
O O1 0.750000 0.778223 0.340768
O O2 0.839066 0.500000 0.346701
O O3 0.870656 0.718817 0.251108
O O4 0.919322 0.772936 0.378821
O O5 0.250000 0.500000 0.908067
O O6 0.166218 0.227520 0.879296
O O7 0.250000 0.253158 0.997948
O O8 0.997902 0.500000 0.580427
O O9 0.913786 0.766504 0.620673
O O10 0.000000 0.764968 0.500000
O O11 0.003031 0.273194 0.839804
O O12 0.087309 0.000000 0.807027
O O13 0.665635 0.274106 0.882809
O O14 0.750000 0.000000 0.916010
O O15 0.122362 0.764859 0.246492
O O16 0.088956 0.000000 0.155715
O O17 0.750000 0.231985 0.666277
O O18 0.653905 0.500000 0.677656
#
# Coordination Sequence:
#
# PCOD9401042 Si02
#       7
#     8   4   8   8   4   8   8
#     4  10  19  32  54  82 110 146 192 239 282 333
#     4  12  26  42  60  86 119 152 185 232 287 338
#     4   9  18  32  50  78 117 154 188 235 290 337
#     4  11  22  37  60  88 114 149 192 236 282 339
#     4  10  22  42  62  84 117 152 187 230 281 342
#     4  10  21  37  61  87 113 149 191 233 281 339
#     4  10  19  31  53  83 112 146 190 239 285 334
#
# _framework density 20.268357999999999
#
# number of rings (size 3 to 8) (size 9 to 14) (size 15 to 20)
#    0.000    1.833    3.333    1.250    0.000    2.667 
#    0.000    6.667    0.000    2.000    0.000    2.333 
#    0.000    0.000    0.000    0.000    0.000    0.000 
#
# Total GULP energy -268100.323244 kJ/mol
# GULP energy per Si atom -5585.423401 kJ/mol
# Density = 2.022223 g / cm^3
# Si number density = 20.268358 Si / 1000 Ang^3
#
#
#
# Elastic Constant Matrix: (Units=GPa)
#
#
# Indices 1 2 3 4 5 6 
#
# 1 238.1109 -1.5052 103.8090 0.0000 0.0000 0.0000
# 2 -1.5052 22.5852 -23.6330 0.0000 0.0000 0.0000
# 3 103.8090 -23.6330 157.0852 0.0000 0.0000 0.0000
# 4 0.0000 0.0000 0.0000 41.5735 0.0000 0.0000
# 5 0.0000 0.0000 0.0000 0.0000 34.6605 0.0000
# 6 0.0000 0.0000 0.0000 0.0000 0.0000 11.6848
#
#
#
# Elastic Compliance Matrix: (Units=1/GPa)
#
#
# Indices 1 2 3 4 5 6 
#
# 1 0.006288 -0.004663 -0.004857 0.000000 0.000000 0.000000
# 2 -0.004663 0.056008 0.011508 0.000000 0.000000 0.000000
# 3 -0.004857 0.011508 0.011307 0.000000 0.000000 0.000000
# 4 0.000000 0.000000 0.000000 0.024054 0.000000 0.000000
# 5 0.000000 0.000000 0.000000 0.000000 0.028851 0.000000
# 6 0.000000 0.000000 0.000000 0.000000 0.000000 0.085582
#
#
# Mechanical properties :
#
#
# Convention : Reuss Voigt Hill
#
# Bulk Modulus (GPa) = 12.89024 63.90255 38.39640
# Shear Modulus (GPa) = 21.37010 40.19112 30.78061
#
# Velocity S-wave (km/s) = 3.25061 4.45786 3.90122
# Velocity P-wave (km/s) = 4.52352 7.62190 6.26720
#
# Compressibility (1/GPa) = 0.07757805
#
# Stress axis : x y z
#
# Youngs Moduli (GPa) = 159.04311 17.85473 88.44258
#
# Poissons Ratio (x) = 0.08326 0.42954
# Poissons Ratio (y) = 0.74161 -1.01777
# Poissons Ratio (z) = 0.77242 -0.20547
#
# Static dielectric constant tensor:
#      x y z
#    x 1.729850 0.000000 0.000000 
#    y 0.000000 1.755590 0.000000 
#    z 0.000000 0.000000 1.656070 
# 
# From -- ./inp_files/29577.got.cif
#   From: 2010.05.17/outbox.cif.g08.bks.cpg/sg51_15_cif.got.tgz:29577.got - 2010.06.03 11:52:47.
