data_PCOD9401827
_publ_section_title
;
Structure prediction by ZEFSAII (Michael W. Deem and Ramdas Pophale) SiO2 
 PCOD9401827
Probable space group: P M M A
;
_chemical_formula_sum "Si O2"
_cell_formula_units_Z 56
_cell_length_a 22.550418
_cell_length_b 7.667371
_cell_length_c 14.287074
_cell_angle_alpha 90.000000
_cell_angle_beta 90.000000
_cell_angle_gamma 90.000000
_cell_volume 2470.269684
_symmetry_space_group_name_H-M "P M M A"
_symmetry_group_IT_number 51
_symmetry_cell_setting 'orthorhombic'
loop_
_space_group_symop_operation_xyz
x,y,z
1/2-x,-y,z
1/2+x,-y,-z
-x,y,-z
-x,-y,-z
1/2+x,y,-z
1/2-x,y,z
x,-y,z
loop_
_atom_site_type_symbol
_atom_site_label
_atom_site_fract_x
_atom_site_fract_y
_atom_site_fract_z
Si Si1 0.564497 0.696545 0.022863
Si Si2 0.506421 0.213500 0.607698
Si Si3 0.578512 0.200280 0.228973
Si Si4 0.681823 0.288388 0.343071
Si Si5 0.318666 0.208087 0.091100
Si Si6 0.820149 0.301032 0.542891
Si Si7 0.121131 0.802989 0.279537
O O1 0.561564 0.500000 0.984663
O O2 0.566596 0.698635 0.134745
O O3 0.500000 0.781488 0.000000
O O4 0.627631 0.766143 0.983634
O O5 0.500000 0.273903 0.500000
O O6 0.453903 0.265353 0.677458
O O7 0.564057 0.273292 0.666772
O O8 0.508900 0.000000 0.602742
O O9 0.646657 0.212978 0.256771
O O10 0.560553 0.000000 0.213060
O O11 0.750000 0.237811 0.336427
O O12 0.678490 0.500000 0.343206
O O13 0.656546 0.228313 0.444318
O O14 0.250000 0.272476 0.073908
O O15 0.347222 0.277699 0.188951
O O16 0.312439 0.000000 0.101645
O O17 0.750000 0.310941 0.529738
O O18 0.841555 0.500000 0.555834
O O19 0.833066 0.194999 0.635154
O O20 0.103675 0.000000 0.251500
#
# Coordination Sequence:
#
# PCOD9401827 Si02
#       7
#     8   8   8   8   8   8   8
#     4  11  25  44  65  88 116 153 198 247 302 369
#     4   9  18  32  52  83 120 153 187 229 279 338
#     4  11  22  37  61  87 111 144 185 232 285 339
#     4   9  19  36  55  77 111 151 186 225 275 331
#     4  10  22  40  62  90 122 157 204 261 318 377
#     4   9  18  32  50  75 110 151 190 227 272 329
#     4  10  19  33  55  81 113 152 192 239 293 345
#
# _framework density 22.669588000000001
#
# number of rings (size 3 to 8) (size 9 to 14) (size 15 to 20)
#    0.000    2.143    0.000    3.857    0.000    6.571 
#    0.000    2.857    0.000    3.857    0.000    0.000 
#    0.000    0.000    0.000    0.000    0.000    0.000 
#
# Total GULP energy -312094.545738 kJ/mol
# GULP energy per Si atom -5573.116888 kJ/mol
# Density = 2.261799 g / cm^3
# Si number density = 22.669588 Si / 1000 Ang^3
#
#
#
# Elastic Constant Matrix: (Units=GPa)
#
#
# Indices 1 2 3 4 5 6 
#
# 1 144.7667 7.7663 73.6271 0.0000 0.0000 0.0000
# 2 7.7663 43.3938 3.9140 0.0000 0.0000 0.0000
# 3 73.6271 3.9140 137.1912 0.0000 0.0000 0.0000
# 4 0.0000 0.0000 0.0000 10.3101 0.0000 0.0000
# 5 0.0000 0.0000 0.0000 0.0000 33.2089 0.0000
# 6 0.0000 0.0000 0.0000 0.0000 0.0000 -3.8000
#
#
#
# Elastic Compliance Matrix: (Units=1/GPa)
#
#
# Indices 1 2 3 4 5 6 
#
# 1 0.009568 -0.001253 -0.005099 0.000000 0.000000 0.000000
# 2 -0.001253 0.023268 0.000008 0.000000 0.000000 0.000000
# 3 -0.005099 0.000008 0.010026 0.000000 0.000000 0.000000
# 4 0.000000 0.000000 0.000000 0.096993 0.000000 0.000000
# 5 0.000000 0.000000 0.000000 0.000000 0.030112 0.000000
# 6 0.000000 0.000000 0.000000 0.000000 0.000000 -0.263157
#
#
# Mechanical properties :
#
#
# Convention : Reuss Voigt Hill
#
# Bulk Modulus (GPa) = 33.13997 55.10739 44.12368
# Shear Modulus (GPa) = -70.97843 23.94674 -23.51584
#
# Velocity S-wave (km/s) = -5.60160 3.25366 -3.22425
# Velocity P-wave (km/s) = 5.21410 6.20297 2.37592
#
# Compressibility (1/GPa) = 0.03017504
#
# Stress axis : x y z
#
# Youngs Moduli (GPa) = 104.51111 42.97719 99.74497
#
# Poissons Ratio (x) = 0.05383 0.50864
# Poissons Ratio (y) = 0.13090 -0.00083
# Poissons Ratio (z) = 0.53294 -0.00036
#
# Static dielectric constant tensor:
#      x y z
#    x 2.048910 0.000000 0.000000 
#    y 0.000000 1.923770 0.000000 
#    z 0.000000 0.000000 1.810510 
# 
# From -- ./inp_files/25748.got.cif
#   From: 2010.05.17/outbox.cif.g08.bks.cpg/sg51_13_cif.got.tgz:25748.got - 2010.06.03 11:52:47.
