data_PCOD9401877
_publ_section_title
;
Structure prediction by ZEFSAII (Michael W. Deem and Ramdas Pophale) SiO2 
 PCOD9401877
Probable space group: P M M A
;
_chemical_formula_sum "Si O2"
_cell_formula_units_Z 48
_cell_length_a 8.446948
_cell_length_b 14.893230
_cell_length_c 21.183362
_cell_angle_alpha 90.000000
_cell_angle_beta 90.000000
_cell_angle_gamma 90.000000
_cell_volume 2664.916495
_symmetry_space_group_name_H-M "P M M A"
_symmetry_group_IT_number 51
_symmetry_cell_setting 'orthorhombic'
loop_
_space_group_symop_operation_xyz
x,y,z
1/2-x,-y,z
1/2+x,-y,-z
-x,y,-z
-x,-y,-z
1/2+x,y,-z
1/2-x,y,z
x,-y,z
loop_
_atom_site_type_symbol
_atom_site_label
_atom_site_fract_x
_atom_site_fract_y
_atom_site_fract_z
Si Si1 0.058683 0.400160 0.742040
Si Si2 0.440865 0.401002 0.114435
Si Si3 0.441359 0.103620 0.811561
Si Si4 0.060586 0.789163 0.067075
Si Si5 0.941173 0.213804 0.312632
Si Si6 0.439196 0.897199 0.430531
O O1 0.250000 0.397023 0.746910
O O2 0.013777 0.500000 0.719324
O O3 0.008007 0.316589 0.699315
O O4 0.991166 0.389573 0.812612
O O5 0.250000 0.401587 0.111500
O O6 0.498143 0.500000 0.093362
O O7 0.498448 0.313596 0.077246
O O8 0.250000 0.105801 0.812897
O O9 0.502735 0.152638 0.873950
O O10 0.492708 0.156597 0.748724
O O11 0.492282 0.000000 0.809215
O O12 0.250000 0.788547 0.066899
O O13 0.000000 0.823570 0.000000
O O14 0.750000 0.211871 0.314404
O O15 0.002854 0.168345 0.375886
O O16 0.500000 0.871869 0.500000
O O17 0.250000 0.897717 0.431434
O O18 0.494873 0.000000 0.417881
#
# Coordination Sequence:
#
# PCOD9401877 Si02
#       6
#     8   8   8   8   8   8
#     4   9  17  30  52  81 109 138 172 211 257 310
#     4   9  18  33  52  75 103 133 167 212 265 317
#     4  10  21  37  56  78 104 135 174 219 266 316
#     4  11  23  37  54  74 101 136 175 219 268 321
#     4  10  19  33  56  83 112 142 174 214 261 311
#     4  10  21  36  55  81 113 147 182 219 261 310
#
# _framework density 18.011821999999999
#
# number of rings (size 3 to 8) (size 9 to 14) (size 15 to 20)
#    0.000    2.167    1.667    1.500    0.000    4.667 
#    0.000    0.000    0.000    0.500    0.000    0.000 
#    0.000    0.000    0.000    0.000    0.000    0.000 
#
# Total GULP energy -267885.051452 kJ/mol
# GULP energy per Si atom -5580.938572 kJ/mol
# Density = 1.797083 g / cm^3
# Si number density = 18.011822 Si / 1000 Ang^3
#
#
#
# Elastic Constant Matrix: (Units=GPa)
#
#
# Indices 1 2 3 4 5 6 
#
# 1 8.2398 23.5315 15.4806 0.0000 0.0000 0.0000
# 2 23.5315 132.7951 77.9028 0.0000 0.0000 0.0000
# 3 15.4806 77.9028 125.2373 0.0000 0.0000 0.0000
# 4 0.0000 0.0000 0.0000 14.7917 0.0000 0.0000
# 5 0.0000 0.0000 0.0000 0.0000 25.3377 0.0000
# 6 0.0000 0.0000 0.0000 0.0000 0.0000 19.9848
#
#
#
# Elastic Compliance Matrix: (Units=1/GPa)
#
#
# Indices 1 2 3 4 5 6 
#
# 1 0.247856 -0.040856 -0.005223 0.000000 0.000000 0.000000
# 2 -0.040856 0.018592 -0.006515 0.000000 0.000000 0.000000
# 3 -0.005223 -0.006515 0.012683 0.000000 0.000000 0.000000
# 4 0.000000 0.000000 0.000000 0.067605 0.000000 0.000000
# 5 0.000000 0.000000 0.000000 0.000000 0.039467 0.000000
# 6 0.000000 0.000000 0.000000 0.000000 0.000000 0.050038
#
#
# Mechanical properties :
#
#
# Convention : Reuss Voigt Hill
#
# Bulk Modulus (GPa) = 5.74903 55.56690 30.65797
# Shear Modulus (GPa) = 8.34152 21.97998 15.16075
#
# Velocity S-wave (km/s) = 2.15434 3.49708 2.90437
# Velocity P-wave (km/s) = 3.06382 6.87192 5.32026
#
# Compressibility (1/GPa) = 0.17394236
#
# Stress axis : x y z
#
# Youngs Moduli (GPa) = 4.03460 53.78645 78.84617
#
# Poissons Ratio (x) = 2.19752 0.41183
# Poissons Ratio (y) = 0.16484 0.51366
# Poissons Ratio (z) = 0.02107 0.35041
#
# Static dielectric constant tensor:
#      x y z
#    x 1.618810 0.000000 0.000000 
#    y 0.000000 1.649580 0.000000 
#    z 0.000000 0.000000 1.571190 
# 
# From -- ./inp_files/27515.got.cif
#   From: 2010.05.17/outbox.cif.g08.bks.cpg/sg51_14_cif.got.tgz:27515.got - 2010.06.03 11:52:47.
