data_PCOD9401334
_publ_section_title
;
Structure prediction by ZEFSAII (Michael W. Deem and Ramdas Pophale) SiO2 
 PCOD9401334
Probable space group: P M M A
;
_chemical_formula_sum "Si O2"
_cell_formula_units_Z 48
_cell_length_a 10.289948
_cell_length_b 9.006719
_cell_length_c 30.173623
_cell_angle_alpha 90.000000
_cell_angle_beta 90.000000
_cell_angle_gamma 90.000000
_cell_volume 2796.451254
_symmetry_space_group_name_H-M "P M M A"
_symmetry_group_IT_number 51
_symmetry_cell_setting 'orthorhombic'
loop_
_space_group_symop_operation_xyz
x,y,z
1/2-x,-y,z
1/2+x,-y,-z
-x,y,-z
-x,-y,-z
1/2+x,y,-z
1/2-x,y,z
x,-y,z
loop_
_atom_site_type_symbol
_atom_site_label
_atom_site_fract_x
_atom_site_fract_y
_atom_site_fract_z
Si Si1 0.408235 0.329213 0.778258
Si Si2 0.250000 0.175417 0.441606
Si Si3 0.907991 0.170603 0.131742
Si Si4 0.750000 0.175292 0.452121
Si Si5 0.407019 0.825991 0.686797
Si Si6 0.098415 0.321166 0.960973
Si Si7 0.492342 0.677620 0.597298
O O1 0.250000 0.328760 0.779172
O O2 0.449883 0.500000 0.774612
O O3 0.452684 0.256487 0.824317
O O4 0.445593 0.235808 0.734963
O O5 0.250000 0.188444 0.494891
O O6 0.375904 0.254418 0.421804
O O7 0.250000 0.000000 0.430866
O O8 0.750000 0.170977 0.133226
O O9 0.942108 0.249810 0.085750
O O10 0.950891 0.000000 0.132397
O O11 0.875242 0.253432 0.431341
O O12 0.750000 0.000000 0.440430
O O13 0.250000 0.811362 0.682917
O O14 0.470039 0.732166 0.647506
O O15 0.438368 0.000000 0.682438
O O16 0.250000 0.280697 0.969997
O O17 0.094018 0.500000 0.956860
O O18 0.000000 0.276929 0.000000
O O19 0.491398 0.500000 0.594809
#
# Coordination Sequence:
#
# PCOD9401334 Si02
#       7
#     8   4   8   4   8   8   8
#     4   9  16  26  43  69 101 132 166 210 260 307
#     4  11  25  43  61  81 111 149 187 223 268 325
#     4   9  16  26  41  64  95 128 163 203 251 303
#     4  11  23  41  63  85 111 147 185 223 270 323
#     4  10  19  32  52  77 108 142 177 215 263 319
#     4   9  17  29  45  66  93 126 163 202 246 295
#     4  12  24  38  59  86 115 144 181 227 272 319
#
# _framework density 17.164611000000001
#
# number of rings (size 3 to 8) (size 9 to 14) (size 15 to 20)
#    0.000    2.000    0.833    4.000    0.000    8.333 
#    0.000    0.000    0.000    0.000    2.167    0.000 
#    0.000    0.000    0.000    0.000    0.000    0.000 
#
# Total GULP energy -267903.123999 kJ/mol
# GULP energy per Si atom -5581.315083 kJ/mol
# Density = 1.712554 g / cm^3
# Si number density = 17.164611 Si / 1000 Ang^3
#
#
#
# Elastic Constant Matrix: (Units=GPa)
#
#
# Indices 1 2 3 4 5 6 
#
# 1 80.3033 56.3099 57.1933 0.0000 0.0000 0.0000
# 2 56.3099 147.0106 91.2728 0.0000 0.0000 0.0000
# 3 57.1933 91.2728 149.8647 0.0000 0.0000 0.0000
# 4 0.0000 0.0000 0.0000 36.0530 0.0000 0.0000
# 5 0.0000 0.0000 0.0000 0.0000 10.7724 0.0000
# 6 0.0000 0.0000 0.0000 0.0000 0.0000 19.6512
#
#
#
# Elastic Compliance Matrix: (Units=1/GPa)
#
#
# Indices 1 2 3 4 5 6 
#
# 1 0.018716 -0.004397 -0.004465 0.000000 0.000000 0.000000
# 2 -0.004397 0.011971 -0.005613 0.000000 0.000000 0.000000
# 3 -0.004465 -0.005613 0.011795 0.000000 0.000000 0.000000
# 4 0.000000 0.000000 0.000000 0.027737 0.000000 0.000000
# 5 0.000000 0.000000 0.000000 0.000000 0.092830 0.000000
# 6 0.000000 0.000000 0.000000 0.000000 0.000000 0.050888
#
#
# Mechanical properties :
#
#
# Convention : Reuss Voigt Hill
#
# Bulk Modulus (GPa) = 73.89295 87.41450 80.65373
# Shear Modulus (GPa) = 20.21047 24.78882 22.49965
#
# Velocity S-wave (km/s) = 3.43512 3.80436 3.62445
# Velocity P-wave (km/s) = 7.67310 8.38661 8.03778
#
# Compressibility (1/GPa) = 0.01353309
#
# Stress axis : x y z
#
# Youngs Moduli (GPa) = 53.43099 83.53416 84.78137
#
# Poissons Ratio (x) = 0.36728 0.37853
# Poissons Ratio (y) = 0.23492 0.47587
# Poissons Ratio (z) = 0.23856 0.46887
#
# Static dielectric constant tensor:
#      x y z
#    x 1.578600 0.000000 0.000000 
#    y 0.000000 1.572960 0.000000 
#    z 0.000000 0.000000 1.570340 
# 
# From -- ./inp_files/37157.got.cif
#   From: 2010.05.17/outbox.cif.g08.bks.cpg/sg51_19_cif.got.tgz:37157.got - 2010.06.03 11:52:47.
