data_PCOD9401034
_publ_section_title
;
Structure prediction by ZEFSAII (Michael W. Deem and Ramdas Pophale) SiO2 
 PCOD9401034
Probable space group: P M M A
;
_chemical_formula_sum "Si O2"
_cell_formula_units_Z 56
_cell_length_a 20.458478
_cell_length_b 13.654015
_cell_length_c 9.622172
_cell_angle_alpha 90.000000
_cell_angle_beta 90.000000
_cell_angle_gamma 90.000000
_cell_volume 2687.861043
_symmetry_space_group_name_H-M "P M M A"
_symmetry_group_IT_number 51
_symmetry_cell_setting 'orthorhombic'
loop_
_space_group_symop_operation_xyz
x,y,z
1/2-x,-y,z
1/2+x,-y,-z
-x,y,-z
-x,-y,-z
1/2+x,y,-z
1/2-x,y,z
x,-y,z
loop_
_atom_site_type_symbol
_atom_site_label
_atom_site_fract_x
_atom_site_fract_y
_atom_site_fract_z
Si Si1 0.369877 0.389971 0.025240
Si Si2 0.173601 0.801543 0.643479
Si Si3 0.822376 0.174390 0.032695
Si Si4 0.095808 0.391125 0.711731
Si Si5 0.443258 0.389514 0.314660
Si Si6 0.549390 0.888100 0.885181
Si Si7 0.069591 0.809655 0.425928
O O1 0.338562 0.500000 0.037410
O O2 0.417774 0.380104 0.156729
O O3 0.327742 0.290548 0.009395
O O4 0.407363 0.390780 0.879419
O O5 0.250000 0.803821 0.604595
O O6 0.167937 0.841165 0.801640
O O7 0.146164 0.691475 0.666348
O O8 0.126345 0.849940 0.527586
O O9 0.750000 0.140512 0.995951
O O10 0.879766 0.120623 0.953414
O O11 0.116524 0.500000 0.669368
O O12 0.020872 0.374134 0.669792
O O13 0.428604 0.500000 0.359453
O O14 0.411263 0.303926 0.402061
O O15 0.557069 0.846085 0.730761
O O16 0.527820 0.000000 0.867511
O O17 0.500000 0.841041 0.000000
O O18 0.000000 0.820786 0.500000
#
# Coordination Sequence:
#
# PCOD9401034 Si02
#       7
#     8   8   8   8   8   8   8
#     4   9  17  30  53  89 126 163 208 257 303 349
#     4  10  22  38  57  88 126 165 207 249 302 366
#     4  10  21  40  67  93 124 166 209 256 307 364
#     4   9  17  30  52  82 120 166 212 255 296 348
#     4  10  19  31  52  87 125 161 208 256 302 357
#     4  11  26  46  70  97 121 150 201 264 320 377
#     4  12  23  39  64  92 125 168 199 248 311 374
#
# _framework density 20.834410999999999
#
# number of rings (size 3 to 8) (size 9 to 14) (size 15 to 20)
#    0.000    1.857    2.857    1.286    2.000    4.286 
#    0.000    3.571    0.000    0.857    0.000    0.000 
#    0.000    0.000    0.000    0.000    0.000    0.000 
#
# Total GULP energy -312258.988675 kJ/mol
# GULP energy per Si atom -5576.053369 kJ/mol
# Density = 2.078699 g / cm^3
# Si number density = 20.834411 Si / 1000 Ang^3
#
#
#
# Elastic Constant Matrix: (Units=GPa)
#
#
# Indices 1 2 3 4 5 6 
#
# 1 86.0779 5.9245 80.4781 0.0000 0.0000 0.0000
# 2 5.9245 16.0700 20.6249 0.0000 0.0000 0.0000
# 3 80.4781 20.6249 150.0541 0.0000 0.0000 0.0000
# 4 0.0000 0.0000 0.0000 2.6595 0.0000 0.0000
# 5 0.0000 0.0000 0.0000 0.0000 29.8119 0.0000
# 6 0.0000 0.0000 0.0000 0.0000 0.0000 -19.7497
#
#
#
# Elastic Compliance Matrix: (Units=1/GPa)
#
#
# Indices 1 2 3 4 5 6 
#
# 1 0.024437 0.009485 -0.014410 0.000000 0.000000 0.000000
# 2 0.009485 0.079238 -0.015979 0.000000 0.000000 0.000000
# 3 -0.014410 -0.015979 0.016589 0.000000 0.000000 0.000000
# 4 0.000000 0.000000 0.000000 0.376006 0.000000 0.000000
# 5 0.000000 0.000000 0.000000 0.000000 0.033544 0.000000
# 6 0.000000 0.000000 0.000000 0.000000 0.000000 -0.050634
#
#
# Mechanical properties :
#
#
# Convention : Reuss Voigt Hill
#
# Bulk Modulus (GPa) = 12.74566 51.80632 32.27599
# Shear Modulus (GPa) = 9.13842 12.22266 10.68054
#
# Velocity S-wave (km/s) = 2.09660 2.42473 2.26661
# Velocity P-wave (km/s) = 3.46293 5.72353 4.73026
#
# Compressibility (1/GPa) = 0.07845807
#
# Stress axis : x y z
#
# Youngs Moduli (GPa) = 40.92127 12.62013 60.28080
#
# Poissons Ratio (x) = -0.11971 0.86865
# Poissons Ratio (y) = -0.38815 0.96320
# Poissons Ratio (z) = 0.58968 0.20165
#
# Static dielectric constant tensor:
#      x y z
#    x 1.701050 0.000000 0.000000 
#    y 0.000000 1.808800 0.000000 
#    z 0.000000 0.000000 1.789860 
# 
# From -- ./inp_files/11010.got.cif
#   From: 2010.05.17/outbox.cif.g08.bks.cpg/sg51_6_cif.got.tgz:11010.got - 2010.06.03 11:52:47.
