data_PCOD9401112
_publ_section_title
;
Structure prediction by ZEFSAII (Michael W. Deem and Ramdas Pophale) SiO2 
 PCOD9401112
Probable space group: P M M A
;
_chemical_formula_sum "Si O2"
_cell_formula_units_Z 48
_cell_length_a 31.812732
_cell_length_b 7.558520
_cell_length_c 10.005290
_cell_angle_alpha 90.000000
_cell_angle_beta 90.000000
_cell_angle_gamma 90.000000
_cell_volume 2405.843729
_symmetry_space_group_name_H-M "P M M A"
_symmetry_group_IT_number 51
_symmetry_cell_setting 'orthorhombic'
loop_
_space_group_symop_operation_xyz
x,y,z
1/2-x,-y,z
1/2+x,-y,-z
-x,y,-z
-x,-y,-z
1/2+x,y,-z
1/2-x,y,z
x,-y,z
loop_
_atom_site_type_symbol
_atom_site_label
_atom_site_fract_x
_atom_site_fract_y
_atom_site_fract_z
Si Si1 0.011150 0.712572 0.850739
Si Si2 0.608503 0.212589 0.197783
Si Si3 0.702025 0.783533 0.696537
Si Si4 0.364406 0.785197 0.089318
Si Si5 0.635157 0.205449 0.482393
Si Si6 0.566543 0.295218 0.691641
O O1 0.005556 0.500000 0.854102
O O2 0.059023 0.750501 0.815114
O O3 0.977961 0.779883 0.740586
O O4 0.000000 0.778953 0.000000
O O5 0.626835 0.283892 0.336764
O O6 0.613043 0.000000 0.199996
O O7 0.630754 0.276388 0.062296
O O8 0.750000 0.724601 0.689235
O O9 0.677782 0.733115 0.832419
O O10 0.672422 0.719857 0.574859
O O11 0.702064 0.000000 0.693426
O O12 0.403284 0.718669 0.178587
O O13 0.366734 0.000000 0.091527
O O14 0.592698 0.211521 0.570987
O O15 0.646035 0.000000 0.462814
O O16 0.561108 0.500000 0.654608
#
# Coordination Sequence:
#
# PCOD9401112 Si02
#       6
#     8   8   8   8   8   8
#     4  10  20  33  48  69  97 128 166 208 240 277
#     4  10  20  32  48  71  99 131 162 197 242 286
#     4   8  14  28  51  73  94 124 158 193 236 286
#     4   9  17  30  49  72  97 123 157 198 238 282
#     4   9  19  34  49  70 101 130 160 197 240 290
#     4  10  19  32  50  70  93 127 167 201 238 279
#
# _framework density 19.951422000000001
#
# number of rings (size 3 to 8) (size 9 to 14) (size 15 to 20)
#    0.000    2.667    1.667    1.500    0.000    3.000 
#    0.000    4.167    0.000   13.000    0.000    0.000 
#    0.000   12.000    0.000    0.000    0.000    0.000 
#
# Total GULP energy -267754.139705 kJ/mol
# GULP energy per Si atom -5578.211244 kJ/mol
# Density = 1.990601 g / cm^3
# Si number density = 19.951422 Si / 1000 Ang^3
#
#
#
# Elastic Constant Matrix: (Units=GPa)
#
#
# Indices 1 2 3 4 5 6 
#
# 1 139.7919 -2.8417 80.4303 0.0000 0.0000 0.0000
# 2 -2.8417 43.4249 -8.0499 0.0000 0.0000 0.0000
# 3 80.4303 -8.0499 155.0355 0.0000 0.0000 0.0000
# 4 0.0000 0.0000 0.0000 -0.1330 0.0000 0.0000
# 5 0.0000 0.0000 0.0000 0.0000 17.0931 0.0000
# 6 0.0000 0.0000 0.0000 0.0000 0.0000 40.4655
#
#
#
# Elastic Compliance Matrix: (Units=1/GPa)
#
#
# Indices 1 2 3 4 5 6 
#
# 1 0.010202 -0.000317 -0.005309 0.000000 0.000000 0.000000
# 2 -0.000317 0.023262 0.001372 0.000000 0.000000 0.000000
# 3 -0.005309 0.001372 0.009276 0.000000 0.000000 0.000000
# 4 0.000000 0.000000 0.000000 -7.519032 0.000000 0.000000
# 5 0.000000 0.000000 0.000000 0.000000 0.058503 0.000000
# 6 0.000000 0.000000 0.000000 0.000000 0.000000 0.024712
#
#
# Mechanical properties :
#
#
# Convention : Reuss Voigt Hill
#
# Bulk Modulus (GPa) = 29.21223 53.03665 41.12444
# Shear Modulus (GPa) = -0.67814 29.39936 14.36061
#
# Velocity S-wave (km/s) = -0.58364 3.84285 2.68578
# Velocity P-wave (km/s) = 3.77085 6.80665 5.50226
#
# Compressibility (1/GPa) = 0.03423224
#
# Stress axis : x y z
#
# Youngs Moduli (GPa) = 98.02429 42.98878 107.81042
#
# Poissons Ratio (x) = 0.01361 0.57235
# Poissons Ratio (y) = 0.03103 -0.14792
# Poissons Ratio (z) = 0.52040 -0.05898
#
# Static dielectric constant tensor:
#      x y z
#    x 1.672150 0.000000 0.000000 
#    y 0.000000 1.744430 0.000000 
#    z 0.000000 0.000000 1.714690 
# 
# From -- ./inp_files/12854.got.cif
#   From: 2010.05.17/outbox.cif.g08.bks.cpg/sg51_7_cif.got.tgz:12854.got - 2010.06.03 11:52:47.
