data_PCOD9401148
_publ_section_title
;
Structure prediction by ZEFSAII (Michael W. Deem and Ramdas Pophale) SiO2 
 PCOD9401148
Probable space group: P M M A
;
_chemical_formula_sum "Si O2"
_cell_formula_units_Z 52
_cell_length_a 9.060012
_cell_length_b 16.220731
_cell_length_c 21.751860
_cell_angle_alpha 90.000000
_cell_angle_beta 90.000000
_cell_angle_gamma 90.000000
_cell_volume 3196.653726
_symmetry_space_group_name_H-M "P M M A"
_symmetry_group_IT_number 51
_symmetry_cell_setting 'orthorhombic'
loop_
_space_group_symop_operation_xyz
x,y,z
1/2-x,-y,z
1/2+x,-y,-z
-x,y,-z
-x,-y,-z
1/2+x,y,-z
1/2-x,y,z
x,-y,z
loop_
_atom_site_type_symbol
_atom_site_label
_atom_site_fract_x
_atom_site_fract_y
_atom_site_fract_z
Si Si1 0.925728 0.500000 0.357220
Si Si2 0.416387 0.239042 0.325338
Si Si3 0.919172 0.359777 0.564343
Si Si4 0.928090 0.158835 0.149974
Si Si5 0.425550 0.089373 0.715373
Si Si6 0.071432 0.000000 0.933137
Si Si7 0.072039 0.675779 0.195953
Si Si8 0.571352 0.500000 0.211854
O O1 0.750000 0.500000 0.361084
O O2 0.965107 0.500000 0.285101
O O3 0.993169 0.424140 0.393966
O O4 0.250000 0.212422 0.309920
O O5 0.415714 0.281914 0.390858
O O6 0.519364 0.160879 0.327608
O O7 0.460403 0.297464 0.267399
O O8 0.750000 0.387160 0.553777
O O9 0.000000 0.347594 0.500000
O O10 0.750000 0.171736 0.145841
O O11 0.963092 0.116958 0.215524
O O12 0.969208 0.086426 0.101477
O O13 0.007183 0.248764 0.154150
O O14 0.250000 0.085267 0.712975
O O15 0.488782 0.000000 0.701720
O O16 0.250000 0.000000 0.935787
O O17 0.000000 0.000000 0.000000
O O18 0.250000 0.670173 0.189021
O O19 0.997600 0.585835 0.186080
O O20 0.750000 0.500000 0.204901
#
# Coordination Sequence:
#
# PCOD9401148 Si02
#       8
#     4   8   8   8   8   4   8   4
#     4  11  22  34  49  69  92 123 163 199 242 301
#     4   9  19  32  46  67  94 123 154 198 254 301
#     4  11  22  36  50  65  90 122 159 202 250 303
#     4   9  17  32  50  73 106 142 176 210 250 298
#     4   9  16  28  49  73  96 124 159 198 243 296
#     4  10  20  34  54  80 116 154 185 216 251 292
#     4  10  19  32  50  73 102 134 169 213 262 306
#     4  11  21  32  50  75 102 135 172 209 256 313
#
# _framework density 16.267011
#
# number of rings (size 3 to 8) (size 9 to 14) (size 15 to 20)
#    0.000    2.154    2.308    1.615    0.000    3.385 
#    0.000    0.000    0.000    0.462    0.000    0.538 
#    0.000    0.000    0.000    0.000    0.000    0.000 
#
# Total GULP energy -289494.842594 kJ/mol
# GULP energy per Si atom -5567.208511 kJ/mol
# Density = 1.622999 g / cm^3
# Si number density = 16.267011 Si / 1000 Ang^3
#
#
#
# Elastic Constant Matrix: (Units=GPa)
#
#
# Indices 1 2 3 4 5 6 
#
# 1 48.3084 54.3940 29.0779 0.0000 0.0000 0.0000
# 2 54.3940 139.8184 39.3535 0.0000 0.0000 0.0000
# 3 29.0779 39.3535 60.6769 0.0000 0.0000 0.0000
# 4 0.0000 0.0000 0.0000 -29.2396 0.0000 0.0000
# 5 0.0000 0.0000 0.0000 0.0000 21.5775 0.0000
# 6 0.0000 0.0000 0.0000 0.0000 0.0000 29.3405
#
#
#
# Elastic Compliance Matrix: (Units=1/GPa)
#
#
# Indices 1 2 3 4 5 6 
#
# 1 0.042871 -0.013329 -0.011900 0.000000 0.000000 0.000000
# 2 -0.013329 0.012893 -0.001975 0.000000 0.000000 0.000000
# 3 -0.011900 -0.001975 0.023464 0.000000 0.000000 0.000000
# 4 0.000000 0.000000 0.000000 -0.034200 0.000000 0.000000
# 5 0.000000 0.000000 0.000000 0.000000 0.046345 0.000000
# 6 0.000000 0.000000 0.000000 0.000000 0.000000 0.034083
#
#
# Mechanical properties :
#
#
# Convention : Reuss Voigt Hill
#
# Bulk Modulus (GPa) = 40.28798 54.93939 47.61369
# Shear Modulus (GPa) = 26.57630 12.73424 19.65527
#
# Velocity S-wave (km/s) = 4.04636 2.80094 3.47982
# Velocity P-wave (km/s) = 6.83016 6.65636 6.74382
#
# Compressibility (1/GPa) = 0.02482130
#
# Stress axis : x y z
#
# Youngs Moduli (GPa) = 23.32561 77.55951 42.61777
#
# Poissons Ratio (x) = 1.03378 0.50716
# Poissons Ratio (y) = 0.31090 0.08416
# Poissons Ratio (z) = 0.27758 0.15316
#
# Static dielectric constant tensor:
#      x y z
#    x 1.561780 0.000000 0.000000 
#    y 0.000000 1.676440 0.000000 
#    z 0.000000 0.000000 1.517490 
# 
# From -- ./inp_files/31845.got.cif
#   From: 2010.05.17/outbox.cif.g08.bks.cpg/sg51_16_cif.got.tgz:31845.got - 2010.06.03 11:52:47.
