data_PCOD9401339
_publ_section_title
;
Structure prediction by ZEFSAII (Michael W. Deem and Ramdas Pophale) SiO2 
 PCOD9401339
Probable space group: P M M A
;
_chemical_formula_sum "Si O2"
_cell_formula_units_Z 64
_cell_length_a 9.222105
_cell_length_b 22.589406
_cell_length_c 16.586274
_cell_angle_alpha 90.000000
_cell_angle_beta 90.000000
_cell_angle_gamma 90.000000
_cell_volume 3455.283683
_symmetry_space_group_name_H-M "P M M A"
_symmetry_group_IT_number 51
_symmetry_cell_setting 'orthorhombic'
loop_
_space_group_symop_operation_xyz
x,y,z
1/2-x,-y,z
1/2+x,-y,-z
-x,y,-z
-x,-y,-z
1/2+x,y,-z
1/2-x,y,z
x,-y,z
loop_
_atom_site_type_symbol
_atom_site_label
_atom_site_fract_x
_atom_site_fract_y
_atom_site_fract_z
Si Si1 0.583535 0.681329 0.722891
Si Si2 0.081017 0.271068 0.876485
Si Si3 0.076209 0.566792 0.741128
Si Si4 0.413193 0.766449 0.428081
Si Si5 0.574427 0.066312 0.766805
Si Si6 0.416842 0.594230 0.923111
Si Si7 0.425571 0.150087 0.082539
Si Si8 0.574288 0.903009 0.583633
O O1 0.750000 0.674305 0.752132
O O2 0.481509 0.710510 0.789853
O O3 0.514943 0.618310 0.699508
O O4 0.584417 0.726409 0.649581
O O5 0.250000 0.253045 0.874222
O O6 0.074003 0.333998 0.922096
O O7 0.983767 0.217241 0.907844
O O8 0.250000 0.578650 0.736951
O O9 0.050343 0.500000 0.713026
O O10 0.033003 0.572175 0.835680
O O11 0.500000 0.737887 0.500000
O O12 0.250000 0.773588 0.456916
O O13 0.464250 0.833160 0.411591
O O14 0.750000 0.070124 0.763958
O O15 0.531717 0.113689 0.835936
O O16 0.528996 0.073799 0.672629
O O17 0.533454 0.000000 0.792926
O O18 0.250000 0.577418 0.929592
O O19 0.500000 0.571339 0.000000
O O20 0.250000 0.149286 0.075598
O O21 0.500000 0.126658 0.000000
O O22 0.500000 0.925230 0.500000
O O23 0.750000 0.910739 0.577085
#
# Coordination Sequence:
#
# PCOD9401339 Si02
#       8
#     8   8   8   8   8   8   8   8
#     4  10  19  32  52  78 105 132 168 215 261 306
#     4  10  20  34  52  75 103 135 170 208 259 319
#     4   9  19  35  50  66  94 133 174 212 253 304
#     4   9  18  31  49  76 107 135 162 199 250 309
#     4   9  19  36  56  76 103 143 184 218 260 319
#     4   9  18  30  45  67  94 124 157 196 242 294
#     4  11  22  36  55  78 104 137 180 228 275 321
#     4   9  17  32  54  80 109 139 171 208 257 317
#
# _framework density 18.522357
#
# number of rings (size 3 to 8) (size 9 to 14) (size 15 to 20)
#    0.000    2.500    0.000    3.000    0.000    7.500 
#    0.000    3.750    0.000    3.000    0.000    0.000 
#    0.000    0.000    0.000    0.000    0.000    0.000 
#
# Total GULP energy -356506.371768 kJ/mol
# GULP energy per Si atom -5570.412059 kJ/mol
# Density = 1.848020 g / cm^3
# Si number density = 18.522357 Si / 1000 Ang^3
#
#
#
# Elastic Constant Matrix: (Units=GPa)
#
#
# Indices 1 2 3 4 5 6 
#
# 1 42.2705 19.2243 29.3606 0.0000 0.0000 0.0000
# 2 19.2243 78.2508 24.0711 0.0000 0.0000 0.0000
# 3 29.3606 24.0711 69.0231 0.0000 0.0000 0.0000
# 4 0.0000 0.0000 0.0000 -2.5634 0.0000 0.0000
# 5 0.0000 0.0000 0.0000 0.0000 30.6306 0.0000
# 6 0.0000 0.0000 0.0000 0.0000 0.0000 5.8044
#
#
#
# Elastic Compliance Matrix: (Units=1/GPa)
#
#
# Indices 1 2 3 4 5 6 
#
# 1 0.034934 -0.004493 -0.013293 0.000000 0.000000 0.000000
# 2 -0.004493 0.014893 -0.003283 0.000000 0.000000 0.000000
# 3 -0.013293 -0.003283 0.021287 0.000000 0.000000 0.000000
# 4 0.000000 0.000000 0.000000 -0.390108 0.000000 0.000000
# 5 0.000000 0.000000 0.000000 0.000000 0.032647 0.000000
# 6 0.000000 0.000000 0.000000 0.000000 0.000000 0.172283
#
#
# Mechanical properties :
#
#
# Convention : Reuss Voigt Hill
#
# Bulk Modulus (GPa) = 34.51064 37.20627 35.85846
# Shear Modulus (GPa) = -80.29865 14.56689 -32.86588
#
# Velocity S-wave (km/s) = -6.59139 2.80741 -4.21692
# Velocity P-wave (km/s) = 6.26548 5.53530 2.07565
#
# Compressibility (1/GPa) = 0.02897657
#
# Stress axis : x y z
#
# Youngs Moduli (GPa) = 28.62561 67.14547 46.97678
#
# Poissons Ratio (x) = 0.30170 0.62446
# Poissons Ratio (y) = 0.12862 0.15420
# Poissons Ratio (z) = 0.38052 0.22041
#
# Static dielectric constant tensor:
#      x y z
#    x 1.637130 0.000000 0.000000 
#    y 0.000000 1.663720 0.000000 
#    z 0.000000 0.000000 1.653500 
# 
# From -- ./inp_files/28455.got.cif
#   From: 2010.05.17/outbox.cif.g08.bks.cpg/sg51_15_cif.got.tgz:28455.got - 2010.06.03 11:52:47.
