data_PCOD9401416
_publ_section_title
;
Structure prediction by ZEFSAII (Michael W. Deem and Ramdas Pophale) SiO2 
 PCOD9401416
Probable space group: P M M A
;
_chemical_formula_sum "Si O2"
_cell_formula_units_Z 56
_cell_length_a 14.119062
_cell_length_b 13.978623
_cell_length_c 16.113854
_cell_angle_alpha 90.000000
_cell_angle_beta 90.000000
_cell_angle_gamma 90.000000
_cell_volume 3180.311517
_symmetry_space_group_name_H-M "P M M A"
_symmetry_group_IT_number 51
_symmetry_cell_setting 'orthorhombic'
loop_
_space_group_symop_operation_xyz
x,y,z
1/2-x,-y,z
1/2+x,-y,-z
-x,y,-z
-x,-y,-z
1/2+x,y,-z
1/2-x,y,z
x,-y,z
loop_
_atom_site_type_symbol
_atom_site_label
_atom_site_fract_x
_atom_site_fract_y
_atom_site_fract_z
Si Si1 0.860497 0.688459 0.831489
Si Si2 0.644116 0.114310 0.222700
Si Si3 0.039704 0.886776 0.611159
Si Si4 0.135620 0.607679 0.350324
Si Si5 0.639403 0.392917 0.013222
Si Si6 0.471111 0.786868 0.913267
Si Si7 0.636391 0.204564 0.547118
O O1 0.750000 0.719539 0.824415
O O2 0.888299 0.640987 0.743787
O O3 0.936151 0.768690 0.857348
O O4 0.864931 0.620680 0.913166
O O5 0.750000 0.149057 0.239675
O O6 0.576990 0.140134 0.298927
O O7 0.604574 0.155436 0.138247
O O8 0.645758 0.000000 0.218488
O O9 0.096934 0.823156 0.543884
O O10 0.928242 0.865667 0.602765
O O11 0.057924 0.000000 0.595558
O O12 0.250000 0.602850 0.351382
O O13 0.099328 0.500000 0.366504
O O14 0.111654 0.689472 0.417766
O O15 0.750000 0.380189 0.035410
O O16 0.609692 0.500000 0.035191
O O17 0.577254 0.313490 0.059025
O O18 0.500000 0.834364 0.000000
O O19 0.750000 0.191727 0.551843
#
# Coordination Sequence:
#
# PCOD9401416 Si02
#       7
#     8   8   8   8   8   8   8
#     4   9  17  29  46  69 100 136 168 202 248 301
#     4  10  21  38  58  76  98 133 173 209 251 308
#     4  10  21  36  54  78 104 131 171 216 259 312
#     4   9  17  29  46  69  99 135 171 205 243 293
#     4   9  17  29  46  70 100 132 167 208 253 300
#     4  10  20  32  51  76 101 128 166 213 257 300
#     4  10  19  32  53  79 106 135 168 212 263 305
#
# _framework density 17.608338
#
# number of rings (size 3 to 8) (size 9 to 14) (size 15 to 20)
#    0.000    2.429    0.000    3.000    0.000    7.429 
#    0.000    1.429    0.000    2.143    0.000    2.000 
#    0.000    0.000    0.000    0.000    0.000    0.000 
#
# Total GULP energy -311872.992600 kJ/mol
# GULP energy per Si atom -5569.160582 kJ/mol
# Density = 1.756826 g / cm^3
# Si number density = 17.608338 Si / 1000 Ang^3
#
#
#
# Elastic Constant Matrix: (Units=GPa)
#
#
# Indices 1 2 3 4 5 6 
#
# 1 85.0223 18.8435 27.3287 0.0000 0.0000 0.0000
# 2 18.8435 40.3825 44.2086 0.0000 0.0000 0.0000
# 3 27.3287 44.2086 86.5615 0.0000 0.0000 0.0000
# 4 0.0000 0.0000 0.0000 21.4116 0.0000 0.0000
# 5 0.0000 0.0000 0.0000 0.0000 25.2763 0.0000
# 6 0.0000 0.0000 0.0000 0.0000 0.0000 20.0154
#
#
#
# Elastic Compliance Matrix: (Units=1/GPa)
#
#
# Indices 1 2 3 4 5 6 
#
# 1 0.013324 -0.003657 -0.002339 0.000000 0.000000 0.000000
# 2 -0.003657 0.057170 -0.028043 0.000000 0.000000 0.000000
# 3 -0.002339 -0.028043 0.026613 0.000000 0.000000 0.000000
# 4 0.000000 0.000000 0.000000 0.046704 0.000000 0.000000
# 5 0.000000 0.000000 0.000000 0.000000 0.039563 0.000000
# 6 0.000000 0.000000 0.000000 0.000000 0.000000 0.049962
#
#
# Mechanical properties :
#
#
# Convention : Reuss Voigt Hill
#
# Bulk Modulus (GPa) = 34.44831 43.63644 39.04237
# Shear Modulus (GPa) = 16.07260 21.44636 18.75948
#
# Velocity S-wave (km/s) = 3.02451 3.49372 3.26755
# Velocity P-wave (km/s) = 5.63941 6.41173 6.03793
#
# Compressibility (1/GPa) = 0.02902900
#
# Stress axis : x y z
#
# Youngs Moduli (GPa) = 75.05326 17.49181 37.57548
#
# Poissons Ratio (x) = 0.06396 0.08789
# Poissons Ratio (y) = 0.27444 1.05373
# Poissons Ratio (z) = 0.17555 0.49053
#
# Static dielectric constant tensor:
#      x y z
#    x 1.624230 0.000000 0.000000 
#    y 0.000000 1.606720 0.000000 
#    z 0.000000 0.000000 1.594410 
# 
# From -- ./inp_files/24300.got.cif
#   From: 2010.05.17/outbox.cif.g08.bks.cpg/sg51_13_cif.got.tgz:24300.got - 2010.06.03 11:52:47.
