data_PCOD9401181
_publ_section_title
;
Structure prediction by ZEFSAII (Michael W. Deem and Ramdas Pophale) SiO2 
 PCOD9401181
Probable space group: P M M A
;
_chemical_formula_sum "Si O2"
_cell_formula_units_Z 64
_cell_length_a 19.476300
_cell_length_b 7.662418
_cell_length_c 22.601246
_cell_angle_alpha 90.000000
_cell_angle_beta 90.000000
_cell_angle_gamma 90.000000
_cell_volume 3372.909416
_symmetry_space_group_name_H-M "P M M A"
_symmetry_group_IT_number 51
_symmetry_cell_setting 'orthorhombic'
loop_
_space_group_symop_operation_xyz
x,y,z
1/2-x,-y,z
1/2+x,-y,-z
-x,y,-z
-x,-y,-z
1/2+x,y,-z
1/2-x,y,z
x,-y,z
loop_
_atom_site_type_symbol
_atom_site_label
_atom_site_fract_x
_atom_site_fract_y
_atom_site_fract_z
Si Si1 0.172469 0.210944 0.490131
Si Si2 0.325042 0.206776 0.140938
Si Si3 0.532332 0.702488 0.560689
Si Si4 0.962947 0.289792 0.088470
Si Si5 0.393631 0.290084 0.023910
Si Si6 0.536174 0.794300 0.797140
Si Si7 0.172639 0.786605 0.626898
Si Si8 0.035398 0.796800 0.681808
O O1 0.250000 0.263792 0.474802
O O2 0.113621 0.282115 0.448187
O O3 0.159574 0.264661 0.558459
O O4 0.169537 0.000000 0.488573
O O5 0.250000 0.279739 0.156908
O O6 0.337546 0.227184 0.070407
O O7 0.392459 0.279173 0.175223
O O8 0.323383 0.000000 0.152544
O O9 0.500000 0.777460 0.500000
O O10 0.511990 0.500000 0.564283
O O11 0.505198 0.788996 0.620022
O O12 0.959676 0.500000 0.091290
O O13 0.034203 0.242973 0.055414
O O14 0.975562 0.223723 0.154328
O O15 0.902373 0.230040 0.044143
O O16 0.389233 0.500000 0.022601
O O17 0.508882 0.718957 0.735347
O O18 0.549257 0.000000 0.788679
O O19 0.250000 0.732645 0.642890
O O20 0.110944 0.722420 0.667935
O O21 0.171688 0.000000 0.627121
O O22 0.046301 0.000000 0.697212
#
# Coordination Sequence:
#
# PCOD9401181 Si02
#       8
#     8   8   8   8   8   8   8   8
#     4   9  17  31  52  74  93 119 156 195 241 296
#     4   9  17  29  44  64  94 127 158 198 243 279
#     4  11  22  33  47  71 101 129 157 197 252 301
#     4   8  14  26  44  65  90 117 143 183 234 275
#     4   8  14  25  43  67  89 112 149 188 225 273
#     4   9  18  30  45  68  92 122 165 203 239 284
#     4   8  14  26  47  72  91 110 144 192 242 289
#     4  10  19  32  51  71  94 126 166 207 242 288
#
# _framework density 18.974717999999999
#
# number of rings (size 3 to 8) (size 9 to 14) (size 15 to 20)
#    0.000    3.000    1.250    1.875    0.000    2.000 
#    0.000    3.125    0.000    3.375    0.000    1.750 
#    0.000    0.000    0.000    0.000    0.000    0.000 
#
# Total GULP energy -356325.184834 kJ/mol
# GULP energy per Si atom -5567.581013 kJ/mol
# Density = 1.893153 g / cm^3
# Si number density = 18.974718 Si / 1000 Ang^3
#
#
#
# Elastic Constant Matrix: (Units=GPa)
#
#
# Indices 1 2 3 4 5 6 
#
# 1 121.4491 1.2832 64.0174 0.0000 0.0000 0.0000
# 2 1.2832 30.2605 -1.3230 0.0000 0.0000 0.0000
# 3 64.0174 -1.3230 111.9013 0.0000 0.0000 0.0000
# 4 0.0000 0.0000 0.0000 7.6194 0.0000 0.0000
# 5 0.0000 0.0000 0.0000 0.0000 19.1758 0.0000
# 6 0.0000 0.0000 0.0000 0.0000 0.0000 13.4408
#
#
#
# Elastic Compliance Matrix: (Units=1/GPa)
#
#
# Indices 1 2 3 4 5 6 
#
# 1 0.011808 -0.000796 -0.006765 0.000000 0.000000 0.000000
# 2 -0.000796 0.033117 0.000847 0.000000 0.000000 0.000000
# 3 -0.006765 0.000847 0.012816 0.000000 0.000000 0.000000
# 4 0.000000 0.000000 0.000000 0.131243 0.000000 0.000000
# 5 0.000000 0.000000 0.000000 0.000000 0.052149 0.000000
# 6 0.000000 0.000000 0.000000 0.000000 0.000000 0.074400
#
#
# Mechanical properties :
#
#
# Convention : Reuss Voigt Hill
#
# Bulk Modulus (GPa) = 22.56631 43.50734 33.03683
# Shear Modulus (GPa) = 14.54614 21.35608 17.95111
#
# Velocity S-wave (km/s) = 2.77177 3.35849 3.07914
# Velocity P-wave (km/s) = 4.70768 6.16589 5.48545
#
# Compressibility (1/GPa) = 0.04431385
#
# Stress axis : x y z
#
# Youngs Moduli (GPa) = 84.68786 30.19576 78.02466
#
# Poissons Ratio (x) = 0.02405 0.52781
# Poissons Ratio (y) = 0.06745 -0.06610
# Poissons Ratio (z) = 0.57289 -0.02558
#
# Static dielectric constant tensor:
#      x y z
#    x 1.691060 0.000000 0.000000 
#    y 0.000000 1.701000 0.000000 
#    z 0.000000 0.000000 1.658280 
# 
# From -- ./inp_files/34108.got.cif
#   From: 2010.05.17/outbox.cif.g08.bks.cpg/sg51_18_cif.got.tgz:34108.got - 2010.06.03 11:52:47.
