data_PCOD9401418
_publ_section_title
;
Structure prediction by ZEFSAII (Michael W. Deem and Ramdas Pophale) SiO2 
 PCOD9401418
Probable space group: P M M A
;
_chemical_formula_sum "Si O2"
_cell_formula_units_Z 52
_cell_length_a 8.772812
_cell_length_b 23.465876
_cell_length_c 14.672743
_cell_angle_alpha 90.000000
_cell_angle_beta 90.000000
_cell_angle_gamma 90.000000
_cell_volume 3020.556090
_symmetry_space_group_name_H-M "P M M A"
_symmetry_group_IT_number 51
_symmetry_cell_setting 'orthorhombic'
loop_
_space_group_symop_operation_xyz
x,y,z
1/2-x,-y,z
1/2+x,-y,-z
-x,y,-z
-x,-y,-z
1/2+x,y,-z
1/2-x,y,z
x,-y,z
loop_
_atom_site_type_symbol
_atom_site_label
_atom_site_fract_x
_atom_site_fract_y
_atom_site_fract_z
Si Si1 0.066220 0.385667 0.707290
Si Si2 0.932126 0.065878 0.401567
Si Si3 0.567162 0.722302 0.601101
Si Si4 0.067296 0.652864 0.904329
Si Si5 0.066771 0.779938 0.095825
Si Si6 0.565737 0.500000 0.398398
Si Si7 0.433251 0.834840 0.285406
O O1 0.250000 0.380995 0.700353
O O2 0.027967 0.383273 0.814581
O O3 0.018938 0.443435 0.656625
O O4 0.993524 0.331424 0.657756
O O5 0.750000 0.068717 0.406671
O O6 0.000000 0.082537 0.500000
O O7 0.992265 0.108742 0.325545
O O8 0.976901 0.000000 0.384449
O O9 0.500000 0.721086 0.500000
O O10 0.750000 0.719912 0.597273
O O11 0.522816 0.780654 0.652228
O O12 0.250000 0.656766 0.911813
O O13 0.000303 0.716456 0.890214
O O14 0.000000 0.631348 0.000000
O O15 0.250000 0.775692 0.090884
O O16 0.025397 0.818824 0.181913
O O17 0.000000 0.800992 0.000000
O O18 0.750000 0.500000 0.403804
O O19 0.500000 0.500000 0.500000
O O20 0.250000 0.840352 0.289909
#
# Coordination Sequence:
#
# PCOD9401418 Si02
#       7
#     8   8   8   8   8   4   8
#     4  10  21  37  56  77 103 139 178 218 267 318
#     4  10  21  36  55  79 108 144 184 223 263 312
#     4  11  22  35  51  76 109 138 172 218 266 317
#     4  10  19  32  53  79 106 138 173 213 265 319
#     4  10  19  33  52  79 110 140 175 215 263 317
#     4  10  22  40  57  76 102 136 181 224 263 318
#     4  10  21  35  53  79 109 141 176 218 266 316
#
# _framework density 17.215374000000001
#
# number of rings (size 3 to 8) (size 9 to 14) (size 15 to 20)
#    0.000    1.846    1.538    3.692    0.000    7.077 
#    0.000    0.385    0.000    0.462    0.000    0.000 
#    0.000    0.000    0.000    0.000    0.000    0.000 
#
# Total GULP energy -290364.931520 kJ/mol
# GULP energy per Si atom -5583.940991 kJ/mol
# Density = 1.717619 g / cm^3
# Si number density = 17.215374 Si / 1000 Ang^3
#
#
#
# Elastic Constant Matrix: (Units=GPa)
#
#
# Indices 1 2 3 4 5 6 
#
# 1 37.8498 31.6387 49.9723 0.0000 0.0000 0.0000
# 2 31.6387 89.6924 76.5295 0.0000 0.0000 0.0000
# 3 49.9723 76.5295 182.5124 0.0000 0.0000 0.0000
# 4 0.0000 0.0000 0.0000 29.5326 0.0000 0.0000
# 5 0.0000 0.0000 0.0000 0.0000 31.3259 0.0000
# 6 0.0000 0.0000 0.0000 0.0000 0.0000 19.2292
#
#
#
# Elastic Compliance Matrix: (Units=1/GPa)
#
#
# Indices 1 2 3 4 5 6 
#
# 1 0.045075 -0.008361 -0.008836 0.000000 0.000000 0.000000
# 2 -0.008361 0.018911 -0.005640 0.000000 0.000000 0.000000
# 3 -0.008836 -0.005640 0.010263 0.000000 0.000000 0.000000
# 4 0.000000 0.000000 0.000000 0.033861 0.000000 0.000000
# 5 0.000000 0.000000 0.000000 0.000000 0.031922 0.000000
# 6 0.000000 0.000000 0.000000 0.000000 0.000000 0.052004
#
#
# Mechanical properties :
#
#
# Convention : Reuss Voigt Hill
#
# Bulk Modulus (GPa) = 34.99542 69.59286 52.29414
# Shear Modulus (GPa) = 20.22357 26.14516 23.18437
#
# Velocity S-wave (km/s) = 3.43117 3.90129 3.67376
# Velocity P-wave (km/s) = 6.00577 7.79782 6.95972
#
# Compressibility (1/GPa) = 0.02857517
#
# Stress axis : x y z
#
# Youngs Moduli (GPa) = 22.18530 52.87885 97.43347
#
# Poissons Ratio (x) = 0.44212 0.86090
# Poissons Ratio (y) = 0.18549 0.54956
# Poissons Ratio (z) = 0.19602 0.29826
#
# Static dielectric constant tensor:
#      x y z
#    x 1.580490 0.000000 0.000000 
#    y 0.000000 1.559200 0.000000 
#    z 0.000000 0.000000 1.582310 
# 
# From -- ./inp_files/21564.got.cif
#   From: 2010.05.17/outbox.cif.g08.bks.cpg/sg51_11_cif.got.tgz:21564.got - 2010.06.03 11:52:47.
