data_PCOD9401421
_publ_section_title
;
Structure prediction by ZEFSAII (Michael W. Deem and Ramdas Pophale) SiO2 
 PCOD9401421
Probable space group: P M M A
;
_chemical_formula_sum "Si O2"
_cell_formula_units_Z 64
_cell_length_a 25.028481
_cell_length_b 8.377614
_cell_length_c 15.876830
_cell_angle_alpha 90.000000
_cell_angle_beta 90.000000
_cell_angle_gamma 90.000000
_cell_volume 3329.037089
_symmetry_space_group_name_H-M "P M M A"
_symmetry_group_IT_number 51
_symmetry_cell_setting 'orthorhombic'
loop_
_space_group_symop_operation_xyz
x,y,z
1/2-x,-y,z
1/2+x,-y,-z
-x,y,-z
-x,-y,-z
1/2+x,y,-z
1/2-x,y,z
x,-y,z
loop_
_atom_site_type_symbol
_atom_site_label
_atom_site_fract_x
_atom_site_fract_y
_atom_site_fract_z
Si Si1 0.309290 0.804969 0.076734
Si Si2 0.118423 0.809935 0.719499
Si Si3 0.003980 0.678861 0.750943
Si Si4 0.654838 0.182637 0.099649
Si Si5 0.688516 0.807125 0.619151
Si Si6 0.114760 0.807688 0.226355
Si Si7 0.311767 0.309027 0.564791
Si Si8 0.452980 0.318511 0.939895
O O1 0.250000 0.766343 0.110656
O O2 0.356827 0.750830 0.139265
O O3 0.312595 0.000000 0.072879
O O4 0.313131 0.746581 0.979617
O O5 0.146538 0.745047 0.806504
O O6 0.152236 0.758285 0.639298
O O7 0.056522 0.758345 0.710143
O O8 0.118550 0.000000 0.728473
O O9 0.998222 0.500000 0.716915
O O10 0.945982 0.758892 0.754297
O O11 0.022245 0.671671 0.847769
O O12 0.595000 0.195295 0.062865
O O13 0.673057 0.000000 0.110712
O O14 0.750000 0.755176 0.631218
O O15 0.651696 0.753431 0.695934
O O16 0.670424 0.746853 0.527765
O O17 0.687971 0.000000 0.618102
O O18 0.116288 0.000000 0.223098
O O19 0.250000 0.255374 0.575249
O O20 0.312893 0.500000 0.568107
O O21 0.435226 0.500000 0.963303
O O22 0.500000 0.266840 0.000000
#
# Coordination Sequence:
#
# PCOD9401421 Si02
#       8
#     8   8   8   8   8   8   8   8
#     4   9  17  30  49  75 107 140 175 217 263 311
#     4  10  20  35  55  79 108 141 178 221 264 308
#     4  10  20  33  50  73 104 141 178 218 264 314
#     4   9  18  30  47  72  99 131 170 210 252 297
#     4   9  18  34  56  81 107 136 173 216 262 313
#     4  10  19  32  53  79 106 139 178 218 260 309
#     4  10  21  37  58  83 108 135 169 211 262 318
#     4   9  17  29  45  65  92 129 170 210 252 298
#
# _framework density 19.224778000000001
#
# number of rings (size 3 to 8) (size 9 to 14) (size 15 to 20)
#    0.000    2.500    0.000    2.250    0.000    4.500 
#    0.000    1.875    0.000    6.000    0.000    0.000 
#    0.000    0.000    0.000    0.000    0.000    0.000 
#
# Total GULP energy -356480.399869 kJ/mol
# GULP energy per Si atom -5570.006248 kJ/mol
# Density = 1.918102 g / cm^3
# Si number density = 19.224778 Si / 1000 Ang^3
#
#
#
# Elastic Constant Matrix: (Units=GPa)
#
#
# Indices 1 2 3 4 5 6 
#
# 1 95.3813 13.4730 62.4203 0.0000 0.0000 0.0000
# 2 13.4730 16.1030 14.0651 0.0000 0.0000 0.0000
# 3 62.4203 14.0651 100.3897 0.0000 0.0000 0.0000
# 4 0.0000 0.0000 0.0000 13.0830 0.0000 0.0000
# 5 0.0000 0.0000 0.0000 0.0000 32.0353 0.0000
# 6 0.0000 0.0000 0.0000 0.0000 0.0000 11.2406
#
#
#
# Elastic Compliance Matrix: (Units=1/GPa)
#
#
# Indices 1 2 3 4 5 6 
#
# 1 0.018186 -0.006084 -0.010455 0.000000 0.000000 0.000000
# 2 -0.006084 0.072794 -0.006416 0.000000 0.000000 0.000000
# 3 -0.010455 -0.006416 0.017361 0.000000 0.000000 0.000000
# 4 0.000000 0.000000 0.000000 0.076435 0.000000 0.000000
# 5 0.000000 0.000000 0.000000 0.000000 0.031216 0.000000
# 6 0.000000 0.000000 0.000000 0.000000 0.000000 0.088963
#
#
# Mechanical properties :
#
#
# Convention : Reuss Voigt Hill
#
# Bulk Modulus (GPa) = 16.01767 43.53233 29.77500
# Shear Modulus (GPa) = 13.45261 19.39949 16.42605
#
# Velocity S-wave (km/s) = 2.64816 3.18006 2.92622
# Velocity P-wave (km/s) = 4.20716 6.01471 5.19023
#
# Compressibility (1/GPa) = 0.06243106
#
# Stress axis : x y z
#
# Youngs Moduli (GPa) = 54.98810 13.73733 57.60054
#
# Poissons Ratio (x) = 0.08357 0.60222
# Poissons Ratio (y) = 0.33452 0.36958
# Poissons Ratio (z) = 0.57491 0.08814
#
# Static dielectric constant tensor:
#      x y z
#    x 1.619920 0.000000 0.000000 
#    y 0.000000 1.698900 0.000000 
#    z 0.000000 0.000000 1.697590 
# 
# From -- ./inp_files/26278.got.cif
#   From: 2010.05.17/outbox.cif.g08.bks.cpg/sg51_14_cif.got.tgz:26278.got - 2010.06.03 11:52:47.
