data_PCOD9401743
_publ_section_title
;
Structure prediction by ZEFSAII (Michael W. Deem and Ramdas Pophale) SiO2 
 PCOD9401743
Probable space group: P M M A
;
_chemical_formula_sum "Si O2"
_cell_formula_units_Z 40
_cell_length_a 18.083586
_cell_length_b 13.350889
_cell_length_c 9.334142
_cell_angle_alpha 90.000000
_cell_angle_beta 90.000000
_cell_angle_gamma 90.000000
_cell_volume 2253.560099
_symmetry_space_group_name_H-M "P M M A"
_symmetry_group_IT_number 51
_symmetry_cell_setting 'orthorhombic'
loop_
_space_group_symop_operation_xyz
x,y,z
1/2-x,-y,z
1/2+x,-y,-z
-x,y,-z
-x,-y,-z
1/2+x,y,-z
1/2-x,y,z
x,-y,z
loop_
_atom_site_type_symbol
_atom_site_label
_atom_site_fract_x
_atom_site_fract_y
_atom_site_fract_z
Si Si1 0.564096 0.113997 0.888133
Si Si2 0.334863 0.264405 0.221121
Si Si3 0.965882 0.205766 0.345977
Si Si4 0.334432 0.884386 0.495867
Si Si5 0.982816 0.615314 0.830055
O O1 0.634660 0.185284 0.895806
O O2 0.522275 0.133131 0.737749
O O3 0.585377 0.000000 0.906780
O O4 0.500000 0.139929 0.000000
O O5 0.250000 0.296881 0.200566
O O6 0.337601 0.197778 0.367370
O O7 0.399071 0.348527 0.211240
O O8 0.890137 0.150097 0.380801
O O9 0.000000 0.231000 0.500000
O O10 0.964598 0.306743 0.253026
O O11 0.250000 0.884161 0.546362
O O12 0.350908 0.000000 0.449174
O O13 0.993193 0.500000 0.788388
O O14 0.000000 0.622974 0.000000
#
# Coordination Sequence:
#
# PCOD9401743 Si02
#       5
#     8   8   8   8   8
#     4  10  20  33  50  77 113 148 185 221 260 318
#     4  10  19  33  54  81 108 139 179 224 270 321
#     4  11  19  33  56  82 105 140 183 226 266 314
#     4  10  20  33  51  81 119 152 179 214 265 319
#     4  10  22  41  60  79 106 139 180 228 281 336
#
# _framework density 17.749694000000002
#
# number of rings (size 3 to 8) (size 9 to 14) (size 15 to 20)
#    0.000    1.800    4.000    3.600    0.000    2.800 
#    0.000    4.000    0.000    3.000    0.000    0.000 
#    0.000    0.000    0.000    0.000    0.000    0.000 
#
# Total GULP energy -222713.113170 kJ/mol
# GULP energy per Si atom -5567.827829 kJ/mol
# Density = 1.770929 g / cm^3
# Si number density = 17.749694 Si / 1000 Ang^3
#
#
#
# Elastic Constant Matrix: (Units=GPa)
#
#
# Indices 1 2 3 4 5 6 
#
# 1 100.7822 20.8363 19.9351 0.0000 0.0000 0.0000
# 2 20.8363 77.5007 0.4806 0.0000 0.0000 0.0000
# 3 19.9351 0.4806 52.9638 0.0000 0.0000 0.0000
# 4 0.0000 0.0000 0.0000 23.8981 0.0000 0.0000
# 5 0.0000 0.0000 0.0000 0.0000 22.9880 0.0000
# 6 0.0000 0.0000 0.0000 0.0000 0.0000 18.7713
#
#
#
# Elastic Compliance Matrix: (Units=1/GPa)
#
#
# Indices 1 2 3 4 5 6 
#
# 1 0.011393 -0.003037 -0.004261 0.000000 0.000000 0.000000
# 2 -0.003037 0.013713 0.001019 0.000000 0.000000 0.000000
# 3 -0.004261 0.001019 0.020475 0.000000 0.000000 0.000000
# 4 0.000000 0.000000 0.000000 0.041844 0.000000 0.000000
# 5 0.000000 0.000000 0.000000 0.000000 0.043501 0.000000
# 6 0.000000 0.000000 0.000000 0.000000 0.000000 0.053273
#
#
# Mechanical properties :
#
#
# Convention : Reuss Voigt Hill
#
# Bulk Modulus (GPa) = 30.28109 34.86118 32.57114
# Shear Modulus (GPa) = 24.06566 25.79781 24.93173
#
# Velocity S-wave (km/s) = 3.68616 3.81651 3.75190
# Velocity P-wave (km/s) = 5.93415 6.25333 6.09583
#
# Compressibility (1/GPa) = 0.03302391
#
# Stress axis : x y z
#
# Youngs Moduli (GPa) = 87.77354 72.92246 48.83949
#
# Poissons Ratio (x) = 0.22144 0.20809
# Poissons Ratio (y) = 0.26653 -0.04974
# Poissons Ratio (z) = 0.37397 -0.07427
#
# Static dielectric constant tensor:
#      x y z
#    x 1.632230 0.000000 0.000000 
#    y 0.000000 1.615310 0.000000 
#    z 0.000000 0.000000 1.647860 
# 
# From -- ./inp_files/9439.got.cif
#   From: 2010.05.17/outbox.cif.g08.bks.cpg/sg51_5_cif.got.tgz:9439.got - 2010.06.03 11:52:47.
