data_PCOD9401108
_publ_section_title
;
Structure prediction by ZEFSAII (Michael W. Deem and Ramdas Pophale) SiO2 
 PCOD9401108
Probable space group: P M M A
;
_chemical_formula_sum "Si O2"
_cell_formula_units_Z 48
_cell_length_a 24.354917
_cell_length_b 8.748215
_cell_length_c 14.099696
_cell_angle_alpha 90.000000
_cell_angle_beta 90.000000
_cell_angle_gamma 90.000000
_cell_volume 3004.110137
_symmetry_space_group_name_H-M "P M M A"
_symmetry_group_IT_number 51
_symmetry_cell_setting 'orthorhombic'
loop_
_space_group_symop_operation_xyz
x,y,z
1/2-x,-y,z
1/2+x,-y,-z
-x,y,-z
-x,-y,-z
1/2+x,y,-z
1/2-x,y,z
x,-y,z
loop_
_atom_site_type_symbol
_atom_site_label
_atom_site_fract_x
_atom_site_fract_y
_atom_site_fract_z
Si Si1 0.087057 0.183598 0.965683
Si Si2 0.187367 0.184163 0.649644
Si Si3 0.979203 0.317784 0.641616
Si Si4 0.417450 0.183957 0.530894
Si Si5 0.478303 0.184388 0.151531
Si Si6 0.312859 0.682619 0.856799
O O1 0.143228 0.257074 0.931588
O O2 0.037829 0.223952 0.892891
O O3 0.092077 0.000000 0.963393
O O4 0.065888 0.225885 0.070507
O O5 0.250000 0.230022 0.625936
O O6 0.141642 0.227961 0.573032
O O7 0.173549 0.252128 0.752572
O O8 0.186056 0.000000 0.657551
O O9 0.983472 0.500000 0.634774
O O10 0.932534 0.257228 0.569922
O O11 0.969572 0.264801 0.748706
O O12 0.035489 0.242249 0.602854
O O13 0.420780 0.000000 0.524129
O O14 0.476971 0.000000 0.163548
O O15 0.250000 0.729859 0.878296
O O16 0.314822 0.500000 0.853048
#
# Coordination Sequence:
#
# PCOD9401108 Si02
#       6
#     8   8   8   8   8   8
#     4   9  18  32  51  71  92 122 157 193 230 273
#     4   9  18  32  50  71  93 120 156 194 230 272
#     4  11  21  31  46  70  98 125 155 190 229 277
#     4  10  19  32  50  69  93 125 157 192 233 273
#     4   9  18  33  50  70  95 121 153 192 235 277
#     4  10  20  31  45  69 100 129 154 186 230 276
#
# _framework density 15.978109
#
# number of rings (size 3 to 8) (size 9 to 14) (size 15 to 20)
#    0.000    2.333    0.000    5.500    0.000    7.667 
#    0.000    1.667    0.000    1.000    0.000    2.333 
#    0.000    0.000    0.000    0.000    0.000    0.000 
#
# Total GULP energy -267783.797508 kJ/mol
# GULP energy per Si atom -5578.829115 kJ/mol
# Density = 1.594174 g / cm^3
# Si number density = 15.978109 Si / 1000 Ang^3
#
#
#
# Elastic Constant Matrix: (Units=GPa)
#
#
# Indices 1 2 3 4 5 6 
#
# 1 89.0325 29.0577 69.1727 0.0000 0.0000 0.0000
# 2 29.0577 39.8991 39.8548 0.0000 0.0000 0.0000
# 3 69.1727 39.8548 131.0729 0.0000 0.0000 0.0000
# 4 0.0000 0.0000 0.0000 -66.0593 0.0000 0.0000
# 5 0.0000 0.0000 0.0000 0.0000 22.3605 0.0000
# 6 0.0000 0.0000 0.0000 0.0000 0.0000 12.0201
#
#
#
# Elastic Compliance Matrix: (Units=1/GPa)
#
#
# Indices 1 2 3 4 5 6 
#
# 1 0.019917 -0.005753 -0.008762 0.000000 0.000000 0.000000
# 2 -0.005753 0.037658 -0.008414 0.000000 0.000000 0.000000
# 3 -0.008762 -0.008414 0.014812 0.000000 0.000000 0.000000
# 4 0.000000 0.000000 0.000000 -0.015138 0.000000 0.000000
# 5 0.000000 0.000000 0.000000 0.000000 0.044722 0.000000
# 6 0.000000 0.000000 0.000000 0.000000 0.000000 0.083194
#
#
# Mechanical properties :
#
#
# Convention : Reuss Voigt Hill
#
# Bulk Modulus (GPa) = 37.69545 59.57502 48.63523
# Shear Modulus (GPa) = 20.84503 1.79222 11.31862
#
# Velocity S-wave (km/s) = 3.61584 1.06024 2.66443
# Velocity P-wave (km/s) = 6.40902 6.23419 6.32221
#
# Compressibility (1/GPa) = 0.02652840
#
# Stress axis : x y z
#
# Youngs Moduli (GPa) = 50.20915 26.55473 67.51416
#
# Poissons Ratio (x) = 0.15277 0.59153
# Poissons Ratio (y) = 0.28886 0.56809
# Poissons Ratio (z) = 0.43991 0.22344
#
# Static dielectric constant tensor:
#      x y z
#    x 1.535510 0.000000 0.000000 
#    y 0.000000 1.532100 0.000000 
#    z 0.000000 0.000000 1.512990 
# 
# From -- ./inp_files/26034.got.cif
#   From: 2010.05.17/outbox.cif.g08.bks.cpg/sg51_14_cif.got.tgz:26034.got - 2010.06.03 11:52:47.
