data_PCOD9401999
_publ_section_title
;
Structure prediction by ZEFSAII (Michael W. Deem and Ramdas Pophale) SiO2 
 PCOD9401999
Probable space group: P M M A
;
_chemical_formula_sum "Si O2"
_cell_formula_units_Z 56
_cell_length_a 14.818960
_cell_length_b 8.433202
_cell_length_c 23.025823
_cell_angle_alpha 90.000000
_cell_angle_beta 90.000000
_cell_angle_gamma 90.000000
_cell_volume 2877.566645
_symmetry_space_group_name_H-M "P M M A"
_symmetry_group_IT_number 51
_symmetry_cell_setting 'orthorhombic'
loop_
_space_group_symop_operation_xyz
x,y,z
1/2-x,-y,z
1/2+x,-y,-z
-x,y,-z
-x,-y,-z
1/2+x,y,-z
1/2-x,y,z
x,-y,z
loop_
_atom_site_type_symbol
_atom_site_label
_atom_site_fract_x
_atom_site_fract_y
_atom_site_fract_z
Si Si1 0.250000 0.310067 0.454787
Si Si2 0.912373 0.311824 0.331519
Si Si3 0.654770 0.191192 0.765225
Si Si4 0.456426 0.309348 0.915356
Si Si5 0.895578 0.811360 0.633819
Si Si6 0.043513 0.189465 0.792809
Si Si7 0.646082 0.693068 0.967105
Si Si8 0.750000 0.694118 0.412191
O O1 0.250000 0.500000 0.454768
O O2 0.336259 0.250685 0.418875
O O3 0.250000 0.252803 0.521193
O O4 0.904240 0.500000 0.325781
O O5 0.909032 0.241764 0.266625
O O6 0.835916 0.253504 0.375148
O O7 0.007753 0.268552 0.359902
O O8 0.750000 0.253517 0.789154
O O9 0.651457 0.219648 0.696041
O O10 0.560159 0.252866 0.788992
O O11 0.654279 0.000000 0.773131
O O12 0.459146 0.500000 0.915395
O O13 0.420366 0.250006 0.853859
O O14 0.560791 0.254468 0.926932
O O15 0.391089 0.262941 0.968643
O O16 0.906279 0.000000 0.629177
O O17 0.041013 0.000000 0.792970
O O18 0.750000 0.747454 0.956299
O O19 0.648407 0.500000 0.964215
O O20 0.750000 0.500000 0.413687
#
# Coordination Sequence:
#
# PCOD9401999 Si02
#       8
#     4   8   8   8   8   8   8   4
#     4  11  21  35  57  85 111 143 186 225 268 333
#     4  10  20  39  61  79 104 143 189 234 278 328
#     4   8  14  27  47  68  96 136 171 204 256 319
#     4   9  17  31  52  76 102 135 176 218 260 311
#     4  10  19  34  55  82 113 143 174 221 281 336
#     4  10  20  33  51  77 109 142 176 220 275 326
#     4   8  15  30  52  76 103 135 173 219 263 304
#     4   9  22  41  59  79 107 143 186 237 284 319
#
# _framework density 19.460888000000001
#
# number of rings (size 3 to 8) (size 9 to 14) (size 15 to 20)
#    0.000    2.714    0.714    3.214    0.000    1.143 
#    1.286    8.571    0.000    0.857    0.000    0.000 
#    0.000    0.000    0.000    0.000    0.000    0.000 
#
# Total GULP energy -312125.248002 kJ/mol
# GULP energy per Si atom -5573.665143 kJ/mol
# Density = 1.941659 g / cm^3
# Si number density = 19.460888 Si / 1000 Ang^3
#
#
#
# Elastic Constant Matrix: (Units=GPa)
#
#
# Indices 1 2 3 4 5 6 
#
# 1 28.3959 -5.3949 0.2337 0.0000 0.0000 0.0000
# 2 -5.3949 12.7778 8.5447 0.0000 0.0000 0.0000
# 3 0.2337 8.5447 117.5319 0.0000 0.0000 0.0000
# 4 0.0000 0.0000 0.0000 -11.7689 0.0000 0.0000
# 5 0.0000 0.0000 0.0000 0.0000 5.2596 0.0000
# 6 0.0000 0.0000 0.0000 0.0000 0.0000 -3.7852
#
#
#
# Elastic Compliance Matrix: (Units=1/GPa)
#
#
# Indices 1 2 3 4 5 6 
#
# 1 0.038482 0.017131 -0.001322 0.000000 0.000000 0.000000
# 2 0.017131 0.089886 -0.006569 0.000000 0.000000 0.000000
# 3 -0.001322 -0.006569 0.008989 0.000000 0.000000 0.000000
# 4 0.000000 0.000000 0.000000 -0.084970 0.000000 0.000000
# 5 0.000000 0.000000 0.000000 0.000000 0.190127 0.000000
# 6 0.000000 0.000000 0.000000 0.000000 0.000000 -0.264190
#
#
# Mechanical properties :
#
#
# Convention : Reuss Voigt Hill
#
# Bulk Modulus (GPa) = 6.41691 18.38585 12.40138
# Shear Modulus (GPa) = 424.11095 8.29593 216.20344
#
# Velocity S-wave (km/s) = 14.77846 2.06691 10.55166
# Velocity P-wave (km/s) = 17.16125 3.89413 12.44333
#
# Compressibility (1/GPa) = 0.15583816
#
# Stress axis : x y z
#
# Youngs Moduli (GPa) = 25.98617 11.12514 111.25298
#
# Poissons Ratio (x) = -0.19059 0.14708
# Poissons Ratio (y) = -0.44518 0.73081
# Poissons Ratio (z) = 0.03435 0.07308
#
# Static dielectric constant tensor:
#      x y z
#    x 1.698390 0.000000 0.000000 
#    y 0.000000 1.661790 0.000000 
#    z 0.000000 0.000000 1.671580 
# 
# From -- ./inp_files/33602.got.cif
#   From: 2010.05.17/outbox.cif.g08.bks.cpg/sg51_17_cif.got.tgz:33602.got - 2010.06.03 11:52:47.
