data_PCOD9401190
_publ_section_title
;
Structure prediction by ZEFSAII (Michael W. Deem and Ramdas Pophale) SiO2 
 PCOD9401190
Probable space group: P M M A
;
_chemical_formula_sum "Si O2"
_cell_formula_units_Z 40
_cell_length_a 18.867632
_cell_length_b 8.022387
_cell_length_c 14.176256
_cell_angle_alpha 90.000000
_cell_angle_beta 90.000000
_cell_angle_gamma 90.000000
_cell_volume 2145.766955
_symmetry_space_group_name_H-M "P M M A"
_symmetry_group_IT_number 51
_symmetry_cell_setting 'orthorhombic'
loop_
_space_group_symop_operation_xyz
x,y,z
1/2-x,-y,z
1/2+x,-y,-z
-x,y,-z
-x,-y,-z
1/2+x,y,-z
1/2-x,y,z
x,-y,z
loop_
_atom_site_type_symbol
_atom_site_label
_atom_site_fract_x
_atom_site_fract_y
_atom_site_fract_z
Si Si1 0.169007 0.701359 0.916089
Si Si2 0.961715 0.198735 0.202241
Si Si3 0.171827 0.198496 0.311249
Si Si4 0.894038 0.697735 0.884912
Si Si5 0.527757 0.204155 0.601140
O O1 0.250000 0.759492 0.905499
O O2 0.170100 0.500000 0.918859
O O3 0.115425 0.753176 0.834014
O O4 0.135409 0.760631 0.015409
O O5 0.022974 0.268546 0.133362
O O6 0.980558 0.255111 0.308578
O O7 0.968942 0.000000 0.200369
O O8 0.250000 0.269451 0.327749
O O9 0.147863 0.225935 0.203411
O O10 0.107537 0.262196 0.375620
O O11 0.175119 0.000000 0.326559
O O12 0.882678 0.500000 0.881889
O O13 0.500000 0.260719 0.500000
O O14 0.527912 0.000000 0.600115
#
# Coordination Sequence:
#
# PCOD9401190 Si02
#       5
#     8   8   8   8   8
#     4  10  21  35  49  68  98 135 168 195 230 281
#     4  10  20  33  51  75  98 123 160 203 244 284
#     4   9  17  29  47  73 100 124 156 203 253 289
#     4  10  19  32  51  72  96 130 166 195 232 287
#     4   8  15  30  50  70  94 124 158 198 243 291
#
# _framework density 18.641354
#
# number of rings (size 3 to 8) (size 9 to 14) (size 15 to 20)
#    0.000    2.600    0.000    3.600    0.000    5.600 
#    0.000    1.000    0.000   18.600    0.000    0.000 
#    0.000    0.000    0.000    0.000    0.000    0.000 
#
# Total GULP energy -223126.775428 kJ/mol
# GULP energy per Si atom -5578.169386 kJ/mol
# Density = 1.859893 g / cm^3
# Si number density = 18.641354 Si / 1000 Ang^3
#
#
#
# Elastic Constant Matrix: (Units=GPa)
#
#
# Indices 1 2 3 4 5 6 
#
# 1 162.5207 -0.4103 99.2835 0.0000 0.0000 0.0000
# 2 -0.4103 10.2581 3.2215 0.0000 0.0000 0.0000
# 3 99.2835 3.2215 120.8053 0.0000 0.0000 0.0000
# 4 0.0000 0.0000 0.0000 33.2061 0.0000 0.0000
# 5 0.0000 0.0000 0.0000 0.0000 12.9833 0.0000
# 6 0.0000 0.0000 0.0000 0.0000 0.0000 21.3804
#
#
#
# Elastic Compliance Matrix: (Units=1/GPa)
#
#
# Indices 1 2 3 4 5 6 
#
# 1 0.012499 0.003757 -0.010373 0.000000 0.000000 0.000000
# 2 0.003757 0.099437 -0.005740 0.000000 0.000000 0.000000
# 3 -0.010373 -0.005740 0.016956 0.000000 0.000000 0.000000
# 4 0.000000 0.000000 0.000000 0.030115 0.000000 0.000000
# 5 0.000000 0.000000 0.000000 0.000000 0.077022 0.000000
# 6 0.000000 0.000000 0.000000 0.000000 0.000000 0.046772
#
#
# Mechanical properties :
#
#
# Convention : Reuss Voigt Hill
#
# Bulk Modulus (GPa) = 9.59863 55.30816 32.45339
# Shear Modulus (GPa) = 14.60977 26.27993 20.44485
#
# Velocity S-wave (km/s) = 2.80255 3.75876 3.31531
# Velocity P-wave (km/s) = 3.95382 6.96934 5.66588
#
# Compressibility (1/GPa) = 0.10418154
#
# Stress axis : x y z
#
# Youngs Moduli (GPa) = 80.00557 10.05666 58.97785
#
# Poissons Ratio (x) = -0.03779 0.61175
# Poissons Ratio (y) = -0.30061 0.33851
# Poissons Ratio (z) = 0.82986 0.05772
#
# Static dielectric constant tensor:
#      x y z
#    x 1.653400 0.000000 0.000000 
#    y 0.000000 1.671350 0.000000 
#    z 0.000000 0.000000 1.624700 
# 
# From -- ./inp_files/24530.got.cif
#   From: 2010.05.17/outbox.cif.g08.bks.cpg/sg51_13_cif.got.tgz:24530.got - 2010.06.03 11:52:47.
