data_PCOD9401012
_publ_section_title
;
Structure prediction by ZEFSAII (Michael W. Deem and Ramdas Pophale) SiO2 
 PCOD9401012
Probable space group: P M M A
;
_chemical_formula_sum "Si O2"
_cell_formula_units_Z 56
_cell_length_a 16.252345
_cell_length_b 7.529901
_cell_length_c 20.512423
_cell_angle_alpha 90.000000
_cell_angle_beta 90.000000
_cell_angle_gamma 90.000000
_cell_volume 2510.280561
_symmetry_space_group_name_H-M "P M M A"
_symmetry_group_IT_number 51
_symmetry_cell_setting 'orthorhombic'
loop_
_space_group_symop_operation_xyz
x,y,z
1/2-x,-y,z
1/2+x,-y,-z
-x,y,-z
-x,-y,-z
1/2+x,y,-z
1/2-x,y,z
x,-y,z
loop_
_atom_site_type_symbol
_atom_site_label
_atom_site_fract_x
_atom_site_fract_y
_atom_site_fract_z
Si Si1 0.879534 0.785604 0.264203
Si Si2 0.490836 0.717041 0.075867
Si Si3 0.750000 0.698051 0.517474
Si Si4 0.061758 0.785560 0.296482
Si Si5 0.750000 0.214121 0.371084
Si Si6 0.565260 0.207312 0.554830
Si Si7 0.836443 0.704024 0.123411
Si Si8 0.657921 0.710880 0.832318
O O1 0.829830 0.739134 0.328934
O O2 0.837655 0.705559 0.201260
O O3 0.973721 0.729864 0.267961
O O4 0.875307 0.000000 0.258375
O O5 0.488945 0.500000 0.080305
O O6 0.576401 0.784972 0.105536
O O7 0.412217 0.780205 0.117727
O O8 0.500000 0.762042 0.000000
O O9 0.750000 0.500000 0.545697
O O10 0.750000 0.695672 0.439867
O O11 0.838433 0.782234 0.535103
O O12 0.063750 0.718723 0.371185
O O13 0.129234 0.734164 0.242806
O O14 0.064113 0.000000 0.299495
O O15 0.750000 0.000000 0.381069
O O16 0.500000 0.279388 0.500000
O O17 0.541888 0.000000 0.560974
O O18 0.750000 0.784948 0.100623
O O19 0.837371 0.500000 0.099720
O O20 0.750000 0.783573 0.842076
O O21 0.661937 0.500000 0.843845
#
# Coordination Sequence:
#
# PCOD9401012 Si02
#       8
#     8   8   4   8   4   8   8   8
#     4  10  19  33  56  84 110 143 186 231 279 333
#     4   9  18  34  55  80 113 152 190 229 276 333
#     4  12  26  40  58  88 124 155 190 243 306 359
#     4  10  21  36  59  86 110 144 192 241 287 335
#     4  10  20  36  58  82 112 151 194 233 278 347
#     4  10  22  43  66  85 113 157 208 251 292 355
#     4  10  19  31  51  81 114 144 179 225 278 332
#     4  10  21  36  56  83 113 148 188 233 285 340
#
# _framework density 22.308263
#
# number of rings (size 3 to 8) (size 9 to 14) (size 15 to 20)
#    0.000    2.000    2.143    1.500    1.000    4.571 
#    0.000    4.286    0.000    1.714    0.000    2.000 
#    0.000    0.000    0.000    0.000    0.000    0.000 
#
# Total GULP energy -312421.437687 kJ/mol
# GULP energy per Si atom -5578.954244 kJ/mol
# Density = 2.225749 g / cm^3
# Si number density = 22.308263 Si / 1000 Ang^3
#
#
#
# Elastic Constant Matrix: (Units=GPa)
#
#
# Indices 1 2 3 4 5 6 
#
# 1 211.1863 5.1123 83.6574 0.0000 0.0000 0.0000
# 2 5.1123 52.7995 0.2151 0.0000 0.0000 0.0000
# 3 83.6574 0.2151 126.7085 0.0000 0.0000 0.0000
# 4 0.0000 0.0000 0.0000 26.8976 0.0000 0.0000
# 5 0.0000 0.0000 0.0000 0.0000 92.9046 0.0000
# 6 0.0000 0.0000 0.0000 0.0000 0.0000 21.5513
#
#
#
# Elastic Compliance Matrix: (Units=1/GPa)
#
#
# Indices 1 2 3 4 5 6 
#
# 1 0.006431 -0.000605 -0.004245 0.000000 0.000000 0.000000
# 2 -0.000605 0.018997 0.000367 0.000000 0.000000 0.000000
# 3 -0.004245 0.000367 0.010694 0.000000 0.000000 0.000000
# 4 0.000000 0.000000 0.000000 0.037178 0.000000 0.000000
# 5 0.000000 0.000000 0.000000 0.000000 0.010764 0.000000
# 6 0.000000 0.000000 0.000000 0.000000 0.000000 0.046401
#
#
# Mechanical properties :
#
#
# Convention : Reuss Voigt Hill
#
# Bulk Modulus (GPa) = 36.82407 63.18485 50.00446
# Shear Modulus (GPa) = 33.67371 48.38467 41.02919
#
# Velocity S-wave (km/s) = 3.88941 4.66221 4.29323
# Velocity P-wave (km/s) = 6.05910 7.57408 6.85855
#
# Compressibility (1/GPa) = 0.02715615
#
# Stress axis : x y z
#
# Youngs Moduli (GPa) = 155.48488 52.64070 93.50703
#
# Poissons Ratio (x) = 0.03187 0.39696
# Poissons Ratio (y) = 0.09414 -0.03436
# Poissons Ratio (z) = 0.66008 -0.01934
#
# Static dielectric constant tensor:
#      x y z
#    x 1.857790 0.000000 0.000000 
#    y 0.000000 1.875030 0.000000 
#    z 0.000000 0.000000 1.819750 
# 
# From -- ./inp_files/33612.got.cif
#   From: 2010.05.17/outbox.cif.g08.bks.cpg/sg51_17_cif.got.tgz:33612.got - 2010.06.03 11:52:47.
