data_PCOD9401522
_publ_section_title
;
Structure prediction by ZEFSAII (Michael W. Deem and Ramdas Pophale) SiO2 
 PCOD9401522
Probable space group: P M M A
;
_chemical_formula_sum "Si O2"
_cell_formula_units_Z 36
_cell_length_a 7.752399
_cell_length_b 19.137729
_cell_length_c 14.812864
_cell_angle_alpha 90.000000
_cell_angle_beta 90.000000
_cell_angle_gamma 90.000000
_cell_volume 2197.685551
_symmetry_space_group_name_H-M "P M M A"
_symmetry_group_IT_number 51
_symmetry_cell_setting 'orthorhombic'
loop_
_space_group_symop_operation_xyz
x,y,z
1/2-x,-y,z
1/2+x,-y,-z
-x,y,-z
-x,-y,-z
1/2+x,y,-z
1/2-x,y,z
x,-y,z
loop_
_atom_site_type_symbol
_atom_site_label
_atom_site_fract_x
_atom_site_fract_y
_atom_site_fract_z
Si Si1 0.544979 0.860900 0.214314
Si Si2 0.042491 0.080282 0.599773
Si Si3 0.954341 0.000000 0.894453
Si Si4 0.457523 0.575076 0.893327
Si Si5 0.958382 0.727654 0.105995
O O1 0.750000 0.849565 0.223395
O O2 0.475881 0.876695 0.314546
O O3 0.521771 0.930459 0.154591
O O4 0.473893 0.793010 0.163218
O O5 0.250000 0.077384 0.606824
O O6 0.000000 0.107256 0.500000
O O7 0.978042 0.000000 0.605886
O O8 0.750000 0.000000 0.885430
O O9 0.000000 0.000000 0.000000
O O10 0.250000 0.574857 0.883525
O O11 0.522125 0.500000 0.856798
O O12 0.521065 0.651023 0.861405
O O13 0.500000 0.574901 0.000000
O O14 0.750000 0.727112 0.111921
O O15 0.000000 0.736237 0.000000
#
# Coordination Sequence:
#
# PCOD9401522 Si02
#       5
#     8   8   4   8   8
#     4  10  19  33  47  61  83 109 139 173 210 247
#     4   9  17  30  47  63  80 101 128 168 214 254
#     4  12  24  34  45  60  81 112 147 176 204 238
#     4   8  13  22  36  55  78 104 134 165 196 232
#     4   9  17  27  41  59  82 112 140 167 200 237
#
# _framework density 16.380870000000002
#
# number of rings (size 3 to 8) (size 9 to 14) (size 15 to 20)
#    0.000    2.667    1.111    1.667    0.000    3.556 
#    0.000    0.000    0.000    0.000    0.000    0.000 
#    0.000    0.889    0.000    0.667    0.000    1.778 
#
# Total GULP energy -200485.546163 kJ/mol
# GULP energy per Si atom -5569.042949 kJ/mol
# Density = 1.634359 g / cm^3
# Si number density = 16.380870 Si / 1000 Ang^3
#
#
#
# Elastic Constant Matrix: (Units=GPa)
#
#
# Indices 1 2 3 4 5 6 
#
# 1 24.4912 0.3548 -0.6567 0.0000 0.0000 0.0000
# 2 0.3548 169.4251 74.6884 0.0000 0.0000 0.0000
# 3 -0.6567 74.6884 110.7522 0.0000 0.0000 0.0000
# 4 0.0000 0.0000 0.0000 4.5659 0.0000 0.0000
# 5 0.0000 0.0000 0.0000 0.0000 15.0835 0.0000
# 6 0.0000 0.0000 0.0000 0.0000 0.0000 -1.0627
#
#
#
# Elastic Compliance Matrix: (Units=1/GPa)
#
#
# Indices 1 2 3 4 5 6 
#
# 1 0.040846 -0.000274 0.000427 0.000000 0.000000 0.000000
# 2 -0.000274 0.008401 -0.005667 0.000000 0.000000 0.000000
# 3 0.000427 -0.005667 0.012853 0.000000 0.000000 0.000000
# 4 0.000000 0.000000 0.000000 0.219016 0.000000 0.000000
# 5 0.000000 0.000000 0.000000 0.000000 0.066297 0.000000
# 6 0.000000 0.000000 0.000000 0.000000 0.000000 -0.940971
#
#
# Mechanical properties :
#
#
# Convention : Reuss Voigt Hill
#
# Bulk Modulus (GPa) = 19.57987 50.38240 34.98114
# Shear Modulus (GPa) = -8.84166 19.06947 5.11391
#
# Velocity S-wave (km/s) = -2.32578 3.41564 1.76880
# Velocity P-wave (km/s) = 2.18323 6.81022 5.05695
#
# Compressibility (1/GPa) = 0.05107286
#
# Stress axis : x y z
#
# Youngs Moduli (GPa) = 24.48199 119.03119 77.79996
#
# Poissons Ratio (x) = 0.03257 -0.03320
# Poissons Ratio (y) = 0.00670 0.44090
# Poissons Ratio (z) = -0.01045 0.67457
#
# Static dielectric constant tensor:
#      x y z
#    x 1.593910 0.000000 0.000000 
#    y 0.000000 1.728590 0.000000 
#    z 0.000000 0.000000 1.536020 
# 
# From -- ./inp_files/14159.got.cif
#   From: 2010.05.17/outbox.cif.g08.bks.cpg/sg51_8_cif.got.tgz:14159.got - 2010.06.03 11:52:47.
