data_PCOD9401292
_publ_section_title
;
Structure prediction by ZEFSAII (Michael W. Deem and Ramdas Pophale) SiO2 
 PCOD9401292
Probable space group: P M M A
;
_chemical_formula_sum "Si O2"
_cell_formula_units_Z 64
_cell_length_a 18.104471
_cell_length_b 9.180326
_cell_length_c 22.531474
_cell_angle_alpha 90.000000
_cell_angle_beta 90.000000
_cell_angle_gamma 90.000000
_cell_volume 3744.842416
_symmetry_space_group_name_H-M "P M M A"
_symmetry_group_IT_number 51
_symmetry_cell_setting 'orthorhombic'
loop_
_space_group_symop_operation_xyz
x,y,z
1/2-x,-y,z
1/2+x,-y,-z
-x,y,-z
-x,-y,-z
1/2+x,y,-z
1/2-x,y,z
x,-y,z
loop_
_atom_site_type_symbol
_atom_site_label
_atom_site_fract_x
_atom_site_fract_y
_atom_site_fract_z
Si Si1 0.168066 0.325277 0.799098
Si Si2 0.165737 0.172468 0.051375
Si Si3 0.466876 0.173819 0.363072
Si Si4 0.164573 0.825367 0.452876
Si Si5 0.968900 0.328596 0.889139
Si Si6 0.931666 0.666390 0.453461
Si Si7 0.988430 0.328261 0.247580
Si Si8 0.117427 0.173326 0.918268
O O1 0.250000 0.292692 0.775600
O O2 0.162286 0.500000 0.808146
O O3 0.098084 0.284381 0.758554
O O4 0.157276 0.248536 0.862588
O O5 0.250000 0.201567 0.068527
O O6 0.107822 0.267117 0.087548
O O7 0.150555 0.000000 0.060149
O O8 0.155683 0.201392 0.981191
O O9 0.391836 0.211772 0.399227
O O10 0.535624 0.244463 0.398452
O O11 0.469811 0.237260 0.297203
O O12 0.473372 0.000000 0.363044
O O13 0.250000 0.789136 0.440637
O O14 0.134140 0.744608 0.511277
O O15 0.159205 0.000000 0.461726
O O16 0.976987 0.500000 0.901856
O O17 0.978707 0.308976 0.818351
O O18 0.035311 0.239804 0.919458
O O19 0.913605 0.500000 0.437387
O O20 0.000000 0.663352 0.500000
O O21 0.991833 0.500000 0.262468
O O22 0.114727 0.000000 0.908880
#
# Coordination Sequence:
#
# PCOD9401292 Si02
#       8
#     8   8   8   8   8   8   8   8
#     4   9  18  33  52  74 100 129 163 207 258 307
#     4  10  21  35  50  72 102 132 163 205 258 311
#     4  10  19  32  53  77 100 133 174 209 247 296
#     4   9  18  33  52  76 106 134 164 208 254 292
#     4  10  21  36  53  73  98 131 171 212 255 303
#     4   9  17  30  50  75 102 131 161 194 236 287
#     4   9  19  35  52  71  98 132 170 212 253 295
#     4  10  19  32  52  76 101 129 162 202 253 313
#
# _framework density 17.090171000000002
#
# number of rings (size 3 to 8) (size 9 to 14) (size 15 to 20)
#    0.000    2.500    0.000    3.000    0.000    8.250 
#    0.000    1.250    0.000    4.500    0.000    0.000 
#    0.000    0.000    0.000    0.000    0.000    0.000 
#
# Total GULP energy -356931.501790 kJ/mol
# GULP energy per Si atom -5577.054715 kJ/mol
# Density = 1.705127 g / cm^3
# Si number density = 17.090171 Si / 1000 Ang^3
#
#
#
# Elastic Constant Matrix: (Units=GPa)
#
#
# Indices 1 2 3 4 5 6 
#
# 1 99.4359 37.1484 30.0198 0.0000 0.0000 0.0000
# 2 37.1484 41.6571 25.7802 0.0000 0.0000 0.0000
# 3 30.0198 25.7802 32.6089 0.0000 0.0000 0.0000
# 4 0.0000 0.0000 0.0000 30.9857 0.0000 0.0000
# 5 0.0000 0.0000 0.0000 0.0000 16.5518 0.0000
# 6 0.0000 0.0000 0.0000 0.0000 0.0000 22.1606
#
#
#
# Elastic Compliance Matrix: (Units=1/GPa)
#
#
# Indices 1 2 3 4 5 6 
#
# 1 0.015788 -0.009955 -0.006664 0.000000 0.000000 0.000000
# 2 -0.009955 0.053279 -0.032957 0.000000 0.000000 0.000000
# 3 -0.006664 -0.032957 0.062857 0.000000 0.000000 0.000000
# 4 0.000000 0.000000 0.000000 0.032273 0.000000 0.000000
# 5 0.000000 0.000000 0.000000 0.000000 0.060416 0.000000
# 6 0.000000 0.000000 0.000000 0.000000 0.000000 0.045125
#
#
# Mechanical properties :
#
#
# Convention : Reuss Voigt Hill
#
# Bulk Modulus (GPa) = 30.51434 39.95540 35.23487
# Shear Modulus (GPa) = 13.16432 19.32319 16.24375
#
# Velocity S-wave (km/s) = 2.77841 3.36618 3.08632
# Velocity P-wave (km/s) = 5.30909 6.20791 5.77601
#
# Compressibility (1/GPa) = 0.03277148
#
# Stress axis : x y z
#
# Youngs Moduli (GPa) = 63.34083 18.76909 15.90908
#
# Poissons Ratio (x) = 0.18684 0.10602
# Poissons Ratio (y) = 0.63054 0.52432
# Poissons Ratio (z) = 0.42211 0.61858
#
# Static dielectric constant tensor:
#      x y z
#    x 1.585020 0.000000 0.000000 
#    y 0.000000 1.572060 0.000000 
#    z 0.000000 0.000000 1.560560 
# 
# From -- ./inp_files/33908.got.cif
#   From: 2010.05.17/outbox.cif.g08.bks.cpg/sg51_17_cif.got.tgz:33908.got - 2010.06.03 11:52:47.
