data_PCOD9401791
_publ_section_title
;
Structure prediction by ZEFSAII (Michael W. Deem and Ramdas Pophale) SiO2 
 PCOD9401791
Probable space group: P M M A
;
_chemical_formula_sum "Si O2"
_cell_formula_units_Z 48
_cell_length_a 27.808827
_cell_length_b 7.467009
_cell_length_c 10.563666
_cell_angle_alpha 90.000000
_cell_angle_beta 90.000000
_cell_angle_gamma 90.000000
_cell_volume 2193.532162
_symmetry_space_group_name_H-M "P M M A"
_symmetry_group_IT_number 51
_symmetry_cell_setting 'orthorhombic'
loop_
_space_group_symop_operation_xyz
x,y,z
1/2-x,-y,z
1/2+x,-y,-z
-x,y,-z
-x,-y,-z
1/2+x,y,-z
1/2-x,y,z
x,-y,z
loop_
_atom_site_type_symbol
_atom_site_label
_atom_site_fract_x
_atom_site_fract_y
_atom_site_fract_z
Si Si1 0.524907 0.281087 0.630779
Si Si2 0.695451 0.788223 0.855675
Si Si3 0.194566 0.280434 0.625359
Si Si4 0.642008 0.715153 0.118362
Si Si5 0.468210 0.280967 0.880296
Si Si6 0.633298 0.707789 0.612745
O O1 0.500000 0.228459 0.500000
O O2 0.524998 0.500000 0.635404
O O3 0.494152 0.223131 0.751563
O O4 0.579992 0.217206 0.633429
O O5 0.750000 0.717083 0.854640
O O6 0.663637 0.714406 0.741313
O O7 0.697694 0.000000 0.835000
O O8 0.670680 0.757306 0.990738
O O9 0.250000 0.223571 0.618119
O O10 0.195030 0.500000 0.624445
O O11 0.169651 0.222352 0.756010
O O12 0.163991 0.217700 0.504255
O O13 0.639849 0.500000 0.127505
O O14 0.586988 0.779523 0.112452
O O15 0.467478 0.500000 0.881060
O O16 0.500000 0.224947 0.000000
O O17 0.625424 0.500000 0.579142
#
# Coordination Sequence:
#
# PCOD9401791 Si02
#       6
#     8   8   8   8   8   8
#     4   9  16  27  47  78 111 136 162 204 257 308
#     4  11  24  39  53  73 104 140 178 222 268 311
#     4   9  17  29  48  77 106 128 162 215 262 301
#     4  10  19  33  55  79 103 135 173 213 260 313
#     4   9  16  26  43  71 103 130 161 203 248 296
#     4  10  19  33  56  82 107 139 176 213 257 312
#
# _framework density 21.882512999999999
#
# number of rings (size 3 to 8) (size 9 to 14) (size 15 to 20)
#    0.000    2.333    0.000    3.500    0.000    9.333 
#    0.000    0.833    0.000    8.000    0.000    0.000 
#    0.000    0.000    0.000    0.000    0.000    0.000 
#
# Total GULP energy -268321.438731 kJ/mol
# GULP energy per Si atom -5590.029974 kJ/mol
# Density = 2.183271 g / cm^3
# Si number density = 21.882513 Si / 1000 Ang^3
#
#
#
# Elastic Constant Matrix: (Units=GPa)
#
#
# Indices 1 2 3 4 5 6 
#
# 1 203.7862 -6.6777 74.0510 0.0000 0.0000 0.0000
# 2 -6.6777 60.8085 -18.8346 0.0000 0.0000 0.0000
# 3 74.0510 -18.8346 146.5840 0.0000 0.0000 0.0000
# 4 0.0000 0.0000 0.0000 74.4776 0.0000 0.0000
# 5 0.0000 0.0000 0.0000 0.0000 66.6577 0.0000
# 6 0.0000 0.0000 0.0000 0.0000 0.0000 21.9273
#
#
#
# Elastic Compliance Matrix: (Units=1/GPa)
#
#
# Indices 1 2 3 4 5 6 
#
# 1 0.006015 -0.000292 -0.003076 0.000000 0.000000 0.000000
# 2 -0.000292 0.017141 0.002350 0.000000 0.000000 0.000000
# 3 -0.003076 0.002350 0.008678 0.000000 0.000000 0.000000
# 4 0.000000 0.000000 0.000000 0.013427 0.000000 0.000000
# 5 0.000000 0.000000 0.000000 0.000000 0.015002 0.000000
# 6 0.000000 0.000000 0.000000 0.000000 0.000000 0.045605
#
#
# Mechanical properties :
#
#
# Convention : Reuss Voigt Hill
#
# Bulk Modulus (GPa) = 33.56019 56.47288 45.01654
# Shear Modulus (GPa) = 42.43106 56.78851 49.60979
#
# Velocity S-wave (km/s) = 4.40823 5.09979 4.76657
# Velocity P-wave (km/s) = 6.42494 7.78078 7.13514
#
# Compressibility (1/GPa) = 0.02979721
#
# Stress axis : x y z
#
# Youngs Moduli (GPa) = 166.23946 58.34004 115.23225
#
# Poissons Ratio (x) = 0.01705 0.35450
# Poissons Ratio (y) = 0.04859 -0.27081
# Poissons Ratio (z) = 0.51142 -0.13710
#
# Static dielectric constant tensor:
#      x y z
#    x 1.763020 0.000000 0.000000 
#    y 0.000000 1.892690 0.000000 
#    z 0.000000 0.000000 1.724430 
# 
# From -- ./inp_files/12745.got.cif
#   From: 2010.05.17/outbox.cif.g08.bks.cpg/sg51_7_cif.got.tgz:12745.got - 2010.06.03 11:52:47.
