data_PCOD9401539
_publ_section_title
;
Structure prediction by ZEFSAII (Michael W. Deem and Ramdas Pophale) SiO2 
 PCOD9401539
Probable space group: P M M A
;
_chemical_formula_sum "Si O2"
_cell_formula_units_Z 56
_cell_length_a 8.880752
_cell_length_b 18.862673
_cell_length_c 19.581727
_cell_angle_alpha 90.000000
_cell_angle_beta 90.000000
_cell_angle_gamma 90.000000
_cell_volume 3280.227535
_symmetry_space_group_name_H-M "P M M A"
_symmetry_group_IT_number 51
_symmetry_cell_setting 'orthorhombic'
loop_
_space_group_symop_operation_xyz
x,y,z
1/2-x,-y,z
1/2+x,-y,-z
-x,y,-z
-x,-y,-z
1/2+x,y,-z
1/2-x,y,z
x,-y,z
loop_
_atom_site_type_symbol
_atom_site_label
_atom_site_fract_x
_atom_site_fract_y
_atom_site_fract_z
Si Si1 0.069664 0.642891 0.427939
Si Si2 0.069453 0.188973 0.428631
Si Si3 0.429504 0.150402 0.281163
Si Si4 0.568974 0.219787 0.074147
Si Si5 0.071003 0.703364 0.200543
Si Si6 0.570453 0.417714 0.290838
Si Si7 0.431153 0.921294 0.846795
O O1 0.250000 0.635109 0.428363
O O2 0.034508 0.727060 0.420791
O O3 0.000000 0.619209 0.500000
O O4 0.999313 0.602527 0.364088
O O5 0.250000 0.183327 0.432247
O O6 0.018461 0.149822 0.359640
O O7 0.000000 0.164336 0.500000
O O8 0.250000 0.137449 0.279515
O O9 0.453894 0.229771 0.251518
O O10 0.509452 0.098296 0.228402
O O11 0.750000 0.222460 0.071812
O O12 0.507061 0.275121 0.129761
O O13 0.521216 0.141990 0.102699
O O14 0.500000 0.231616 0.000000
O O15 0.250000 0.695917 0.191531
O O16 0.001991 0.634315 0.235316
O O17 0.750000 0.406848 0.293064
O O18 0.540284 0.500000 0.275843
O O19 0.250000 0.920529 0.845390
O O20 0.482086 0.000000 0.867048
#
# Coordination Sequence:
#
# PCOD9401539 Si02
#       7
#     8   8   8   8   8   8   8
#     4  10  19  33  50  71 100 136 175 220 269 319
#     4   9  17  29  45  70  98 126 165 216 264 308
#     4   9  17  31  50  73 100 130 170 215 258 305
#     4  10  20  35  56  83 111 141 172 206 249 298
#     4  10  19  35  56  77 103 134 172 217 259 306
#     4  11  23  36  51  74 104 139 178 219 264 315
#     4   9  19  34  51  76 109 141 173 207 246 297
#
# _framework density 17.071987
#
# number of rings (size 3 to 8) (size 9 to 14) (size 15 to 20)
#    0.000    2.286    1.429    1.714    0.000    4.286 
#    0.000    0.000    0.000    0.857    0.000    0.000 
#    0.000    0.000    0.000    0.000    0.000    0.000 
#
# Total GULP energy -312444.002687 kJ/mol
# GULP energy per Si atom -5579.357191 kJ/mol
# Density = 1.703313 g / cm^3
# Si number density = 17.071987 Si / 1000 Ang^3
#
#
#
# Elastic Constant Matrix: (Units=GPa)
#
#
# Indices 1 2 3 4 5 6 
#
# 1 37.0431 29.2307 42.3160 0.0000 0.0000 0.0000
# 2 29.2307 62.2127 46.9588 0.0000 0.0000 0.0000
# 3 42.3160 46.9588 148.8717 0.0000 0.0000 0.0000
# 4 0.0000 0.0000 0.0000 12.1924 0.0000 0.0000
# 5 0.0000 0.0000 0.0000 0.0000 33.0592 0.0000
# 6 0.0000 0.0000 0.0000 0.0000 0.0000 20.1087
#
#
#
# Elastic Compliance Matrix: (Units=1/GPa)
#
#
# Indices 1 2 3 4 5 6 
#
# 1 0.050780 -0.017015 -0.009067 0.000000 0.000000 0.000000
# 2 -0.017015 0.026798 -0.003617 0.000000 0.000000 0.000000
# 3 -0.009067 -0.003617 0.010435 0.000000 0.000000 0.000000
# 4 0.000000 0.000000 0.000000 0.082019 0.000000 0.000000
# 5 0.000000 0.000000 0.000000 0.000000 0.030249 0.000000
# 6 0.000000 0.000000 0.000000 0.000000 0.000000 0.049730
#
#
# Mechanical properties :
#
#
# Convention : Reuss Voigt Hill
#
# Bulk Modulus (GPa) = 34.94533 53.90426 44.42479
# Shear Modulus (GPa) = 15.67665 21.71351 18.69508
#
# Velocity S-wave (km/s) = 3.03358 3.57021 3.31278
# Velocity P-wave (km/s) = 5.72573 6.97413 6.38053
#
# Compressibility (1/GPa) = 0.02861613
#
# Stress axis : x y z
#
# Youngs Moduli (GPa) = 19.69296 37.31580 95.83018
#
# Poissons Ratio (x) = 0.63494 0.86886
# Poissons Ratio (y) = 0.33508 0.34657
# Poissons Ratio (z) = 0.17855 0.13495
#
# Static dielectric constant tensor:
#      x y z
#    x 1.568740 0.000000 0.000000 
#    y 0.000000 1.572670 0.000000 
#    z 0.000000 0.000000 1.562400 
# 
# From -- ./inp_files/32262.got.cif
#   From: 2010.05.17/outbox.cif.g08.bks.cpg/sg51_17_cif.got.tgz:32262.got - 2010.06.03 11:52:47.
