data_PCOD9401383
_publ_section_title
;
Structure prediction by ZEFSAII (Michael W. Deem and Ramdas Pophale) SiO2 
 PCOD9401383
Probable space group: P M M A
;
_chemical_formula_sum "Si O2"
_cell_formula_units_Z 64
_cell_length_a 9.485490
_cell_length_b 20.545342
_cell_length_c 18.322056
_cell_angle_alpha 90.000000
_cell_angle_beta 90.000000
_cell_angle_gamma 90.000000
_cell_volume 3570.650572
_symmetry_space_group_name_H-M "P M M A"
_symmetry_group_IT_number 51
_symmetry_cell_setting 'orthorhombic'
loop_
_space_group_symop_operation_xyz
x,y,z
1/2-x,-y,z
1/2+x,-y,-z
-x,y,-z
-x,-y,-z
1/2+x,y,-z
1/2-x,y,z
x,-y,z
loop_
_atom_site_type_symbol
_atom_site_label
_atom_site_fract_x
_atom_site_fract_y
_atom_site_fract_z
Si Si1 0.400174 0.925434 0.558973
Si Si2 0.919488 0.572557 0.274968
Si Si3 0.079604 0.353774 0.573010
Si Si4 0.911722 0.748758 0.655261
Si Si5 0.081474 0.803337 0.925500
Si Si6 0.095189 0.099298 0.316507
Si Si7 0.582104 0.297431 0.204977
Si Si8 0.915443 0.923759 0.856476
O O1 0.500000 0.892488 0.500000
O O2 0.250000 0.892231 0.562444
O O3 0.470563 0.929833 0.637197
O O4 0.381808 0.000000 0.534094
O O5 0.750000 0.567827 0.274605
O O6 0.978168 0.500000 0.265131
O O7 0.953564 0.602156 0.355128
O O8 0.952797 0.625632 0.212151
O O9 0.250000 0.350778 0.564512
O O10 0.000000 0.377037 0.500000
O O11 0.009876 0.284440 0.594536
O O12 0.750000 0.724285 0.649844
O O13 0.905715 0.826159 0.657788
O O14 0.985217 0.731962 0.731976
O O15 0.250000 0.810621 0.935829
O O16 0.058914 0.744301 0.867893
O O17 0.014143 0.870624 0.894930
O O18 0.000000 0.788482 0.000000
O O19 0.250000 0.072723 0.335729
O O20 0.076069 0.089534 0.230497
O O21 0.750000 0.290791 0.222929
O O22 0.750000 0.914113 0.877073
O O23 0.950493 0.000000 0.870367
#
# Coordination Sequence:
#
# PCOD9401383 Si02
#       8
#     8   8   8   8   8   8   8   8
#     4  10  21  35  50  68  92 125 166 214 267 319
#     4   8  15  30  54  82 110 143 184 228 275 324
#     4  10  20  33  49  73 108 148 190 232 276 321
#     4  10  19  32  53  76 100 135 177 221 271 320
#     4  11  23  38  59  85 114 146 183 221 266 323
#     4  10  20  34  54  77 101 133 173 218 271 327
#     4   9  18  34  56  82 110 141 178 222 265 313
#     4  10  21  38  59  83 112 145 181 224 275 331
#
# _framework density 17.923905000000001
#
# number of rings (size 3 to 8) (size 9 to 14) (size 15 to 20)
#    0.000    2.250    1.250    2.625    0.000    4.500 
#    0.000    0.000    0.000    9.375    0.000    0.000 
#    0.000    0.000    0.000    0.000    0.000    0.125 
#
# Total GULP energy -356379.904441 kJ/mol
# GULP energy per Si atom -5568.436007 kJ/mol
# Density = 1.788311 g / cm^3
# Si number density = 17.923905 Si / 1000 Ang^3
#
#
#
# Elastic Constant Matrix: (Units=GPa)
#
#
# Indices 1 2 3 4 5 6 
#
# 1 108.2673 37.1507 55.6319 0.0000 0.0000 0.0000
# 2 37.1507 119.3875 37.3316 0.0000 0.0000 0.0000
# 3 55.6319 37.3316 80.1683 0.0000 0.0000 0.0000
# 4 0.0000 0.0000 0.0000 -4.0900 0.0000 0.0000
# 5 0.0000 0.0000 0.0000 0.0000 24.8374 0.0000
# 6 0.0000 0.0000 0.0000 0.0000 0.0000 20.3192
#
#
#
# Elastic Compliance Matrix: (Units=1/GPa)
#
#
# Indices 1 2 3 4 5 6 
#
# 1 0.014615 -0.001611 -0.009392 0.000000 0.000000 0.000000
# 2 -0.001611 0.009981 -0.003530 0.000000 0.000000 0.000000
# 3 -0.009392 -0.003530 0.020635 0.000000 0.000000 0.000000
# 4 0.000000 0.000000 0.000000 -0.244500 0.000000 0.000000
# 5 0.000000 0.000000 0.000000 0.000000 0.040262 0.000000
# 6 0.000000 0.000000 0.000000 0.000000 0.000000 0.049214
#
#
# Mechanical properties :
#
#
# Convention : Reuss Voigt Hill
#
# Bulk Modulus (GPa) = 61.85980 63.11685 62.48833
# Shear Modulus (GPa) = -66.36662 20.06058 -23.15302
#
# Velocity S-wave (km/s) = -6.09157 3.34909 -3.59798
# Velocity P-wave (km/s) = 3.85862 7.08840 4.20455
#
# Compressibility (1/GPa) = 0.01616559
#
# Stress axis : x y z
#
# Youngs Moduli (GPa) = 68.42255 100.18832 48.46197
#
# Poissons Ratio (x) = 0.16142 0.45514
# Poissons Ratio (y) = 0.11024 0.17106
# Poissons Ratio (z) = 0.64260 0.35365
#
# Static dielectric constant tensor:
#      x y z
#    x 1.649350 0.000000 0.000000 
#    y 0.000000 1.669710 0.000000 
#    z 0.000000 0.000000 1.601020 
# 
# From -- ./inp_files/28443.got.cif
#   From: 2010.05.17/outbox.cif.g08.bks.cpg/sg51_15_cif.got.tgz:28443.got - 2010.06.03 11:52:47.
