data_PCOD9401881
_publ_section_title
;
Structure prediction by ZEFSAII (Michael W. Deem and Ramdas Pophale) SiO2 
 PCOD9401881
Probable space group: P M M A
;
_chemical_formula_sum "Si O2"
_cell_formula_units_Z 48
_cell_length_a 31.972692
_cell_length_b 8.235471
_cell_length_c 9.687855
_cell_angle_alpha 90.000000
_cell_angle_beta 90.000000
_cell_angle_gamma 90.000000
_cell_volume 2550.910822
_symmetry_space_group_name_H-M "P M M A"
_symmetry_group_IT_number 51
_symmetry_cell_setting 'orthorhombic'
loop_
_space_group_symop_operation_xyz
x,y,z
1/2-x,-y,z
1/2+x,-y,-z
-x,y,-z
-x,-y,-z
1/2+x,y,-z
1/2-x,y,z
x,-y,z
loop_
_atom_site_type_symbol
_atom_site_label
_atom_site_fract_x
_atom_site_fract_y
_atom_site_fract_z
Si Si1 0.750000 0.302286 0.973803
Si Si2 0.618606 0.192917 0.309093
Si Si3 0.154072 0.307421 0.970710
Si Si4 0.952734 0.198235 0.526921
Si Si5 0.664787 0.316351 0.546584
Si Si6 0.250000 0.193297 0.342065
Si Si7 0.105335 0.815643 0.239004
O O1 0.750000 0.500000 0.969388
O O2 0.796482 0.253002 0.032171
O O3 0.750000 0.231151 0.819877
O O4 0.625181 0.233890 0.149784
O O5 0.577482 0.244827 0.397893
O O6 0.656061 0.283468 0.387751
O O7 0.621986 0.000000 0.324939
O O8 0.155141 0.500000 0.953809
O O9 0.130264 0.268796 0.114770
O O10 0.934877 0.253400 0.677100
O O11 0.000000 0.251393 0.500000
O O12 0.952231 0.000000 0.532286
O O13 0.652481 0.500000 0.583532
O O14 0.710976 0.279699 0.589784
O O15 0.637559 0.189900 0.633633
O O16 0.250000 0.000000 0.364496
O O17 0.096401 0.000000 0.195267
#
# Coordination Sequence:
#
# PCOD9401881 Si02
#       7
#     4   8   8   8   8   4   8
#     4  10  22  37  54  77 108 152 194 230 272 331
#     4  10  21  37  57  82 112 144 187 235 282 336
#     4  11  22  37  56  79 114 154 192 230 283 339
#     4   8  16  34  60  86 110 140 183 237 289 339
#     4  11  21  35  54  77 109 146 184 226 280 335
#     4  12  22  33  54  81 108 140 190 242 274 315
#     4  10  19  33  56  84 110 142 188 233 276 331
#
# _framework density 18.816808999999999
#
# number of rings (size 3 to 8) (size 9 to 14) (size 15 to 20)
#    0.000    1.833    1.667    4.750    0.000    1.333 
#    0.000    3.333    0.000   23.000    0.000    0.000 
#    0.000    0.000    0.000    0.000    0.000    0.000 
#
# Total GULP energy -267230.723859 kJ/mol
# GULP energy per Si atom -5567.306747 kJ/mol
# Density = 1.877398 g / cm^3
# Si number density = 18.816809 Si / 1000 Ang^3
#
#
#
# Elastic Constant Matrix: (Units=GPa)
#
#
# Indices 1 2 3 4 5 6 
#
# 1 105.6670 14.3270 38.3150 0.0000 0.0000 0.0000
# 2 14.3270 48.4507 12.5065 0.0000 0.0000 0.0000
# 3 38.3150 12.5065 91.0479 0.0000 0.0000 0.0000
# 4 0.0000 0.0000 0.0000 -146.4538 0.0000 0.0000
# 5 0.0000 0.0000 0.0000 0.0000 7.6250 0.0000
# 6 0.0000 0.0000 0.0000 0.0000 0.0000 85.5805
#
#
#
# Elastic Compliance Matrix: (Units=1/GPa)
#
#
# Indices 1 2 3 4 5 6 
#
# 1 0.011391 -0.002209 -0.004490 0.000000 0.000000 0.000000
# 2 -0.002209 0.021827 -0.002068 0.000000 0.000000 0.000000
# 3 -0.004490 -0.002068 0.013157 0.000000 0.000000 0.000000
# 4 0.000000 0.000000 0.000000 -0.006828 0.000000 0.000000
# 5 0.000000 0.000000 0.000000 0.000000 0.131147 0.000000
# 6 0.000000 0.000000 0.000000 0.000000 0.000000 0.011685
#
#
# Mechanical properties :
#
#
# Convention : Reuss Voigt Hill
#
# Bulk Modulus (GPa) = 34.67526 41.71805 38.19666
# Shear Modulus (GPa) = 23.86309 1.35147 12.60728
#
# Velocity S-wave (km/s) = 3.56501 0.84840 2.59125
# Velocity P-wave (km/s) = 5.95093 4.81440 5.41258
#
# Compressibility (1/GPa) = 0.02883901
#
# Stress axis : x y z
#
# Youngs Moduli (GPa) = 87.78518 45.81528 76.00538
#
# Poissons Ratio (x) = 0.10122 0.34129
# Poissons Ratio (y) = 0.19395 0.15721
# Poissons Ratio (z) = 0.39418 0.09476
#
# Static dielectric constant tensor:
#      x y z
#    x 1.834680 0.000000 0.000000 
#    y 0.000000 1.667100 0.000000 
#    z 0.000000 0.000000 1.642640 
# 
# From -- ./inp_files/12866.got.cif
#   From: 2010.05.17/outbox.cif.g08.bks.cpg/sg51_7_cif.got.tgz:12866.got - 2010.06.03 11:52:47.
