data_PCOD9401472
_publ_section_title
;
Structure prediction by ZEFSAII (Michael W. Deem and Ramdas Pophale) SiO2 
 PCOD9401472
Probable space group: P M M A
;
_chemical_formula_sum "Si O2"
_cell_formula_units_Z 64
_cell_length_a 16.680891
_cell_length_b 37.942833
_cell_length_c 5.204519
_cell_angle_alpha 90.000000
_cell_angle_beta 90.000000
_cell_angle_gamma 90.000000
_cell_volume 3294.045526
_symmetry_space_group_name_H-M "P M M A"
_symmetry_group_IT_number 51
_symmetry_cell_setting 'orthorhombic'
loop_
_space_group_symop_operation_xyz
x,y,z
1/2-x,-y,z
1/2+x,-y,-z
-x,y,-z
-x,-y,-z
1/2+x,y,-z
1/2-x,y,z
x,-y,z
loop_
_atom_site_type_symbol
_atom_site_label
_atom_site_fract_x
_atom_site_fract_y
_atom_site_fract_z
Si Si1 0.846000 0.803864 0.736850
Si Si2 0.444211 0.266732 0.249828
Si Si3 0.846775 0.152551 0.232709
Si Si4 0.944012 0.654442 0.749391
Si Si5 0.656775 0.958969 0.898184
Si Si6 0.589997 0.923449 0.395643
Si Si7 0.653287 0.416261 0.774074
Si Si8 0.847902 0.540457 0.273198
O O1 0.750000 0.801517 0.756280
O O2 0.883193 0.765411 0.763351
O O3 0.866063 0.820358 0.461183
O O4 0.872960 0.830400 0.963101
O O5 0.500000 0.262849 0.500000
O O6 0.407438 0.306114 0.258807
O O7 0.500000 0.265218 0.000000
O O8 0.750000 0.147652 0.224972
O O9 0.885904 0.115505 0.303306
O O10 0.881670 0.622743 0.757654
O O11 0.000000 0.650721 0.500000
O O12 0.000000 0.652355 0.000000
O O13 0.750000 0.954717 0.973307
O O14 0.641199 0.936489 0.641072
O O15 0.641931 0.000000 0.838054
O O16 0.604867 0.947274 0.143719
O O17 0.500000 0.924584 0.500000
O O18 0.750000 0.414693 0.774853
O O19 0.627581 0.439674 0.531373
O O20 0.626555 0.436511 0.030171
O O21 0.750000 0.539552 0.270780
O O22 0.875137 0.500000 0.261778
#
# Coordination Sequence:
#
# PCOD9401472 Si02
#       8
#     8   8   8   8   8   8   8   8
#     4  10  21  37  59  85 112 145 185 231 277 321
#     4  10  21  37  57  81 109 145 183 220 270 331
#     4  10  21  38  59  84 117 154 187 223 277 341
#     4  10  21  37  55  76 108 146 178 215 272 330
#     4  11  24  43  66  89 118 161 204 241 293 358
#     4  12  25  40  62  93 124 155 197 249 296 338
#     4  10  19  32  54  80 102 134 181 225 265 315
#     4   9  17  30  50  77 106 134 171 222 274 321
#
# _framework density 19.428996999999999
#
# number of rings (size 3 to 8) (size 9 to 14) (size 15 to 20)
#    0.000    1.750    0.000    4.500    0.000    7.000 
#    0.000    0.000    0.000   16.500    0.000    0.000 
#    0.000    0.000    0.000    0.000    0.000    0.000 
#
# Total GULP energy -357648.611739 kJ/mol
# GULP energy per Si atom -5588.259558 kJ/mol
# Density = 1.938478 g / cm^3
# Si number density = 19.428997 Si / 1000 Ang^3
#
#
#
# Elastic Constant Matrix: (Units=GPa)
#
#
# Indices 1 2 3 4 5 6 
#
# 1 12.3988 20.0446 2.7161 0.0000 0.0000 0.0000
# 2 20.0446 96.0350 -1.6510 0.0000 0.0000 0.0000
# 3 2.7161 -1.6510 99.3859 0.0000 0.0000 0.0000
# 4 0.0000 0.0000 0.0000 35.6486 0.0000 0.0000
# 5 0.0000 0.0000 0.0000 0.0000 14.8503 0.0000
# 6 0.0000 0.0000 0.0000 0.0000 0.0000 34.8270
#
#
#
# Elastic Compliance Matrix: (Units=1/GPa)
#
#
# Indices 1 2 3 4 5 6 
#
# 1 0.123141 -0.025767 -0.003793 0.000000 0.000000 0.000000
# 2 -0.025767 0.015808 0.000967 0.000000 0.000000 0.000000
# 3 -0.003793 0.000967 0.010182 0.000000 0.000000 0.000000
# 4 0.000000 0.000000 0.000000 0.028052 0.000000 0.000000
# 5 0.000000 0.000000 0.000000 0.000000 0.067339 0.000000
# 6 0.000000 0.000000 0.000000 0.000000 0.000000 0.028713
#
#
# Mechanical properties :
#
#
# Convention : Reuss Voigt Hill
#
# Bulk Modulus (GPa) = 10.87641 27.78212 19.32927
# Shear Modulus (GPa) = 13.84778 29.51252 21.68015
#
# Velocity S-wave (km/s) = 2.67261 3.90166 3.34408
# Velocity P-wave (km/s) = 3.89024 5.88452 4.98806
#
# Compressibility (1/GPa) = 0.09194211
#
# Stress axis : x y z
#
# Youngs Moduli (GPa) = 8.12079 63.26038 98.21719
#
# Poissons Ratio (x) = 1.63005 0.37258
# Poissons Ratio (y) = 0.20925 -0.09496
# Poissons Ratio (z) = 0.03081 -0.06116
#
# Static dielectric constant tensor:
#      x y z
#    x 1.669260 0.000000 0.000000 
#    y 0.000000 1.660190 0.000000 
#    z 0.000000 0.000000 1.665420 
# 
# From -- ./inp_files/2112.got.cif
#   From: 2010.05.17/outbox.cif.g08.bks.cpg/sg51_2_cif.got.tgz:2112.got - 2010.06.03 11:52:47.
