data_PCOD9401858
_publ_section_title
;
Structure prediction by ZEFSAII (Michael W. Deem and Ramdas Pophale) SiO2 
 PCOD9401858
Probable space group: P M M A
;
_chemical_formula_sum "Si O2"
_cell_formula_units_Z 48
_cell_length_a 18.649511
_cell_length_b 8.295541
_cell_length_c 17.050118
_cell_angle_alpha 90.000000
_cell_angle_beta 90.000000
_cell_angle_gamma 90.000000
_cell_volume 2637.785958
_symmetry_space_group_name_H-M "P M M A"
_symmetry_group_IT_number 51
_symmetry_cell_setting 'orthorhombic'
loop_
_space_group_symop_operation_xyz
x,y,z
1/2-x,-y,z
1/2+x,-y,-z
-x,y,-z
-x,-y,-z
1/2+x,y,-z
1/2-x,y,z
x,-y,z
loop_
_atom_site_type_symbol
_atom_site_label
_atom_site_fract_x
_atom_site_fract_y
_atom_site_fract_z
Si Si1 0.546197 0.196146 0.242593
Si Si2 0.525812 0.194755 0.915291
Si Si3 0.831090 0.194339 0.353923
Si Si4 0.101730 0.193168 0.324120
Si Si5 0.669885 0.307070 0.834885
Si Si6 0.082762 0.692333 0.494957
O O1 0.526337 0.250931 0.155191
O O2 0.619092 0.253457 0.282401
O O3 0.478846 0.241632 0.297447
O O4 0.547780 0.000000 0.241018
O O5 0.606087 0.242140 0.889675
O O6 0.523375 0.000000 0.916248
O O7 0.500000 0.253789 0.000000
O O8 0.750000 0.256301 0.351968
O O9 0.870872 0.237432 0.434402
O O10 0.828477 0.000000 0.348831
O O11 0.152285 0.253930 0.254227
O O12 0.114392 0.260578 0.410430
O O13 0.105167 0.000000 0.326257
O O14 0.750000 0.251518 0.856576
O O15 0.668011 0.500000 0.838021
O O16 0.081791 0.500000 0.502319
O O17 0.000000 0.751580 0.500000
#
# Coordination Sequence:
#
# PCOD9401858 Si02
#       6
#     8   8   8   8   8   8
#     4   8  15  30  51  75 101 131 167 213 259 304
#     4   9  18  34  57  84 111 140 179 222 264 318
#     4  10  20  34  52  73 100 137 180 222 265 312
#     4  10  19  33  56  78 101 137 179 222 265 314
#     4  10  21  36  54  79 113 146 177 221 275 326
#     4  11  22  34  51  76 106 140 179 223 269 318
#
# _framework density 18.197078999999999
#
# number of rings (size 3 to 8) (size 9 to 14) (size 15 to 20)
#    0.000    2.333    1.667    2.500    0.000    3.333 
#    0.000    0.833    0.000    3.000    0.000    0.000 
#    0.000    0.000    0.000    0.000    0.000    0.000 
#
# Total GULP energy -267772.103415 kJ/mol
# GULP energy per Si atom -5578.585488 kJ/mol
# Density = 1.815566 g / cm^3
# Si number density = 18.197079 Si / 1000 Ang^3
#
#
#
# Elastic Constant Matrix: (Units=GPa)
#
#
# Indices 1 2 3 4 5 6 
#
# 1 147.4304 12.6082 90.1353 0.0000 0.0000 0.0000
# 2 12.6082 12.3784 5.5957 0.0000 0.0000 0.0000
# 3 90.1353 5.5957 147.4272 0.0000 0.0000 0.0000
# 4 0.0000 0.0000 0.0000 6.7436 0.0000 0.0000
# 5 0.0000 0.0000 0.0000 0.0000 18.7217 0.0000
# 6 0.0000 0.0000 0.0000 0.0000 0.0000 17.2288
#
#
#
# Elastic Compliance Matrix: (Units=1/GPa)
#
#
# Indices 1 2 3 4 5 6 
#
# 1 0.011712 -0.008844 -0.006825 0.000000 0.000000 0.000000
# 2 -0.008844 0.088875 0.002034 0.000000 0.000000 0.000000
# 3 -0.006825 0.002034 0.010878 0.000000 0.000000 0.000000
# 4 0.000000 0.000000 0.000000 0.148289 0.000000 0.000000
# 5 0.000000 0.000000 0.000000 0.000000 0.053414 0.000000
# 6 0.000000 0.000000 0.000000 0.000000 0.000000 0.058042
#
#
# Mechanical properties :
#
#
# Convention : Reuss Voigt Hill
#
# Bulk Modulus (GPa) = 11.87721 58.21270 35.04496
# Shear Modulus (GPa) = 11.72211 21.79862 16.76037
#
# Velocity S-wave (km/s) = 2.54081 3.46485 3.03817
# Velocity P-wave (km/s) = 3.89215 6.93300 5.62207
#
# Compressibility (1/GPa) = 0.08419484
#
# Stress axis : x y z
#
# Youngs Moduli (GPa) = 85.38521 11.25182 91.92576
#
# Poissons Ratio (x) = 0.09951 0.62736
# Poissons Ratio (y) = 0.75514 -0.18696
# Poissons Ratio (z) = 0.58273 -0.02288
#
# Static dielectric constant tensor:
#      x y z
#    x 1.634480 0.000000 0.000000 
#    y 0.000000 1.622100 0.000000 
#    z 0.000000 0.000000 1.610600 
# 
# From -- ./inp_files/30022.got.cif
#   From: 2010.05.17/outbox.cif.g08.bks.cpg/sg51_16_cif.got.tgz:30022.got - 2010.06.03 11:52:47.
