data_PCOD9401388
_publ_section_title
;
Structure prediction by ZEFSAII (Michael W. Deem and Ramdas Pophale) SiO2 
 PCOD9401388
Probable space group: P M M A
;
_chemical_formula_sum "Si O2"
_cell_formula_units_Z 40
_cell_length_a 27.246399
_cell_length_b 8.749345
_cell_length_c 9.146932
_cell_angle_alpha 90.000000
_cell_angle_beta 90.000000
_cell_angle_gamma 90.000000
_cell_volume 2180.520151
_symmetry_space_group_name_H-M "P M M A"
_symmetry_group_IT_number 51
_symmetry_cell_setting 'orthorhombic'
loop_
_space_group_symop_operation_xyz
x,y,z
1/2-x,-y,z
1/2+x,-y,-z
-x,y,-z
-x,-y,-z
1/2+x,y,-z
1/2-x,y,z
x,-y,z
loop_
_atom_site_type_symbol
_atom_site_label
_atom_site_fract_x
_atom_site_fract_y
_atom_site_fract_z
Si Si1 0.003445 0.317330 0.328205
Si Si2 0.303620 0.316812 0.166887
Si Si3 0.403839 0.683091 0.839204
Si Si4 0.803578 0.816808 0.163129
Si Si5 0.096287 0.181406 0.166134
O O1 0.010576 0.500000 0.306852
O O2 0.952293 0.275221 0.250778
O O3 0.000000 0.287236 0.500000
O O4 0.049150 0.231654 0.257166
O O5 0.250000 0.279315 0.232865
O O6 0.308039 0.500000 0.160196
O O7 0.352956 0.246831 0.233331
O O8 0.302608 0.250361 0.001762
O O9 0.400260 0.500000 0.847195
O O10 0.353303 0.747992 0.771357
O O11 0.408736 0.748602 0.003177
O O12 0.750000 0.778535 0.229337
O O13 0.807597 0.000000 0.155839
O O14 0.099893 0.000000 0.154617
#
# Coordination Sequence:
#
# PCOD9401388 Si02
#       5
#     8   8   8   8   8
#     4  10  22  39  55  71  96 131 171 214 256 297
#     4   9  16  27  46  72 101 132 165 202 243 288
#     4  10  19  32  53  77 100 130 167 207 248 292
#     4   9  16  26  43  70 103 133 159 195 244 293
#     4  11  21  32  51  78 106 134 164 203 249 299
#
# _framework density 18.344246999999999
#
# number of rings (size 3 to 8) (size 9 to 14) (size 15 to 20)
#    0.000    2.200    0.000    6.600    0.000    6.800 
#    0.000    0.000    0.000    1.200    0.000    2.800 
#    0.000    0.000    0.000    0.000    0.000    0.000 
#
# Total GULP energy -223033.954938 kJ/mol
# GULP energy per Si atom -5575.848873 kJ/mol
# Density = 1.830249 g / cm^3
# Si number density = 18.344247 Si / 1000 Ang^3
#
#
#
# Elastic Constant Matrix: (Units=GPa)
#
#
# Indices 1 2 3 4 5 6 
#
# 1 220.8576 83.9923 41.6103 0.0000 0.0000 0.0000
# 2 83.9923 87.3849 26.4844 0.0000 0.0000 0.0000
# 3 41.6103 26.4844 24.1312 0.0000 0.0000 0.0000
# 4 0.0000 0.0000 0.0000-1291.6991 0.0000 0.0000
# 5 0.0000 0.0000 0.0000 0.0000 -20.5444 0.0000
# 6 0.0000 0.0000 0.0000 0.0000 0.0000 28.3752
#
#
#
# Elastic Compliance Matrix: (Units=1/GPa)
#
#
# Indices 1 2 3 4 5 6 
#
# 1 0.008070 -0.005303 -0.008094 0.000000 0.000000 0.000000
# 2 -0.005303 0.020632 -0.013500 0.000000 0.000000 0.000000
# 3 -0.008094 -0.013500 0.070214 0.000000 0.000000 0.000000
# 4 0.000000 0.000000 0.000000 -0.000774 0.000000 0.000000
# 5 0.000000 0.000000 0.000000 0.000000 -0.048675 0.000000
# 6 0.000000 0.000000 0.000000 0.000000 0.000000 0.035242
#
#
# Mechanical properties :
#
#
# Convention : Reuss Voigt Hill
#
# Bulk Modulus (GPa) = 22.16267 70.72751 46.44509
# Shear Modulus (GPa) = 32.56381 -244.75455 -106.09537
#
# Velocity S-wave (km/s) = 4.21782 -11.56342 -7.61323
# Velocity P-wave (km/s) = 5.98563 11.81712 7.20473
#
# Compressibility (1/GPa) = 0.04512092
#
# Stress axis : x y z
#
# Youngs Moduli (GPa) = 123.92223 48.46753 14.24212
#
# Poissons Ratio (x) = 0.25703 0.11528
# Poissons Ratio (y) = 0.65716 0.19227
# Poissons Ratio (z) = 1.00309 0.65432
#
# Static dielectric constant tensor:
#      x y z
#    x 1.697590 0.000000 0.000000 
#    y 0.000000 1.612630 0.000000 
#    z 0.000000 0.000000 1.587130 
# 
# From -- ./inp_files/12103.got.cif
#   From: 2010.05.17/outbox.cif.g08.bks.cpg/sg51_7_cif.got.tgz:12103.got - 2010.06.03 11:52:47.
