data_PCOD9401670
_publ_section_title
;
Structure prediction by ZEFSAII (Michael W. Deem and Ramdas Pophale) SiO2 
 PCOD9401670
Probable space group: P M M A
;
_chemical_formula_sum "Si O2"
_cell_formula_units_Z 52
_cell_length_a 8.692660
_cell_length_b 23.538209
_cell_length_c 14.656253
_cell_angle_alpha 90.000000
_cell_angle_beta 90.000000
_cell_angle_gamma 90.000000
_cell_volume 2998.810765
_symmetry_space_group_name_H-M "P M M A"
_symmetry_group_IT_number 51
_symmetry_cell_setting 'orthorhombic'
loop_
_space_group_symop_operation_xyz
x,y,z
1/2-x,-y,z
1/2+x,-y,-z
-x,y,-z
-x,-y,-z
1/2+x,y,-z
1/2-x,y,z
x,-y,z
loop_
_atom_site_type_symbol
_atom_site_label
_atom_site_fract_x
_atom_site_fract_y
_atom_site_fract_z
Si Si1 0.566254 0.500000 0.602380
Si Si2 0.935770 0.064842 0.600279
Si Si3 0.433855 0.219378 0.902746
Si Si4 0.434836 0.718646 0.397998
Si Si5 0.434948 0.648393 0.902906
Si Si6 0.435040 0.170193 0.279443
Si Si7 0.564709 0.609109 0.293772
O O1 0.750000 0.500000 0.598084
O O2 0.500000 0.500000 0.500000
O O3 0.506903 0.555336 0.655752
O O4 0.750000 0.066651 0.595855
O O5 0.986349 0.111818 0.673021
O O6 0.000000 0.078448 0.500000
O O7 0.981759 0.000000 0.622687
O O8 0.250000 0.218451 0.905339
O O9 0.483441 0.285537 0.889745
O O10 0.493492 0.182868 0.818545
O O11 0.500000 0.200552 0.000000
O O12 0.500000 0.719845 0.500000
O O13 0.250000 0.712587 0.400166
O O14 0.473463 0.776971 0.345604
O O15 0.507703 0.666018 0.343805
O O16 0.250000 0.647649 0.907869
O O17 0.481166 0.613928 0.812832
O O18 0.500000 0.628617 0.000000
O O19 0.250000 0.168772 0.270362
O O20 0.750000 0.606228 0.298603
#
# Coordination Sequence:
#
# PCOD9401670 Si02
#       7
#     4   8   8   8   8   8   8
#     4  12  26  44  63  84 107 144 187 226 270 320
#     4   9  18  33  52  75 106 145 187 228 271 321
#     4  10  19  33  53  80 110 143 177 219 270 325
#     4  11  22  34  51  77 109 142 176 221 271 322
#     4   9  19  34  56  83 111 141 175 216 266 319
#     4  10  20  33  51  78 109 142 180 223 273 324
#     4  11  22  40  60  82 110 143 181 223 268 320
#
# _framework density 17.340206999999999
#
# number of rings (size 3 to 8) (size 9 to 14) (size 15 to 20)
#    0.000    1.846    1.538    3.000    0.000    3.077 
#    0.000    0.385    0.000    0.462    0.000    0.000 
#    0.000    0.000    0.000    0.000    0.000    0.000 
#
# Total GULP energy -290386.282093 kJ/mol
# GULP energy per Si atom -5584.351579 kJ/mol
# Density = 1.730074 g / cm^3
# Si number density = 17.340207 Si / 1000 Ang^3
#
#
#
# Elastic Constant Matrix: (Units=GPa)
#
#
# Indices 1 2 3 4 5 6 
#
# 1 47.6177 43.1063 54.2382 0.0000 0.0000 0.0000
# 2 43.1063 107.7876 91.6457 0.0000 0.0000 0.0000
# 3 54.2382 91.6457 195.3818 0.0000 0.0000 0.0000
# 4 0.0000 0.0000 0.0000 29.2072 0.0000 0.0000
# 5 0.0000 0.0000 0.0000 0.0000 34.4357 0.0000
# 6 0.0000 0.0000 0.0000 0.0000 0.0000 7.8140
#
#
#
# Elastic Compliance Matrix: (Units=1/GPa)
#
#
# Indices 1 2 3 4 5 6 
#
# 1 0.036042 -0.009826 -0.005397 0.000000 0.000000 0.000000
# 2 -0.009826 0.018111 -0.005767 0.000000 0.000000 0.000000
# 3 -0.005397 -0.005767 0.009322 0.000000 0.000000 0.000000
# 4 0.000000 0.000000 0.000000 0.034238 0.000000 0.000000
# 5 0.000000 0.000000 0.000000 0.000000 0.029040 0.000000
# 6 0.000000 0.000000 0.000000 0.000000 0.000000 0.127975
#
#
# Mechanical properties :
#
#
# Convention : Reuss Voigt Hill
#
# Bulk Modulus (GPa) = 46.52187 80.97417 63.74802
# Shear Modulus (GPa) = 16.45433 25.07783 20.76608
#
# Velocity S-wave (km/s) = 3.08378 3.80705 3.46434
# Velocity P-wave (km/s) = 6.29021 8.13164 7.26947
#
# Compressibility (1/GPa) = 0.02149527
#
# Stress axis : x y z
#
# Youngs Moduli (GPa) = 27.74535 55.21638 107.27870
#
# Poissons Ratio (x) = 0.54253 0.57894
# Poissons Ratio (y) = 0.27261 0.61871
# Poissons Ratio (z) = 0.14973 0.31845
#
# Static dielectric constant tensor:
#      x y z
#    x 1.584070 0.000000 0.000000 
#    y 0.000000 1.578280 0.000000 
#    z 0.000000 0.000000 1.568830 
# 
# From -- ./inp_files/21624.got.cif
#   From: 2010.05.17/outbox.cif.g08.bks.cpg/sg51_11_cif.got.tgz:21624.got - 2010.06.03 11:52:47.
