data_PCOD9401922
_publ_section_title
;
Structure prediction by ZEFSAII (Michael W. Deem and Ramdas Pophale) SiO2 
 PCOD9401922
Probable space group: P M M A
;
_chemical_formula_sum "Si O2"
_cell_formula_units_Z 64
_cell_length_a 8.628099
_cell_length_b 32.092778
_cell_length_c 14.769357
_cell_angle_alpha 90.000000
_cell_angle_beta 90.000000
_cell_angle_gamma 90.000000
_cell_volume 4089.630017
_symmetry_space_group_name_H-M "P M M A"
_symmetry_group_IT_number 51
_symmetry_cell_setting 'orthorhombic'
loop_
_space_group_symop_operation_xyz
x,y,z
1/2-x,-y,z
1/2+x,-y,-z
-x,y,-z
-x,-y,-z
1/2+x,y,-z
1/2-x,y,z
x,-y,z
loop_
_atom_site_type_symbol
_atom_site_label
_atom_site_fract_x
_atom_site_fract_y
_atom_site_fract_z
Si Si1 0.437133 0.122630 0.286592
Si Si2 0.563762 0.716665 0.284897
Si Si3 0.937379 0.363923 0.397777
Si Si4 0.936353 0.794777 0.601671
Si Si5 0.063541 0.158251 0.096559
Si Si6 0.064597 0.952147 0.599246
Si Si7 0.064166 0.255735 0.097389
Si Si8 0.562790 0.455225 0.397327
O O1 0.250000 0.120501 0.287211
O O2 0.481789 0.162109 0.349047
O O3 0.488371 0.132544 0.184143
O O4 0.503449 0.080588 0.328224
O O5 0.750000 0.718240 0.284935
O O6 0.512842 0.674348 0.335221
O O7 0.499702 0.756042 0.340778
O O8 0.502840 0.719845 0.182726
O O9 0.750000 0.363098 0.402482
O O10 0.985210 0.409801 0.361033
O O11 0.000000 0.359053 0.500000
O O12 0.750000 0.792643 0.600383
O O13 0.000000 0.793471 0.500000
O O14 0.250000 0.157223 0.093845
O O15 0.018168 0.206861 0.108621
O O16 0.000000 0.143767 0.000000
O O17 0.250000 0.950674 0.596066
O O18 0.000000 0.940907 0.500000
O O19 0.016520 0.000000 0.618119
O O20 0.250000 0.257764 0.097768
O O21 0.000000 0.269497 0.000000
O O22 0.500000 0.455401 0.500000
O O23 0.750000 0.455295 0.399242
O O24 0.513443 0.500000 0.356006
#
# Coordination Sequence:
#
# PCOD9401922 Si02
#       8
#     8   8   8   8   8   8   8   8
#     4  10  20  35  53  74  99 125 158 196 235 277
#     4  11  21  32  46  66  93 128 162 193 233 280
#     4   9  18  29  41  61  89 122 161 197 232 279
#     4  11  22  35  47  66  96 128 163 200 232 274
#     4   9  18  33  51  74  98 122 152 192 234 276
#     4  10  21  36  54  77 102 128 159 194 234 280
#     4  10  19  34  52  71  94 121 156 198 238 280
#     4   8  13  23  39  57  79 110 149 194 238 276
#
# _framework density 15.649338
#
# number of rings (size 3 to 8) (size 9 to 14) (size 15 to 20)
#    0.000    2.250    1.250    2.250    0.000    5.750 
#    0.000    0.000    0.000    0.375    0.000    0.000 
#    0.000    0.500    0.000    0.875    0.000    1.500 
#
# Total GULP energy -356823.871536 kJ/mol
# GULP energy per Si atom -5575.372993 kJ/mol
# Density = 1.561372 g / cm^3
# Si number density = 15.649338 Si / 1000 Ang^3
#
#
#
# Elastic Constant Matrix: (Units=GPa)
#
#
# Indices 1 2 3 4 5 6 
#
# 1 22.7362 24.0240 26.6411 0.0000 0.0000 0.0000
# 2 24.0240 112.2760 72.6478 0.0000 0.0000 0.0000
# 3 26.6411 72.6478 129.0892 0.0000 0.0000 0.0000
# 4 0.0000 0.0000 0.0000 4.7145 0.0000 0.0000
# 5 0.0000 0.0000 0.0000 0.0000 26.3419 0.0000
# 6 0.0000 0.0000 0.0000 0.0000 0.0000 12.7111
#
#
#
# Elastic Compliance Matrix: (Units=1/GPa)
#
#
# Indices 1 2 3 4 5 6 
#
# 1 0.062129 -0.007859 -0.008399 0.000000 0.000000 0.000000
# 2 -0.007859 0.015001 -0.006820 0.000000 0.000000 0.000000
# 3 -0.008399 -0.006820 0.013318 0.000000 0.000000 0.000000
# 4 0.000000 0.000000 0.000000 0.212113 0.000000 0.000000
# 5 0.000000 0.000000 0.000000 0.000000 0.037962 0.000000
# 6 0.000000 0.000000 0.000000 0.000000 0.000000 0.078671
#
#
# Mechanical properties :
#
#
# Convention : Reuss Voigt Hill
#
# Bulk Modulus (GPa) = 22.57789 56.74746 39.66268
# Shear Modulus (GPa) = 10.41414 18.13938 14.27676
#
# Velocity S-wave (km/s) = 2.58247 3.40827 3.02369
# Velocity P-wave (km/s) = 4.83227 7.19924 6.13106
#
# Compressibility (1/GPa) = 0.04429111
#
# Stress axis : x y z
#
# Youngs Moduli (GPa) = 16.09557 66.66040 75.08483
#
# Poissons Ratio (x) = 0.52391 0.63064
# Poissons Ratio (y) = 0.12650 0.51211
# Poissons Ratio (z) = 0.13519 0.45465
#
# Static dielectric constant tensor:
#      x y z
#    x 1.519080 0.000000 0.000000 
#    y 0.000000 1.543410 0.000000 
#    z 0.000000 0.000000 1.496760 
# 
# From -- ./inp_files/22558.got.cif
#   From: 2010.05.17/outbox.cif.g08.bks.cpg/sg51_12_cif.got.tgz:22558.got - 2010.06.03 11:52:47.
