data_PCOD9401681
_publ_section_title
;
Structure prediction by ZEFSAII (Michael W. Deem and Ramdas Pophale) SiO2 
 PCOD9401681
Probable space group: P M M A
;
_chemical_formula_sum "Si O2"
_cell_formula_units_Z 48
_cell_length_a 8.112710
_cell_length_b 32.494468
_cell_length_c 9.674523
_cell_angle_alpha 90.000000
_cell_angle_beta 90.000000
_cell_angle_gamma 90.000000
_cell_volume 2550.380295
_symmetry_space_group_name_H-M "P M M A"
_symmetry_group_IT_number 51
_symmetry_cell_setting 'orthorhombic'
loop_
_space_group_symop_operation_xyz
x,y,z
1/2-x,-y,z
1/2+x,-y,-z
-x,y,-z
-x,-y,-z
1/2+x,y,-z
1/2-x,y,z
x,-y,z
loop_
_atom_site_type_symbol
_atom_site_label
_atom_site_fract_x
_atom_site_fract_y
_atom_site_fract_z
Si Si1 0.449494 0.877961 0.840010
Si Si2 0.051355 0.788499 0.839294
Si Si3 0.052656 0.698638 0.839919
Si Si4 0.550862 0.954142 0.341290
Si Si5 0.949261 0.453313 0.843548
Si Si6 0.446007 0.621394 0.341895
O O1 0.250000 0.878086 0.834850
O O2 0.506398 0.832974 0.784621
O O3 0.510935 0.916751 0.752656
O O4 0.500000 0.881622 0.000000
O O5 0.250000 0.788414 0.829867
O O6 0.992601 0.743826 0.787868
O O7 0.000000 0.788816 0.000000
O O8 0.250000 0.698960 0.837952
O O9 0.993635 0.661620 0.744985
O O10 0.000000 0.693255 0.000000
O O11 0.500000 0.948186 0.500000
O O12 0.750000 0.954083 0.334825
O O13 0.494110 0.000000 0.298083
O O14 0.750000 0.453724 0.838810
O O15 0.007166 0.500000 0.814741
O O16 0.012162 0.419190 0.736875
O O17 0.000000 0.442601 0.000000
O O18 0.500000 0.623807 0.500000
O O19 0.250000 0.618386 0.340310
#
# Coordination Sequence:
#
# PCOD9401681 Si02
#       6
#     8   8   8   8   8   8
#     4   9  17  30  48  71  98 124 155 196 241 288
#     4   8  15  28  47  70  96 126 158 196 240 286
#     4  10  19  33  54  77 101 131 169 208 247 293
#     4   9  18  32  48  66  91 124 160 197 237 284
#     4   9  19  36  57  80 104 131 166 206 246 292
#     4  11  23  37  53  75 105 138 171 208 252 298
#
# _framework density 18.820722
#
# number of rings (size 3 to 8) (size 9 to 14) (size 15 to 20)
#    0.000    2.667    0.000    1.500    0.000    4.667 
#    0.000    0.833    0.000    2.000    0.000    0.000 
#    0.000    0.000    0.000    0.000    0.000    0.000 
#
# Total GULP energy -267487.487441 kJ/mol
# GULP energy per Si atom -5572.655988 kJ/mol
# Density = 1.877789 g / cm^3
# Si number density = 18.820722 Si / 1000 Ang^3
#
#
#
# Elastic Constant Matrix: (Units=GPa)
#
#
# Indices 1 2 3 4 5 6 
#
# 1 16.2818 19.0750 8.6462 0.0000 0.0000 0.0000
# 2 19.0750 211.0489 111.6319 0.0000 0.0000 0.0000
# 3 8.6462 111.6319 95.1836 0.0000 0.0000 0.0000
# 4 0.0000 0.0000 0.0000 -8.0078 0.0000 0.0000
# 5 0.0000 0.0000 0.0000 0.0000 26.1424 0.0000
# 6 0.0000 0.0000 0.0000 0.0000 0.0000 -18.5104
#
#
#
# Elastic Compliance Matrix: (Units=1/GPa)
#
#
# Indices 1 2 3 4 5 6 
#
# 1 0.068965 -0.007690 0.002754 0.000000 0.000000 0.000000
# 2 -0.007690 0.013338 -0.014944 0.000000 0.000000 0.000000
# 3 0.002754 -0.014944 0.027782 0.000000 0.000000 0.000000
# 4 0.000000 0.000000 0.000000 -0.124879 0.000000 0.000000
# 5 0.000000 0.000000 0.000000 0.000000 0.038252 0.000000
# 6 0.000000 0.000000 0.000000 0.000000 0.000000 -0.054024
#
#
# Mechanical properties :
#
#
# Convention : Reuss Voigt Hill
#
# Bulk Modulus (GPa) = 14.21961 66.80227 40.51094
# Shear Modulus (GPa) = 153.20512 12.13561 82.67036
#
# Velocity S-wave (km/s) = 9.03211 2.54205 6.63480
# Velocity P-wave (km/s) = 10.78628 6.64733 8.95910
#
# Compressibility (1/GPa) = 0.07032544
#
# Stress axis : x y z
#
# Youngs Moduli (GPa) = 14.50011 74.97511 35.99418
#
# Poissons Ratio (x) = 0.57656 -0.09914
# Poissons Ratio (y) = 0.11151 0.53790
# Poissons Ratio (z) = -0.03994 1.12043
#
# Static dielectric constant tensor:
#      x y z
#    x 1.569790 0.000000 0.000000 
#    y 0.000000 1.724100 0.000000 
#    z 0.000000 0.000000 1.590530 
# 
# From -- ./inp_files/6064.got.cif
#   From: 2010.05.17/outbox.cif.g08.bks.cpg/sg51_4_cif.got.tgz:6064.got - 2010.06.03 11:52:47.
