data_PCOD9401219
_publ_section_title
;
Structure prediction by ZEFSAII (Michael W. Deem and Ramdas Pophale) SiO2 
 PCOD9401219
Probable space group: P M M A
;
_chemical_formula_sum "Si O2"
_cell_formula_units_Z 40
_cell_length_a 9.927782
_cell_length_b 7.333237
_cell_length_c 24.182043
_cell_angle_alpha 90.000000
_cell_angle_beta 90.000000
_cell_angle_gamma 90.000000
_cell_volume 1760.519915
_symmetry_space_group_name_H-M "P M M A"
_symmetry_group_IT_number 51
_symmetry_cell_setting 'orthorhombic'
loop_
_space_group_symop_operation_xyz
x,y,z
1/2-x,-y,z
1/2+x,-y,-z
-x,y,-z
-x,-y,-z
1/2+x,y,-z
1/2-x,y,z
x,-y,z
loop_
_atom_site_type_symbol
_atom_site_label
_atom_site_fract_x
_atom_site_fract_y
_atom_site_fract_z
Si Si1 0.750000 0.722892 0.413461
Si Si2 0.595528 0.777705 0.154492
Si Si3 0.466929 0.280322 0.371065
Si Si4 0.103579 0.213575 0.245457
Si Si5 0.592828 0.778056 0.948082
Si Si6 0.750000 0.722329 0.540501
O O1 0.750000 0.500000 0.414407
O O2 0.617464 0.782249 0.381804
O O3 0.750000 0.782377 0.477335
O O4 0.750000 0.715267 0.147773
O O5 0.524491 0.716691 0.211496
O O6 0.491479 0.724096 0.106221
O O7 0.602481 0.000000 0.153310
O O8 0.463792 0.500000 0.371933
O O9 0.414075 0.227255 0.311146
O O10 0.376819 0.220056 0.422741
O O11 0.250000 0.292231 0.230124
O O12 0.109626 0.000000 0.231499
O O13 0.750000 0.718449 0.949675
O O14 0.597532 0.000000 0.948622
O O15 0.500000 0.722483 0.000000
O O16 0.750000 0.500000 0.538672
#
# Coordination Sequence:
#
# PCOD9401219 Si02
#       6
#     4   8   8   8   8   4
#     4   9  18  30  49  75  99 119 148 193 240 284
#     4   9  17  28  42  61  86 120 160 196 235 285
#     4  10  19  32  51  74  96 121 155 195 237 283
#     4  10  20  33  48  66  93 128 162 196 236 284
#     4   9  15  23  37  58  86 119 156 198 240 280
#     4   9  16  30  51  73  95 121 152 189 236 288
#
# _framework density 22.720559999999999
#
# number of rings (size 3 to 8) (size 9 to 14) (size 15 to 20)
#    0.000    2.600    1.000    1.800    1.400    7.200 
#    0.000    0.000    0.000    3.600    0.000    0.000 
#    0.000    0.800    0.000    2.000    0.000    2.600 
#
# Total GULP energy -223404.212740 kJ/mol
# GULP energy per Si atom -5585.105318 kJ/mol
# Density = 2.266885 g / cm^3
# Si number density = 22.720560 Si / 1000 Ang^3
#
#
#
# Elastic Constant Matrix: (Units=GPa)
#
#
# Indices 1 2 3 4 5 6 
#
# 1 232.3894 7.1847 66.1468 0.0000 0.0000 0.0000
# 2 7.1847 86.2617 -6.4733 0.0000 0.0000 0.0000
# 3 66.1468 -6.4733 100.7419 0.0000 0.0000 0.0000
# 4 0.0000 0.0000 0.0000 9.2478 0.0000 0.0000
# 5 0.0000 0.0000 0.0000 0.0000 41.5577 0.0000
# 6 0.0000 0.0000 0.0000 0.0000 0.0000 -11.9326
#
#
#
# Elastic Compliance Matrix: (Units=1/GPa)
#
#
# Indices 1 2 3 4 5 6 
#
# 1 0.005335 -0.000711 -0.003549 0.000000 0.000000 0.000000
# 2 -0.000711 0.011743 0.001221 0.000000 0.000000 0.000000
# 3 -0.003549 0.001221 0.012335 0.000000 0.000000 0.000000
# 4 0.000000 0.000000 0.000000 0.108133 0.000000 0.000000
# 5 0.000000 0.000000 0.000000 0.000000 0.024063 0.000000
# 6 0.000000 0.000000 0.000000 0.000000 0.000000 -0.083804
#
#
# Mechanical properties :
#
#
# Convention : Reuss Voigt Hill
#
# Bulk Modulus (GPa) = 42.85005 61.45661 52.15333
# Shear Modulus (GPa) = 54.54840 31.27690 42.91265
#
# Velocity S-wave (km/s) = 4.90515 3.71427 4.35065
# Velocity P-wave (km/s) = 7.14011 6.74552 6.94562
#
# Compressibility (1/GPa) = 0.02333719
#
# Stress axis : x y z
#
# Youngs Moduli (GPa) = 187.43439 85.15376 81.07061
#
# Poissons Ratio (x) = 0.06052 0.28770
# Poissons Ratio (y) = 0.13320 -0.09900
# Poissons Ratio (z) = 0.66516 -0.10399
#
# Static dielectric constant tensor:
#      x y z
#    x 1.839310 0.000000 0.000000 
#    y 0.000000 1.915540 0.000000 
#    z 0.000000 0.000000 1.783910 
# 
# From -- ./inp_files/31426.got.cif
#   From: 2010.05.17/outbox.cif.g08.bks.cpg/sg51_16_cif.got.tgz:31426.got - 2010.06.03 11:52:47.
