data_PCOD9401452
_publ_section_title
;
Structure prediction by ZEFSAII (Michael W. Deem and Ramdas Pophale) SiO2 
 PCOD9401452
Probable space group: P M M A
;
_chemical_formula_sum "Si O2"
_cell_formula_units_Z 52
_cell_length_a 9.312637
_cell_length_b 21.851400
_cell_length_c 15.024199
_cell_angle_alpha 90.000000
_cell_angle_beta 90.000000
_cell_angle_gamma 90.000000
_cell_volume 3057.336697
_symmetry_space_group_name_H-M "P M M A"
_symmetry_group_IT_number 51
_symmetry_cell_setting 'orthorhombic'
loop_
_space_group_symop_operation_xyz
x,y,z
1/2-x,-y,z
1/2+x,-y,-z
-x,y,-z
-x,-y,-z
1/2+x,y,-z
1/2-x,y,z
x,-y,z
loop_
_atom_site_type_symbol
_atom_site_label
_atom_site_fract_x
_atom_site_fract_y
_atom_site_fract_z
Si Si1 0.577301 0.203423 0.409728
Si Si2 0.922849 0.363410 0.902125
Si Si3 0.080880 0.500000 0.092751
Si Si4 0.578864 0.931792 0.342180
Si Si5 0.915021 0.272343 0.229778
Si Si6 0.911360 0.823652 0.075176
Si Si7 0.084270 0.930730 0.154617
O O1 0.500000 0.222726 0.500000
O O2 0.750000 0.207147 0.417761
O O3 0.542609 0.131230 0.392579
O O4 0.536218 0.246300 0.325549
O O5 0.750000 0.354364 0.912921
O O6 0.950366 0.433217 0.867506
O O7 0.987821 0.318893 0.826866
O O8 0.000000 0.357287 0.000000
O O9 0.250000 0.500000 0.075200
O O10 0.000000 0.500000 0.000000
O O11 0.750000 0.928741 0.322517
O O12 0.489156 0.930355 0.251392
O O13 0.553238 0.000000 0.383432
O O14 0.750000 0.295623 0.237596
O O15 0.908622 0.213047 0.166434
O O16 0.750000 0.834028 0.044573
O O17 0.995036 0.885380 0.094516
O O18 0.000000 0.788210 0.000000
O O19 0.250000 0.911702 0.161698
O O20 0.079167 0.000000 0.120734
#
# Coordination Sequence:
#
# PCOD9401452 Si02
#       7
#     8   8   4   8   8   8   8
#     4  10  21  37  54  77 103 132 169 214 265 318
#     4  10  19  32  53  81 113 149 182 212 251 294
#     4   8  16  30  48  76 113 146 179 214 245 290
#     4   9  17  33  55  74  96 128 163 205 264 323
#     4  10  21  37  53  74 105 137 173 214 255 303
#     4  11  22  36  52  71  97 131 168 208 253 302
#     4  10  20  33  50  72  95 122 162 209 255 305
#
# _framework density 17.008267
#
# number of rings (size 3 to 8) (size 9 to 14) (size 15 to 20)
#    0.000    2.154    1.538    1.846    0.000    5.846 
#    0.000    0.000    0.000    0.000    0.000    0.538 
#    0.000    0.000    0.000    0.000    0.000    0.000 
#
# Total GULP energy -289661.247374 kJ/mol
# GULP energy per Si atom -5570.408603 kJ/mol
# Density = 1.696956 g / cm^3
# Si number density = 17.008267 Si / 1000 Ang^3
#
#
#
# Elastic Constant Matrix: (Units=GPa)
#
#
# Indices 1 2 3 4 5 6 
#
# 1 66.7249 50.5417 44.6213 0.0000 0.0000 0.0000
# 2 50.5417 96.1559 49.5843 0.0000 0.0000 0.0000
# 3 44.6213 49.5843 108.3072 0.0000 0.0000 0.0000
# 4 0.0000 0.0000 0.0000 14.7868 0.0000 0.0000
# 5 0.0000 0.0000 0.0000 0.0000 25.2022 0.0000
# 6 0.0000 0.0000 0.0000 0.0000 0.0000 12.4275
#
#
#
# Elastic Compliance Matrix: (Units=1/GPa)
#
#
# Indices 1 2 3 4 5 6 
#
# 1 0.027781 -0.011389 -0.006231 0.000000 0.000000 0.000000
# 2 -0.011389 0.018283 -0.003678 0.000000 0.000000 0.000000
# 3 -0.006231 -0.003678 0.013484 0.000000 0.000000 0.000000
# 4 0.000000 0.000000 0.000000 0.067628 0.000000 0.000000
# 5 0.000000 0.000000 0.000000 0.000000 0.039679 0.000000
# 6 0.000000 0.000000 0.000000 0.000000 0.000000 0.080467
#
#
# Mechanical properties :
#
#
# Convention : Reuss Voigt Hill
#
# Bulk Modulus (GPa) = 58.99337 62.29807 60.64572
# Shear Modulus (GPa) = 16.91662 18.91269 17.91465
#
# Velocity S-wave (km/s) = 3.15717 3.33824 3.24897
# Velocity P-wave (km/s) = 6.93186 7.18095 7.05751
#
# Compressibility (1/GPa) = 0.01695106
#
# Stress axis : x y z
#
# Youngs Moduli (GPa) = 35.99620 54.69684 74.16167
#
# Poissons Ratio (x) = 0.62293 0.46213
# Poissons Ratio (y) = 0.40996 0.27276
# Poissons Ratio (z) = 0.22431 0.20117
#
# Static dielectric constant tensor:
#      x y z
#    x 1.581540 0.000000 0.000000 
#    y 0.000000 1.623570 0.000000 
#    z 0.000000 0.000000 1.589980 
# 
# From -- ./inp_files/21601.got.cif
#   From: 2010.05.17/outbox.cif.g08.bks.cpg/sg51_11_cif.got.tgz:21601.got - 2010.06.03 11:52:47.
