data_PCOD9401648
_publ_section_title
;
Structure prediction by ZEFSAII (Michael W. Deem and Ramdas Pophale) SiO2 
 PCOD9401648
Probable space group: P M M A
;
_chemical_formula_sum "Si O2"
_cell_formula_units_Z 48
_cell_length_a 31.399744
_cell_length_b 8.458035
_cell_length_c 9.769802
_cell_angle_alpha 90.000000
_cell_angle_beta 90.000000
_cell_angle_gamma 90.000000
_cell_volume 2594.665322
_symmetry_space_group_name_H-M "P M M A"
_symmetry_group_IT_number 51
_symmetry_cell_setting 'orthorhombic'
loop_
_space_group_symop_operation_xyz
x,y,z
1/2-x,-y,z
1/2+x,-y,-z
-x,y,-z
-x,-y,-z
1/2+x,y,-z
1/2-x,y,z
x,-y,z
loop_
_atom_site_type_symbol
_atom_site_label
_atom_site_fract_x
_atom_site_fract_y
_atom_site_fract_z
Si Si1 0.625479 0.813079 0.655770
Si Si2 0.798373 0.692769 0.157402
Si Si3 0.799055 0.309112 0.843578
Si Si4 0.375518 0.691202 0.652366
Si Si5 0.547333 0.692509 0.158485
Si Si6 0.950165 0.308750 0.844589
O O1 0.667262 0.759178 0.738519
O O2 0.625007 0.742354 0.504000
O O3 0.584602 0.756601 0.741818
O O4 0.624986 0.000000 0.645625
O O5 0.750000 0.743374 0.189254
O O6 0.798325 0.500000 0.158658
O O7 0.833855 0.746408 0.264108
O O8 0.808595 0.738890 0.000777
O O9 0.750000 0.264922 0.814147
O O10 0.801619 0.500000 0.838549
O O11 0.375559 0.500000 0.656672
O O12 0.417614 0.746661 0.733493
O O13 0.547418 0.500000 0.159320
O O14 0.498719 0.740578 0.188412
O O15 0.558353 0.738862 0.002450
O O16 0.948475 0.500000 0.839786
#
# Coordination Sequence:
#
# PCOD9401648 Si02
#       6
#     8   8   8   8   8   8
#     4  12  25  36  47  73 113 150 178 207 252 309
#     4   8  15  30  56  86 106 123 161 217 266 309
#     4   9  18  36  62  85 102 128 171 221 268 311
#     4  10  19  33  53  77 106 140 176 214 259 309
#     4   8  16  32  59  86 101 124 172 231 275 308
#     4   9  17  35  60  82 102 128 171 224 273 316
#
# _framework density 18.499495
#
# number of rings (size 3 to 8) (size 9 to 14) (size 15 to 20)
#    0.000    2.667    0.000    4.500    0.000    4.333 
#    0.000   10.833    0.000    1.000    0.000    0.000 
#    0.000    0.000    0.000    0.000    0.000    0.000 
#
# Total GULP energy -267812.158127 kJ/mol
# GULP energy per Si atom -5579.419961 kJ/mol
# Density = 1.845739 g / cm^3
# Si number density = 18.499495 Si / 1000 Ang^3
#
#
#
# Elastic Constant Matrix: (Units=GPa)
#
#
# Indices 1 2 3 4 5 6 
#
# 1 158.1124 28.3993 134.9810 0.0000 0.0000 0.0000
# 2 28.3993 16.1719 22.8128 0.0000 0.0000 0.0000
# 3 134.9810 22.8128 165.8859 0.0000 0.0000 0.0000
# 4 0.0000 0.0000 0.0000 -20.6838 0.0000 0.0000
# 5 0.0000 0.0000 0.0000 0.0000 -6.5893 0.0000
# 6 0.0000 0.0000 0.0000 0.0000 0.0000 -3.1763
#
#
#
# Elastic Compliance Matrix: (Units=1/GPa)
#
#
# Indices 1 2 3 4 5 6 
#
# 1 0.024477 -0.018471 -0.017376 0.000000 0.000000 0.000000
# 2 -0.018471 0.090658 0.002563 0.000000 0.000000 0.000000
# 3 -0.017376 0.002563 0.019815 0.000000 0.000000 0.000000
# 4 0.000000 0.000000 0.000000 -0.048347 0.000000 0.000000
# 5 0.000000 0.000000 0.000000 0.000000 -0.151762 0.000000
# 6 0.000000 0.000000 0.000000 0.000000 0.000000 -0.314837
#
#
# Mechanical properties :
#
#
# Convention : Reuss Voigt Hill
#
# Bulk Modulus (GPa) = 14.62426 79.17293 46.89859
# Shear Modulus (GPa) = -17.20383 4.17528 -6.51428
#
# Velocity S-wave (km/s) = -3.05284 1.50395 -1.87856
# Velocity P-wave (km/s) = 2.12227 6.77540 4.54984
#
# Compressibility (1/GPa) = 0.06837953
#
# Stress axis : x y z
#
# Youngs Moduli (GPa) = 40.85549 11.03047 50.46707
#
# Poissons Ratio (x) = 0.20375 0.87693
# Poissons Ratio (y) = 0.75465 -0.12933
# Poissons Ratio (z) = 0.70992 -0.02827
#
# Static dielectric constant tensor:
#      x y z
#    x 1.639010 0.000000 0.000000 
#    y 0.000000 1.623050 0.000000 
#    z 0.000000 0.000000 1.608700 
# 
# From -- ./inp_files/12811.got.cif
#   From: 2010.05.17/outbox.cif.g08.bks.cpg/sg51_7_cif.got.tgz:12811.got - 2010.06.03 11:52:47.
