data_PCOD9401826
_publ_section_title
;
Structure prediction by ZEFSAII (Michael W. Deem and Ramdas Pophale) SiO2 
 PCOD9401826
Probable space group: P M M A
;
_chemical_formula_sum "Si O2"
_cell_formula_units_Z 48
_cell_length_a 14.077608
_cell_length_b 12.231972
_cell_length_c 14.985016
_cell_angle_alpha 90.000000
_cell_angle_beta 90.000000
_cell_angle_gamma 90.000000
_cell_volume 2580.373405
_symmetry_space_group_name_H-M "P M M A"
_symmetry_group_IT_number 51
_symmetry_cell_setting 'orthorhombic'
loop_
_space_group_symop_operation_xyz
x,y,z
1/2-x,-y,z
1/2+x,-y,-z
-x,y,-z
-x,-y,-z
1/2+x,y,-z
1/2-x,y,z
x,-y,z
loop_
_atom_site_type_symbol
_atom_site_label
_atom_site_fract_x
_atom_site_fract_y
_atom_site_fract_z
Si Si1 0.519449 0.373616 0.103912
Si Si2 0.364174 0.233837 0.765157
Si Si3 0.138091 0.625164 0.251280
Si Si4 0.365422 0.376298 0.591723
Si Si5 0.365608 0.765127 0.420340
Si Si6 0.865924 0.000000 0.516873
Si Si7 0.634101 0.000000 0.307825
O O1 0.553424 0.500000 0.114458
O O2 0.591324 0.287911 0.147536
O O3 0.423852 0.363721 0.162654
O O4 0.500000 0.354978 0.000000
O O5 0.250000 0.232020 0.772155
O O6 0.389266 0.312024 0.681696
O O7 0.396633 0.111260 0.740784
O O8 0.250000 0.641579 0.233364
O O9 0.127164 0.500000 0.284613
O O10 0.106762 0.708399 0.328192
O O11 0.250000 0.381292 0.589263
O O12 0.401970 0.500000 0.591748
O O13 0.393859 0.308200 0.504874
O O14 0.250000 0.766511 0.420431
O O15 0.398018 0.888860 0.435839
O O16 0.892153 0.000000 0.412383
O O17 0.750000 0.000000 0.518760
O O18 0.750000 0.000000 0.307316
#
# Coordination Sequence:
#
# PCOD9401826 Si02
#       7
#     8   8   8   8   8   4   4
#     4  10  22  39  57  79 106 135 175 229 282 329
#     4  10  19  33  55  81 110 142 177 218 266 321
#     4   9  18  34  55  77 104 141 180 217 263 319
#     4   9  15  23  41  72 106 138 171 207 250 305
#     4   9  15  25  45  73 106 141 176 211 250 304
#     4   9  14  24  45  75 108 145 183 214 250 300
#     4   9  16  30  52  79 110 147 184 214 256 314
#
# _framework density 18.601958
#
# number of rings (size 3 to 8) (size 9 to 14) (size 15 to 20)
#    0.000    2.667    1.667    1.000    0.000    3.667 
#    0.000    3.750    0.000    4.000    0.000    3.500 
#    0.000    0.000    0.000    0.000    0.000    0.000 
#
# Total GULP energy -268099.182700 kJ/mol
# GULP energy per Si atom -5585.399640 kJ/mol
# Density = 1.855962 g / cm^3
# Si number density = 18.601958 Si / 1000 Ang^3
#
#
#
# Elastic Constant Matrix: (Units=GPa)
#
#
# Indices 1 2 3 4 5 6 
#
# 1 63.8487 35.3358 22.5116 0.0000 0.0000 0.0000
# 2 35.3358 183.1305 95.3841 0.0000 0.0000 0.0000
# 3 22.5116 95.3841 136.3500 0.0000 0.0000 0.0000
# 4 0.0000 0.0000 0.0000 518.0937 0.0000 0.0000
# 5 0.0000 0.0000 0.0000 0.0000 27.4054 0.0000
# 6 0.0000 0.0000 0.0000 0.0000 0.0000 11.7930
#
#
#
# Elastic Compliance Matrix: (Units=1/GPa)
#
#
# Indices 1 2 3 4 5 6 
#
# 1 0.017595 -0.002961 -0.000834 0.000000 0.000000 0.000000
# 2 -0.002961 0.009089 -0.005869 0.000000 0.000000 0.000000
# 3 -0.000834 -0.005869 0.011578 0.000000 0.000000 0.000000
# 4 0.000000 0.000000 0.000000 0.001930 0.000000 0.000000
# 5 0.000000 0.000000 0.000000 0.000000 0.036489 0.000000
# 6 0.000000 0.000000 0.000000 0.000000 0.000000 0.084796
#
#
# Mechanical properties :
#
#
# Convention : Reuss Voigt Hill
#
# Bulk Modulus (GPa) = 52.81635 76.64358 64.72996
# Shear Modulus (GPa) = 26.72149 126.79828 76.75988
#
# Velocity S-wave (km/s) = 3.79421 8.26510 6.43071
# Velocity P-wave (km/s) = 6.90285 11.50539 9.48744
#
# Compressibility (1/GPa) = 0.01893353
#
# Stress axis : x y z
#
# Youngs Moduli (GPa) = 56.83587 110.02370 86.37324
#
# Poissons Ratio (x) = 0.32575 0.07201
# Poissons Ratio (y) = 0.16827 0.50696
# Poissons Ratio (z) = 0.04739 0.64577
#
# Static dielectric constant tensor:
#      x y z
#    x 1.698250 0.000000 0.000000 
#    y 0.000000 1.642500 0.000000 
#    z 0.000000 0.000000 1.588990 
# 
# From -- ./inp_files/24077.got.cif
#   From: 2010.05.17/outbox.cif.g08.bks.cpg/sg51_13_cif.got.tgz:24077.got - 2010.06.03 11:52:47.
