data_PCOD9401857
_publ_section_title
;
Structure prediction by ZEFSAII (Michael W. Deem and Ramdas Pophale) SiO2 
 PCOD9401857
Probable space group: P M M A
;
_chemical_formula_sum "Si O2"
_cell_formula_units_Z 48
_cell_length_a 19.129068
_cell_length_b 8.106487
_cell_length_c 15.204693
_cell_angle_alpha 90.000000
_cell_angle_beta 90.000000
_cell_angle_gamma 90.000000
_cell_volume 2357.784766
_symmetry_space_group_name_H-M "P M M A"
_symmetry_group_IT_number 51
_symmetry_cell_setting 'orthorhombic'
loop_
_space_group_symop_operation_xyz
x,y,z
1/2-x,-y,z
1/2+x,-y,-z
-x,y,-z
-x,-y,-z
1/2+x,y,-z
1/2-x,y,z
x,-y,z
loop_
_atom_site_type_symbol
_atom_site_label
_atom_site_fract_x
_atom_site_fract_y
_atom_site_fract_z
Si Si1 0.328977 0.193685 0.766557
Si Si2 0.398164 0.691313 0.936965
Si Si3 0.671140 0.701741 0.529655
Si Si4 0.419901 0.300101 0.309875
Si Si5 0.068116 0.692551 0.620921
Si Si6 0.450894 0.191980 0.117182
O O1 0.250000 0.248495 0.747833
O O2 0.347632 0.220462 0.868305
O O3 0.384334 0.289998 0.707369
O O4 0.335150 0.000000 0.745823
O O5 0.379929 0.500000 0.942111
O O6 0.476858 0.709705 0.897893
O O7 0.402129 0.766355 0.034309
O O8 0.750000 0.758527 0.511723
O O9 0.671869 0.500000 0.524270
O O10 0.643852 0.745066 0.626615
O O11 0.614363 0.762532 0.458671
O O12 0.423006 0.500000 0.304890
O O13 0.491782 0.239432 0.356284
O O14 0.418433 0.234243 0.211092
O O15 0.056788 0.500000 0.599794
O O16 0.469909 0.000000 0.114151
#
# Coordination Sequence:
#
# PCOD9401857 Si02
#       6
#     8   8   8   8   8   8
#     4  11  23  37  54  81 119 156 188 230 287 346
#     4  11  21  36  58  83 111 145 188 233 277 334
#     4   9  18  33  54  81 113 149 191 238 288 338
#     4  10  19  33  55  84 113 147 192 242 284 333
#     4  10  19  33  56  83 111 146 192 241 285 336
#     4  11  21  35  57  83 113 146 182 230 285 339
#
# _framework density 20.358093
#
# number of rings (size 3 to 8) (size 9 to 14) (size 15 to 20)
#    0.000    1.667    1.667    5.500    0.000    4.000 
#    0.000    1.667    0.000    6.500    0.000    0.000 
#    0.000    0.000    0.000    0.000    0.000    0.000 
#
# Total GULP energy -268152.352035 kJ/mol
# GULP energy per Si atom -5586.507334 kJ/mol
# Density = 2.031176 g / cm^3
# Si number density = 20.358093 Si / 1000 Ang^3
#
#
#
# Elastic Constant Matrix: (Units=GPa)
#
#
# Indices 1 2 3 4 5 6 
#
# 1 28.3692 -4.7877 5.4427 0.0000 0.0000 0.0000
# 2 -4.7877 28.5898 -3.4955 0.0000 0.0000 0.0000
# 3 5.4427 -3.4955 114.2117 0.0000 0.0000 0.0000
# 4 0.0000 0.0000 0.0000-1480.3793 0.0000 0.0000
# 5 0.0000 0.0000 0.0000 0.0000 3.5920 0.0000
# 6 0.0000 0.0000 0.0000 0.0000 0.0000 -7.3973
#
#
#
# Elastic Compliance Matrix: (Units=1/GPa)
#
#
# Indices 1 2 3 4 5 6 
#
# 1 0.036550 0.005930 -0.001560 0.000000 0.000000 0.000000
# 2 0.005930 0.036071 0.000821 0.000000 0.000000 0.000000
# 3 -0.001560 0.000821 0.008855 0.000000 0.000000 0.000000
# 4 0.000000 0.000000 0.000000 -0.000676 0.000000 0.000000
# 5 0.000000 0.000000 0.000000 0.000000 0.278395 0.000000
# 6 0.000000 0.000000 0.000000 0.000000 0.000000 -0.135184
#
#
# Mechanical properties :
#
#
# Convention : Reuss Voigt Hill
#
# Bulk Modulus (GPa) = 10.88641 18.38777 14.63709
# Shear Modulus (GPa) = 20.47096 -285.23617 -132.38261
#
# Velocity S-wave (km/s) = 3.17447 -11.84963 -8.07268
# Velocity P-wave (km/s) = 4.33537 13.34790 8.92667
#
# Compressibility (1/GPa) = 0.09185761
#
# Stress axis : x y z
#
# Youngs Moduli (GPa) = 27.36007 27.72317 112.92848
#
# Poissons Ratio (x) = -0.16440 0.17620
# Poissons Ratio (y) = -0.16224 -0.09276
# Poissons Ratio (z) = 0.04269 -0.02277
#
# Static dielectric constant tensor:
#      x y z
#    x 1.706290 0.000000 0.000000 
#    y 0.000000 1.717760 0.000000 
#    z 0.000000 0.000000 1.721030 
# 
# From -- ./inp_files/24771.got.cif
#   From: 2010.05.17/outbox.cif.g08.bks.cpg/sg51_13_cif.got.tgz:24771.got - 2010.06.03 11:52:47.
