data_PCOD9401238
_publ_section_title
;
Structure prediction by ZEFSAII (Michael W. Deem and Ramdas Pophale) SiO2 
 PCOD9401238
Probable space group: P M M A
;
_chemical_formula_sum "Si O2"
_cell_formula_units_Z 48
_cell_length_a 18.836597
_cell_length_b 14.113680
_cell_length_c 10.564888
_cell_angle_alpha 90.000000
_cell_angle_beta 90.000000
_cell_angle_gamma 90.000000
_cell_volume 2808.714590
_symmetry_space_group_name_H-M "P M M A"
_symmetry_group_IT_number 51
_symmetry_cell_setting 'orthorhombic'
loop_
_space_group_symop_operation_xyz
x,y,z
1/2-x,-y,z
1/2+x,-y,-z
-x,y,-z
-x,-y,-z
1/2+x,y,-z
1/2-x,y,z
x,-y,z
loop_
_atom_site_type_symbol
_atom_site_label
_atom_site_fract_x
_atom_site_fract_y
_atom_site_fract_z
Si Si1 0.830867 0.886292 0.629560
Si Si2 0.435487 0.887408 0.146617
Si Si3 0.940686 0.396435 0.107718
Si Si4 0.166215 0.220219 0.630882
Si Si5 0.557717 0.609172 0.394226
Si Si6 0.093186 0.810628 0.883991
O O1 0.750000 0.858961 0.664172
O O2 0.886864 0.857584 0.736277
O O3 0.846776 0.842946 0.492988
O O4 0.833230 0.000000 0.621590
O O5 0.509996 0.831510 0.145865
O O6 0.450598 0.000000 0.154061
O O7 0.395633 0.866920 0.013945
O O8 0.904434 0.500000 0.101148
O O9 0.972007 0.389502 0.250225
O O10 0.895946 0.301283 0.090091
O O11 0.000000 0.394529 0.000000
O O12 0.250000 0.237891 0.642291
O O13 0.122192 0.317009 0.610580
O O14 0.137863 0.169461 0.758265
O O15 0.500000 0.635963 0.500000
O O16 0.579344 0.500000 0.420170
#
# Coordination Sequence:
#
# PCOD9401238 Si02
#       6
#     8   8   8   8   8   8
#     4   9  20  37  53  72 101 137 175 213 258 314
#     4  10  20  34  53  77 102 132 173 217 265 312
#     4   9  16  28  47  73 101 129 160 199 251 299
#     4  10  22  35  52  77 107 142 176 215 263 316
#     4   9  19  33  53  79 105 136 174 215 258 308
#     4  10  19  32  51  76 107 130 167 218 258 306
#
# _framework density 17.089669000000001
#
# number of rings (size 3 to 8) (size 9 to 14) (size 15 to 20)
#    0.000    2.500    1.667    1.000    4.667    2.333 
#    0.000    1.667    0.000    0.000    0.000    0.000 
#    0.000    6.667    0.000    0.000    0.000    0.000 
#
# Total GULP energy -267230.501713 kJ/mol
# GULP energy per Si atom -5567.302119 kJ/mol
# Density = 1.705077 g / cm^3
# Si number density = 17.089669 Si / 1000 Ang^3
#
#
#
# Elastic Constant Matrix: (Units=GPa)
#
#
# Indices 1 2 3 4 5 6 
#
# 1 66.4268 17.8784 66.8573 0.0000 0.0000 0.0000
# 2 17.8784 39.5002 15.6968 0.0000 0.0000 0.0000
# 3 66.8573 15.6968 120.7844 0.0000 0.0000 0.0000
# 4 0.0000 0.0000 0.0000 29.2229 0.0000 0.0000
# 5 0.0000 0.0000 0.0000 0.0000 25.7407 0.0000
# 6 0.0000 0.0000 0.0000 0.0000 0.0000 15.8699
#
#
#
# Elastic Compliance Matrix: (Units=1/GPa)
#
#
# Indices 1 2 3 4 5 6 
#
# 1 0.036812 -0.009031 -0.019203 0.000000 0.000000 0.000000
# 2 -0.009031 0.028910 0.001242 0.000000 0.000000 0.000000
# 3 -0.019203 0.001242 0.018747 0.000000 0.000000 0.000000
# 4 0.000000 0.000000 0.000000 0.034220 0.000000 0.000000
# 5 0.000000 0.000000 0.000000 0.000000 0.038849 0.000000
# 6 0.000000 0.000000 0.000000 0.000000 0.000000 0.063012
#
#
# Mechanical properties :
#
#
# Convention : Reuss Voigt Hill
#
# Bulk Modulus (GPa) = 32.80229 47.50847 40.15538
# Shear Modulus (GPa) = 17.56260 22.58530 20.07395
#
# Velocity S-wave (km/s) = 3.20921 3.63929 3.43100
# Velocity P-wave (km/s) = 5.74177 6.74679 6.26447
#
# Compressibility (1/GPa) = 0.03048568
#
# Stress axis : x y z
#
# Youngs Moduli (GPa) = 27.16515 34.58968 53.34171
#
# Poissons Ratio (x) = 0.31237 1.02431
# Poissons Ratio (y) = 0.24532 -0.06623
# Poissons Ratio (z) = 0.52164 -0.04295
#
# Static dielectric constant tensor:
#      x y z
#    x 1.555040 0.000000 0.000000 
#    y 0.000000 1.604960 0.000000 
#    z 0.000000 0.000000 1.590470 
# 
# From -- ./inp_files/10841.got.cif
#   From: 2010.05.17/outbox.cif.g08.bks.cpg/sg51_6_cif.got.tgz:10841.got - 2010.06.03 11:52:47.
