data_PCOD9401662
_publ_section_title
;
Structure prediction by ZEFSAII (Michael W. Deem and Ramdas Pophale) SiO2 
 PCOD9401662
Probable space group: P M M A
;
_chemical_formula_sum "Si O2"
_cell_formula_units_Z 40
_cell_length_a 9.278805
_cell_length_b 14.528148
_cell_length_c 15.489343
_cell_angle_alpha 90.000000
_cell_angle_beta 90.000000
_cell_angle_gamma 90.000000
_cell_volume 2088.023106
_symmetry_space_group_name_H-M "P M M A"
_symmetry_group_IT_number 51
_symmetry_cell_setting 'orthorhombic'
loop_
_space_group_symop_operation_xyz
x,y,z
1/2-x,-y,z
1/2+x,-y,-z
-x,y,-z
-x,-y,-z
1/2+x,y,-z
1/2-x,y,z
x,-y,z
loop_
_atom_site_type_symbol
_atom_site_label
_atom_site_fract_x
_atom_site_fract_y
_atom_site_fract_z
Si Si1 0.413038 0.398727 0.629294
Si Si2 0.924309 0.000000 0.905815
Si Si3 0.414240 0.635651 0.204539
Si Si4 0.081776 0.186203 0.585594
Si Si5 0.917768 0.849817 0.762826
Si Si6 0.080864 0.500000 0.910850
O O1 0.250000 0.396341 0.668116
O O2 0.420899 0.500000 0.585204
O O3 0.536312 0.396197 0.700943
O O4 0.425857 0.299153 0.584456
O O5 0.962346 0.914397 0.842618
O O6 0.750000 0.000000 0.918766
O O7 0.000000 0.000000 0.000000
O O8 0.250000 0.608780 0.185642
O O9 0.423945 0.745170 0.204484
O O10 0.524968 0.588257 0.140926
O O11 0.250000 0.161778 0.583843
O O12 0.000000 0.153144 0.500000
O O13 0.009325 0.149468 0.674176
O O14 0.750000 0.871811 0.742099
O O15 0.250000 0.500000 0.920526
O O16 0.000000 0.500000 0.000000
#
# Coordination Sequence:
#
# PCOD9401662 Si02
#       6
#     8   4   8   8   8   4
#     4   9  17  30  49  73 105 148 194 236 279 329
#     4  10  22  42  67  94 121 148 183 236 296 356
#     4  10  19  33  53  78 107 143 186 230 280 337
#     4  10  20  34  54  82 117 157 200 244 290 344
#     4   9  20  39  62  87 118 153 190 236 291 349
#     4  12  24  36  50  72 105 144 187 234 282 340
#
# _framework density 19.156874999999999
#
# number of rings (size 3 to 8) (size 9 to 14) (size 15 to 20)
#    0.000    2.200    1.000    2.100    0.000    3.600 
#    0.000    2.500    0.000    0.000    0.000    0.000 
#    0.000    0.000    0.000    0.000    0.000    0.000 
#
# Total GULP energy -222852.370023 kJ/mol
# GULP energy per Si atom -5571.309251 kJ/mol
# Density = 1.911327 g / cm^3
# Si number density = 19.156875 Si / 1000 Ang^3
#
#
#
# Elastic Constant Matrix: (Units=GPa)
#
#
# Indices 1 2 3 4 5 6 
#
# 1 147.8383 34.6464 89.3471 0.0000 0.0000 0.0000
# 2 34.6464 74.4613 43.7437 0.0000 0.0000 0.0000
# 3 89.3471 43.7437 133.4602 0.0000 0.0000 0.0000
# 4 0.0000 0.0000 0.0000 6.3911 0.0000 0.0000
# 5 0.0000 0.0000 0.0000 0.0000 34.9401 0.0000
# 6 0.0000 0.0000 0.0000 0.0000 0.0000 29.1142
#
#
#
# Elastic Compliance Matrix: (Units=1/GPa)
#
#
# Indices 1 2 3 4 5 6 
#
# 1 0.011423 -0.001019 -0.007313 0.000000 0.000000 0.000000
# 2 -0.001019 0.016723 -0.004799 0.000000 0.000000 0.000000
# 3 -0.007313 -0.004799 0.013962 0.000000 0.000000 0.000000
# 4 0.000000 0.000000 0.000000 0.156467 0.000000 0.000000
# 5 0.000000 0.000000 0.000000 0.000000 0.028620 0.000000
# 6 0.000000 0.000000 0.000000 0.000000 0.000000 0.034347
#
#
# Mechanical properties :
#
#
# Convention : Reuss Voigt Hill
#
# Bulk Modulus (GPa) = 63.10992 76.80381 69.95686
# Shear Modulus (GPa) = 17.05981 26.62394 21.84187
#
# Velocity S-wave (km/s) = 2.98742 3.73203 3.38029
# Velocity P-wave (km/s) = 6.70185 7.66484 7.19946
#
# Compressibility (1/GPa) = 0.01584537
#
# Stress axis : x y z
#
# Youngs Moduli (GPa) = 87.54528 59.79709 71.62351
#
# Poissons Ratio (x) = 0.06091 0.52380
# Poissons Ratio (y) = 0.08917 0.34375
# Poissons Ratio (z) = 0.64024 0.28699
#
# Static dielectric constant tensor:
#      x y z
#    x 1.651100 0.000000 0.000000 
#    y 0.000000 1.694860 0.000000 
#    z 0.000000 0.000000 1.700400 
# 
# From -- ./inp_files/20525.got.cif
#   From: 2010.05.17/outbox.cif.g08.bks.cpg/sg51_11_cif.got.tgz:20525.got - 2010.06.03 11:52:47.
