data_PCOD9401738
_publ_section_title
;
Structure prediction by ZEFSAII (Michael W. Deem and Ramdas Pophale) SiO2 
 PCOD9401738
Probable space group: P M M A
;
_chemical_formula_sum "Si O2"
_cell_formula_units_Z 52
_cell_length_a 8.895440
_cell_length_b 23.258040
_cell_length_c 14.652331
_cell_angle_alpha 90.000000
_cell_angle_beta 90.000000
_cell_angle_gamma 90.000000
_cell_volume 3031.428077
_symmetry_space_group_name_H-M "P M M A"
_symmetry_group_IT_number 51
_symmetry_cell_setting 'orthorhombic'
loop_
_space_group_symop_operation_xyz
x,y,z
1/2-x,-y,z
1/2+x,-y,-z
-x,y,-z
-x,-y,-z
1/2+x,y,-z
1/2-x,y,z
x,-y,z
loop_
_atom_site_type_symbol
_atom_site_label
_atom_site_fract_x
_atom_site_fract_y
_atom_site_fract_z
Si Si1 0.570310 0.724169 0.399733
Si Si2 0.931246 0.500000 0.600704
Si Si3 0.929583 0.836477 0.277888
Si Si4 0.429004 0.067756 0.401739
Si Si5 0.068031 0.383960 0.293749
Si Si6 0.430100 0.212382 0.096824
Si Si7 0.570107 0.347806 0.904217
O O1 0.500000 0.727403 0.500000
O O2 0.750000 0.718276 0.406504
O O3 0.536257 0.781950 0.343166
O O4 0.502734 0.669824 0.346363
O O5 0.750000 0.500000 0.593023
O O6 0.975015 0.442888 0.656311
O O7 0.000000 0.500000 0.500000
O O8 0.750000 0.841348 0.270045
O O9 0.997999 0.892548 0.325144
O O10 0.001603 0.822869 0.180231
O O11 0.500000 0.082704 0.500000
O O12 0.250000 0.076729 0.405198
O O13 0.457609 0.000000 0.385710
O O14 0.250000 0.378693 0.297015
O O15 0.023130 0.381034 0.187236
O O16 0.250000 0.207514 0.095093
O O17 0.468613 0.280232 0.109641
O O18 0.500000 0.194837 0.000000
O O19 0.750000 0.351459 0.912088
O O20 0.500000 0.366950 0.000000
#
# Coordination Sequence:
#
# PCOD9401738 Si02
#       7
#     8   4   8   8   8   8   8
#     4  11  23  35  51  77 108 140 175 221 271 322
#     4  10  22  38  57  76 102 138 183 226 267 326
#     4  11  22  35  54  82 112 144 183 225 273 326
#     4  10  21  37  57  81 111 149 190 229 271 322
#     4  10  20  37  56  77 104 140 179 221 271 323
#     4  10  19  33  54  80 111 145 180 222 272 329
#     4   9  18  32  53  78 106 139 173 215 268 322
#
# _framework density 17.153631000000001
#
# number of rings (size 3 to 8) (size 9 to 14) (size 15 to 20)
#    0.000    1.846    1.538    2.769    0.000    7.077 
#    0.000    0.385    0.000    0.462    0.000    0.000 
#    0.000    0.000    0.000    0.000    0.000    0.000 
#
# Total GULP energy -290424.810438 kJ/mol
# GULP energy per Si atom -5585.092508 kJ/mol
# Density = 1.711459 g / cm^3
# Si number density = 17.153631 Si / 1000 Ang^3
#
#
#
# Elastic Constant Matrix: (Units=GPa)
#
#
# Indices 1 2 3 4 5 6 
#
# 1 43.8142 46.8445 60.9933 0.0000 0.0000 0.0000
# 2 46.8445 82.0796 77.9850 0.0000 0.0000 0.0000
# 3 60.9933 77.9850 194.8690 0.0000 0.0000 0.0000
# 4 0.0000 0.0000 0.0000 31.8087 0.0000 0.0000
# 5 0.0000 0.0000 0.0000 0.0000 35.6889 0.0000
# 6 0.0000 0.0000 0.0000 0.0000 0.0000 18.2811
#
#
#
# Elastic Compliance Matrix: (Units=1/GPa)
#
#
# Indices 1 2 3 4 5 6 
#
# 1 0.067436 -0.029741 -0.009205 0.000000 0.000000 0.000000
# 2 -0.029741 0.032775 -0.003807 0.000000 0.000000 0.000000
# 3 -0.009205 -0.003807 0.009536 0.000000 0.000000 0.000000
# 4 0.000000 0.000000 0.000000 0.031438 0.000000 0.000000
# 5 0.000000 0.000000 0.000000 0.000000 0.028020 0.000000
# 6 0.000000 0.000000 0.000000 0.000000 0.000000 0.054701
#
#
# Mechanical properties :
#
#
# Convention : Reuss Voigt Hill
#
# Bulk Modulus (GPa) = 41.25405 76.93425 59.09415
# Shear Modulus (GPa) = 15.74832 26.15174 20.95003
#
# Velocity S-wave (km/s) = 3.03326 3.90880 3.49853
# Velocity P-wave (km/s) = 6.03072 8.08202 7.13052
#
# Compressibility (1/GPa) = 0.02424005
#
# Stress axis : x y z
#
# Youngs Moduli (GPa) = 14.82877 30.51144 104.86144
#
# Poissons Ratio (x) = 0.90746 0.96526
# Poissons Ratio (y) = 0.44103 0.39922
# Poissons Ratio (z) = 0.13650 0.11616
#
# Static dielectric constant tensor:
#      x y z
#    x 1.573270 0.000000 0.000000 
#    y 0.000000 1.562950 0.000000 
#    z 0.000000 0.000000 1.561840 
# 
# From -- ./inp_files/21502.got.cif
#   From: 2010.05.17/outbox.cif.g08.bks.cpg/sg51_11_cif.got.tgz:21502.got - 2010.06.03 11:52:47.
