data_PCOD9401919
_publ_section_title
;
Structure prediction by ZEFSAII (Michael W. Deem and Ramdas Pophale) SiO2 
 PCOD9401919
Probable space group: P M M A
;
_chemical_formula_sum "Si O2"
_cell_formula_units_Z 64
_cell_length_a 31.048140
_cell_length_b 8.958405
_cell_length_c 14.797714
_cell_angle_alpha 90.000000
_cell_angle_beta 90.000000
_cell_angle_gamma 90.000000
_cell_volume 4115.862995
_symmetry_space_group_name_H-M "P M M A"
_symmetry_group_IT_number 51
_symmetry_cell_setting 'orthorhombic'
loop_
_space_group_symop_operation_xyz
x,y,z
1/2-x,-y,z
1/2+x,-y,-z
-x,y,-z
-x,-y,-z
1/2+x,y,-z
1/2-x,y,z
x,-y,z
loop_
_atom_site_type_symbol
_atom_site_label
_atom_site_fract_x
_atom_site_fract_y
_atom_site_fract_z
Si Si1 0.799879 0.677376 0.849789
Si Si2 0.545550 0.321526 0.046237
Si Si3 0.619844 0.677921 0.574221
Si Si4 0.299854 0.177260 0.347954
Si Si5 0.425975 0.172331 0.259067
Si Si6 0.878868 0.827157 0.933787
Si Si7 0.043253 0.681002 0.553194
Si Si8 0.518065 0.678713 0.246518
O O1 0.750000 0.707056 0.874274
O O2 0.805801 0.500000 0.841003
O O3 0.807042 0.751255 0.751188
O O4 0.833781 0.742531 0.920903
O O5 0.548746 0.500000 0.031880
O O6 0.542938 0.292489 0.153404
O O7 0.500000 0.273822 0.000000
O O8 0.586573 0.244645 0.001175
O O9 0.624914 0.500000 0.568761
O O10 0.666233 0.754607 0.582073
O O11 0.595922 0.723429 0.666685
O O12 0.587026 0.729899 0.495938
O O13 0.250000 0.205479 0.372297
O O14 0.306542 0.000000 0.340264
O O15 0.400900 0.180605 0.164991
O O16 0.473879 0.230834 0.243635
O O17 0.425451 0.000000 0.289962
O O18 0.871597 0.000000 0.956346
O O19 0.042723 0.500000 0.546701
O O20 0.040725 0.718451 0.658922
O O21 0.000000 0.732844 0.500000
O O22 0.508684 0.500000 0.248967
#
# Coordination Sequence:
#
# PCOD9401919 Si02
#       8
#     8   8   8   8   8   8   8   8
#     4  10  20  33  51  74  99 128 164 203 240 287
#     4  10  20  32  50  73  95 126 169 210 246 287
#     4  11  20  31  50  71  95 131 169 203 235 285
#     4  10  20  33  48  69 100 131 158 195 245 295
#     4  11  21  30  44  69 100 132 166 202 244 287
#     4  11  22  33  48  70 101 137 165 198 244 294
#     4   9  17  30  49  72  96 127 165 202 246 288
#     4  10  19  34  51  68  96 131 168 209 248 287
#
# _framework density 15.549594000000001
#
# number of rings (size 3 to 8) (size 9 to 14) (size 15 to 20)
#    0.000    1.750    3.750    1.875    0.000    3.250 
#    0.000    1.875    0.000    0.000    0.000    0.875 
#    0.000    3.000    0.000    0.000    0.000    0.000 
#
# Total GULP energy -357031.788781 kJ/mol
# GULP energy per Si atom -5578.621700 kJ/mol
# Density = 1.551420 g / cm^3
# Si number density = 15.549594 Si / 1000 Ang^3
#
#
#
# Elastic Constant Matrix: (Units=GPa)
#
#
# Indices 1 2 3 4 5 6 
#
# 1 133.9742 57.6403 53.4941 0.0000 0.0000 0.0000
# 2 57.6403 49.4426 32.8759 0.0000 0.0000 0.0000
# 3 53.4941 32.8759 80.5586 0.0000 0.0000 0.0000
# 4 0.0000 0.0000 0.0000 0.6972 0.0000 0.0000
# 5 0.0000 0.0000 0.0000 0.0000 21.9488 0.0000
# 6 0.0000 0.0000 0.0000 0.0000 0.0000 20.5708
#
#
#
# Elastic Compliance Matrix: (Units=1/GPa)
#
#
# Indices 1 2 3 4 5 6 
#
# 1 0.015909 -0.015813 -0.004111 0.000000 0.000000 0.000000
# 2 -0.015813 0.043476 -0.007242 0.000000 0.000000 0.000000
# 3 -0.004111 -0.007242 0.018098 0.000000 0.000000 0.000000
# 4 0.000000 0.000000 0.000000 1.434213 0.000000 0.000000
# 5 0.000000 0.000000 0.000000 0.000000 0.045561 0.000000
# 6 0.000000 0.000000 0.000000 0.000000 0.000000 0.048613
#
#
# Mechanical properties :
#
#
# Convention : Reuss Voigt Hill
#
# Bulk Modulus (GPa) = 43.19374 61.33289 52.26332
# Shear Modulus (GPa) = 2.99775 16.64104 9.81939
#
# Velocity S-wave (km/s) = 1.38998 3.27493 2.51567
# Velocity P-wave (km/s) = 5.51493 7.33684 6.49013
#
# Compressibility (1/GPa) = 0.02315150
#
# Stress axis : x y z
#
# Youngs Moduli (GPa) = 62.85788 23.00118 55.25339
#
# Poissons Ratio (x) = 0.36372 0.22713
# Poissons Ratio (y) = 0.99399 0.40014
# Poissons Ratio (z) = 0.25839 0.16657
#
# Static dielectric constant tensor:
#      x y z
#    x 1.527750 0.000000 0.000000 
#    y 0.000000 1.524790 0.000000 
#    z 0.000000 0.000000 1.505530 
# 
# From -- ./inp_files/26700.got.cif
#   From: 2010.05.17/outbox.cif.g08.bks.cpg/sg51_14_cif.got.tgz:26700.got - 2010.06.03 11:52:47.
