data_PCOD9401318
_publ_section_title
;
Structure prediction by ZEFSAII (Michael W. Deem and Ramdas Pophale) SiO2 
 PCOD9401318
Probable space group: P M M A
;
_chemical_formula_sum "Si O2"
_cell_formula_units_Z 64
_cell_length_a 9.158957
_cell_length_b 24.196580
_cell_length_c 15.446257
_cell_angle_alpha 90.000000
_cell_angle_beta 90.000000
_cell_angle_gamma 90.000000
_cell_volume 3423.128976
_symmetry_space_group_name_H-M "P M M A"
_symmetry_group_IT_number 51
_symmetry_cell_setting 'orthorhombic'
loop_
_space_group_symop_operation_xyz
x,y,z
1/2-x,-y,z
1/2+x,-y,-z
-x,y,-z
-x,-y,-z
1/2+x,y,-z
1/2-x,y,z
x,-y,z
loop_
_atom_site_type_symbol
_atom_site_label
_atom_site_fract_x
_atom_site_fract_y
_atom_site_fract_z
Si Si1 0.911549 0.065426 0.079846
Si Si2 0.576619 0.604093 0.588739
Si Si3 0.074980 0.436752 0.224449
Si Si4 0.424410 0.734814 0.409237
Si Si5 0.071928 0.939102 0.724667
Si Si6 0.923756 0.225580 0.090946
Si Si7 0.573656 0.182246 0.278202
Si Si8 0.924646 0.354511 0.091763
O O1 0.750000 0.090525 0.083753
O O2 0.977695 0.066081 0.175337
O O3 0.894594 0.000000 0.062303
O O4 0.000000 0.089012 0.000000
O O5 0.500000 0.586893 0.500000
O O6 0.750000 0.597677 0.577594
O O7 0.532663 0.572188 0.675306
O O8 0.546775 0.669430 0.603826
O O9 0.250000 0.426726 0.218401
O O10 0.046894 0.500000 0.198687
O O11 0.990635 0.393993 0.164400
O O12 0.500000 0.750350 0.500000
O O13 0.250000 0.742559 0.413566
O O14 0.494109 0.771311 0.333780
O O15 0.250000 0.940835 0.726428
O O16 0.032986 0.879254 0.687059
O O17 0.024769 0.000000 0.691313
O O18 0.750000 0.221871 0.078752
O O19 0.963240 0.190324 0.176214
O O20 0.957452 0.290038 0.111308
O O21 0.000000 0.212313 0.000000
O O22 0.750000 0.188266 0.284787
O O23 0.750000 0.360706 0.085691
O O24 0.000000 0.367390 0.000000
#
# Coordination Sequence:
#
# PCOD9401318 Si02
#       8
#     8   8   8   8   8   8   8   8
#     4   8  13  22  36  54  78 111 152 193 229 268
#     4   9  19  35  55  79 107 138 168 202 248 302
#     4  10  21  36  53  76 107 140 174 212 253 299
#     4  10  20  35  56  81 106 131 163 205 255 308
#     4   8  15  28  45  65  92 129 167 199 240 297
#     4   9  19  33  50  75 105 137 173 215 261 307
#     4  10  19  32  52  77 104 133 168 212 257 301
#     4  10  20  35  54  74  99 134 177 222 266 309
#
# _framework density 18.696345000000001
#
# number of rings (size 3 to 8) (size 9 to 14) (size 15 to 20)
#    0.000    2.750    0.000    2.250    0.000    3.250 
#    0.000    0.625    0.000    1.500    0.000    0.000 
#    0.000    0.000    0.000    0.000    0.000    0.000 
#
# Total GULP energy -356712.498502 kJ/mol
# GULP energy per Si atom -5573.632789 kJ/mol
# Density = 1.865379 g / cm^3
# Si number density = 18.696345 Si / 1000 Ang^3
#
#
#
# Elastic Constant Matrix: (Units=GPa)
#
#
# Indices 1 2 3 4 5 6 
#
# 1 25.3321 32.7527 20.1897 0.0000 0.0000 0.0000
# 2 32.7527 95.8128 38.8551 0.0000 0.0000 0.0000
# 3 20.1897 38.8551 58.7601 0.0000 0.0000 0.0000
# 4 0.0000 0.0000 0.0000 -0.9415 0.0000 0.0000
# 5 0.0000 0.0000 0.0000 0.0000 33.0793 0.0000
# 6 0.0000 0.0000 0.0000 0.0000 0.0000 3.4303
#
#
#
# Elastic Compliance Matrix: (Units=1/GPa)
#
#
# Indices 1 2 3 4 5 6 
#
# 1 0.076767 -0.021242 -0.012331 0.000000 0.000000 0.000000
# 2 -0.021242 0.020139 -0.006018 0.000000 0.000000 0.000000
# 3 -0.012331 -0.006018 0.025235 0.000000 0.000000 0.000000
# 4 0.000000 0.000000 0.000000 -1.062133 0.000000 0.000000
# 5 0.000000 0.000000 0.000000 0.000000 0.030230 0.000000
# 6 0.000000 0.000000 0.000000 0.000000 0.000000 0.291520
#
#
# Mechanical properties :
#
#
# Convention : Reuss Voigt Hill
#
# Bulk Modulus (GPa) = 23.27783 40.38892 31.83337
# Shear Modulus (GPa) = -9.52853 12.98745 1.72946
#
# Velocity S-wave (km/s) = -2.25998 2.63848 0.96283
# Velocity P-wave (km/s) = 2.38064 5.56162 4.27779
#
# Compressibility (1/GPa) = 0.04295934
#
# Stress axis : x y z
#
# Youngs Moduli (GPa) = 13.02637 49.65519 39.62787
#
# Poissons Ratio (x) = 1.05476 0.48865
# Poissons Ratio (y) = 0.27670 0.23849
# Poissons Ratio (z) = 0.16063 0.29884
#
# Static dielectric constant tensor:
#      x y z
#    x 1.634890 0.000000 0.000000 
#    y 0.000000 1.686260 0.000000 
#    z 0.000000 0.000000 1.635340 
# 
# From -- ./inp_files/22384.got.cif
#   From: 2010.05.17/outbox.cif.g08.bks.cpg/sg51_12_cif.got.tgz:22384.got - 2010.06.03 11:52:47.
