data_PCOD9401202
_publ_section_title
;
Structure prediction by ZEFSAII (Michael W. Deem and Ramdas Pophale) SiO2 
 PCOD9401202
Probable space group: P M M A
;
_chemical_formula_sum "Si O2"
_cell_formula_units_Z 64
_cell_length_a 9.207734
_cell_length_b 19.655520
_cell_length_c 19.528577
_cell_angle_alpha 90.000000
_cell_angle_beta 90.000000
_cell_angle_gamma 90.000000
_cell_volume 3534.336541
_symmetry_space_group_name_H-M "P M M A"
_symmetry_group_IT_number 51
_symmetry_cell_setting 'orthorhombic'
loop_
_space_group_symop_operation_xyz
x,y,z
1/2-x,-y,z
1/2+x,-y,-z
-x,y,-z
-x,-y,-z
1/2+x,y,-z
1/2-x,y,z
x,-y,z
loop_
_atom_site_type_symbol
_atom_site_label
_atom_site_fract_x
_atom_site_fract_y
_atom_site_fract_z
Si Si1 0.912750 0.603052 0.565394
Si Si2 0.410119 0.573770 0.696052
Si Si3 0.926473 0.421635 0.074157
Si Si4 0.081131 0.314267 0.812768
Si Si5 0.420915 0.081459 0.208693
Si Si6 0.919502 0.767330 0.570127
Si Si7 0.573931 0.805268 0.286783
Si Si8 0.582974 0.082674 0.068016
O O1 0.750000 0.581095 0.557592
O O2 0.918909 0.685241 0.567490
O O3 0.000000 0.579591 0.500000
O O4 0.976201 0.578422 0.636354
O O5 0.250000 0.581325 0.663891
O O6 0.416383 0.500000 0.730164
O O7 0.425032 0.631850 0.751105
O O8 0.750000 0.418113 0.069899
O O9 0.960053 0.500000 0.097750
O O10 0.976596 0.359176 0.123368
O O11 0.000000 0.414130 0.000000
O O12 0.250000 0.299438 0.829482
O O13 0.024275 0.246029 0.775196
O O14 0.250000 0.099031 0.211179
O O15 0.513254 0.121631 0.264740
O O16 0.491077 0.099657 0.135221
O O17 0.433027 0.000000 0.216631
O O18 0.750000 0.789600 0.572091
O O19 0.000000 0.790691 0.500000
O O20 0.004554 0.786356 0.639801
O O21 0.750000 0.802292 0.290793
O O22 0.750000 0.106631 0.071857
O O23 0.588187 0.000000 0.064615
O O24 0.500000 0.106582 0.000000
#
# Coordination Sequence:
#
# PCOD9401202 Si02
#       8
#     8   8   8   8   8   8   8   8
#     4  10  20  33  50  71 100 136 174 217 260 310
#     4  10  19  32  51  73  99 134 175 218 264 315
#     4   9  17  32  54  78 105 140 183 228 273 321
#     4   9  18  33  53  77 104 136 176 220 268 322
#     4  10  21  37  56  80 112 148 186 228 275 332
#     4  10  20  35  56  81 108 141 181 223 269 325
#     4  11  21  35  58  84 111 142 178 226 277 330
#     4   9  16  28  49  77 108 142 180 219 260 310
#
# _framework density 18.108066999999998
#
# number of rings (size 3 to 8) (size 9 to 14) (size 15 to 20)
#    0.000    2.250    1.250    2.250    0.000    5.250 
#    0.000    2.500    0.000    3.375    0.000    0.000 
#    0.000    0.000    0.000    0.000    0.000    0.000 
#
# Total GULP energy -356577.037003 kJ/mol
# GULP energy per Si atom -5571.516203 kJ/mol
# Density = 1.806685 g / cm^3
# Si number density = 18.108067 Si / 1000 Ang^3
#
#
#
# Elastic Constant Matrix: (Units=GPa)
#
#
# Indices 1 2 3 4 5 6 
#
# 1 103.1616 30.6246 51.8597 0.0000 0.0000 0.0000
# 2 30.6246 42.9139 31.0762 0.0000 0.0000 0.0000
# 3 51.8597 31.0762 103.8479 0.0000 0.0000 0.0000
# 4 0.0000 0.0000 0.0000 21.3122 0.0000 0.0000
# 5 0.0000 0.0000 0.0000 0.0000 32.4573 0.0000
# 6 0.0000 0.0000 0.0000 0.0000 0.0000 14.4572
#
#
#
# Elastic Compliance Matrix: (Units=1/GPa)
#
#
# Indices 1 2 3 4 5 6 
#
# 1 0.014189 -0.006376 -0.005178 0.000000 0.000000 0.000000
# 2 -0.006376 0.032615 -0.006576 0.000000 0.000000 0.000000
# 3 -0.005178 -0.006576 0.014183 0.000000 0.000000 0.000000
# 4 0.000000 0.000000 0.000000 0.046922 0.000000 0.000000
# 5 0.000000 0.000000 0.000000 0.000000 0.030810 0.000000
# 6 0.000000 0.000000 0.000000 0.000000 0.000000 0.069170
#
#
# Mechanical properties :
#
#
# Convention : Reuss Voigt Hill
#
# Bulk Modulus (GPa) = 40.44118 53.00494 46.72306
# Shear Modulus (GPa) = 19.81063 22.73618 21.27341
#
# Velocity S-wave (km/s) = 3.31119 3.54727 3.43126
# Velocity P-wave (km/s) = 6.08279 6.79061 6.44643
#
# Compressibility (1/GPa) = 0.02472727
#
# Stress axis : x y z
#
# Youngs Moduli (GPa) = 70.47562 30.66116 70.50769
#
# Poissons Ratio (x) = 0.19551 0.36507
# Poissons Ratio (y) = 0.44938 0.46363
# Poissons Ratio (z) = 0.36490 0.20161
#
# Static dielectric constant tensor:
#      x y z
#    x 1.619000 0.000000 0.000000 
#    y 0.000000 1.665050 0.000000 
#    z 0.000000 0.000000 1.602330 
# 
# From -- ./inp_files/32340.got.cif
#   From: 2010.05.17/outbox.cif.g08.bks.cpg/sg51_17_cif.got.tgz:32340.got - 2010.06.03 11:52:47.
