data_PCOD9401156
_publ_section_title
;
Structure prediction by ZEFSAII (Michael W. Deem and Ramdas Pophale) SiO2 
 PCOD9401156
Probable space group: P M M A
;
_chemical_formula_sum "Si O2"
_cell_formula_units_Z 64
_cell_length_a 14.621767
_cell_length_b 19.357050
_cell_length_c 10.362278
_cell_angle_alpha 90.000000
_cell_angle_beta 90.000000
_cell_angle_gamma 90.000000
_cell_volume 2932.879840
_symmetry_space_group_name_H-M "P M M A"
_symmetry_group_IT_number 51
_symmetry_cell_setting 'orthorhombic'
loop_
_space_group_symop_operation_xyz
x,y,z
1/2-x,-y,z
1/2+x,-y,-z
-x,y,-z
-x,-y,-z
1/2+x,y,-z
1/2-x,y,z
x,-y,z
loop_
_atom_site_type_symbol
_atom_site_label
_atom_site_fract_x
_atom_site_fract_y
_atom_site_fract_z
Si Si1 0.138209 0.078192 0.462639
Si Si2 0.862040 0.919967 0.032085
Si Si3 0.640677 0.156254 0.287905
Si Si4 0.611500 0.579797 0.147051
Si Si5 0.609540 0.689366 0.355725
Si Si6 0.893065 0.308630 0.651204
Si Si7 0.388667 0.579848 0.144184
Si Si8 0.139864 0.838803 0.217671
O O1 0.250000 0.079660 0.462155
O O2 0.105104 0.126943 0.577071
O O3 0.108666 0.107058 0.325696
O O4 0.110552 0.000000 0.485500
O O5 0.750000 0.920470 0.031862
O O6 0.893310 0.888173 0.167766
O O7 0.889458 0.000000 0.013418
O O8 0.892009 0.867550 0.919607
O O9 0.750000 0.146903 0.289137
O O10 0.623761 0.237518 0.285498
O O11 0.638047 0.500000 0.166280
O O12 0.644369 0.628980 0.261896
O O13 0.500069 0.581453 0.146215
O O14 0.639311 0.600920 0.001406
O O15 0.644338 0.693419 0.504121
O O16 0.500931 0.678813 0.363866
O O17 0.856386 0.369208 0.743507
O O18 0.883818 0.236720 0.728511
O O19 0.361964 0.500000 0.164145
O O20 0.250000 0.840048 0.212955
#
# Coordination Sequence:
#
# PCOD9401156 Si02
#       8
#     8   8   8   8   8   8   8   8
#     4   9  16  28  49  71  90 121 164 200 231 275
#     4   9  18  32  51  75  98 121 160 212 251 281
#     4  10  19  32  50  73  99 127 160 200 244 290
#     4   8  15  29  49  72  96 125 163 201 236 279
#     4  10  20  32  48  73 103 131 160 198 241 285
#     4  10  20  32  48  73 103 131 160 198 241 285
#     4   8  15  29  49  72  96 125 163 201 236 279
#     4  10  19  32  50  73  99 127 160 200 244 290
#
# _framework density 21.821556999999999
#
# number of rings (size 3 to 8) (size 9 to 14) (size 15 to 20)
#    0.000    2.750    1.250    1.500    1.750    3.500 
#    0.000    2.500    0.000    5.250    0.000    3.500 
#    0.000    0.000    0.000    0.000    0.000    0.000 
#
# Total GULP energy -357312.240429 kJ/mol
# GULP energy per Si atom -5583.003757 kJ/mol
# Density = 2.177189 g / cm^3
# Si number density = 21.821557 Si / 1000 Ang^3
#
#
#
# Elastic Constant Matrix: (Units=GPa)
#
#
# Indices 1 2 3 4 5 6 
#
# 1 69.1960 -14.1344 1.2753 0.0000 0.0000 0.0000
# 2 -14.1344 125.8133 76.3853 0.0000 0.0000 0.0000
# 3 1.2753 76.3853 152.8091 0.0000 0.0000 0.0000
# 4 0.0000 0.0000 0.0000 32.4303 0.0000 0.0000
# 5 0.0000 0.0000 0.0000 0.0000 0.8865 0.0000
# 6 0.0000 0.0000 0.0000 0.0000 0.0000 14.0852
#
#
#
# Elastic Compliance Matrix: (Units=1/GPa)
#
#
# Indices 1 2 3 4 5 6 
#
# 1 0.014994 0.002527 -0.001389 0.000000 0.000000 0.000000
# 2 0.002527 0.011838 -0.005938 0.000000 0.000000 0.000000
# 3 -0.001389 -0.005938 0.009524 0.000000 0.000000 0.000000
# 4 0.000000 0.000000 0.000000 0.030835 0.000000 0.000000
# 5 0.000000 0.000000 0.000000 0.000000 1.128005 0.000000
# 6 0.000000 0.000000 0.000000 0.000000 0.000000 0.070997
#
#
# Mechanical properties :
#
#
# Convention : Reuss Voigt Hill
#
# Bulk Modulus (GPa) = 37.37429 52.76344 45.06886
# Shear Modulus (GPa) = 3.89193 28.43323 16.16258
#
# Velocity S-wave (km/s) = 1.33694 3.61361 2.72448
# Velocity P-wave (km/s) = 4.42127 6.45313 5.53130
#
# Compressibility (1/GPa) = 0.02675636
#
# Stress axis : x y z
#
# Youngs Moduli (GPa) = 66.69531 84.47633 104.99614
#
# Poissons Ratio (x) = -0.21351 0.14579
# Poissons Ratio (y) = -0.16857 0.62351
# Poissons Ratio (z) = 0.09261 0.50166
#
# Static dielectric constant tensor:
#      x y z
#    x 1.879000 0.000000 0.000000 
#    y 0.000000 1.742200 0.000000 
#    z 0.000000 0.000000 1.777650 
# 
# From -- ./inp_files/11941.got.cif
#   From: 2010.05.17/outbox.cif.g08.bks.cpg/sg51_6_cif.got.tgz:11941.got - 2010.06.03 11:52:47.
