data_PCOD9401278
_publ_section_title
;
Structure prediction by ZEFSAII (Michael W. Deem and Ramdas Pophale) SiO2 
 PCOD9401278
Probable space group: P M M A
;
_chemical_formula_sum "Si O2"
_cell_formula_units_Z 64
_cell_length_a 20.536620
_cell_length_b 9.015936
_cell_length_c 20.468768
_cell_angle_alpha 90.000000
_cell_angle_beta 90.000000
_cell_angle_gamma 90.000000
_cell_volume 3789.932639
_symmetry_space_group_name_H-M "P M M A"
_symmetry_group_IT_number 51
_symmetry_cell_setting 'orthorhombic'
loop_
_space_group_symop_operation_xyz
x,y,z
1/2-x,-y,z
1/2+x,-y,-z
-x,y,-z
-x,-y,-z
1/2+x,y,-z
1/2-x,y,z
x,-y,z
loop_
_atom_site_type_symbol
_atom_site_label
_atom_site_fract_x
_atom_site_fract_y
_atom_site_fract_z
Si Si1 0.933082 0.677236 0.315846
Si Si2 0.571683 0.322383 0.026375
Si Si3 0.584109 0.322155 0.665873
Si Si4 0.536948 0.322089 0.170221
Si Si5 0.398964 0.822507 0.197190
Si Si6 0.324217 0.821472 0.594254
Si Si7 0.823709 0.821487 0.931793
Si Si8 0.174370 0.821826 0.442120
O O1 0.927424 0.500000 0.323157
O O2 0.927633 0.712214 0.238514
O O3 0.878410 0.754075 0.358974
O O4 0.007138 0.718782 0.336246
O O5 0.577308 0.500000 0.019049
O O6 0.574087 0.286721 0.103433
O O7 0.500000 0.279886 0.000000
O O8 0.626548 0.245895 0.983563
O O9 0.587750 0.500000 0.668437
O O10 0.611706 0.253753 0.733030
O O11 0.624592 0.259231 0.605454
O O12 0.523383 0.500000 0.170167
O O13 0.468636 0.236519 0.171888
O O14 0.347059 0.783245 0.141457
O O15 0.400500 0.000000 0.205068
O O16 0.250000 0.774552 0.610526
O O17 0.336427 0.782567 0.518214
O O18 0.326186 0.000000 0.598336
O O19 0.750000 0.771787 0.943245
O O20 0.826115 0.000000 0.936533
O O21 0.250000 0.786471 0.426440
O O22 0.166991 0.000000 0.435866
#
# Coordination Sequence:
#
# PCOD9401278 Si02
#       8
#     8   8   8   8   8   8   8   8
#     4   9  19  34  52  76 107 139 169 212 262 311
#     4  10  19  33  57  81 101 134 178 221 263 312
#     4  10  21  35  52  78 111 140 173 217 261 308
#     4   9  18  34  53  77 107 133 168 217 264 309
#     4  10  19  32  52  75 101 138 179 213 257 312
#     4   9  19  36  56  77 102 134 175 221 264 311
#     4  10  22  37  51  74 109 142 175 218 264 313
#     4   9  19  36  55  75 102 137 176 217 262 313
#
# _framework density 16.886842999999999
#
# number of rings (size 3 to 8) (size 9 to 14) (size 15 to 20)
#    0.000    2.500    1.250    2.250    0.000    6.000 
#    0.000    5.625    0.000    3.750    0.000    0.000 
#    0.000    0.000    0.000    0.000    0.000    0.000 
#
# Total GULP energy -356927.716486 kJ/mol
# GULP energy per Si atom -5576.995570 kJ/mol
# Density = 1.684841 g / cm^3
# Si number density = 16.886843 Si / 1000 Ang^3
#
#
#
# Elastic Constant Matrix: (Units=GPa)
#
#
# Indices 1 2 3 4 5 6 
#
# 1 131.5417 46.9399 107.7605 0.0000 0.0000 0.0000
# 2 46.9399 29.7620 50.4819 0.0000 0.0000 0.0000
# 3 107.7605 50.4819 143.5376 0.0000 0.0000 0.0000
# 4 0.0000 0.0000 0.0000 31.2531 0.0000 0.0000
# 5 0.0000 0.0000 0.0000 0.0000 27.9749 0.0000
# 6 0.0000 0.0000 0.0000 0.0000 0.0000 8.2953
#
#
#
# Elastic Compliance Matrix: (Units=1/GPa)
#
#
# Indices 1 2 3 4 5 6 
#
# 1 0.022813 -0.017177 -0.011086 0.000000 0.000000 0.000000
# 2 -0.017177 0.096213 -0.020943 0.000000 0.000000 0.000000
# 3 -0.011086 -0.020943 0.022655 0.000000 0.000000 0.000000
# 4 0.000000 0.000000 0.000000 0.031997 0.000000 0.000000
# 5 0.000000 0.000000 0.000000 0.000000 0.035746 0.000000
# 6 0.000000 0.000000 0.000000 0.000000 0.000000 0.120550
#
#
# Mechanical properties :
#
#
# Convention : Reuss Voigt Hill
#
# Bulk Modulus (GPa) = 23.11028 79.46734 51.28881
# Shear Modulus (GPa) = 11.29155 20.14859 15.72007
#
# Velocity S-wave (km/s) = 2.58865 3.45795 3.05439
# Velocity P-wave (km/s) = 4.75919 7.94381 6.54805
#
# Compressibility (1/GPa) = 0.04327079
#
# Stress axis : x y z
#
# Youngs Moduli (GPa) = 43.83385 10.39362 44.13994
#
# Poissons Ratio (x) = 0.17853 0.48934
# Poissons Ratio (y) = 0.75291 0.92441
# Poissons Ratio (z) = 0.48595 0.21767
#
# Static dielectric constant tensor:
#      x y z
#    x 1.547750 0.000000 0.000000 
#    y 0.000000 1.564370 0.000000 
#    z 0.000000 0.000000 1.568770 
# 
# From -- ./inp_files/33963.got.cif
#   From: 2010.05.17/outbox.cif.g08.bks.cpg/sg51_17_cif.got.tgz:33963.got - 2010.06.03 11:52:47.
