data_PCOD9401531
_publ_section_title
;
Structure prediction by ZEFSAII (Michael W. Deem and Ramdas Pophale) SiO2 
 PCOD9401531
Probable space group: P M M A
;
_chemical_formula_sum "Si O2"
_cell_formula_units_Z 64
_cell_length_a 30.918697
_cell_length_b 7.618563
_cell_length_c 15.231825
_cell_angle_alpha 90.000000
_cell_angle_beta 90.000000
_cell_angle_gamma 90.000000
_cell_volume 3587.948394
_symmetry_space_group_name_H-M "P M M A"
_symmetry_group_IT_number 51
_symmetry_cell_setting 'orthorhombic'
loop_
_space_group_symop_operation_xyz
x,y,z
1/2-x,-y,z
1/2+x,-y,-z
-x,y,-z
-x,-y,-z
1/2+x,y,-z
1/2-x,y,z
x,-y,z
loop_
_atom_site_type_symbol
_atom_site_label
_atom_site_fract_x
_atom_site_fract_y
_atom_site_fract_z
Si Si1 0.884947 0.297681 0.433214
Si Si2 0.969617 0.206569 0.750000
Si Si3 0.960652 0.795839 0.558363
Si Si4 0.701076 0.714469 0.351354
Si Si5 0.039348 0.204161 0.058363
Si Si6 0.298924 0.285531 0.851354
Si Si7 0.926735 0.206156 0.250000
Si Si8 0.384947 0.297681 0.933214
O O1 0.881050 0.500000 0.460117
O O2 0.917000 0.210297 0.502257
O O3 0.836992 0.224171 0.415184
O O4 0.907647 0.288181 0.337973
O O5 0.955382 0.281774 0.655794
O O6 0.955382 0.281774 0.844206
O O7 0.021623 0.219661 0.750000
O O8 0.956563 0.000000 0.750000
O O9 0.000000 0.718363 0.500000
O O10 0.973111 0.000000 0.572857
O O11 0.750000 0.767185 0.374012
O O12 0.699806 0.500000 0.351540
O O13 0.692639 0.767653 0.250000
O O14 0.026890 0.000000 0.072857
O O15 0.083000 0.210297 0.002257
O O16 0.000000 0.281637 0.000000
O O17 0.250000 0.232815 0.874012
O O18 0.300194 0.500000 0.851540
O O19 0.336992 0.224171 0.915184
O O20 0.907647 0.288182 0.162026
O O21 0.915682 0.000000 0.250000
O O22 0.381050 0.500000 0.960117
#
# Coordination Sequence:
#
# PCOD9401531 Si02
#       8
#     8   8   8   8   8   8   8   8
#     4  11  20  30  46  73  98 121 157 200 238 271
#     4   9  18  33  49  64  87 126 168 191 213 271
#     4  10  19  33  50  67  91 127 164 190 223 280
#     4   8  14  26  44  65  92 125 154 182 227 288
#     4  10  19  33  50  67  91 127 164 190 223 280
#     4   8  14  26  44  65  92 125 154 182 227 288
#     4  11  19  31  48  66  93 131 165 190 225 279
#     4  11  20  30  46  73  98 121 157 200 238 271
#
# _framework density 17.837492000000001
#
# number of rings (size 3 to 8) (size 9 to 14) (size 15 to 20)
#    0.000    2.250    3.750    1.875    0.000    0.500 
#    0.000    0.625    0.000    3.750    0.000    0.875 
#    0.000    7.000    0.000    0.000    0.000    0.000 
#
# Total GULP energy -356846.986089 kJ/mol
# GULP energy per Si atom -5575.734158 kJ/mol
# Density = 1.779689 g / cm^3
# Si number density = 17.837492 Si / 1000 Ang^3
#
#
#
# Elastic Constant Matrix: (Units=GPa)
#
#
# Indices 1 2 3 4 5 6 
#
# 1 103.0315 -1.2815 56.0872 0.0000 0.0000 0.0000
# 2 -1.2815 36.1264 1.0039 0.0000 0.0000 0.0000
# 3 56.0872 1.0039 140.1144 0.0000 0.0000 0.0000
# 4 0.0000 0.0000 0.0000 12.9493 0.0000 0.0000
# 5 0.0000 0.0000 0.0000 0.0000 17.3033 0.0000
# 6 0.0000 0.0000 0.0000 0.0000 0.0000 17.9575
#
#
#
# Elastic Compliance Matrix: (Units=1/GPa)
#
#
# Indices 1 2 3 4 5 6 
#
# 1 0.012422 0.000579 -0.004977 0.000000 0.000000 0.000000
# 2 0.000579 0.027713 -0.000430 0.000000 0.000000 0.000000
# 3 -0.004977 -0.000430 0.009132 0.000000 0.000000 0.000000
# 4 0.000000 0.000000 0.000000 0.077224 0.000000 0.000000
# 5 0.000000 0.000000 0.000000 0.000000 0.057793 0.000000
# 6 0.000000 0.000000 0.000000 0.000000 0.000000 0.055687
#
#
# Mechanical properties :
#
#
# Convention : Reuss Voigt Hill
#
# Bulk Modulus (GPa) = 25.24527 43.43239 34.33883
# Shear Modulus (GPa) = 19.02360 24.53951 21.78155
#
# Velocity S-wave (km/s) = 3.26927 3.71310 3.49823
# Velocity P-wave (km/s) = 5.33240 6.54100 5.96737
#
# Compressibility (1/GPa) = 0.03961139
#
# Stress axis : x y z
#
# Youngs Moduli (GPa) = 80.50153 36.08403 109.50206
#
# Poissons Ratio (x) = -0.02089 0.54496
# Poissons Ratio (y) = -0.04661 0.04712
# Poissons Ratio (z) = 0.40063 0.01553
#
# Static dielectric constant tensor:
#      x y z
#    x 1.616540 0.000000 0.000000 
#    y 0.000000 1.658880 0.000000 
#    z 0.000000 0.000000 1.613410 
# 
# From -- ./inp_files/26586.got.cif
#   From: 2010.05.17/outbox.cif.g08.bks.cpg/sg51_14_cif.got.tgz:26586.got - 2010.06.03 11:52:47.
