data_PCOD9401694
_publ_section_title
;
Structure prediction by ZEFSAII (Michael W. Deem and Ramdas Pophale) SiO2 
 PCOD9401694
Probable space group: P M M A
;
_chemical_formula_sum "Si O2"
_cell_formula_units_Z 56
_cell_length_a 14.939735
_cell_length_b 7.684686
_cell_length_c 22.949845
_cell_angle_alpha 90.000000
_cell_angle_beta 90.000000
_cell_angle_gamma 90.000000
_cell_volume 2634.806811
_symmetry_space_group_name_H-M "P M M A"
_symmetry_group_IT_number 51
_symmetry_cell_setting 'orthorhombic'
loop_
_space_group_symop_operation_xyz
x,y,z
1/2-x,-y,z
1/2+x,-y,-z
-x,y,-z
-x,-y,-z
1/2+x,y,-z
1/2-x,y,z
x,-y,z
loop_
_atom_site_type_symbol
_atom_site_label
_atom_site_fract_x
_atom_site_fract_y
_atom_site_fract_z
Si Si1 0.042609 0.711838 0.583695
Si Si2 0.646685 0.287899 0.532517
Si Si3 0.913422 0.793031 0.161617
Si Si4 0.250000 0.704901 0.049340
Si Si5 0.111484 0.205106 0.144461
Si Si6 0.655413 0.299433 0.729737
Si Si7 0.044326 0.289569 0.710801
Si Si8 0.250000 0.210216 0.913698
O O1 0.041190 0.500000 0.581993
O O2 0.108192 0.764602 0.531229
O O3 0.076917 0.765485 0.647243
O O4 0.938152 0.764728 0.573331
O O5 0.750000 0.229940 0.543121
O O6 0.649528 0.500000 0.534658
O O7 0.904396 0.764026 0.230849
O O8 0.835871 0.721554 0.121125
O O9 0.010535 0.726641 0.142489
O O10 0.915222 0.000000 0.152750
O O11 0.250000 0.500000 0.055669
O O12 0.335431 0.773192 0.084938
O O13 0.250000 0.749792 0.981725
O O14 0.155685 0.295957 0.199992
O O15 0.111117 0.000000 0.158737
O O16 0.750000 0.221151 0.709230
O O17 0.654378 0.500000 0.709177
O O18 0.558638 0.223553 0.714855
O O19 0.041625 0.500000 0.712343
O O20 0.250000 0.000000 0.908929
#
# Coordination Sequence:
#
# PCOD9401694 Si02
#       8
#     8   8   8   4   8   8   8   4
#     4   8  14  24  37  59  91 125 162 201 245 294
#     4   8  13  22  37  57  88 128 164 202 244 288
#     4   9  20  38  58  76  99 133 172 211 251 297
#     4  12  24  36  54  82 110 134 163 202 251 306
#     4  10  19  33  54  78 101 130 167 205 246 299
#     4   9  16  26  42  66  97 130 161 198 251 304
#     4   9  17  29  46  70 101 131 162 208 257 303
#     4  10  22  42  60  74  98 134 173 212 249 292
#
# _framework density 21.25393
#
# number of rings (size 3 to 8) (size 9 to 14) (size 15 to 20)
#    0.000    2.857    0.714    1.929    0.000    2.286 
#    1.286    5.714    0.000    0.000    0.000    2.000 
#    0.000    1.143    0.000    0.000    0.000    0.000 
#
# Total GULP energy -312110.869118 kJ/mol
# GULP energy per Si atom -5573.408377 kJ/mol
# Density = 2.120556 g / cm^3
# Si number density = 21.253930 Si / 1000 Ang^3
#
#
#
# Elastic Constant Matrix: (Units=GPa)
#
#
# Indices 1 2 3 4 5 6 
#
# 1 62.0292 3.9381 21.5072 0.0000 0.0000 0.0000
# 2 3.9381 38.2237 -15.0394 0.0000 0.0000 0.0000
# 3 21.5072 -15.0394 117.8048 0.0000 0.0000 0.0000
# 4 0.0000 0.0000 0.0000 31.8601 0.0000 0.0000
# 5 0.0000 0.0000 0.0000 0.0000 8.6512 0.0000
# 6 0.0000 0.0000 0.0000 0.0000 0.0000 16.8948
#
#
#
# Elastic Compliance Matrix: (Units=1/GPa)
#
#
# Indices 1 2 3 4 5 6 
#
# 1 0.017583 -0.003237 -0.003623 0.000000 0.000000 0.000000
# 2 -0.003237 0.028141 0.004184 0.000000 0.000000 0.000000
# 3 -0.003623 0.004184 0.009684 0.000000 0.000000 0.000000
# 4 0.000000 0.000000 0.000000 0.031387 0.000000 0.000000
# 5 0.000000 0.000000 0.000000 0.000000 0.115591 0.000000
# 6 0.000000 0.000000 0.000000 0.000000 0.000000 0.059190
#
#
# Mechanical properties :
#
#
# Convention : Reuss Voigt Hill
#
# Bulk Modulus (GPa) = 19.97805 26.54107 23.25956
# Shear Modulus (GPa) = 17.62947 25.32467 21.47707
#
# Velocity S-wave (km/s) = 2.88317 3.45560 3.18228
# Velocity P-wave (km/s) = 4.52810 5.33257 4.94671
#
# Compressibility (1/GPa) = 0.05005493
#
# Stress axis : x y z
#
# Youngs Moduli (GPa) = 56.87216 35.53489 103.26075
#
# Poissons Ratio (x) = 0.11503 0.37415
# Poissons Ratio (y) = 0.18411 -0.43200
# Poissons Ratio (z) = 0.20607 -0.14866
#
# Static dielectric constant tensor:
#      x y z
#    x 1.807250 0.000000 0.000000 
#    y 0.000000 1.797270 0.000000 
#    z 0.000000 0.000000 1.767260 
# 
# From -- ./inp_files/33560.got.cif
#   From: 2010.05.17/outbox.cif.g08.bks.cpg/sg51_17_cif.got.tgz:33560.got - 2010.06.03 11:52:47.
