data_PCOD9401983
_publ_section_title
;
Structure prediction by ZEFSAII (Michael W. Deem and Ramdas Pophale) SiO2 
 PCOD9401983
Probable space group: P M M A
;
_chemical_formula_sum "Si O2"
_cell_formula_units_Z 48
_cell_length_a 7.467981
_cell_length_b 15.969335
_cell_length_c 18.236570
_cell_angle_alpha 90.000000
_cell_angle_beta 90.000000
_cell_angle_gamma 90.000000
_cell_volume 2174.869455
_symmetry_space_group_name_H-M "P M M A"
_symmetry_group_IT_number 51
_symmetry_cell_setting 'orthorhombic'
loop_
_space_group_symop_operation_xyz
x,y,z
1/2-x,-y,z
1/2+x,-y,-z
-x,y,-z
-x,-y,-z
1/2+x,y,-z
1/2-x,y,z
x,-y,z
loop_
_atom_site_type_symbol
_atom_site_label
_atom_site_fract_x
_atom_site_fract_y
_atom_site_fract_z
Si Si1 0.547948 0.663374 0.173727
Si Si2 0.036552 0.589408 0.585995
Si Si3 0.465670 0.500000 0.912034
Si Si4 0.536894 0.821054 0.913974
Si Si5 0.535807 0.000000 0.912316
Si Si6 0.035364 0.904762 0.585080
Si Si7 0.530310 0.746852 0.323053
O O1 0.750000 0.637880 0.195845
O O2 0.468859 0.582703 0.131952
O O3 0.552918 0.738892 0.116528
O O4 0.468176 0.709970 0.244911
O O5 0.250000 0.588871 0.597122
O O6 0.967117 0.500000 0.615619
O O7 0.971243 0.674088 0.621612
O O8 0.000000 0.590911 0.500000
O O9 0.250000 0.500000 0.907897
O O10 0.500000 0.500000 0.000000
O O11 0.750000 0.814673 0.901702
O O12 0.470780 0.910708 0.882536
O O13 0.500000 0.824350 0.000000
O O14 0.750000 0.000000 0.903900
O O15 0.500000 0.000000 0.000000
O O16 0.250000 0.907877 0.592389
O O17 0.970028 0.835831 0.643688
O O18 0.000000 0.880021 0.500000
O O19 0.966796 0.000000 0.595358
O O20 0.750000 0.751688 0.320236
#
# Coordination Sequence:
#
# PCOD9401983 Si02
#       7
#     8   8   4   8   4   8   8
#     4  10  21  36  53  77 104 137 176 217 266 317
#     4   9  17  29  48  72  97 129 166 205 247 296
#     4  10  22  38  58  78 101 134 176 222 265 318
#     4  10  19  34  55  78 104 134 169 210 255 308
#     4   8  16  30  50  74 100 128 159 196 243 298
#     4   9  17  31  52  76 103 137 177 218 256 300
#     4   9  18  32  50  73 102 134 170 210 255 307
#
# _framework density 22.070291000000001
#
# number of rings (size 3 to 8) (size 9 to 14) (size 15 to 20)
#    0.000    2.667    0.000    1.500    1.167    2.667 
#    1.500    1.667    0.000    0.000    0.000    0.000 
#    0.000    0.000    0.000    0.000    0.000    0.000 
#
# Total GULP energy -267482.720391 kJ/mol
# GULP energy per Si atom -5572.556675 kJ/mol
# Density = 2.202006 g / cm^3
# Si number density = 22.070291 Si / 1000 Ang^3
#
#
#
# Elastic Constant Matrix: (Units=GPa)
#
#
# Indices 1 2 3 4 5 6 
#
# 1 72.0525 7.4075 -2.7408 0.0000 0.0000 0.0000
# 2 7.4075 211.3328 91.0108 0.0000 0.0000 0.0000
# 3 -2.7408 91.0108 106.0253 0.0000 0.0000 0.0000
# 4 0.0000 0.0000 0.0000 26.7202 0.0000 0.0000
# 5 0.0000 0.0000 0.0000 0.0000 13.3090 0.0000
# 6 0.0000 0.0000 0.0000 0.0000 0.0000 19.6114
#
#
#
# Elastic Compliance Matrix: (Units=1/GPa)
#
#
# Indices 1 2 3 4 5 6 
#
# 1 0.014032 -0.001028 0.001245 0.000000 0.000000 0.000000
# 2 -0.001028 0.007582 -0.006535 0.000000 0.000000 0.000000
# 3 0.001245 -0.006535 0.015074 0.000000 0.000000 0.000000
# 4 0.000000 0.000000 0.000000 0.037425 0.000000 0.000000
# 5 0.000000 0.000000 0.000000 0.000000 0.075137 0.000000
# 6 0.000000 0.000000 0.000000 0.000000 0.000000 0.050991
#
#
# Mechanical properties :
#
#
# Convention : Reuss Voigt Hill
#
# Bulk Modulus (GPa) = 41.57708 64.52952 53.05330
# Shear Modulus (GPa) = 22.63534 31.51032 27.07283
#
# Velocity S-wave (km/s) = 3.20598 3.78263 3.50618
# Velocity P-wave (km/s) = 5.70822 6.95552 6.36251
#
# Compressibility (1/GPa) = 0.02405172
#
# Stress axis : x y z
#
# Youngs Moduli (GPa) = 71.26658 131.88683 66.34137
#
# Poissons Ratio (x) = 0.13559 -0.08261
# Poissons Ratio (y) = 0.07327 0.43355
# Poissons Ratio (z) = -0.08874 0.86189
#
# Static dielectric constant tensor:
#      x y z
#    x 1.869690 0.000000 0.000000 
#    y 0.000000 1.849970 0.000000 
#    z 0.000000 0.000000 1.820740 
# 
# From -- ./inp_files/27683.got.cif
#   From: 2010.05.17/outbox.cif.g08.bks.cpg/sg51_14_cif.got.tgz:27683.got - 2010.06.03 11:52:47.
