data_PCOD9401146
_publ_section_title
;
Structure prediction by ZEFSAII (Michael W. Deem and Ramdas Pophale) SiO2 
 PCOD9401146
Probable space group: P M M A
;
_chemical_formula_sum "Si O2"
_cell_formula_units_Z 64
_cell_length_a 8.810731
_cell_length_b 25.512073
_cell_length_c 15.382396
_cell_angle_alpha 90.000000
_cell_angle_beta 90.000000
_cell_angle_gamma 90.000000
_cell_volume 3457.655164
_symmetry_space_group_name_H-M "P M M A"
_symmetry_group_IT_number 51
_symmetry_cell_setting 'orthorhombic'
loop_
_space_group_symop_operation_xyz
x,y,z
1/2-x,-y,z
1/2+x,-y,-z
-x,y,-z
-x,-y,-z
1/2+x,y,-z
1/2-x,y,z
x,-y,z
loop_
_atom_site_type_symbol
_atom_site_label
_atom_site_fract_x
_atom_site_fract_y
_atom_site_fract_z
Si Si1 0.571993 0.702194 0.349780
Si Si2 0.432019 0.810551 0.410566
Si Si3 0.067172 0.557281 0.225370
Si Si4 0.432546 0.847901 0.221742
Si Si5 0.573865 0.414914 0.410226
Si Si6 0.569119 0.668879 0.832093
Si Si7 0.432788 0.060403 0.093325
Si Si8 0.070560 0.766695 0.910780
O O1 0.750000 0.710891 0.327856
O O2 0.504030 0.752999 0.395708
O O3 0.563986 0.648578 0.404537
O O4 0.475903 0.690426 0.263236
O O5 0.500000 0.832255 0.500000
O O6 0.250000 0.806110 0.417040
O O7 0.469775 0.843488 0.323614
O O8 0.250000 0.559001 0.228986
O O9 0.019803 0.500000 0.192512
O O10 0.019620 0.608044 0.169882
O O11 0.006482 0.564400 0.323375
O O12 0.250000 0.842343 0.214538
O O13 0.477831 0.900695 0.170933
O O14 0.508231 0.800375 0.169501
O O15 0.500000 0.432733 0.500000
O O16 0.750000 0.429515 0.407526
O O17 0.750000 0.672539 0.844731
O O18 0.484455 0.707143 0.897534
O O19 0.250000 0.061806 0.086934
O O20 0.479030 0.000000 0.109076
O O21 0.500000 0.076641 0.000000
O O22 0.250000 0.769544 0.914212
O O23 0.000000 0.787676 0.000000
#
# Coordination Sequence:
#
# PCOD9401146 Si02
#       8
#     8   8   8   8   8   8   8   8
#     4  10  19  32  50  73 101 136 180 222 269 325
#     4  11  22  34  51  74 107 148 192 237 280 328
#     4   9  19  35  54  73  94 127 169 213 266 325
#     4  10  21  37  56  82 116 152 190 232 280 330
#     4  10  20  31  45  67  95 128 168 216 268 322
#     4  10  19  34  55  78 107 138 172 216 267 325
#     4   9  18  34  57  85 116 150 189 231 278 334
#     4  12  24  37  57  84 116 149 182 220 272 334
#
# _framework density 18.509654000000001
#
# number of rings (size 3 to 8) (size 9 to 14) (size 15 to 20)
#    0.000    1.875    1.250    3.375    0.000    5.500 
#    0.000    0.000    0.000    0.750    0.000    0.000 
#    0.000    0.000    0.000    0.000    0.000    0.125 
#
# Total GULP energy -357340.877696 kJ/mol
# GULP energy per Si atom -5583.451214 kJ/mol
# Density = 1.846753 g / cm^3
# Si number density = 18.509654 Si / 1000 Ang^3
#
#
#
# Elastic Constant Matrix: (Units=GPa)
#
#
# Indices 1 2 3 4 5 6 
#
# 1 38.9705 29.9148 32.4055 0.0000 0.0000 0.0000
# 2 29.9148 108.4498 51.3046 0.0000 0.0000 0.0000
# 3 32.4055 51.3046 100.4542 0.0000 0.0000 0.0000
# 4 0.0000 0.0000 0.0000 5.5237 0.0000 0.0000
# 5 0.0000 0.0000 0.0000 0.0000 27.4154 0.0000
# 6 0.0000 0.0000 0.0000 0.0000 0.0000 12.0023
#
#
#
# Elastic Compliance Matrix: (Units=1/GPa)
#
#
# Indices 1 2 3 4 5 6 
#
# 1 0.037958 -0.006168 -0.009095 0.000000 0.000000 0.000000
# 2 -0.006168 0.013161 -0.004732 0.000000 0.000000 0.000000
# 3 -0.009095 -0.004732 0.015305 0.000000 0.000000 0.000000
# 4 0.000000 0.000000 0.000000 0.181038 0.000000 0.000000
# 5 0.000000 0.000000 0.000000 0.000000 0.036476 0.000000
# 6 0.000000 0.000000 0.000000 0.000000 0.000000 0.083317
#
#
# Mechanical properties :
#
#
# Convention : Reuss Voigt Hill
#
# Bulk Modulus (GPa) = 37.82868 52.79160 45.31014
# Shear Modulus (GPa) = 12.01764 17.93827 14.97795
#
# Velocity S-wave (km/s) = 2.55083 3.11646 2.84772
# Velocity P-wave (km/s) = 5.39975 6.44460 5.94517
#
# Compressibility (1/GPa) = 0.02643497
#
# Stress axis : x y z
#
# Youngs Moduli (GPa) = 26.34517 75.98395 65.33676
#
# Poissons Ratio (x) = 0.46865 0.59422
# Poissons Ratio (y) = 0.16249 0.30916
# Poissons Ratio (z) = 0.23960 0.35954
#
# Static dielectric constant tensor:
#      x y z
#    x 1.616630 0.000000 0.000000 
#    y 0.000000 1.667890 0.000000 
#    z 0.000000 0.000000 1.642050 
# 
# From -- ./inp_files/22224.got.cif
#   From: 2010.05.17/outbox.cif.g08.bks.cpg/sg51_12_cif.got.tgz:22224.got - 2010.06.03 11:52:47.
