data_PCOD9401150
_publ_section_title
;
Structure prediction by ZEFSAII (Michael W. Deem and Ramdas Pophale) SiO2 
 PCOD9401150
Probable space group: P M M A
;
_chemical_formula_sum "Si O2"
_cell_formula_units_Z 52
_cell_length_a 8.482363
_cell_length_b 24.947630
_cell_length_c 14.275177
_cell_angle_alpha 90.000000
_cell_angle_beta 90.000000
_cell_angle_gamma 90.000000
_cell_volume 3020.839492
_symmetry_space_group_name_H-M "P M M A"
_symmetry_group_IT_number 51
_symmetry_cell_setting 'orthorhombic'
loop_
_space_group_symop_operation_xyz
x,y,z
1/2-x,-y,z
1/2+x,-y,-z
-x,y,-z
-x,-y,-z
1/2+x,y,-z
1/2-x,y,z
x,-y,z
loop_
_atom_site_type_symbol
_atom_site_label
_atom_site_fract_x
_atom_site_fract_y
_atom_site_fract_z
Si Si1 0.560779 0.174787 0.393384
Si Si2 0.436662 0.722188 0.285211
Si Si3 0.559274 0.500000 0.392261
Si Si4 0.940748 0.557172 0.107513
Si Si5 0.439712 0.382251 0.606952
Si Si6 0.560849 0.324637 0.105615
Si Si7 0.059581 0.942391 0.607172
O O1 0.500000 0.179526 0.500000
O O2 0.750000 0.176562 0.395123
O O3 0.498994 0.224394 0.334246
O O4 0.509872 0.115896 0.355076
O O5 0.250000 0.721552 0.289401
O O6 0.499912 0.669393 0.338402
O O7 0.494313 0.717578 0.178545
O O8 0.750000 0.500000 0.390303
O O9 0.500000 0.500000 0.500000
O O10 0.510550 0.441344 0.354261
O O11 0.750000 0.557187 0.109400
O O12 0.992373 0.500000 0.150394
O O13 0.990766 0.615747 0.141467
O O14 0.000000 0.556185 0.000000
O O15 0.500000 0.379109 0.500000
O O16 0.250000 0.380907 0.608036
O O17 0.750000 0.323155 0.105543
O O18 0.500000 0.318031 0.000000
O O19 0.250000 0.942436 0.606859
O O20 0.000000 0.942553 0.500000
O O21 0.007745 0.000000 0.649060
#
# Coordination Sequence:
#
# PCOD9401150 Si02
#       7
#     8   8   4   8   8   8   8
#     4  10  19  32  50  73 103 137 171 206 244 285
#     4  12  24  36  49  69  97 130 168 205 243 289
#     4   8  16  30  50  70  89 116 151 194 244 294
#     4   8  14  26  46  69  89 110 136 172 223 284
#     4  10  19  34  53  73  95 122 156 198 247 297
#     4  10  20  36  55  73  95 122 156 198 247 300
#     4   8  14  25  43  68  98 132 167 200 235 278
#
# _framework density 17.213759
#
# number of rings (size 3 to 8) (size 9 to 14) (size 15 to 20)
#    0.000    2.462    0.000    3.231    0.000    1.846 
#    1.385    0.000    0.000    0.000    0.000    0.000 
#    0.000    0.615    0.000    1.692    0.000    2.769 
#
# Total GULP energy -289760.113391 kJ/mol
# GULP energy per Si atom -5572.309873 kJ/mol
# Density = 1.717458 g / cm^3
# Si number density = 17.213759 Si / 1000 Ang^3
#
#
#
# Elastic Constant Matrix: (Units=GPa)
#
#
# Indices 1 2 3 4 5 6 
#
# 1 51.8224 42.4438 19.4124 0.0000 0.0000 0.0000
# 2 42.4438 185.0004 66.2306 0.0000 0.0000 0.0000
# 3 19.4124 66.2306 63.0873 0.0000 0.0000 0.0000
# 4 0.0000 0.0000 0.0000 17.6369 0.0000 0.0000
# 5 0.0000 0.0000 0.0000 0.0000 17.7247 0.0000
# 6 0.0000 0.0000 0.0000 0.0000 0.0000 10.9195
#
#
#
# Elastic Compliance Matrix: (Units=1/GPa)
#
#
# Indices 1 2 3 4 5 6 
#
# 1 0.024019 -0.004590 -0.002573 0.000000 0.000000 0.000000
# 2 -0.004590 0.009537 -0.008600 0.000000 0.000000 0.000000
# 3 -0.002573 -0.008600 0.025671 0.000000 0.000000 0.000000
# 4 0.000000 0.000000 0.000000 0.056699 0.000000 0.000000
# 5 0.000000 0.000000 0.000000 0.000000 0.056418 0.000000
# 6 0.000000 0.000000 0.000000 0.000000 0.000000 0.091579
#
#
# Mechanical properties :
#
#
# Convention : Reuss Voigt Hill
#
# Bulk Modulus (GPa) = 36.09703 61.78708 48.94206
# Shear Modulus (GPa) = 16.41042 20.71111 18.56077
#
# Velocity S-wave (km/s) = 3.09096 3.47244 3.28724
# Velocity P-wave (km/s) = 5.80983 7.21450 6.54993
#
# Compressibility (1/GPa) = 0.02770311
#
# Stress axis : x y z
#
# Youngs Moduli (GPa) = 41.63298 104.85191 38.95392
#
# Poissons Ratio (x) = 0.48123 0.10021
# Poissons Ratio (y) = 0.19108 0.33501
# Poissons Ratio (z) = 0.10711 0.90175
#
# Static dielectric constant tensor:
#      x y z
#    x 1.584500 0.000000 0.000000 
#    y 0.000000 1.644210 0.000000 
#    z 0.000000 0.000000 1.581660 
# 
# From -- ./inp_files/22428.got.cif
#   From: 2010.05.17/outbox.cif.g08.bks.cpg/sg51_12_cif.got.tgz:22428.got - 2010.06.03 11:52:47.
