data_PCOD9401391
_publ_section_title
;
Structure prediction by ZEFSAII (Michael W. Deem and Ramdas Pophale) SiO2 
 PCOD9401391
Probable space group: P M M A
;
_chemical_formula_sum "Si O2"
_cell_formula_units_Z 48
_cell_length_a 17.619217
_cell_length_b 17.181592
_cell_length_c 9.430333
_cell_angle_alpha 90.000000
_cell_angle_beta 90.000000
_cell_angle_gamma 90.000000
_cell_volume 2854.808854
_symmetry_space_group_name_H-M "P M M A"
_symmetry_group_IT_number 51
_symmetry_cell_setting 'orthorhombic'
loop_
_space_group_symop_operation_xyz
x,y,z
1/2-x,-y,z
1/2+x,-y,-z
-x,y,-z
-x,-y,-z
1/2+x,y,-z
1/2-x,y,z
x,-y,z
loop_
_atom_site_type_symbol
_atom_site_label
_atom_site_fract_x
_atom_site_fract_y
_atom_site_fract_z
Si Si1 0.838974 0.710329 0.034795
Si Si2 0.391505 0.718726 0.394008
Si Si3 0.833410 0.845342 0.807852
Si Si4 0.658891 0.587927 0.791276
Si Si5 0.940633 0.757144 0.293949
Si Si6 0.995575 0.088415 0.830629
O O1 0.750000 0.698195 0.073587
O O2 0.894510 0.716934 0.167625
O O3 0.842273 0.791737 0.948252
O O4 0.862997 0.642847 0.924318
O O5 0.338588 0.781794 0.317301
O O6 0.363651 0.633255 0.351752
O O7 0.399155 0.740804 0.557675
O O8 0.474171 0.726474 0.320270
O O9 0.750000 0.882418 0.809882
O O10 0.906768 0.899239 0.793339
O O11 0.750000 0.585193 0.795493
O O12 0.629368 0.500000 0.799644
O O13 0.954719 0.847389 0.251319
O O14 0.019090 0.000000 0.800691
O O15 0.000000 0.101804 0.000000
#
# Coordination Sequence:
#
# PCOD9401391 Si02
#       6
#     8   8   8   8   8   8
#     4   9  17  30  51  73  97 131 172 214 254 301
#     4   9  19  32  51  74 103 139 172 205 252 309
#     4   9  17  31  50  74  99 131 175 215 250 303
#     4   9  18  34  54  77 104 133 167 208 255 304
#     4  10  19  34  50  76 104 133 175 214 248 306
#     4  10  19  32  53  77 102 134 171 216 268 305
#
# _framework density 16.813735999999999
#
# number of rings (size 3 to 8) (size 9 to 14) (size 15 to 20)
#    0.000    2.667    1.667    1.500    0.000    1.667 
#    0.000   10.833    0.000    2.500    0.000    0.000 
#    0.000    0.000    0.000    0.000    0.000    0.000 
#
# Total GULP energy -267288.564823 kJ/mol
# GULP energy per Si atom -5568.511767 kJ/mol
# Density = 1.677547 g / cm^3
# Si number density = 16.813736 Si / 1000 Ang^3
#
#
#
# Elastic Constant Matrix: (Units=GPa)
#
#
# Indices 1 2 3 4 5 6 
#
# 1 40.0024 20.5263 42.8284 0.0000 0.0000 0.0000
# 2 20.5263 95.3508 47.7038 0.0000 0.0000 0.0000
# 3 42.8284 47.7038 107.1479 0.0000 0.0000 0.0000
# 4 0.0000 0.0000 0.0000 12.5938 0.0000 0.0000
# 5 0.0000 0.0000 0.0000 0.0000 14.5937 0.0000
# 6 0.0000 0.0000 0.0000 0.0000 0.0000 15.2889
#
#
#
# Elastic Compliance Matrix: (Units=1/GPa)
#
#
# Indices 1 2 3 4 5 6 
#
# 1 0.043755 -0.000861 -0.017106 0.000000 0.000000 0.000000
# 2 -0.000861 0.013510 -0.005671 0.000000 0.000000 0.000000
# 3 -0.017106 -0.005671 0.018695 0.000000 0.000000 0.000000
# 4 0.000000 0.000000 0.000000 0.079404 0.000000 0.000000
# 5 0.000000 0.000000 0.000000 0.000000 0.068523 0.000000
# 6 0.000000 0.000000 0.000000 0.000000 0.000000 0.065407
#
#
# Mechanical properties :
#
#
# Convention : Reuss Voigt Hill
#
# Bulk Modulus (GPa) = 34.86218 51.62422 43.24320
# Shear Modulus (GPa) = 14.44542 17.25812 15.85177
#
# Velocity S-wave (km/s) = 2.93430 3.20727 3.07381
# Velocity P-wave (km/s) = 5.67974 6.66976 6.19456
#
# Compressibility (1/GPa) = 0.02868438
#
# Stress axis : x y z
#
# Youngs Moduli (GPa) = 22.85463 74.01945 53.49022
#
# Poissons Ratio (x) = 0.06374 0.91500
# Poissons Ratio (y) = 0.01968 0.30332
# Poissons Ratio (z) = 0.39095 0.41974
#
# Static dielectric constant tensor:
#      x y z
#    x 1.592230 0.000000 0.000000 
#    y 0.000000 1.570050 0.000000 
#    z 0.000000 0.000000 1.564730 
# 
# From -- ./inp_files/9801.got.cif
#   From: 2010.05.17/outbox.cif.g08.bks.cpg/sg51_5_cif.got.tgz:9801.got - 2010.06.03 11:52:47.
