data_PCOD9401775
_publ_section_title
;
Structure prediction by ZEFSAII (Michael W. Deem and Ramdas Pophale) SiO2 
 PCOD9401775
Probable space group: P M M A
;
_chemical_formula_sum "Si O2"
_cell_formula_units_Z 64
_cell_length_a 8.706544
_cell_length_b 24.705906
_cell_length_c 15.572206
_cell_angle_alpha 90.000000
_cell_angle_beta 90.000000
_cell_angle_gamma 90.000000
_cell_volume 3349.629125
_symmetry_space_group_name_H-M "P M M A"
_symmetry_group_IT_number 51
_symmetry_cell_setting 'orthorhombic'
loop_
_space_group_symop_operation_xyz
x,y,z
1/2-x,-y,z
1/2+x,-y,-z
-x,y,-z
-x,-y,-z
1/2+x,y,-z
1/2-x,y,z
x,-y,z
loop_
_atom_site_type_symbol
_atom_site_label
_atom_site_fract_x
_atom_site_fract_y
_atom_site_fract_z
Si Si1 0.566490 0.351361 0.774945
Si Si2 0.932145 0.327352 0.410123
Si Si3 0.428401 0.937293 0.771183
Si Si4 0.433031 0.435825 0.906686
Si Si5 0.069498 0.909954 0.410581
Si Si6 0.569419 0.214153 0.634053
Si Si7 0.933421 0.763780 0.183112
Si Si8 0.431561 0.859888 0.088254
O O1 0.750000 0.347503 0.774054
O O2 0.505595 0.351819 0.676649
O O3 0.510717 0.401785 0.831108
O O4 0.495637 0.297309 0.818170
O O5 0.750000 0.334181 0.407875
O O6 0.000000 0.348464 0.500000
O O7 0.973567 0.263339 0.405642
O O8 0.250000 0.920422 0.776518
O O9 0.484932 0.931765 0.673450
O O10 0.526040 0.899697 0.833894
O O11 0.440765 0.000000 0.796738
O O12 0.250000 0.426834 0.905974
O O13 0.461646 0.500000 0.895663
O O14 0.500000 0.420162 0.000000
O O15 0.250000 0.922324 0.405410
O O16 0.051610 0.844560 0.406999
O O17 0.000000 0.929783 0.500000
O O18 0.750000 0.228859 0.632297
O O19 0.510521 0.210907 0.731608
O O20 0.750000 0.763482 0.190937
O O21 0.987875 0.802302 0.106962
O O22 0.250000 0.852880 0.082775
O O23 0.500000 0.882386 0.000000
#
# Coordination Sequence:
#
# PCOD9401775 Si02
#       8
#     8   8   8   8   8   8   8   8
#     4  11  22  37  59  89 125 164 207 251 298 357
#     4  11  21  34  53  81 119 162 205 250 298 351
#     4  11  25  45  67  89 115 149 192 243 296 353
#     4  10  21  39  63  91 123 160 205 255 306 359
#     4  11  23  37  59  87 118 154 194 240 291 351
#     4  10  19  33  54  83 116 153 195 238 287 346
#     4  11  21  36  59  87 122 159 195 239 293 351
#     4  12  25  43  66  92 120 153 193 239 294 357
#
# _framework density 19.106594000000001
#
# number of rings (size 3 to 8) (size 9 to 14) (size 15 to 20)
#    0.000    1.125    1.250    7.875    0.000    5.250 
#    0.000    2.500    0.000    0.375    0.000    0.000 
#    0.000    0.000    0.000    0.000    0.000    0.000 
#
# Total GULP energy -357871.124472 kJ/mol
# GULP energy per Si atom -5591.736320 kJ/mol
# Density = 1.906311 g / cm^3
# Si number density = 19.106594 Si / 1000 Ang^3
#
#
#
# Elastic Constant Matrix: (Units=GPa)
#
#
# Indices 1 2 3 4 5 6 
#
# 1 80.8279 35.4461 8.1058 0.0000 0.0000 0.0000
# 2 35.4461 52.1114 34.2070 0.0000 0.0000 0.0000
# 3 8.1058 34.2070 90.9602 0.0000 0.0000 0.0000
# 4 0.0000 0.0000 0.0000 -13.3168 0.0000 0.0000
# 5 0.0000 0.0000 0.0000 0.0000 35.3697 0.0000
# 6 0.0000 0.0000 0.0000 0.0000 0.0000 171.6333
#
#
#
# Elastic Compliance Matrix: (Units=1/GPa)
#
#
# Indices 1 2 3 4 5 6 
#
# 1 0.018740 -0.015469 0.004148 0.000000 0.000000 0.000000
# 2 -0.015469 0.038249 -0.013006 0.000000 0.000000 0.000000
# 3 0.004148 -0.013006 0.015515 0.000000 0.000000 0.000000
# 4 0.000000 0.000000 0.000000 -0.075093 0.000000 0.000000
# 5 0.000000 0.000000 0.000000 0.000000 0.028273 0.000000
# 6 0.000000 0.000000 0.000000 0.000000 0.000000 0.005826
#
#
# Mechanical properties :
#
#
# Convention : Reuss Voigt Hill
#
# Bulk Modulus (GPa) = 41.93012 42.15748 42.04380
# Shear Modulus (GPa) = 56.74404 48.47995 52.61199
#
# Velocity S-wave (km/s) = 5.45556 5.04267 5.25317
# Velocity P-wave (km/s) = 7.85348 7.48445 7.67118
#
# Compressibility (1/GPa) = 0.02384920
#
# Stress axis : x y z
#
# Youngs Moduli (GPa) = 53.36186 26.14441 64.45299
#
# Poissons Ratio (x) = 0.40444 -0.26732
# Poissons Ratio (y) = 0.82548 0.83825
# Poissons Ratio (z) = -0.22132 0.34002
#
# Static dielectric constant tensor:
#      x y z
#    x 1.638070 0.000000 0.000000 
#    y 0.000000 1.662010 0.000000 
#    z 0.000000 0.000000 1.732430 
# 
# From -- ./inp_files/22301.got.cif
#   From: 2010.05.17/outbox.cif.g08.bks.cpg/sg51_12_cif.got.tgz:22301.got - 2010.06.03 11:52:47.
