data_PCOD9401697
_publ_section_title
;
Structure prediction by ZEFSAII (Michael W. Deem and Ramdas Pophale) SiO2 
 PCOD9401697
Probable space group: P M M A
;
_chemical_formula_sum "Si O2"
_cell_formula_units_Z 48
_cell_length_a 15.609434
_cell_length_b 18.803827
_cell_length_c 9.555556
_cell_angle_alpha 90.000000
_cell_angle_beta 90.000000
_cell_angle_gamma 90.000000
_cell_volume 2804.719053
_symmetry_space_group_name_H-M "P M M A"
_symmetry_group_IT_number 51
_symmetry_cell_setting 'orthorhombic'
loop_
_space_group_symop_operation_xyz
x,y,z
1/2-x,-y,z
1/2+x,-y,-z
-x,y,-z
-x,-y,-z
1/2+x,y,-z
1/2-x,y,z
x,-y,z
loop_
_atom_site_type_symbol
_atom_site_label
_atom_site_fract_x
_atom_site_fract_y
_atom_site_fract_z
Si Si1 0.349939 0.417778 0.661475
Si Si2 0.152157 0.835880 0.360976
Si Si3 0.650363 0.915246 0.347651
Si Si4 0.483655 0.667996 0.839647
Si Si5 0.509718 0.162358 0.162150
Si Si6 0.589789 0.319125 0.580040
O O1 0.250000 0.414992 0.695748
O O2 0.377248 0.500000 0.653585
O O3 0.405215 0.375160 0.774668
O O4 0.365649 0.378412 0.513919
O O5 0.250000 0.848630 0.313901
O O6 0.134903 0.883628 0.497543
O O7 0.079709 0.848440 0.244576
O O8 0.142023 0.753606 0.407644
O O9 0.750000 0.899163 0.312429
O O10 0.584446 0.879640 0.240921
O O11 0.639708 0.000000 0.349111
O O12 0.469191 0.753195 0.832239
O O13 0.563204 0.655045 0.734408
O O14 0.500000 0.649007 0.000000
O O15 0.500000 0.142104 0.000000
O O16 0.500000 0.302116 0.500000
#
# Coordination Sequence:
#
# PCOD9401697 Si02
#       6
#     8   8   8   8   8   8
#     4  10  20  33  50  74 102 132 169 212 257 304
#     4  10  19  33  54  78 103 133 172 216 260 307
#     4  10  21  36  55  79 105 136 174 214 257 304
#     4   9  19  35  52  74 102 133 170 208 252 306
#     4  10  21  36  54  78 107 138 173 212 258 309
#     4   9  17  31  53  75  98 131 170 210 255 304
#
# _framework density 17.114014000000001
#
# number of rings (size 3 to 8) (size 9 to 14) (size 15 to 20)
#    0.000    2.333    0.000    4.000    0.000    7.667 
#    0.000    7.500    0.000    4.000    0.000    0.000 
#    0.000    0.000    0.000    0.000    0.000    0.000 
#
# Total GULP energy -267765.093121 kJ/mol
# GULP energy per Si atom -5578.439440 kJ/mol
# Density = 1.707506 g / cm^3
# Si number density = 17.114014 Si / 1000 Ang^3
#
#
#
# Elastic Constant Matrix: (Units=GPa)
#
#
# Indices 1 2 3 4 5 6 
#
# 1 106.7257 66.6860 78.6163 0.0000 0.0000 0.0000
# 2 66.6860 72.7466 69.5442 0.0000 0.0000 0.0000
# 3 78.6163 69.5442 156.0045 0.0000 0.0000 0.0000
# 4 0.0000 0.0000 0.0000 1.0363 0.0000 0.0000
# 5 0.0000 0.0000 0.0000 0.0000 12.3439 0.0000
# 6 0.0000 0.0000 0.0000 0.0000 0.0000 29.4091
#
#
#
# Elastic Compliance Matrix: (Units=1/GPa)
#
#
# Indices 1 2 3 4 5 6 
#
# 1 0.023187 -0.017575 -0.003850 0.000000 0.000000 0.000000
# 2 -0.017575 0.037276 -0.007760 0.000000 0.000000 0.000000
# 3 -0.003850 -0.007760 0.011810 0.000000 0.000000 0.000000
# 4 0.000000 0.000000 0.000000 0.964980 0.000000 0.000000
# 5 0.000000 0.000000 0.000000 0.000000 0.081012 0.000000
# 6 0.000000 0.000000 0.000000 0.000000 0.000000 0.034003
#
#
# Mechanical properties :
#
#
# Convention : Reuss Voigt Hill
#
# Bulk Modulus (GPa) = 71.93246 85.01888 78.47567
# Shear Modulus (GPa) = 4.11430 16.59988 10.35709
#
# Velocity S-wave (km/s) = 1.55218 3.11779 2.46271
# Velocity P-wave (km/s) = 6.73312 7.92128 7.35124
#
# Compressibility (1/GPa) = 0.01390193
#
# Stress axis : x y z
#
# Youngs Moduli (GPa) = 43.12678 26.82720 84.67476
#
# Poissons Ratio (x) = 0.47148 0.32604
# Poissons Ratio (y) = 0.75794 0.65710
# Poissons Ratio (z) = 0.16606 0.20819
#
# Static dielectric constant tensor:
#      x y z
#    x 1.575700 0.000000 0.000000 
#    y 0.000000 1.566250 0.000000 
#    z 0.000000 0.000000 1.569810 
# 
# From -- ./inp_files/8264.got.cif
#   From: 2010.05.17/outbox.cif.g08.bks.cpg/sg51_5_cif.got.tgz:8264.got - 2010.06.03 11:52:47.
