data_PCOD9401465
_publ_section_title
;
Structure prediction by ZEFSAII (Michael W. Deem and Ramdas Pophale) SiO2 
 PCOD9401465
Probable space group: P M M A
;
_chemical_formula_sum "Si O2"
_cell_formula_units_Z 64
_cell_length_a 20.541408
_cell_length_b 8.589183
_cell_length_c 18.298494
_cell_angle_alpha 90.000000
_cell_angle_beta 90.000000
_cell_angle_gamma 90.000000
_cell_volume 3228.474887
_symmetry_space_group_name_H-M "P M M A"
_symmetry_group_IT_number 51
_symmetry_cell_setting 'orthorhombic'
loop_
_space_group_symop_operation_xyz
x,y,z
1/2-x,-y,z
1/2+x,-y,-z
-x,y,-z
-x,-y,-z
1/2+x,y,-z
1/2-x,y,z
x,-y,z
loop_
_atom_site_type_symbol
_atom_site_label
_atom_site_fract_x
_atom_site_fract_y
_atom_site_fract_z
Si Si1 0.677006 0.809602 0.129727
Si Si2 0.064818 0.324888 0.192167
Si Si3 0.534442 0.812298 0.074985
Si Si4 0.820190 0.812429 0.453674
Si Si5 0.675236 0.813616 0.716974
Si Si6 0.596116 0.686189 0.578228
Si Si7 0.652917 0.818072 0.294245
Si Si8 0.022185 0.676100 0.663551
O O1 0.750000 0.764586 0.102769
O O2 0.609594 0.759242 0.089722
O O3 0.671272 0.755408 0.214620
O O4 0.675674 0.000000 0.129310
O O5 0.076754 0.500000 0.165007
O O6 0.132025 0.242379 0.214226
O O7 0.014963 0.239182 0.138551
O O8 0.027645 0.335681 0.269316
O O9 0.537056 0.000000 0.073794
O O10 0.500000 0.759024 0.000000
O O11 0.750000 0.775763 0.488103
O O12 0.877240 0.741087 0.500936
O O13 0.819018 0.755028 0.370114
O O14 0.827141 0.000000 0.452389
O O15 0.750000 0.760884 0.722010
O O16 0.642657 0.753374 0.641886
O O17 0.673770 0.000000 0.714806
O O18 0.597668 0.500000 0.582716
O O19 0.521955 0.732456 0.596585
O O20 0.576994 0.791915 0.309043
O O21 0.669968 0.000000 0.291417
O O22 0.047974 0.500000 0.650009
#
# Coordination Sequence:
#
# PCOD9401465 Si02
#       8
#     8   8   8   8   8   8   8   8
#     4   9  17  32  56  84 112 145 186 232 282 333
#     4  10  20  35  56  81 112 149 186 226 276 339
#     4  10  20  35  58  88 117 148 189 234 279 334
#     4  10  21  35  49  70 101 135 178 234 288 336
#     4  10  20  34  55  82 110 143 187 240 289 331
#     4  10  21  35  51  73 104 145 187 228 279 341
#     4  10  19  32  54  78 100 135 182 232 279 331
#     4   9  19  34  51  74 103 136 175 221 273 329
#
# _framework density 19.823602000000001
#
# number of rings (size 3 to 8) (size 9 to 14) (size 15 to 20)
#    0.000    2.250    1.250    2.625    0.000    8.000 
#    0.000    3.125    0.000    4.500    0.000    0.000 
#    0.000    0.000    0.000    0.000    0.000    0.000 
#
# Total GULP energy -356683.130777 kJ/mol
# GULP energy per Si atom -5573.173918 kJ/mol
# Density = 1.977848 g / cm^3
# Si number density = 19.823602 Si / 1000 Ang^3
#
#
#
# Elastic Constant Matrix: (Units=GPa)
#
#
# Indices 1 2 3 4 5 6 
#
# 1 138.9417 21.3720 49.9544 0.0000 0.0000 0.0000
# 2 21.3720 10.5882 7.2074 0.0000 0.0000 0.0000
# 3 49.9544 7.2074 83.5565 0.0000 0.0000 0.0000
# 4 0.0000 0.0000 0.0000 0.4011 0.0000 0.0000
# 5 0.0000 0.0000 0.0000 0.0000 -21.5943 0.0000
# 6 0.0000 0.0000 0.0000 0.0000 0.0000 211.6152
#
#
#
# Elastic Compliance Matrix: (Units=1/GPa)
#
#
# Indices 1 2 3 4 5 6 
#
# 1 0.012521 -0.021437 -0.005637 0.000000 0.000000 0.000000
# 2 -0.021437 0.137038 0.000996 0.000000 0.000000 0.000000
# 3 -0.005637 0.000996 0.015252 0.000000 0.000000 0.000000
# 4 0.000000 0.000000 0.000000 2.493255 0.000000 0.000000
# 5 0.000000 0.000000 0.000000 0.000000 -0.046308 0.000000
# 6 0.000000 0.000000 0.000000 0.000000 0.000000 0.004726
#
#
# Mechanical properties :
#
#
# Convention : Reuss Voigt Hill
#
# Bulk Modulus (GPa) = 8.87670 43.35044 26.11357
# Shear Modulus (GPa) = 1.84762 48.38790 25.11776
#
# Velocity S-wave (km/s) = 0.96646 4.94593 3.56345
# Velocity P-wave (km/s) = 2.39436 7.38457 5.48930
#
# Compressibility (1/GPa) = 0.11265447
#
# Stress axis : x y z
#
# Youngs Moduli (GPa) = 79.86356 7.29727 65.56508
#
# Poissons Ratio (x) = 0.15643 0.36958
# Poissons Ratio (y) = 1.71205 -0.06529
# Poissons Ratio (z) = 0.45017 -0.00727
#
# Static dielectric constant tensor:
#      x y z
#    x 1.760270 0.000000 0.000000 
#    y 0.000000 1.689600 0.000000 
#    z 0.000000 0.000000 1.714570 
# 
# From -- ./inp_files/30585.got.cif
#   From: 2010.05.17/outbox.cif.g08.bks.cpg/sg51_16_cif.got.tgz:30585.got - 2010.06.03 11:52:47.
