data_PCOD9401566
_publ_section_title
;
Structure prediction by ZEFSAII (Michael W. Deem and Ramdas Pophale) SiO2 
 PCOD9401566
Probable space group: P M M A
;
_chemical_formula_sum "Si O2"
_cell_formula_units_Z 40
_cell_length_a 14.686877
_cell_length_b 7.553488
_cell_length_c 17.874185
_cell_angle_alpha 90.000000
_cell_angle_beta 90.000000
_cell_angle_gamma 90.000000
_cell_volume 1982.911128
_symmetry_space_group_name_H-M "P M M A"
_symmetry_group_IT_number 51
_symmetry_cell_setting 'orthorhombic'
loop_
_space_group_symop_operation_xyz
x,y,z
1/2-x,-y,z
1/2+x,-y,-z
-x,y,-z
-x,-y,-z
1/2+x,y,-z
1/2-x,y,z
x,-y,z
loop_
_atom_site_type_symbol
_atom_site_label
_atom_site_fract_x
_atom_site_fract_y
_atom_site_fract_z
Si Si1 0.509716 0.283791 0.379723
Si Si2 0.450908 0.793071 0.074732
Si Si3 0.936677 0.706056 0.217736
Si Si4 0.353666 0.284020 0.489761
Si Si5 0.750000 0.717684 0.145850
Si Si6 0.750000 0.287924 0.973012
O O1 0.506607 0.500000 0.379134
O O2 0.526326 0.219283 0.295705
O O3 0.416411 0.227062 0.420067
O O4 0.592297 0.233181 0.434960
O O5 0.491363 0.714611 0.150425
O O6 0.343158 0.771355 0.065620
O O7 0.473708 0.000000 0.077943
O O8 0.500000 0.718532 0.000000
O O9 0.917670 0.500000 0.233276
O O10 0.841309 0.779655 0.187022
O O11 0.250000 0.222267 0.487370
O O12 0.351980 0.500000 0.489177
O O13 0.750000 0.500000 0.144395
O O14 0.750000 0.774304 0.059294
O O15 0.750000 0.500000 0.973556
#
# Coordination Sequence:
#
# PCOD9401566 Si02
#       6
#     8   8   8   8   4   4
#     4   8  15  25  40  65  97 131 167 209 260 314
#     4  11  23  38  55  76 106 142 176 213 264 321
#     4  10  19  33  51  76 105 135 176 224 268 312
#     4   8  13  23  39  62  95 132 164 203 260 318
#     4   9  18  29  49  77 102 127 168 224 271 305
#     4  11  21  37  59  79 100 135 180 224 267 309
#
# _framework density 20.172360999999999
#
# number of rings (size 3 to 8) (size 9 to 14) (size 15 to 20)
#    0.000    2.600    2.000    2.100    1.400    0.800 
#    1.800    0.500    0.000    0.000    0.000    2.800 
#    0.000    1.600    0.000    0.000    0.000    0.000 
#
# Total GULP energy -223243.887749 kJ/mol
# GULP energy per Si atom -5581.097194 kJ/mol
# Density = 2.012645 g / cm^3
# Si number density = 20.172361 Si / 1000 Ang^3
#
#
#
# Elastic Constant Matrix: (Units=GPa)
#
#
# Indices 1 2 3 4 5 6 
#
# 1 189.9220 -13.0844 101.3954 0.0000 0.0000 0.0000
# 2 -13.0844 45.3275 -5.2559 0.0000 0.0000 0.0000
# 3 101.3954 -5.2559 183.3520 0.0000 0.0000 0.0000
# 4 0.0000 0.0000 0.0000 -20.6917 0.0000 0.0000
# 5 0.0000 0.0000 0.0000 0.0000 2.9755 0.0000
# 6 0.0000 0.0000 0.0000 0.0000 0.0000 -10.1412
#
#
#
# Elastic Compliance Matrix: (Units=1/GPa)
#
#
# Indices 1 2 3 4 5 6 
#
# 1 0.007601 0.001712 -0.004155 0.000000 0.000000 0.000000
# 2 0.001712 0.022521 -0.000301 0.000000 0.000000 0.000000
# 3 -0.004155 -0.000301 0.007743 0.000000 0.000000 0.000000
# 4 0.000000 0.000000 0.000000 -0.048329 0.000000 0.000000
# 5 0.000000 0.000000 0.000000 0.000000 0.336081 0.000000
# 6 0.000000 0.000000 0.000000 0.000000 0.000000 -0.098608
#
#
# Mechanical properties :
#
#
# Convention : Reuss Voigt Hill
#
# Bulk Modulus (GPa) = 30.88490 64.96795 47.92643
# Shear Modulus (GPa) = 20.55167 16.79828 18.67498
#
# Velocity S-wave (km/s) = 3.19533 2.88885 3.04595
# Velocity P-wave (km/s) = 5.38120 6.58814 6.01502
#
# Compressibility (1/GPa) = 0.03237828
#
# Stress axis : x y z
#
# Youngs Moduli (GPa) = 131.55639 44.40288 129.15173
#
# Poissons Ratio (x) = -0.07604 0.53656
# Poissons Ratio (y) = -0.22529 0.03893
# Poissons Ratio (z) = 0.54655 0.01339
#
# Static dielectric constant tensor:
#      x y z
#    x 1.683470 0.000000 0.000000 
#    y 0.000000 1.759680 0.000000 
#    z 0.000000 0.000000 1.695310 
# 
# From -- ./inp_files/23816.got.cif
#   From: 2010.05.17/outbox.cif.g08.bks.cpg/sg51_12_cif.got.tgz:23816.got - 2010.06.03 11:52:47.
