data_PCOD9401362
_publ_section_title
;
Structure prediction by ZEFSAII (Michael W. Deem and Ramdas Pophale) SiO2 
 PCOD9401362
Probable space group: P M M A
;
_chemical_formula_sum "Si O2"
_cell_formula_units_Z 64
_cell_length_a 8.723631
_cell_length_b 21.133243
_cell_length_c 20.201329
_cell_angle_alpha 90.000000
_cell_angle_beta 90.000000
_cell_angle_gamma 90.000000
_cell_volume 3724.289011
_symmetry_space_group_name_H-M "P M M A"
_symmetry_group_IT_number 51
_symmetry_cell_setting 'orthorhombic'
loop_
_space_group_symop_operation_xyz
x,y,z
1/2-x,-y,z
1/2+x,-y,-z
-x,y,-z
-x,-y,-z
1/2+x,y,-z
1/2-x,y,z
x,-y,z
loop_
_atom_site_type_symbol
_atom_site_label
_atom_site_fract_x
_atom_site_fract_y
_atom_site_fract_z
Si Si1 0.432552 0.071538 0.205143
Si Si2 0.566013 0.233447 0.430197
Si Si3 0.933577 0.618117 0.429662
Si Si4 0.565861 0.813823 0.288622
Si Si5 0.934905 0.429840 0.706406
Si Si6 0.566920 0.880545 0.069838
Si Si7 0.065256 0.692728 0.211806
Si Si8 0.066370 0.738668 0.068775
O O1 0.250000 0.080072 0.198822
O O2 0.497732 0.124349 0.254230
O O3 0.507061 0.081937 0.133194
O O4 0.463641 0.000000 0.227923
O O5 0.500000 0.210789 0.500000
O O6 0.750000 0.231673 0.433529
O O7 0.521759 0.307514 0.422082
O O8 0.517074 0.195663 0.364973
O O9 0.750000 0.613955 0.430670
O O10 0.000000 0.596068 0.500000
O O11 0.999391 0.582099 0.366632
O O12 0.750000 0.816406 0.285979
O O13 0.510011 0.752026 0.248900
O O14 0.750000 0.427569 0.702760
O O15 0.979693 0.500000 0.729584
O O16 0.984497 0.372598 0.754052
O O17 0.750000 0.880556 0.067477
O O18 0.506202 0.808448 0.077639
O O19 0.500000 0.904329 0.000000
O O20 0.250000 0.698307 0.218541
O O21 0.029969 0.698330 0.133964
O O22 0.250000 0.745613 0.063624
O O23 0.000000 0.712770 0.000000
#
# Coordination Sequence:
#
# PCOD9401362 Si02
#       8
#     8   8   8   8   8   8   8   8
#     4  11  24  40  56  78 110 147 185 223 267 322
#     4   9  19  33  52  81 110 138 173 219 268 319
#     4  10  19  33  51  75 107 142 181 219 265 320
#     4  11  21  35  57  84 110 138 179 226 272 320
#     4  10  21  36  53  76 106 143 185 226 271 322
#     4  11  21  34  54  79 110 146 183 222 266 317
#     4  10  20  34  55  79 106 141 180 223 271 322
#     4  10  19  32  52  79 108 138 177 221 271 322
#
# _framework density 17.184487000000001
#
# number of rings (size 3 to 8) (size 9 to 14) (size 15 to 20)
#    0.000    1.750    2.500    3.375    0.000    3.750 
#    0.000    0.000    0.000    0.750    0.000    0.000 
#    0.000    0.000    0.000    0.000    0.000    0.500 
#
# Total GULP energy -357363.160981 kJ/mol
# GULP energy per Si atom -5583.799390 kJ/mol
# Density = 1.714537 g / cm^3
# Si number density = 17.184487 Si / 1000 Ang^3
#
#
#
# Elastic Constant Matrix: (Units=GPa)
#
#
# Indices 1 2 3 4 5 6 
#
# 1 52.1290 43.7892 45.0483 0.0000 0.0000 0.0000
# 2 43.7892 109.4995 72.7948 0.0000 0.0000 0.0000
# 3 45.0483 72.7948 137.3605 0.0000 0.0000 0.0000
# 4 0.0000 0.0000 0.0000 21.4258 0.0000 0.0000
# 5 0.0000 0.0000 0.0000 0.0000 29.1730 0.0000
# 6 0.0000 0.0000 0.0000 0.0000 0.0000 -300.8604
#
#
#
# Elastic Compliance Matrix: (Units=1/GPa)
#
#
# Indices 1 2 3 4 5 6 
#
# 1 0.031484 -0.008841 -0.005640 0.000000 0.000000 0.000000
# 2 -0.008841 0.016583 -0.005889 0.000000 0.000000 0.000000
# 3 -0.005640 -0.005889 0.012250 0.000000 0.000000 0.000000
# 4 0.000000 0.000000 0.000000 0.046673 0.000000 0.000000
# 5 0.000000 0.000000 0.000000 0.000000 0.034278 0.000000
# 6 0.000000 0.000000 0.000000 0.000000 0.000000 -0.003324
#
#
# Mechanical properties :
#
#
# Convention : Reuss Voigt Hill
#
# Bulk Modulus (GPa) = 51.07848 69.13927 60.10887
# Shear Modulus (GPa) = 26.99654 -40.89519 -6.94933
#
# Velocity S-wave (km/s) = 3.96786 -4.88358 -2.01314
# Velocity P-wave (km/s) = 7.12601 2.91919 5.44526
#
# Compressibility (1/GPa) = 0.01957772
#
# Stress axis : x y z
#
# Youngs Moduli (GPa) = 31.76252 60.30371 81.62948
#
# Poissons Ratio (x) = 0.53314 0.46039
# Poissons Ratio (y) = 0.28081 0.48069
# Poissons Ratio (z) = 0.17914 0.35511
#
# Static dielectric constant tensor:
#      x y z
#    x 1.576640 0.000000 0.000000 
#    y 0.000000 1.576920 0.000000 
#    z 0.000000 0.000000 1.582400 
# 
# From -- ./inp_files/28407.got.cif
#   From: 2010.05.17/outbox.cif.g08.bks.cpg/sg51_15_cif.got.tgz:28407.got - 2010.06.03 11:52:47.
