data_PCOD9401971
_publ_section_title
;
Structure prediction by ZEFSAII (Michael W. Deem and Ramdas Pophale) SiO2 
 PCOD9401971
Probable space group: P M M A
;
_chemical_formula_sum "Si O2"
_cell_formula_units_Z 48
_cell_length_a 14.262932
_cell_length_b 10.578555
_cell_length_c 13.770035
_cell_angle_alpha 90.000000
_cell_angle_beta 90.000000
_cell_angle_gamma 90.000000
_cell_volume 2077.639551
_symmetry_space_group_name_H-M "P M M A"
_symmetry_group_IT_number 51
_symmetry_cell_setting 'orthorhombic'
loop_
_space_group_symop_operation_xyz
x,y,z
1/2-x,-y,z
1/2+x,-y,-z
-x,y,-z
-x,-y,-z
1/2+x,y,-z
1/2-x,y,z
x,-y,z
loop_
_atom_site_type_symbol
_atom_site_label
_atom_site_fract_x
_atom_site_fract_y
_atom_site_fract_z
Si Si1 0.864650 0.273746 0.402943
Si Si2 0.135797 0.000000 0.526998
Si Si3 0.136301 0.500000 0.456175
Si Si4 0.863440 0.641924 0.189334
Si Si5 0.634589 0.000000 0.699346
Si Si6 0.644327 0.231305 0.822834
Si Si7 0.606532 0.859557 0.033098
Si Si8 0.364951 0.500000 0.230854
O O1 0.750000 0.272372 0.402936
O O2 0.896010 0.131097 0.424993
O O3 0.892383 0.374622 0.485283
O O4 0.895411 0.322909 0.297852
O O5 0.110995 0.000000 0.413308
O O6 0.250000 0.000000 0.531752
O O7 0.250000 0.500000 0.455823
O O8 0.108664 0.500000 0.344053
O O9 0.750000 0.637708 0.192733
O O10 0.894692 0.500000 0.161957
O O11 0.885973 0.753237 0.114523
O O12 0.599077 0.876738 0.756670
O O13 0.750000 0.000000 0.706344
O O14 0.750000 0.244977 0.782451
O O15 0.652380 0.184249 0.932487
O O16 0.600637 0.369904 0.816768
O O17 0.638765 0.000000 0.063763
O O18 0.500000 0.869236 0.000000
O O19 0.250000 0.500000 0.221234
#
# Coordination Sequence:
#
# PCOD9401971 Si02
#       8
#     8   4   4   8   4   8   8   4
#     4   9  16  27  45  74 112 144 172 212 264 317
#     4   9  16  24  41  75 112 142 173 211 258 319
#     4   9  14  26  45  71 112 148 171 207 260 315
#     4  10  21  37  58  85 113 143 180 224 273 325
#     4   9  16  28  48  75 109 144 177 217 270 319
#     4  10  19  34  54  80 111 140 176 225 274 321
#     4  11  25  42  58  78 105 143 188 232 280 332
#     4   9  18  28  48  81 113 144 175 211 264 327
#
# _framework density 23.103138999999999
#
# number of rings (size 3 to 8) (size 9 to 14) (size 15 to 20)
#    0.000    2.333    1.667    1.500    2.333    5.333 
#    0.000    0.000    0.000    0.000    0.000    7.000 
#    0.000    0.000    0.000    0.000    0.000    0.000 
#
# Total GULP energy -268334.479665 kJ/mol
# GULP energy per Si atom -5590.301660 kJ/mol
# Density = 2.305056 g / cm^3
# Si number density = 23.103139 Si / 1000 Ang^3
#
#
#
# Elastic Constant Matrix: (Units=GPa)
#
#
# Indices 1 2 3 4 5 6 
#
# 1 59.3994 14.4172 -1.7874 0.0000 0.0000 0.0000
# 2 14.4172 259.3055 79.3851 0.0000 0.0000 0.0000
# 3 -1.7874 79.3851 87.5405 0.0000 0.0000 0.0000
# 4 0.0000 0.0000 0.0000 46.7269 0.0000 0.0000
# 5 0.0000 0.0000 0.0000 0.0000 -13.6003 0.0000
# 6 0.0000 0.0000 0.0000 0.0000 0.0000 10.9192
#
#
#
# Elastic Compliance Matrix: (Units=1/GPa)
#
#
# Indices 1 2 3 4 5 6 
#
# 1 0.017244 -0.001476 0.001691 0.000000 0.000000 0.000000
# 2 -0.001476 0.005465 -0.004986 0.000000 0.000000 0.000000
# 3 0.001691 -0.004986 0.015979 0.000000 0.000000 0.000000
# 4 0.000000 0.000000 0.000000 0.021401 0.000000 0.000000
# 5 0.000000 0.000000 0.000000 0.000000 -0.073528 0.000000
# 6 0.000000 0.000000 0.000000 0.000000 0.000000 0.091582
#
#
# Mechanical properties :
#
#
# Convention : Reuss Voigt Hill
#
# Bulk Modulus (GPa) = 34.31023 65.58614 49.94818
# Shear Modulus (GPa) = 51.33398 29.75787 40.54592
#
# Velocity S-wave (km/s) = 4.71887 3.59283 4.19381
# Velocity P-wave (km/s) = 6.67633 6.75731 6.71694
#
# Compressibility (1/GPa) = 0.02914583
#
# Stress axis : x y z
#
# Youngs Moduli (GPa) = 57.98969 182.98293 62.58089
#
# Poissons Ratio (x) = 0.27017 -0.10583
# Poissons Ratio (y) = 0.08562 0.31203
# Poissons Ratio (z) = -0.09806 0.91236
#
# Static dielectric constant tensor:
#      x y z
#    x 1.917860 0.000000 0.000000 
#    y 0.000000 1.877490 0.000000 
#    z 0.000000 0.000000 1.782250 
# 
# From -- ./inp_files/25043.got.cif
#   From: 2010.05.17/outbox.cif.g08.bks.cpg/sg51_13_cif.got.tgz:25043.got - 2010.06.03 11:52:47.
