data_PCOD9401347
_publ_section_title
;
Structure prediction by ZEFSAII (Michael W. Deem and Ramdas Pophale) SiO2 
 PCOD9401347
Probable space group: P M M A
;
_chemical_formula_sum "Si O2"
_cell_formula_units_Z 40
_cell_length_a 8.306217
_cell_length_b 27.071861
_cell_length_c 9.408550
_cell_angle_alpha 90.000000
_cell_angle_beta 90.000000
_cell_angle_gamma 90.000000
_cell_volume 2115.651263
_symmetry_space_group_name_H-M "P M M A"
_symmetry_group_IT_number 51
_symmetry_cell_setting 'orthorhombic'
loop_
_space_group_symop_operation_xyz
x,y,z
1/2-x,-y,z
1/2+x,-y,-z
-x,y,-z
-x,-y,-z
1/2+x,y,-z
1/2-x,y,z
x,-y,z
loop_
_atom_site_type_symbol
_atom_site_label
_atom_site_fract_x
_atom_site_fract_y
_atom_site_fract_z
Si Si1 0.943171 0.339001 0.836565
Si Si2 0.555518 0.447011 0.835712
Si Si3 0.444504 0.055594 0.660882
Si Si4 0.555212 0.850398 0.161520
Si Si5 0.557739 0.755215 0.338436
O O1 0.750000 0.338287 0.836697
O O2 0.998292 0.393320 0.780832
O O3 0.004453 0.294284 0.741787
O O4 0.000000 0.333494 0.000000
O O5 0.750000 0.447090 0.831825
O O6 0.500206 0.500000 0.773129
O O7 0.500000 0.447251 0.000000
O O8 0.500000 0.065620 0.500000
O O9 0.250000 0.055655 0.662190
O O10 0.501036 0.098758 0.765109
O O11 0.499072 0.000000 0.699392
O O12 0.750000 0.850379 0.163977
O O13 0.498004 0.803309 0.252445
O O14 0.500000 0.846660 0.000000
O O15 0.500000 0.756023 0.500000
O O16 0.750000 0.756908 0.338105
#
# Coordination Sequence:
#
# PCOD9401347 Si02
#       5
#     8   8   8   8   8
#     4  10  19  32  52  78 107 137 171 212 256 303
#     4   8  14  25  43  69 100 132 165 203 248 297
#     4   9  18  34  55  79 107 138 173 211 251 298
#     4  10  22  37  54  78 106 136 170 211 257 304
#     4  11  23  38  55  75 101 134 173 215 261 313
#
# _framework density 18.906707999999998
#
# number of rings (size 3 to 8) (size 9 to 14) (size 15 to 20)
#    0.000    2.400    0.000    2.400    0.000    5.200 
#    0.000    0.000    0.000    0.600    0.000    0.000 
#    0.000    0.000    0.000    0.000    0.000    0.000 
#
# Total GULP energy -223052.713420 kJ/mol
# GULP energy per Si atom -5576.317835 kJ/mol
# Density = 1.886368 g / cm^3
# Si number density = 18.906708 Si / 1000 Ang^3
#
#
#
# Elastic Constant Matrix: (Units=GPa)
#
#
# Indices 1 2 3 4 5 6 
#
# 1 18.7888 26.8399 15.2642 0.0000 0.0000 0.0000
# 2 26.8399 220.0244 116.4439 0.0000 0.0000 0.0000
# 3 15.2642 116.4439 119.5856 0.0000 0.0000 0.0000
# 4 0.0000 0.0000 0.0000 -20.4384 0.0000 0.0000
# 5 0.0000 0.0000 0.0000 0.0000 30.0203 0.0000
# 6 0.0000 0.0000 0.0000 0.0000 0.0000 21.5875
#
#
#
# Elastic Compliance Matrix: (Units=1/GPa)
#
#
# Indices 1 2 3 4 5 6 
#
# 1 0.064536 -0.007248 -0.001180 0.000000 0.000000 0.000000
# 2 -0.007248 0.010191 -0.008998 0.000000 0.000000 0.000000
# 3 -0.001180 -0.008998 0.017275 0.000000 0.000000 0.000000
# 4 0.000000 0.000000 0.000000 -0.048927 0.000000 0.000000
# 5 0.000000 0.000000 0.000000 0.000000 0.033311 0.000000
# 6 0.000000 0.000000 0.000000 0.000000 0.000000 0.046323
#
#
# Mechanical properties :
#
#
# Convention : Reuss Voigt Hill
#
# Bulk Modulus (GPa) = 17.49808 75.05498 46.27653
# Shear Modulus (GPa) = 28.31083 19.55727 23.93405
#
# Velocity S-wave (km/s) = 3.87382 3.21971 3.56181
# Velocity P-wave (km/s) = 5.41144 7.32160 6.43776
#
# Compressibility (1/GPa) = 0.05714913
#
# Stress axis : x y z
#
# Youngs Moduli (GPa) = 15.49531 98.12206 57.88741
#
# Poissons Ratio (x) = 0.71119 0.06830
# Poissons Ratio (y) = 0.11231 0.52090
# Poissons Ratio (z) = 0.01828 0.88295
#
# Static dielectric constant tensor:
#      x y z
#    x 1.665620 0.000000 0.000000 
#    y 0.000000 1.715310 0.000000 
#    z 0.000000 0.000000 1.595260 
# 
# From -- ./inp_files/5262.got.cif
#   From: 2010.05.17/outbox.cif.g08.bks.cpg/sg51_3_cif.got.tgz:5262.got - 2010.06.03 11:52:47.
