data_PCOD9401304
_publ_section_title
;
Structure prediction by ZEFSAII (Michael W. Deem and Ramdas Pophale) SiO2 
 PCOD9401304
Probable space group: P M M A
;
_chemical_formula_sum "Si O2"
_cell_formula_units_Z 64
_cell_length_a 16.670253
_cell_length_b 9.110209
_cell_length_c 23.561929
_cell_angle_alpha 90.000000
_cell_angle_beta 90.000000
_cell_angle_gamma 90.000000
_cell_volume 3578.338115
_symmetry_space_group_name_H-M "P M M A"
_symmetry_group_IT_number 51
_symmetry_cell_setting 'orthorhombic'
loop_
_space_group_symop_operation_xyz
x,y,z
1/2-x,-y,z
1/2+x,-y,-z
-x,y,-z
-x,-y,-z
1/2+x,y,-z
1/2-x,y,z
x,-y,z
loop_
_atom_site_type_symbol
_atom_site_label
_atom_site_fract_x
_atom_site_fract_y
_atom_site_fract_z
Si Si1 0.576003 0.668784 0.129609
Si Si2 0.897788 0.669362 0.922239
Si Si3 0.992569 0.323791 0.755030
Si Si4 0.654883 0.832175 0.032363
Si Si5 0.660445 0.824469 0.570468
Si Si6 0.658889 0.825635 0.812075
Si Si7 0.914949 0.667866 0.466619
Si Si8 0.496543 0.824074 0.635281
O O1 0.604293 0.500000 0.128065
O O2 0.490257 0.674187 0.097251
O O3 0.555097 0.710034 0.194210
O O4 0.633905 0.772830 0.094577
O O5 0.871236 0.500000 0.919093
O O6 0.850784 0.767088 0.876329
O O7 0.886074 0.731936 0.984757
O O8 0.987142 0.500000 0.750807
O O9 0.907185 0.258906 0.775323
O O10 0.015054 0.250974 0.695806
O O11 0.750000 0.826213 0.023050
O O12 0.627540 0.000000 0.026092
O O13 0.750000 0.789740 0.592056
O O14 0.644979 0.744099 0.510755
O O15 0.586603 0.786835 0.612160
O O16 0.655764 0.000000 0.561435
O O17 0.750000 0.799467 0.792789
O O18 0.643405 0.000000 0.810277
O O19 0.892169 0.500000 0.453885
O O20 0.000000 0.664847 0.500000
O O21 0.933866 0.760596 0.410465
O O22 0.490811 0.000000 0.638744
#
# Coordination Sequence:
#
# PCOD9401304 Si02
#       8
#     8   8   8   8   8   8   8   8
#     4   9  20  37  54  73  98 130 168 208 251 300
#     4  10  20  34  53  76 101 130 166 205 248 303
#     4  10  21  36  53  74 100 131 171 215 254 297
#     4  11  23  35  50  76 104 128 160 204 254 308
#     4   9  18  32  50  75 108 140 168 203 248 296
#     4  10  20  33  49  71 101 135 170 207 248 299
#     4   9  17  30  49  73 101 133 169 207 245 287
#     4  10  19  32  52  76 102 136 175 210 248 297
#
# _framework density 17.885397000000001
#
# number of rings (size 3 to 8) (size 9 to 14) (size 15 to 20)
#    0.000    2.250    0.000    3.750    0.000   10.750 
#    0.000    1.250    0.000    0.750    0.000    3.500 
#    0.000    0.000    0.000    0.000    0.000    0.000 
#
# Total GULP energy -357133.364689 kJ/mol
# GULP energy per Si atom -5580.208823 kJ/mol
# Density = 1.784469 g / cm^3
# Si number density = 17.885397 Si / 1000 Ang^3
#
#
#
# Elastic Constant Matrix: (Units=GPa)
#
#
# Indices 1 2 3 4 5 6 
#
# 1 5.5836 3.3642 3.0769 0.0000 0.0000 0.0000
# 2 3.3642 61.0813 41.6643 0.0000 0.0000 0.0000
# 3 3.0769 41.6643 114.5391 0.0000 0.0000 0.0000
# 4 0.0000 0.0000 0.0000 33.0191 0.0000 0.0000
# 5 0.0000 0.0000 0.0000 0.0000 10.8429 0.0000
# 6 0.0000 0.0000 0.0000 0.0000 0.0000 24.7638
#
#
#
# Elastic Compliance Matrix: (Units=1/GPa)
#
#
# Indices 1 2 3 4 5 6 
#
# 1 0.185488 -0.009067 -0.001685 0.000000 0.000000 0.000000
# 2 -0.009067 0.022217 -0.007838 0.000000 0.000000 0.000000
# 3 -0.001685 -0.007838 0.011627 0.000000 0.000000 0.000000
# 4 0.000000 0.000000 0.000000 0.030286 0.000000 0.000000
# 5 0.000000 0.000000 0.000000 0.000000 0.092226 0.000000
# 6 0.000000 0.000000 0.000000 0.000000 0.000000 0.040382
#
#
# Mechanical properties :
#
#
# Convention : Reuss Voigt Hill
#
# Bulk Modulus (GPa) = 5.48989 30.82386 18.15688
# Shear Modulus (GPa) = 10.41399 22.59839 16.50619
#
# Velocity S-wave (km/s) = 2.41563 3.55845 3.04120
# Velocity P-wave (km/s) = 3.29492 5.84422 4.74402
#
# Compressibility (1/GPa) = 0.18215285
#
# Stress axis : x y z
#
# Youngs Moduli (GPa) = 5.39119 45.00957 86.00613
#
# Poissons Ratio (x) = 0.40810 0.14489
# Poissons Ratio (y) = 0.04888 0.67413
# Poissons Ratio (z) = 0.00908 0.35279
#
# Static dielectric constant tensor:
#      x y z
#    x 1.608500 0.000000 0.000000 
#    y 0.000000 1.602420 0.000000 
#    z 0.000000 0.000000 1.604970 
# 
# From -- ./inp_files/33791.got.cif
#   From: 2010.05.17/outbox.cif.g08.bks.cpg/sg51_17_cif.got.tgz:33791.got - 2010.06.03 11:52:47.
