data_PCOD9401866
_publ_section_title
;
Structure prediction by ZEFSAII (Michael W. Deem and Ramdas Pophale) SiO2 
 PCOD9401866
Probable space group: P M M A
;
_chemical_formula_sum "Si O2"
_cell_formula_units_Z 56
_cell_length_a 19.580705
_cell_length_b 17.543923
_cell_length_c 8.249083
_cell_angle_alpha 90.000000
_cell_angle_beta 90.000000
_cell_angle_gamma 90.000000
_cell_volume 2833.744632
_symmetry_space_group_name_H-M "P M M A"
_symmetry_group_IT_number 51
_symmetry_cell_setting 'orthorhombic'
loop_
_space_group_symop_operation_xyz
x,y,z
1/2-x,-y,z
1/2+x,-y,-z
-x,y,-z
-x,-y,-z
1/2+x,y,-z
1/2-x,y,z
x,-y,z
loop_
_atom_site_type_symbol
_atom_site_label
_atom_site_fract_x
_atom_site_fract_y
_atom_site_fract_z
Si Si1 0.671759 0.388007 0.535714
Si Si2 0.915381 0.583142 0.213004
Si Si3 0.826700 0.215119 0.435690
Si Si4 0.097893 0.787197 0.124377
Si Si5 0.670499 0.086041 0.705067
Si Si6 0.331376 0.373623 0.108197
Si Si7 0.041016 0.750442 0.775688
O O1 0.750000 0.413781 0.516249
O O2 0.628353 0.413245 0.379990
O O3 0.674189 0.295706 0.529386
O O4 0.647634 0.408681 0.717085
O O5 0.948825 0.500000 0.203439
O O6 0.961977 0.658197 0.218473
O O7 0.868534 0.594544 0.052203
O O8 0.750000 0.211279 0.355339
O O9 0.833160 0.141893 0.550065
O O10 0.895771 0.223176 0.333308
O O11 0.131882 0.867703 0.156574
O O12 0.149565 0.715929 0.122631
O O13 0.036215 0.776867 0.254103
O O14 0.064281 0.780829 0.949521
O O15 0.750000 0.082158 0.748342
O O16 0.645725 0.000000 0.676529
O O17 0.250000 0.383106 0.091794
#
# Coordination Sequence:
#
# PCOD9401866 Si02
#       7
#     8   8   8   8   8   8   8
#     4   9  17  31  52  78 107 145 189 233 286 346
#     4  10  21  36  53  78 112 146 189 250 304 342
#     4   9  17  34  55  80 111 147 191 235 280 342
#     4  10  19  37  57  81 113 149 195 235 272 341
#     4  10  20  35  59  90 119 145 177 229 291 339
#     4  10  19  33  56  81 107 150 197 236 290 352
#     4   9  21  37  57  81 107 154 200 234 281 339
#
# _framework density 19.761838999999998
#
# number of rings (size 3 to 8) (size 9 to 14) (size 15 to 20)
#    0.000    2.429    1.429    0.857    0.000    6.286 
#    0.000   10.714    0.000    2.571    0.000    0.000 
#    0.000    0.000    0.000    0.000    0.000    0.000 
#
# Total GULP energy -312002.087408 kJ/mol
# GULP energy per Si atom -5571.465847 kJ/mol
# Density = 1.971686 g / cm^3
# Si number density = 19.761839 Si / 1000 Ang^3
#
#
#
# Elastic Constant Matrix: (Units=GPa)
#
#
# Indices 1 2 3 4 5 6 
#
# 1 25.1306 25.2846 7.1234 0.0000 0.0000 0.0000
# 2 25.2846 156.7372 17.8140 0.0000 0.0000 0.0000
# 3 7.1234 17.8140 70.7127 0.0000 0.0000 0.0000
# 4 0.0000 0.0000 0.0000 26.0257 0.0000 0.0000
# 5 0.0000 0.0000 0.0000 0.0000 10.8407 0.0000
# 6 0.0000 0.0000 0.0000 0.0000 0.0000 1.4219
#
#
#
# Elastic Compliance Matrix: (Units=1/GPa)
#
#
# Indices 1 2 3 4 5 6 
#
# 1 0.048103 -0.007422 -0.002976 0.000000 0.000000 0.000000
# 2 -0.007422 0.007713 -0.001195 0.000000 0.000000 0.000000
# 3 -0.002976 -0.001195 0.014743 0.000000 0.000000 0.000000
# 4 0.000000 0.000000 0.000000 0.038424 0.000000 0.000000
# 5 0.000000 0.000000 0.000000 0.000000 0.092245 0.000000
# 6 0.000000 0.000000 0.000000 0.000000 0.000000 0.703287
#
#
# Mechanical properties :
#
#
# Convention : Reuss Voigt Hill
#
# Bulk Modulus (GPa) = 21.10938 39.22497 30.16717
# Shear Modulus (GPa) = 5.29946 21.14822 13.22384
#
# Velocity S-wave (km/s) = 1.63936 3.27487 2.58962
# Velocity P-wave (km/s) = 3.78000 5.84736 4.92341
#
# Compressibility (1/GPa) = 0.04737231
#
# Stress axis : x y z
#
# Youngs Moduli (GPa) = 20.78882 129.64747 67.83012
#
# Poissons Ratio (x) = 0.96219 0.20187
# Poissons Ratio (y) = 0.15429 0.08109
# Poissons Ratio (z) = 0.06187 0.15499
#
# Static dielectric constant tensor:
#      x y z
#    x 1.739660 0.000000 0.000000 
#    y 0.000000 1.685150 0.000000 
#    z 0.000000 0.000000 1.761120 
# 
# From -- ./inp_files/11011.got.cif
#   From: 2010.05.17/outbox.cif.g08.bks.cpg/sg51_6_cif.got.tgz:11011.got - 2010.06.03 11:52:47.
