data_PCOD9401862
_publ_section_title
;
Structure prediction by ZEFSAII (Michael W. Deem and Ramdas Pophale) SiO2 
 PCOD9401862
Probable space group: P M M A
;
_chemical_formula_sum "Si O2"
_cell_formula_units_Z 64
_cell_length_a 20.208005
_cell_length_b 9.067590
_cell_length_c 20.500061
_cell_angle_alpha 90.000000
_cell_angle_beta 90.000000
_cell_angle_gamma 90.000000
_cell_volume 3756.388211
_symmetry_space_group_name_H-M "P M M A"
_symmetry_group_IT_number 51
_symmetry_cell_setting 'orthorhombic'
loop_
_space_group_symop_operation_xyz
x,y,z
1/2-x,-y,z
1/2+x,-y,-z
-x,y,-z
-x,-y,-z
1/2+x,y,-z
1/2-x,y,z
x,-y,z
loop_
_atom_site_type_symbol
_atom_site_label
_atom_site_fract_x
_atom_site_fract_y
_atom_site_fract_z
Si Si1 0.416645 0.823009 0.669264
Si Si2 0.672531 0.323924 0.592697
Si Si3 0.549655 0.326284 0.827518
Si Si4 0.069442 0.822936 0.035699
Si Si5 0.672924 0.176260 0.453311
Si Si6 0.326209 0.823589 0.925731
Si Si7 0.393027 0.327062 0.803933
Si Si8 0.930080 0.176827 0.691264
O O1 0.376450 0.780110 0.604679
O O2 0.386688 0.748549 0.733613
O O3 0.494911 0.786308 0.667495
O O4 0.411596 0.000000 0.676074
O O5 0.750000 0.291936 0.607329
O O6 0.663631 0.500000 0.593888
O O7 0.659326 0.261106 0.520352
O O8 0.623746 0.247086 0.643592
O O9 0.564507 0.500000 0.823556
O O10 0.573620 0.257492 0.895243
O O11 0.469914 0.308393 0.824724
O O12 0.576611 0.242502 0.763926
O O13 0.071669 0.000000 0.046003
O O14 0.127119 0.779393 0.985753
O O15 0.000000 0.788887 0.000000
O O16 0.750000 0.202506 0.435179
O O17 0.665563 0.000000 0.464393
O O18 0.250000 0.791267 0.939626
O O19 0.349211 0.746878 0.859483
O O20 0.333983 0.000000 0.917525
O O21 0.378996 0.500000 0.799045
O O22 0.924080 0.000000 0.692521
#
# Coordination Sequence:
#
# PCOD9401862 Si02
#       8
#     8   8   8   8   8   8   8   8
#     4   9  19  34  53  79 110 142 179 222 264 308
#     4  10  21  37  56  78 106 139 176 221 273 326
#     4  10  20  34  54  80 108 137 174 218 266 317
#     4  10  19  33  56  80 101 134 180 223 262 312
#     4   9  18  34  55  77 103 139 182 221 260 315
#     4  10  21  36  53  75 105 139 175 217 264 314
#     4  10  20  33  51  76 106 139 175 215 261 315
#     4  10  20  35  56  80 108 141 179 223 266 314
#
# _framework density 17.037642000000002
#
# number of rings (size 3 to 8) (size 9 to 14) (size 15 to 20)
#    0.000    2.250    1.250    1.500    0.000    4.750 
#    0.000    4.375    0.000    2.250    0.000    0.000 
#    0.000    0.000    0.000    0.000    0.000    0.000 
#
# Total GULP energy -357181.196575 kJ/mol
# GULP energy per Si atom -5580.956196 kJ/mol
# Density = 1.699886 g / cm^3
# Si number density = 17.037642 Si / 1000 Ang^3
#
#
#
# Elastic Constant Matrix: (Units=GPa)
#
#
# Indices 1 2 3 4 5 6 
#
# 1 100.3372 61.8058 102.4396 0.0000 0.0000 0.0000
# 2 61.8058 54.1892 73.7893 0.0000 0.0000 0.0000
# 3 102.4396 73.7893 170.0467 0.0000 0.0000 0.0000
# 4 0.0000 0.0000 0.0000 -35.7993 0.0000 0.0000
# 5 0.0000 0.0000 0.0000 0.0000 27.8447 0.0000
# 6 0.0000 0.0000 0.0000 0.0000 0.0000 19.9289
#
#
#
# Elastic Compliance Matrix: (Units=1/GPa)
#
#
# Indices 1 2 3 4 5 6 
#
# 1 0.039934 -0.031259 -0.010492 0.000000 0.000000 0.000000
# 2 -0.031259 0.069576 -0.011360 0.000000 0.000000 0.000000
# 3 -0.010492 -0.011360 0.017131 0.000000 0.000000 0.000000
# 4 0.000000 0.000000 0.000000 -0.027933 0.000000 0.000000
# 5 0.000000 0.000000 0.000000 0.000000 0.035913 0.000000
# 6 0.000000 0.000000 0.000000 0.000000 0.000000 0.050178
#
#
# Mechanical properties :
#
#
# Convention : Reuss Voigt Hill
#
# Bulk Modulus (GPa) = 48.97847 88.96027 68.96937
# Shear Modulus (GPa) = 16.78820 8.16409 12.47614
#
# Velocity S-wave (km/s) = 3.14245 2.19139 2.70898
# Velocity P-wave (km/s) = 6.47891 7.66357 7.09600
#
# Compressibility (1/GPa) = 0.02041714
#
# Stress axis : x y z
#
# Youngs Moduli (GPa) = 25.04158 14.37281 58.37277
#
# Poissons Ratio (x) = 0.44928 0.61247
# Poissons Ratio (y) = 0.78277 0.66314
# Poissons Ratio (z) = 0.26275 0.16328
#
# Static dielectric constant tensor:
#      x y z
#    x 1.568780 0.000000 0.000000 
#    y 0.000000 1.565220 0.000000 
#    z 0.000000 0.000000 1.539500 
# 
# From -- ./inp_files/30557.got.cif
#   From: 2010.05.17/outbox.cif.g08.bks.cpg/sg51_16_cif.got.tgz:30557.got - 2010.06.03 11:52:47.
