data_PCOD9401789
_publ_section_title
;
Structure prediction by ZEFSAII (Michael W. Deem and Ramdas Pophale) SiO2 
 PCOD9401789
Probable space group: P M M A
;
_chemical_formula_sum "Si O2"
_cell_formula_units_Z 48
_cell_length_a 24.159518
_cell_length_b 7.596437
_cell_length_c 13.025333
_cell_angle_alpha 90.000000
_cell_angle_beta 90.000000
_cell_angle_gamma 90.000000
_cell_volume 2390.490604
_symmetry_space_group_name_H-M "P M M A"
_symmetry_group_IT_number 51
_symmetry_cell_setting 'orthorhombic'
loop_
_space_group_symop_operation_xyz
x,y,z
1/2-x,-y,z
1/2+x,-y,-z
-x,y,-z
-x,-y,-z
1/2+x,y,-z
1/2-x,y,z
x,-y,z
loop_
_atom_site_type_symbol
_atom_site_label
_atom_site_fract_x
_atom_site_fract_y
_atom_site_fract_z
Si Si1 0.608761 0.205739 0.668220
Si Si2 0.186984 0.712678 0.144039
Si Si3 0.813408 0.715135 0.089263
Si Si4 0.380310 0.708691 0.717729
Si Si5 0.812983 0.786935 0.484389
Si Si6 0.010110 0.704377 0.613291
O O1 0.643937 0.226266 0.771292
O O2 0.645591 0.276845 0.573536
O O3 0.548200 0.288918 0.671074
O O4 0.599556 0.000000 0.648840
O O5 0.250000 0.770451 0.168309
O O6 0.187024 0.500000 0.145119
O O7 0.173740 0.769104 0.027537
O O8 0.750000 0.767382 0.112335
O O9 0.813922 0.500000 0.090082
O O10 0.854870 0.780150 0.176727
O O11 0.387856 0.500000 0.735370
O O12 0.336630 0.733134 0.625773
O O13 0.438650 0.782485 0.676432
O O14 0.750000 0.725941 0.500017
O O15 0.812453 0.000000 0.488885
O O16 0.025550 0.500000 0.595582
O O17 0.000000 0.783320 0.500000
#
# Coordination Sequence:
#
# PCOD9401789 Si02
#       6
#     8   8   8   8   8   8
#     4  11  22  35  53  75 104 141 180 215 255 310
#     4   9  18  34  56  79 104 134 169 214 264 310
#     4   8  15  30  53  80 105 130 166 212 262 314
#     4  10  19  33  55  79 103 134 173 216 260 309
#     4  10  21  34  48  72 106 136 164 207 260 312
#     4  10  20  35  53  76 106 138 177 221 261 308
#
# _framework density 20.079561999999999
#
# number of rings (size 3 to 8) (size 9 to 14) (size 15 to 20)
#    0.000    2.333    1.667    2.500    0.000    3.667 
#    0.000    1.667    0.000    6.000    0.000    0.000 
#    0.000    0.000    0.000    0.000    0.000    0.000 
#
# Total GULP energy -267967.498029 kJ/mol
# GULP energy per Si atom -5582.656209 kJ/mol
# Density = 2.003386 g / cm^3
# Si number density = 20.079562 Si / 1000 Ang^3
#
#
#
# Elastic Constant Matrix: (Units=GPa)
#
#
# Indices 1 2 3 4 5 6 
#
# 1 99.6416 -5.6943 50.1079 0.0000 0.0000 0.0000
# 2 -5.6943 40.0405 -6.7061 0.0000 0.0000 0.0000
# 3 50.1079 -6.7061 109.7709 0.0000 0.0000 0.0000
# 4 0.0000 0.0000 0.0000 79.6286 0.0000 0.0000
# 5 0.0000 0.0000 0.0000 0.0000 24.1490 0.0000
# 6 0.0000 0.0000 0.0000 0.0000 0.0000 -31.3337
#
#
#
# Elastic Compliance Matrix: (Units=1/GPa)
#
#
# Indices 1 2 3 4 5 6 
#
# 1 0.013056 0.000867 -0.005907 0.000000 0.000000 0.000000
# 2 0.000867 0.025291 0.001149 0.000000 0.000000 0.000000
# 3 -0.005907 0.001149 0.011876 0.000000 0.000000 0.000000
# 4 0.000000 0.000000 0.000000 0.012558 0.000000 0.000000
# 5 0.000000 0.000000 0.000000 0.000000 0.041410 0.000000
# 6 0.000000 0.000000 0.000000 0.000000 0.000000 -0.031915
#
#
# Mechanical properties :
#
#
# Convention : Reuss Voigt Hill
#
# Bulk Modulus (GPa) = 23.56134 36.09645 29.82889
# Shear Modulus (GPa) = 53.07620 28.60515 40.84068
#
# Velocity S-wave (km/s) = 5.14688 3.77847 4.51482
# Velocity P-wave (km/s) = 6.86148 6.08699 6.48581
#
# Compressibility (1/GPa) = 0.04244241
#
# Stress axis : x y z
#
# Youngs Moduli (GPa) = 76.59357 39.54049 84.20080
#
# Poissons Ratio (x) = -0.03430 0.49735
# Poissons Ratio (y) = -0.06644 -0.09675
# Poissons Ratio (z) = 0.45242 -0.04543
#
# Static dielectric constant tensor:
#      x y z
#    x 1.700140 0.000000 0.000000 
#    y 0.000000 1.832520 0.000000 
#    z 0.000000 0.000000 1.692550 
# 
# From -- ./inp_files/18547.got.cif
#   From: 2010.05.17/outbox.cif.g08.bks.cpg/sg51_10_cif.got.tgz:18547.got - 2010.06.03 11:52:47.
