data_PCOD9401064
_publ_section_title
;
Structure prediction by ZEFSAII (Michael W. Deem and Ramdas Pophale) SiO2 
 PCOD9401064
Probable space group: P M M A
;
_chemical_formula_sum "Si O2"
_cell_formula_units_Z 64
_cell_length_a 9.231992
_cell_length_b 20.875425
_cell_length_c 20.306681
_cell_angle_alpha 90.000000
_cell_angle_beta 90.000000
_cell_angle_gamma 90.000000
_cell_volume 3913.539233
_symmetry_space_group_name_H-M "P M M A"
_symmetry_group_IT_number 51
_symmetry_cell_setting 'orthorhombic'
loop_
_space_group_symop_operation_xyz
x,y,z
1/2-x,-y,z
1/2+x,-y,-z
-x,y,-z
-x,-y,-z
1/2+x,y,-z
1/2-x,y,z
x,-y,z
loop_
_atom_site_type_symbol
_atom_site_label
_atom_site_fract_x
_atom_site_fract_y
_atom_site_fract_z
Si Si1 0.421364 0.261983 0.197536
Si Si2 0.425377 0.807860 0.429548
Si Si3 0.083693 0.741702 0.934775
Si Si4 0.424236 0.425465 0.431057
Si Si5 0.925700 0.687853 0.662370
Si Si6 0.916832 0.102040 0.065935
Si Si7 0.921039 0.107658 0.801240
Si Si8 0.426143 0.070117 0.344064
O O1 0.250000 0.274355 0.188954
O O2 0.506263 0.280045 0.131852
O O3 0.474896 0.297025 0.263555
O O4 0.435785 0.184883 0.205669
O O5 0.500000 0.804510 0.500000
O O6 0.250000 0.808494 0.436386
O O7 0.465091 0.746710 0.385146
O O8 0.471592 0.871658 0.390251
O O9 0.250000 0.721899 0.936708
O O10 0.080560 0.819797 0.934757
O O11 0.000000 0.720598 0.000000
O O12 0.500000 0.407948 0.500000
O O13 0.250000 0.419704 0.438813
O O14 0.457394 0.500000 0.417211
O O15 0.470670 0.377821 0.372821
O O16 0.750000 0.687560 0.665772
O O17 0.750000 0.081751 0.064632
O O18 0.994774 0.084427 0.134194
O O19 0.000000 0.080831 0.000000
O O20 0.750000 0.093887 0.809753
O O21 0.971891 0.079254 0.731786
O O22 0.250000 0.072400 0.342508
O O23 0.470763 0.000000 0.368112
#
# Coordination Sequence:
#
# PCOD9401064 Si02
#       8
#     8   8   8   8   8   8   8   8
#     4   9  15  25  42  61  82 112 146 180 217 258
#     4  10  19  32  48  67  88 113 144 180 222 267
#     4   9  16  25  37  58  88 119 147 177 214 258
#     4   9  17  29  45  65  90 121 155 188 221 260
#     4   9  16  28  46  66  90 119 151 183 219 264
#     4   9  16  25  39  61  87 113 140 173 213 257
#     4   9  15  26  44  62  80 106 141 178 216 259
#     4   9  17  30  48  66  83 108 144 182 221 269
#
# _framework density 16.353484000000002
#
# number of rings (size 3 to 8) (size 9 to 14) (size 15 to 20)
#    0.000    2.875    1.250    1.125    0.000    3.250 
#    0.000    1.875    0.000    1.500    0.000    0.000 
#    0.000    0.500    0.000    0.875    0.000    1.250 
#
# Total GULP energy -356696.388564 kJ/mol
# GULP energy per Si atom -5573.381071 kJ/mol
# Density = 1.631626 g / cm^3
# Si number density = 16.353484 Si / 1000 Ang^3
#
#
#
# Elastic Constant Matrix: (Units=GPa)
#
#
# Indices 1 2 3 4 5 6 
#
# 1 44.8160 23.7780 50.6459 0.0000 0.0000 0.0000
# 2 23.7780 61.6065 56.2726 0.0000 0.0000 0.0000
# 3 50.6459 56.2726 159.7157 0.0000 0.0000 0.0000
# 4 0.0000 0.0000 0.0000 -34.4639 0.0000 0.0000
# 5 0.0000 0.0000 0.0000 0.0000 30.6164 0.0000
# 6 0.0000 0.0000 0.0000 0.0000 0.0000 47.6102
#
#
#
# Elastic Compliance Matrix: (Units=1/GPa)
#
#
# Indices 1 2 3 4 5 6 
#
# 1 0.035825 -0.005088 -0.009567 0.000000 0.000000 0.000000
# 2 -0.005088 0.024658 -0.007074 0.000000 0.000000 0.000000
# 3 -0.009567 -0.007074 0.011787 0.000000 0.000000 0.000000
# 4 0.000000 0.000000 0.000000 -0.029016 0.000000 0.000000
# 5 0.000000 0.000000 0.000000 0.000000 0.032662 0.000000
# 6 0.000000 0.000000 0.000000 0.000000 0.000000 0.021004
#
#
# Mechanical properties :
#
#
# Convention : Reuss Voigt Hill
#
# Bulk Modulus (GPa) = 34.70952 58.61460 46.66206
# Shear Modulus (GPa) = 33.33702 17.78197 25.55949
#
# Velocity S-wave (km/s) = 4.51990 3.30108 3.95769
# Velocity P-wave (km/s) = 6.96491 7.10279 7.03419
#
# Compressibility (1/GPa) = 0.02881054
#
# Stress axis : x y z
#
# Youngs Moduli (GPa) = 27.91337 40.55553 84.83646
#
# Poissons Ratio (x) = 0.20635 0.81167
# Poissons Ratio (y) = 0.14203 0.60014
# Poissons Ratio (z) = 0.26706 0.28689
#
# Static dielectric constant tensor:
#      x y z
#    x 1.544400 0.000000 0.000000 
#    y 0.000000 1.553560 0.000000 
#    z 0.000000 0.000000 1.537000 
# 
# From -- ./inp_files/32571.got.cif
#   From: 2010.05.17/outbox.cif.g08.bks.cpg/sg51_17_cif.got.tgz:32571.got - 2010.06.03 11:52:47.
