data_PCOD9401897
_publ_section_title
;
Structure prediction by ZEFSAII (Michael W. Deem and Ramdas Pophale) SiO2 
 PCOD9401897
Probable space group: P M M A
;
_chemical_formula_sum "Si O2"
_cell_formula_units_Z 58
_cell_length_a 31.794025
_cell_length_b 7.450643
_cell_length_c 11.209803
_cell_angle_alpha 90.000000
_cell_angle_beta 90.000000
_cell_angle_gamma 90.000000
_cell_volume 2655.444607
_symmetry_space_group_name_H-M "P M M A"
_symmetry_group_IT_number 51
_symmetry_cell_setting 'orthorhombic'
loop_
_space_group_symop_operation_xyz
x,y,z
1/2-x,-y,z
1/2+x,-y,-z
-x,y,-z
-x,-y,-z
1/2+x,y,-z
1/2-x,y,z
x,-y,z
loop_
_atom_site_type_symbol
_atom_site_label
_atom_site_fract_x
_atom_site_fract_y
_atom_site_fract_z
Si Si1 0.584141 0.282065 0.254747
Si Si2 0.296745 0.217155 0.894143
Si Si3 0.116151 0.709677 0.999169
Si Si4 0.671785 0.791476 0.364263
Si Si5 0.250000 0.000000 0.305206
Si Si6 0.181109 0.295670 0.368451
Si Si7 0.092732 0.718853 0.258913
Si Si8 0.003934 0.280850 0.363088
O O1 0.585134 0.500000 0.254899
O O2 0.621714 0.224638 0.342615
O O3 0.538024 0.223949 0.294018
O O4 0.596196 0.215701 0.122491
O O5 0.250000 0.274756 0.927759
O O6 0.307860 0.278251 0.759137
O O7 0.297626 0.000000 0.892493
O O8 0.333778 0.275848 0.981377
O O9 0.104892 0.500000 0.000429
O O10 0.101054 0.784275 0.124555
O O11 0.685522 0.705225 0.487753
O O12 0.683669 0.000000 0.374390
O O13 0.286581 0.842884 0.312769
O O14 0.186970 0.500000 0.324901
O O15 0.133322 0.237450 0.338257
O O16 0.091174 0.500000 0.257345
O O17 0.048034 0.780335 0.308622
O O18 0.004186 0.500000 0.360438
O O19 0.000000 0.226248 0.500000
#
# Coordination Sequence:
#
# PCOD9401897 Si02
#       8
#     8   8   8   8   2   8   8   8
#     4   9  17  30  53  84 115 154 199 242 298 360
#     4   9  19  34  53  77 106 144 190 241 296 351
#     4   9  18  34  52  77 111 146 193 245 298 363
#     4  10  19  33  57  82 120 155 189 245 300 353
#     4  12  26  44  60  90 120 154 206 254 302 368
#     4  11  23  41  63  87 120 160 199 248 309 363
#     4   9  19  36  57  80 113 154 193 246 308 359
#     4   9  16  28  52  85 116 149 197 249 299 365
#
# _framework density 21.841915
#
# number of rings (size 3 to 8) (size 9 to 14) (size 15 to 20)
#    0.000    2.483    0.690    1.448    0.966    3.586 
#    2.483    2.759    1.517    1.241    0.000    3.862 
#    0.000    0.000    0.000    0.000    0.000    0.000 
#
# Total GULP energy -323525.128147 kJ/mol
# GULP energy per Si atom -5578.019451 kJ/mol
# Density = 2.179220 g / cm^3
# Si number density = 21.841915 Si / 1000 Ang^3
#
#
#
# Elastic Constant Matrix: (Units=GPa)
#
#
# Indices 1 2 3 4 5 6 
#
# 1 142.1455 5.1497 35.0823 0.0000 0.0000 0.0000
# 2 5.1497 83.3148 -1.6608 0.0000 0.0000 0.0000
# 3 35.0823 -1.6608 67.5310 0.0000 0.0000 0.0000
# 4 0.0000 0.0000 0.0000 -15.5272 0.0000 0.0000
# 5 0.0000 0.0000 0.0000 0.0000 4.8960 0.0000
# 6 0.0000 0.0000 0.0000 0.0000 0.0000 61.6243
#
#
#
# Elastic Compliance Matrix: (Units=1/GPa)
#
#
# Indices 1 2 3 4 5 6 
#
# 1 0.008098 -0.000585 -0.004221 0.000000 0.000000 0.000000
# 2 -0.000585 0.012051 0.000600 0.000000 0.000000 0.000000
# 3 -0.004221 0.000600 0.017016 0.000000 0.000000 0.000000
# 4 0.000000 0.000000 0.000000 -0.064403 0.000000 0.000000
# 5 0.000000 0.000000 0.000000 0.000000 0.204247 0.000000
# 6 0.000000 0.000000 0.000000 0.000000 0.000000 0.016227
#
#
# Mechanical properties :
#
#
# Convention : Reuss Voigt Hill
#
# Bulk Modulus (GPa) = 34.77924 41.12597 37.95261
# Shear Modulus (GPa) = 23.67063 27.15997 25.41530
#
# Velocity S-wave (km/s) = 3.29557 3.53013 3.41486
# Velocity P-wave (km/s) = 5.51713 5.95697 5.74127
#
# Compressibility (1/GPa) = 0.02875278
#
# Stress axis : x y z
#
# Youngs Moduli (GPa) = 123.48624 82.98224 58.76912
#
# Poissons Ratio (x) = 0.04852 0.24808
# Poissons Ratio (y) = 0.07220 -0.03527
# Poissons Ratio (z) = 0.52127 -0.04980
#
# Static dielectric constant tensor:
#      x y z
#    x 1.777820 0.000000 0.000000 
#    y 0.000000 1.847040 0.000000 
#    z 0.000000 0.000000 1.788210 
# 
# From -- ./inp_files/19364.got.cif
#   From: 2010.05.17/outbox.cif.g08.bks.cpg/sg51_10_cif.got.tgz:19364.got - 2010.06.03 11:52:47.
