data_PCOD9401976
_publ_section_title
;
Structure prediction by ZEFSAII (Michael W. Deem and Ramdas Pophale) SiO2 
 PCOD9401976
Probable space group: P M M A
;
_chemical_formula_sum "Si O2"
_cell_formula_units_Z 64
_cell_length_a 8.508969
_cell_length_b 23.265186
_cell_length_c 17.107710
_cell_angle_alpha 90.000000
_cell_angle_beta 90.000000
_cell_angle_gamma 90.000000
_cell_volume 3386.689257
_symmetry_space_group_name_H-M "P M M A"
_symmetry_group_IT_number 51
_symmetry_cell_setting 'orthorhombic'
loop_
_space_group_symop_operation_xyz
x,y,z
1/2-x,-y,z
1/2+x,-y,-z
-x,y,-z
-x,-y,-z
1/2+x,y,-z
1/2-x,y,z
x,-y,z
loop_
_atom_site_type_symbol
_atom_site_label
_atom_site_fract_x
_atom_site_fract_y
_atom_site_fract_z
Si Si1 0.563741 0.878507 0.248075
Si Si2 0.933217 0.645223 0.204016
Si Si3 0.562944 0.562544 0.913138
Si Si4 0.439414 0.565852 0.651085
Si Si5 0.061675 0.067241 0.085514
Si Si6 0.064869 0.246893 0.270850
Si Si7 0.562672 0.321704 0.580441
Si Si8 0.439161 0.932390 0.585023
O O1 0.750000 0.889145 0.245042
O O2 0.494118 0.902996 0.166471
O O3 0.526307 0.811016 0.253388
O O4 0.506247 0.904636 0.332197
O O5 0.750000 0.657853 0.217640
O O6 0.986256 0.597890 0.268497
O O7 0.964744 0.612782 0.124921
O O8 0.031471 0.703283 0.208470
O O9 0.750000 0.572733 0.910119
O O10 0.532994 0.500000 0.874578
O O11 0.500000 0.558173 0.000000
O O12 0.250000 0.563744 0.648490
O O13 0.496731 0.500000 0.643417
O O14 0.497887 0.613528 0.590169
O O15 0.250000 0.070548 0.083247
O O16 0.013413 0.000000 0.090748
O O17 0.000000 0.088647 0.000000
O O18 0.250000 0.234355 0.276504
O O19 0.010783 0.279771 0.349707
O O20 0.500000 0.297385 0.500000
O O21 0.750000 0.324510 0.582341
O O22 0.500000 0.910220 0.500000
O O23 0.250000 0.927280 0.583143
O O24 0.481327 0.000000 0.588547
#
# Coordination Sequence:
#
# PCOD9401976 Si02
#       8
#     8   8   8   8   8   8   8   8
#     4  11  22  37  59  86 117 154 195 239 287 336
#     4  10  19  34  55  76 101 134 172 215 266 320
#     4  10  20  33  51  77 107 137 170 210 258 314
#     4   9  18  32  51  75 101 130 166 210 263 324
#     4  10  21  38  62  92 124 157 192 232 280 334
#     4  10  22  39  56  77 105 139 183 227 269 322
#     4  10  21  36  54  74 100 136 176 222 272 323
#     4   9  19  35  55  82 117 154 191 233 281 334
#
# _framework density 18.897511999999999
#
# number of rings (size 3 to 8) (size 9 to 14) (size 15 to 20)
#    0.000    2.125    0.000    3.000    0.000    6.500 
#    0.000    4.375    0.000    0.000    0.000    0.000 
#    0.000    0.000    0.000    0.000    0.000    0.000 
#
# Total GULP energy -356636.607616 kJ/mol
# GULP energy per Si atom -5572.446994 kJ/mol
# Density = 1.885450 g / cm^3
# Si number density = 18.897512 Si / 1000 Ang^3
#
#
#
# Elastic Constant Matrix: (Units=GPa)
#
#
# Indices 1 2 3 4 5 6 
#
# 1 17.6205 16.2193 13.7183 0.0000 0.0000 0.0000
# 2 16.2193 85.5434 57.8671 0.0000 0.0000 0.0000
# 3 13.7183 57.8671 125.7813 0.0000 0.0000 0.0000
# 4 0.0000 0.0000 0.0000 13.2205 0.0000 0.0000
# 5 0.0000 0.0000 0.0000 0.0000 28.9744 0.0000
# 6 0.0000 0.0000 0.0000 0.0000 0.0000 22.9047
#
#
#
# Elastic Compliance Matrix: (Units=1/GPa)
#
#
# Indices 1 2 3 4 5 6 
#
# 1 0.069165 -0.011631 -0.002193 0.000000 0.000000 0.000000
# 2 -0.011631 0.018928 -0.007439 0.000000 0.000000 0.000000
# 3 -0.002193 -0.007439 0.011612 0.000000 0.000000 0.000000
# 4 0.000000 0.000000 0.000000 0.075640 0.000000 0.000000
# 5 0.000000 0.000000 0.000000 0.000000 0.034513 0.000000
# 6 0.000000 0.000000 0.000000 0.000000 0.000000 0.043659
#
#
# Mechanical properties :
#
#
# Convention : Reuss Voigt Hill
#
# Bulk Modulus (GPa) = 17.48882 44.95050 31.21966
# Shear Modulus (GPa) = 15.86784 22.42927 19.14855
#
# Velocity S-wave (km/s) = 2.90086 3.44886 3.18667
# Velocity P-wave (km/s) = 4.52710 6.30061 5.48600
#
# Compressibility (1/GPa) = 0.05717938
#
# Stress axis : x y z
#
# Youngs Moduli (GPa) = 14.45815 52.83257 86.11756
#
# Poissons Ratio (x) = 0.61448 0.18882
# Poissons Ratio (y) = 0.16816 0.64066
# Poissons Ratio (z) = 0.03170 0.39304
#
# Static dielectric constant tensor:
#      x y z
#    x 1.660010 0.000000 0.000000 
#    y 0.000000 1.640460 0.000000 
#    z 0.000000 0.000000 1.650200 
# 
# From -- ./inp_files/28380.got.cif
#   From: 2010.05.17/outbox.cif.g08.bks.cpg/sg51_15_cif.got.tgz:28380.got - 2010.06.03 11:52:47.
