data_PCOD9401796
_publ_section_title
;
Structure prediction by ZEFSAII (Michael W. Deem and Ramdas Pophale) SiO2 
 PCOD9401796
Probable space group: P M M A
;
_chemical_formula_sum "Si O2"
_cell_formula_units_Z 32
_cell_length_a 21.533447
_cell_length_b 8.744291
_cell_length_c 9.437883
_cell_angle_alpha 90.000000
_cell_angle_beta 90.000000
_cell_angle_gamma 90.000000
_cell_volume 1777.103601
_symmetry_space_group_name_H-M "P M M A"
_symmetry_group_IT_number 51
_symmetry_cell_setting 'orthorhombic'
loop_
_space_group_symop_operation_xyz
x,y,z
1/2-x,-y,z
1/2+x,-y,-z
-x,y,-z
-x,-y,-z
1/2+x,y,-z
1/2-x,y,z
x,-y,z
loop_
_atom_site_type_symbol
_atom_site_label
_atom_site_fract_x
_atom_site_fract_y
_atom_site_fract_z
Si Si1 0.498546 0.815678 0.164511
Si Si2 0.615240 0.315513 0.659399
Si Si3 0.750000 0.324047 0.332312
Si Si4 0.750000 0.676237 0.677274
Si Si5 0.119551 0.183028 0.655735
O O1 0.441057 0.740280 0.245156
O O2 0.562862 0.774424 0.242007
O O3 0.491956 0.000000 0.173480
O O4 0.500000 0.772156 0.000000
O O5 0.617345 0.500000 0.653377
O O6 0.682723 0.257868 0.716093
O O7 0.607866 0.253418 0.499718
O O8 0.750000 0.500000 0.286699
O O9 0.750000 0.322910 0.505023
O O10 0.813883 0.242855 0.290175
O O11 0.750000 0.500000 0.725619
O O12 0.121872 0.000000 0.642876
#
# Coordination Sequence:
#
# PCOD9401796 Si02
#       5
#     8   8   4   4   8
#     4  10  22  38  52  71 104 142 179 219 260 308
#     4  10  19  33  55  80 106 135 171 216 263 311
#     4   9  17  31  52  79 108 132 164 214 262 305
#     4   7  14  29  48  73 102 128 156 200 254 303
#     4  10  19  33  55  79 104 137 174 211 258 313
#
# _framework density 18.006827999999999
#
# number of rings (size 3 to 8) (size 9 to 14) (size 15 to 20)
#    0.000    2.500    0.000    4.125    0.000    5.500 
#    0.000    3.125    0.000    4.500    0.000    0.000 
#    0.000    0.000    0.000    0.000    0.000    0.000 
#
# Total GULP energy -178430.876315 kJ/mol
# GULP energy per Si atom -5575.964885 kJ/mol
# Density = 1.796584 g / cm^3
# Si number density = 18.006828 Si / 1000 Ang^3
#
#
#
# Elastic Constant Matrix: (Units=GPa)
#
#
# Indices 1 2 3 4 5 6 
#
# 1 225.3091 63.7510 95.7825 0.0000 0.0000 0.0000
# 2 63.7510 46.7322 36.9302 0.0000 0.0000 0.0000
# 3 95.7825 36.9302 87.6629 0.0000 0.0000 0.0000
# 4 0.0000 0.0000 0.0000 -2.3018 0.0000 0.0000
# 5 0.0000 0.0000 0.0000 0.0000 -5.7824 0.0000
# 6 0.0000 0.0000 0.0000 0.0000 0.0000 34.4389
#
#
#
# Elastic Compliance Matrix: (Units=1/GPa)
#
#
# Indices 1 2 3 4 5 6 
#
# 1 0.009700 -0.007281 -0.007531 0.000000 0.000000 0.000000
# 2 -0.007281 0.037543 -0.007860 0.000000 0.000000 0.000000
# 3 -0.007531 -0.007860 0.022948 0.000000 0.000000 0.000000
# 4 0.000000 0.000000 0.000000 -0.434436 0.000000 0.000000
# 5 0.000000 0.000000 0.000000 0.000000 -0.172940 0.000000
# 6 0.000000 0.000000 0.000000 0.000000 0.000000 0.029037
#
#
# Mechanical properties :
#
#
# Convention : Reuss Voigt Hill
#
# Bulk Modulus (GPa) = 40.24924 83.62573 61.93749
# Shear Modulus (GPa) = -11.00060 16.15363 2.57651
#
# Velocity S-wave (km/s) = -2.47435 2.99838 1.19748
# Velocity P-wave (km/s) = 3.77327 7.65043 6.03186
#
# Compressibility (1/GPa) = 0.02484519
#
# Stress axis : x y z
#
# Youngs Moduli (GPa) = 103.09007 26.63607 43.57755
#
# Poissons Ratio (x) = 0.19394 0.32820
# Poissons Ratio (y) = 0.75062 0.34253
# Poissons Ratio (z) = 0.77640 0.20937
#
# Static dielectric constant tensor:
#      x y z
#    x 1.641480 0.000000 0.000000 
#    y 0.000000 1.613630 0.000000 
#    z 0.000000 0.000000 1.578080 
# 
# From -- ./inp_files/11351.got.cif
#   From: 2010.05.17/outbox.cif.g08.bks.cpg/sg51_6_cif.got.tgz:11351.got - 2010.06.03 11:52:47.
