data_PCOD9401850
_publ_section_title
;
Structure prediction by ZEFSAII (Michael W. Deem and Ramdas Pophale) SiO2 
 PCOD9401850
Probable space group: P M M A
;
_chemical_formula_sum "Si O2"
_cell_formula_units_Z 64
_cell_length_a 35.805440
_cell_length_b 11.030788
_cell_length_c 9.079454
_cell_angle_alpha 90.000000
_cell_angle_beta 90.000000
_cell_angle_gamma 90.000000
_cell_volume 3586.041289
_symmetry_space_group_name_H-M "P M M A"
_symmetry_group_IT_number 51
_symmetry_cell_setting 'orthorhombic'
loop_
_space_group_symop_operation_xyz
x,y,z
1/2-x,-y,z
1/2+x,-y,-z
-x,y,-z
-x,-y,-z
1/2+x,y,-z
1/2-x,y,z
x,-y,z
loop_
_atom_site_type_symbol
_atom_site_label
_atom_site_fract_x
_atom_site_fract_y
_atom_site_fract_z
Si Si1 0.385640 0.357859 0.516308
Si Si2 0.708237 0.137884 0.457722
Si Si3 0.396903 0.858912 0.023817
Si Si4 0.041547 0.644608 0.069097
Si Si5 0.036080 0.354727 0.419548
Si Si6 0.839313 0.785365 0.724611
Si Si7 0.844261 0.741367 0.214097
Si Si8 0.207117 0.358893 0.036091
O O1 0.386817 0.500000 0.491983
O O2 0.426581 0.303895 0.491622
O O3 0.359922 0.303981 0.388603
O O4 0.371630 0.332712 0.679970
O O5 0.750000 0.191434 0.473615
O O6 0.686206 0.138983 0.612436
O O7 0.683999 0.199356 0.330727
O O8 0.711909 0.000000 0.411449
O O9 0.368999 0.830982 0.886919
O O10 0.410360 0.000000 0.016911
O O11 0.428331 0.749796 0.023167
O O12 0.371043 0.844689 0.171108
O O13 0.052591 0.500000 0.041705
O O14 0.037116 0.660056 0.244752
O O15 0.000000 0.660483 0.000000
O O16 0.036011 0.500000 0.445598
O O17 0.000000 0.303302 0.500000
O O18 0.811277 0.716827 0.833354
O O19 0.819217 0.662655 0.104165
O O20 0.250000 0.322085 0.007098
O O21 0.206857 0.500000 0.075134
#
# Coordination Sequence:
#
# PCOD9401850 Si02
#       8
#     8   8   8   8   8   8   8   8
#     4  10  19  33  55  83 111 146 187 235 286 336
#     4  10  20  36  57  78 103 139 187 242 291 336
#     4  11  23  39  59  84 120 160 194 235 288 345
#     4  10  22  39  62  90 117 148 191 239 285 340
#     4   9  18  33  55  83 114 141 177 227 279 330
#     4  10  20  35  55  81 109 145 191 237 284 347
#     4  10  22  35  53  80 112 150 192 234 280 344
#     4  10  20  34  52  77 112 150 187 234 290 343
#
# _framework density 17.846978
#
# number of rings (size 3 to 8) (size 9 to 14) (size 15 to 20)
#    0.000    2.000    1.250    2.250    1.750    2.750 
#    0.000    0.000    0.000   12.375    0.000    0.000 
#    0.000    0.000    0.000    0.000    0.000    0.000 
#
# Total GULP energy -356345.993702 kJ/mol
# GULP energy per Si atom -5567.906152 kJ/mol
# Density = 1.780636 g / cm^3
# Si number density = 17.846978 Si / 1000 Ang^3
#
#
#
# Elastic Constant Matrix: (Units=GPa)
#
#
# Indices 1 2 3 4 5 6 
#
# 1 116.4672 42.1078 36.2208 0.0000 0.0000 0.0000
# 2 42.1078 77.0229 13.6688 0.0000 0.0000 0.0000
# 3 36.2208 13.6688 60.3488 0.0000 0.0000 0.0000
# 4 0.0000 0.0000 0.0000 6.0296 0.0000 0.0000
# 5 0.0000 0.0000 0.0000 0.0000 26.5523 0.0000
# 6 0.0000 0.0000 0.0000 0.0000 0.0000 36.9391
#
#
#
# Elastic Compliance Matrix: (Units=1/GPa)
#
#
# Indices 1 2 3 4 5 6 
#
# 1 0.012630 -0.005792 -0.006268 0.000000 0.000000 0.000000
# 2 -0.005792 0.016183 -0.000189 0.000000 0.000000 0.000000
# 3 -0.006268 -0.000189 0.020375 0.000000 0.000000 0.000000
# 4 0.000000 0.000000 0.000000 0.165848 0.000000 0.000000
# 5 0.000000 0.000000 0.000000 0.000000 0.037662 0.000000
# 6 0.000000 0.000000 0.000000 0.000000 0.000000 0.027072
#
#
# Mechanical properties :
#
#
# Convention : Reuss Voigt Hill
#
# Bulk Modulus (GPa) = 40.50353 48.64820 44.57587
# Shear Modulus (GPa) = 16.00011 24.69362 20.34687
#
# Velocity S-wave (km/s) = 2.99744 3.72375 3.38016
# Velocity P-wave (km/s) = 5.89268 6.76802 6.34546
#
# Compressibility (1/GPa) = 0.02468921
#
# Stress axis : x y z
#
# Youngs Moduli (GPa) = 79.17893 61.79240 49.07899
#
# Poissons Ratio (x) = 0.35791 0.30764
# Poissons Ratio (y) = 0.45861 0.00928
# Poissons Ratio (z) = 0.49632 0.01168
#
# Static dielectric constant tensor:
#      x y z
#    x 1.664300 0.000000 0.000000 
#    y 0.000000 1.607080 0.000000 
#    z 0.000000 0.000000 1.592350 
# 
# From -- ./inp_files/13186.got.cif
#   From: 2010.05.17/outbox.cif.g08.bks.cpg/sg51_7_cif.got.tgz:13186.got - 2010.06.03 11:52:47.
