data_PCOD9401374
_publ_section_title
;
Structure prediction by ZEFSAII (Michael W. Deem and Ramdas Pophale) SiO2 
 PCOD9401374
Probable space group: P M M A
;
_chemical_formula_sum "Si O2"
_cell_formula_units_Z 64
_cell_length_a 17.779336
_cell_length_b 15.818004
_cell_length_c 12.221221
_cell_angle_alpha 90.000000
_cell_angle_beta 90.000000
_cell_angle_gamma 90.000000
_cell_volume 3437.018076
_symmetry_space_group_name_H-M "P M M A"
_symmetry_group_IT_number 51
_symmetry_cell_setting 'orthorhombic'
loop_
_space_group_symop_operation_xyz
x,y,z
1/2-x,-y,z
1/2+x,-y,-z
-x,y,-z
-x,-y,-z
1/2+x,y,-z
1/2-x,y,z
x,-y,z
loop_
_atom_site_type_symbol
_atom_site_label
_atom_site_fract_x
_atom_site_fract_y
_atom_site_fract_z
Si Si1 0.834341 0.670554 0.777972
Si Si2 0.066487 0.595212 0.575640
Si Si3 0.338422 0.181171 0.392073
Si Si4 0.061860 0.229932 0.840371
Si Si5 0.164312 0.820204 0.043123
Si Si6 0.838284 0.251607 0.376304
Si Si7 0.432605 0.905245 0.212911
Si Si8 0.008011 0.592606 0.184835
O O1 0.750000 0.633917 0.771852
O O2 0.847667 0.728452 0.670265
O O3 0.903398 0.608173 0.796628
O O4 0.835426 0.737904 0.877707
O O5 0.083763 0.500000 0.537246
O O6 0.137639 0.655545 0.581858
O O7 0.000000 0.631376 0.500000
O O8 0.031248 0.590587 0.696327
O O9 0.250000 0.158865 0.378111
O O10 0.354729 0.191148 0.520250
O O11 0.392194 0.118199 0.326851
O O12 0.111549 0.197778 0.940564
O O13 0.112670 0.234705 0.731144
O O14 0.994828 0.165028 0.814847
O O15 0.027577 0.322791 0.867268
O O16 0.250000 0.837118 0.010272
O O17 0.130052 0.893404 0.118750
O O18 0.750000 0.247555 0.352081
O O19 0.462792 0.000000 0.213557
O O20 0.994735 0.500000 0.133651
#
# Coordination Sequence:
#
# PCOD9401374 Si02
#       8
#     8   8   8   8   8   8   8   8
#     4   9  17  32  53  78 109 148 191 241 288 331
#     4   9  18  30  49  79 115 151 197 249 289 331
#     4   9  18  35  57  83 115 147 188 235 285 344
#     4  11  22  38  58  84 122 151 191 243 283 338
#     4  10  21  38  61  84 114 149 186 235 291 343
#     4  10  21  35  57  82 113 163 199 227 287 346
#     4  11  23  39  64  92 112 143 188 237 296 349
#     4  10  19  32  52  80 113 157 198 233 285 338
#
# _framework density 18.620792999999999
#
# number of rings (size 3 to 8) (size 9 to 14) (size 15 to 20)
#    0.000    2.125    2.500    2.625    1.750    2.500 
#    0.000    2.500    0.000    8.250    0.000    0.000 
#    0.000    0.000    0.000    0.000    0.000    0.000 
#
# Total GULP energy -356994.830922 kJ/mol
# GULP energy per Si atom -5578.044233 kJ/mol
# Density = 1.857841 g / cm^3
# Si number density = 18.620793 Si / 1000 Ang^3
#
#
#
# Elastic Constant Matrix: (Units=GPa)
#
#
# Indices 1 2 3 4 5 6 
#
# 1 87.8392 39.0525 27.3230 0.0000 0.0000 0.0000
# 2 39.0525 83.3101 16.8787 0.0000 0.0000 0.0000
# 3 27.3230 16.8787 72.3480 0.0000 0.0000 0.0000
# 4 0.0000 0.0000 0.0000 7.3008 0.0000 0.0000
# 5 0.0000 0.0000 0.0000 0.0000 31.7441 0.0000
# 6 0.0000 0.0000 0.0000 0.0000 0.0000 3.1430
#
#
#
# Elastic Compliance Matrix: (Units=1/GPa)
#
#
# Indices 1 2 3 4 5 6 
#
# 1 0.015609 -0.006426 -0.004396 0.000000 0.000000 0.000000
# 2 -0.006426 0.015245 -0.001130 0.000000 0.000000 0.000000
# 3 -0.004396 -0.001130 0.015746 0.000000 0.000000 0.000000
# 4 0.000000 0.000000 0.000000 0.136972 0.000000 0.000000
# 5 0.000000 0.000000 0.000000 0.000000 0.031502 0.000000
# 6 0.000000 0.000000 0.000000 0.000000 0.000000 0.318163
#
#
# Mechanical properties :
#
#
# Convention : Reuss Voigt Hill
#
# Bulk Modulus (GPa) = 44.06035 45.55621 44.80828
# Shear Modulus (GPa) = 8.85420 19.12047 13.98733
#
# Velocity S-wave (km/s) = 2.18296 3.20790 2.74372
# Velocity P-wave (km/s) = 5.48334 6.18378 5.84407
#
# Compressibility (1/GPa) = 0.02269614
#
# Stress axis : x y z
#
# Youngs Moduli (GPa) = 64.06659 65.59713 63.50959
#
# Poissons Ratio (x) = 0.42154 0.27916
# Poissons Ratio (y) = 0.41171 0.07174
# Poissons Ratio (z) = 0.28161 0.07410
#
# Static dielectric constant tensor:
#      x y z
#    x 1.637090 0.000000 0.000000 
#    y 0.000000 1.663250 0.000000 
#    z 0.000000 0.000000 1.644170 
# 
# From -- ./inp_files/17569.got.cif
#   From: 2010.05.17/outbox.cif.g08.bks.cpg/sg51_9_cif.got.tgz:17569.got - 2010.06.03 11:52:47.
