data_PCOD9401889
_publ_section_title
;
Structure prediction by ZEFSAII (Michael W. Deem and Ramdas Pophale) SiO2 
 PCOD9401889
Probable space group: P M M A
;
_chemical_formula_sum "Si O2"
_cell_formula_units_Z 64
_cell_length_a 8.965278
_cell_length_b 25.040747
_cell_length_c 15.215738
_cell_angle_alpha 90.000000
_cell_angle_beta 90.000000
_cell_angle_gamma 90.000000
_cell_volume 3415.891462
_symmetry_space_group_name_H-M "P M M A"
_symmetry_group_IT_number 51
_symmetry_cell_setting 'orthorhombic'
loop_
_space_group_symop_operation_xyz
x,y,z
1/2-x,-y,z
1/2+x,-y,-z
-x,y,-z
-x,-y,-z
1/2+x,y,-z
1/2-x,y,z
x,-y,z
loop_
_atom_site_type_symbol
_atom_site_label
_atom_site_fract_x
_atom_site_fract_y
_atom_site_fract_z
Si Si1 0.071081 0.059435 0.722507
Si Si2 0.430462 0.754791 0.276640
Si Si3 0.928891 0.438357 0.588894
Si Si4 0.920984 0.920914 0.910345
Si Si5 0.919985 0.792271 0.912450
Si Si6 0.928873 0.368893 0.755571
Si Si7 0.430172 0.158758 0.597116
Si Si8 0.928454 0.560881 0.096127
O O1 0.250000 0.062820 0.731664
O O2 0.025442 0.107534 0.657740
O O3 0.001347 0.064480 0.819589
O O4 0.033800 0.000000 0.687894
O O5 0.250000 0.762562 0.283827
O O6 0.483861 0.776362 0.181708
O O7 0.461462 0.691867 0.271646
O O8 0.508848 0.788745 0.352708
O O9 0.750000 0.436779 0.581497
O O10 0.975684 0.500000 0.598302
O O11 0.972977 0.405663 0.673813
O O12 0.000000 0.416551 0.500000
O O13 0.750000 0.938645 0.908312
O O14 0.920366 0.856411 0.914607
O O15 0.000000 0.939350 0.000000
O O16 0.750000 0.772826 0.914486
O O17 0.000000 0.772361 0.000000
O O18 0.750000 0.372589 0.769196
O O19 0.008713 0.393622 0.840060
O O20 0.500000 0.154760 0.500000
O O21 0.250000 0.160155 0.591566
O O22 0.750000 0.564413 0.090360
O O23 0.966294 0.500000 0.127593
O O24 0.000000 0.566517 0.000000
#
# Coordination Sequence:
#
# PCOD9401889 Si02
#       8
#     8   8   8   8   8   8   8   8
#     4  10  22  40  61  87 118 150 189 238 289 345
#     4  10  21  39  59  84 117 151 190 236 287 342
#     4   9  18  33  53  77 105 139 178 222 274 330
#     4  10  19  33  56  85 117 154 190 227 274 329
#     4   9  18  32  53  79 109 144 182 224 267 321
#     4  10  21  36  57  84 116 151 188 237 291 344
#     4  11  24  42  65  87 112 149 191 239 295 352
#     4  10  21  37  58  84 117 159 204 249 295 345
#
# _framework density 18.735958
#
# number of rings (size 3 to 8) (size 9 to 14) (size 15 to 20)
#    0.000    2.125    1.250    1.500    0.000    5.500 
#    0.000    3.750    0.000    0.000    0.000    0.000 
#    0.000    0.000    0.000    0.000    0.000    0.000 
#
# Total GULP energy -357127.792933 kJ/mol
# GULP energy per Si atom -5580.121765 kJ/mol
# Density = 1.869331 g / cm^3
# Si number density = 18.735958 Si / 1000 Ang^3
#
#
#
# Elastic Constant Matrix: (Units=GPa)
#
#
# Indices 1 2 3 4 5 6 
#
# 1 43.2332 43.9879 49.5723 0.0000 0.0000 0.0000
# 2 43.9879 102.9769 72.6015 0.0000 0.0000 0.0000
# 3 49.5723 72.6015 151.9651 0.0000 0.0000 0.0000
# 4 0.0000 0.0000 0.0000 -27.1001 0.0000 0.0000
# 5 0.0000 0.0000 0.0000 0.0000 37.0707 0.0000
# 6 0.0000 0.0000 0.0000 0.0000 0.0000 12.4921
#
#
#
# Elastic Compliance Matrix: (Units=1/GPa)
#
#
# Indices 1 2 3 4 5 6 
#
# 1 0.047562 -0.014141 -0.008759 0.000000 0.000000 0.000000
# 2 -0.014141 0.018848 -0.004391 0.000000 0.000000 0.000000
# 3 -0.008759 -0.004391 0.011536 0.000000 0.000000 0.000000
# 4 0.000000 0.000000 0.000000 -0.036900 0.000000 0.000000
# 5 0.000000 0.000000 0.000000 0.000000 0.026975 0.000000
# 6 0.000000 0.000000 0.000000 0.000000 0.000000 0.080051
#
#
# Mechanical properties :
#
#
# Convention : Reuss Voigt Hill
#
# Bulk Modulus (GPa) = 42.80517 70.05540 56.43029
# Shear Modulus (GPa) = 23.75946 13.29343 18.52644
#
# Velocity S-wave (km/s) = 3.56493 2.66656 3.14796
# Velocity P-wave (km/s) = 6.31198 6.85221 6.58764
#
# Compressibility (1/GPa) = 0.02336166
#
# Stress axis : x y z
#
# Youngs Moduli (GPa) = 21.02519 53.05686 86.68686
#
# Poissons Ratio (x) = 0.75030 0.75930
# Poissons Ratio (y) = 0.29732 0.38068
# Poissons Ratio (z) = 0.18416 0.23300
#
# Static dielectric constant tensor:
#      x y z
#    x 1.636520 0.000000 0.000000 
#    y 0.000000 1.669600 0.000000 
#    z 0.000000 0.000000 1.621630 
# 
# From -- ./inp_files/22285.got.cif
#   From: 2010.05.17/outbox.cif.g08.bks.cpg/sg51_12_cif.got.tgz:22285.got - 2010.06.03 11:52:47.
