data_PCOD9401023
_publ_section_title
;
Structure prediction by ZEFSAII (Michael W. Deem and Ramdas Pophale) SiO2 
 PCOD9401023
Probable space group: P M M A
;
_chemical_formula_sum "Si O2"
_cell_formula_units_Z 64
_cell_length_a 17.366268
_cell_length_b 21.795456
_cell_length_c 9.358786
_cell_angle_alpha 90.000000
_cell_angle_beta 90.000000
_cell_angle_gamma 90.000000
_cell_volume 3542.354128
_symmetry_space_group_name_H-M "P M M A"
_symmetry_group_IT_number 51
_symmetry_cell_setting 'orthorhombic'
loop_
_space_group_symop_operation_xyz
x,y,z
1/2-x,-y,z
1/2+x,-y,-z
-x,y,-z
-x,-y,-z
1/2+x,y,-z
1/2-x,y,z
x,-y,z
loop_
_atom_site_type_symbol
_atom_site_label
_atom_site_fract_x
_atom_site_fract_y
_atom_site_fract_z
Si Si1 0.505378 0.277307 0.331060
Si Si2 0.662022 0.432551 0.537151
Si Si3 0.981762 0.135582 0.666749
Si Si4 0.923672 0.069977 0.099764
Si Si5 0.838402 0.074213 0.823207
Si Si6 0.384691 0.431487 0.899669
Si Si7 0.333856 0.329769 0.703931
Si Si8 0.449190 0.598797 0.209079
O O1 0.500000 0.292172 0.500000
O O2 0.475988 0.208665 0.310318
O O3 0.595134 0.283770 0.289928
O O4 0.460994 0.328952 0.240740
O O5 0.750000 0.428921 0.594075
O O6 0.654747 0.500000 0.467111
O O7 0.653239 0.376681 0.428089
O O8 0.599185 0.427434 0.660155
O O9 0.902902 0.103926 0.721121
O O10 0.000000 0.124365 0.500000
O O11 0.051194 0.109849 0.765143
O O12 0.906805 0.000000 0.144786
O O13 0.858808 0.091574 0.987959
O O14 0.000000 0.068363 0.000000
O O15 0.750000 0.089974 0.788680
O O16 0.846696 0.000000 0.816073
O O17 0.352319 0.500000 0.888886
O O18 0.335740 0.376098 0.837226
O O19 0.465177 0.428122 0.811019
O O20 0.406357 0.416772 0.062581
O O21 0.250000 0.300718 0.689298
#
# Coordination Sequence:
#
# PCOD9401023 Si02
#       8
#     8   8   8   8   8   8   8   8
#     4  10  20  38  56  76 105 148 190 226 264 318
#     4  10  19  31  52  78  99 127 173 225 275 331
#     4  10  20  34  56  85 116 154 198 236 275 326
#     4   8  15  31  54  81 112 148 185 222 268 321
#     4   9  18  36  60  88 123 155 186 231 282 326
#     4  10  20  33  52  76 104 134 166 218 285 344
#     4  10  21  37  54  75 105 138 174 223 280 330
#     4  10  19  35  52  73 104 136 176 220 267 328
#
# _framework density 18.067081999999999
#
# number of rings (size 3 to 8) (size 9 to 14) (size 15 to 20)
#    0.000    2.375    1.250    3.000    0.000    2.250 
#   13.500    6.250    0.000    1.500    0.000    0.000 
#    0.000    0.000    0.000    0.000    0.000    0.000 
#
# Total GULP energy -356750.875734 kJ/mol
# GULP energy per Si atom -5574.232433 kJ/mol
# Density = 1.802596 g / cm^3
# Si number density = 18.067082 Si / 1000 Ang^3
#
#
#
# Elastic Constant Matrix: (Units=GPa)
#
#
# Indices 1 2 3 4 5 6 
#
# 1 81.8941 26.3591 25.9293 0.0000 0.0000 0.0000
# 2 26.3591 68.9021 30.0491 0.0000 0.0000 0.0000
# 3 25.9293 30.0491 59.9613 0.0000 0.0000 0.0000
# 4 0.0000 0.0000 0.0000 23.7675 0.0000 0.0000
# 5 0.0000 0.0000 0.0000 0.0000 16.4498 0.0000
# 6 0.0000 0.0000 0.0000 0.0000 0.0000 16.1733
#
#
#
# Elastic Compliance Matrix: (Units=1/GPa)
#
#
# Indices 1 2 3 4 5 6 
#
# 1 0.014845 -0.003685 -0.004573 0.000000 0.000000 0.000000
# 2 -0.003685 0.019487 -0.008172 0.000000 0.000000 0.000000
# 3 -0.004573 -0.008172 0.022750 0.000000 0.000000 0.000000
# 4 0.000000 0.000000 0.000000 0.042074 0.000000 0.000000
# 5 0.000000 0.000000 0.000000 0.000000 0.060791 0.000000
# 6 0.000000 0.000000 0.000000 0.000000 0.000000 0.061830
#
#
# Mechanical properties :
#
#
# Convention : Reuss Voigt Hill
#
# Bulk Modulus (GPa) = 41.28417 41.71473 41.49945
# Shear Modulus (GPa) = 19.03226 19.83944 19.43585
#
# Velocity S-wave (km/s) = 3.24917 3.31735 3.28344
# Velocity P-wave (km/s) = 6.08081 6.14915 6.11507
#
# Compressibility (1/GPa) = 0.02422236
#
# Stress axis : x y z
#
# Youngs Moduli (GPa) = 67.36401 51.31612 43.95538
#
# Poissons Ratio (x) = 0.18909 0.20100
# Poissons Ratio (y) = 0.24822 0.35922
# Poissons Ratio (z) = 0.30804 0.41937
#
# Static dielectric constant tensor:
#      x y z
#    x 1.661960 0.000000 0.000000 
#    y 0.000000 1.605330 0.000000 
#    z 0.000000 0.000000 1.626430 
# 
# From -- ./inp_files/10064.got.cif
#   From: 2010.05.17/outbox.cif.g08.bks.cpg/sg51_6_cif.got.tgz:10064.got - 2010.06.03 11:52:47.
