data_PCOD9401100
_publ_section_title
;
Structure prediction by ZEFSAII (Michael W. Deem and Ramdas Pophale) SiO2 
 PCOD9401100
Probable space group: P M M A
;
_chemical_formula_sum "Si O2"
_cell_formula_units_Z 44
_cell_length_a 8.581737
_cell_length_b 29.660578
_cell_length_c 9.828010
_cell_angle_alpha 90.000000
_cell_angle_beta 90.000000
_cell_angle_gamma 90.000000
_cell_volume 2501.614586
_symmetry_space_group_name_H-M "P M M A"
_symmetry_group_IT_number 51
_symmetry_cell_setting 'orthorhombic'
loop_
_space_group_symop_operation_xyz
x,y,z
1/2-x,-y,z
1/2+x,-y,-z
-x,y,-z
-x,-y,-z
1/2+x,y,-z
1/2-x,y,z
x,-y,z
loop_
_atom_site_type_symbol
_atom_site_label
_atom_site_fract_x
_atom_site_fract_y
_atom_site_fract_z
Si Si1 0.437969 0.903081 0.654585
Si Si2 0.938638 0.000000 0.344381
Si Si3 0.936766 0.551540 0.652410
Si Si4 0.435942 0.274195 0.152665
Si Si5 0.437763 0.803980 0.654607
Si Si6 0.935708 0.371591 0.151930
O O1 0.500000 0.903358 0.500000
O O2 0.250000 0.903177 0.651748
O O3 0.488485 0.951459 0.716556
O O4 0.484881 0.853993 0.709691
O O5 0.000000 0.000000 0.500000
O O6 0.750000 0.000000 0.347338
O O7 0.750000 0.555744 0.652372
O O8 0.976488 0.500000 0.693161
O O9 0.000000 0.558177 0.500000
O O10 0.009408 0.588304 0.751481
O O11 0.250000 0.275019 0.148550
O O12 0.494954 0.235229 0.252010
O O13 0.497712 0.323212 0.198384
O O14 0.500000 0.266865 0.000000
O O15 0.500000 0.800018 0.500000
O O16 0.250000 0.801361 0.652382
O O17 0.750000 0.369037 0.147547
O O18 0.000000 0.379173 0.000000
#
# Coordination Sequence:
#
# PCOD9401100 Si02
#       6
#     8   4   8   8   8   8
#     4   8  14  23  38  60  91 125 160 200 244 294
#     4   8  12  20  34  56  85 122 159 194 240 292
#     4  10  21  38  59  84 114 146 179 215 256 303
#     4  11  22  38  57  77 102 134 171 213 260 311
#     4  10  19  32  49  74 104 135 170 211 256 303
#     4  11  22  38  59  82 108 138 174 216 259 305
#
# _framework density 17.588640000000002
#
# number of rings (size 3 to 8) (size 9 to 14) (size 15 to 20)
#    0.000    2.182    0.000    5.455    0.000    2.909 
#    0.000    3.636    0.000    0.000    0.000    0.636 
#    0.000    0.000    0.000    0.000    0.000    0.000 
#
# Total GULP energy -245265.288157 kJ/mol
# GULP energy per Si atom -5574.211094 kJ/mol
# Density = 1.754861 g / cm^3
# Si number density = 17.588640 Si / 1000 Ang^3
#
#
#
# Elastic Constant Matrix: (Units=GPa)
#
#
# Indices 1 2 3 4 5 6 
#
# 1 104.1375 73.5891 32.7453 0.0000 0.0000 0.0000
# 2 73.5891 221.2736 87.4859 0.0000 0.0000 0.0000
# 3 32.7453 87.4859 46.9582 0.0000 0.0000 0.0000
# 4 0.0000 0.0000 0.0000 -29.3433 0.0000 0.0000
# 5 0.0000 0.0000 0.0000 0.0000 26.0634 0.0000
# 6 0.0000 0.0000 0.0000 0.0000 0.0000 75.7060
#
#
#
# Elastic Compliance Matrix: (Units=1/GPa)
#
#
# Indices 1 2 3 4 5 6 
#
# 1 0.012725 -0.002747 -0.003755 0.000000 0.000000 0.000000
# 2 -0.002747 0.017751 -0.031155 0.000000 0.000000 0.000000
# 3 -0.003755 -0.031155 0.081959 0.000000 0.000000 0.000000
# 4 0.000000 0.000000 0.000000 -0.034079 0.000000 0.000000
# 5 0.000000 0.000000 0.000000 0.000000 0.038368 0.000000
# 6 0.000000 0.000000 0.000000 0.000000 0.000000 0.013209
#
#
# Mechanical properties :
#
#
# Convention : Reuss Voigt Hill
#
# Bulk Modulus (GPa) = 26.94059 84.44553 55.69306
# Shear Modulus (GPa) = 22.97575 26.38849 24.68212
#
# Velocity S-wave (km/s) = 3.61818 3.87759 3.75013
# Velocity P-wave (km/s) = 5.72758 8.25610 7.10523
#
# Compressibility (1/GPa) = 0.03711871
#
# Stress axis : x y z
#
# Youngs Moduli (GPa) = 78.58680 56.33487 12.20127
#
# Poissons Ratio (x) = 0.15476 0.04582
# Poissons Ratio (y) = 0.21589 0.38014
# Poissons Ratio (z) = 0.29511 1.75514
#
# Static dielectric constant tensor:
#      x y z
#    x 1.590190 0.000000 0.000000 
#    y 0.000000 1.650420 0.000000 
#    z 0.000000 0.000000 1.551960 
# 
# From -- ./inp_files/5802.got.cif
#   From: 2010.05.17/outbox.cif.g08.bks.cpg/sg51_3_cif.got.tgz:5802.got - 2010.06.03 11:52:47.
