data_PCOD9401231
_publ_section_title
;
Structure prediction by ZEFSAII (Michael W. Deem and Ramdas Pophale) SiO2 
 PCOD9401231
Probable space group: P M M A
;
_chemical_formula_sum "Si O2"
_cell_formula_units_Z 40
_cell_length_a 18.002115
_cell_length_b 7.847530
_cell_length_c 15.843056
_cell_angle_alpha 90.000000
_cell_angle_beta 90.000000
_cell_angle_gamma 90.000000
_cell_volume 2238.182386
_symmetry_space_group_name_H-M "P M M A"
_symmetry_group_IT_number 51
_symmetry_cell_setting 'orthorhombic'
loop_
_space_group_symop_operation_xyz
x,y,z
1/2-x,-y,z
1/2+x,-y,-z
-x,y,-z
-x,-y,-z
1/2+x,y,-z
1/2-x,y,z
x,-y,z
loop_
_atom_site_type_symbol
_atom_site_label
_atom_site_fract_x
_atom_site_fract_y
_atom_site_fract_z
Si Si1 0.085764 0.705887 0.003537
Si Si2 0.834672 0.798666 0.168623
Si Si3 0.881131 0.698116 0.807803
Si Si4 0.487697 0.000000 0.400753
Si Si5 0.964182 0.310935 0.287956
Si Si6 0.331518 0.000000 0.310673
O O1 0.084371 0.500000 0.998567
O O2 0.120871 0.749077 0.094143
O O3 0.131806 0.771685 0.924432
O O4 0.000000 0.765153 0.000000
O O5 0.750000 0.736720 0.172237
O O6 0.889031 0.711601 0.235530
O O7 0.835514 0.000000 0.186653
O O8 0.856853 0.500000 0.798735
O O9 0.967451 0.704342 0.778329
O O10 0.840304 0.833256 0.748628
O O11 0.500000 0.000000 0.500000
O O12 0.523782 0.165000 0.356490
O O13 0.400576 0.000000 0.374898
O O14 0.968133 0.500000 0.325337
O O15 0.250000 0.000000 0.350368
#
# Coordination Sequence:
#
# PCOD9401231 Si02
#       6
#     8   8   8   4   8   4
#     4  10  19  32  51  75 107 151 198 241 281 324
#     4  11  23  35  50  79 117 155 198 246 290 329
#     4   9  19  34  55  81 109 149 197 233 269 329
#     4  10  22  42  65  91 116 140 180 226 282 352
#     4  10  19  37  62  84 110 148 188 229 282 341
#     4  10  22  38  58  84 113 147 180 225 288 337
#
# _framework density 17.871644
#
# number of rings (size 3 to 8) (size 9 to 14) (size 15 to 20)
#    0.000    2.000    3.000    0.600    1.400    3.600 
#    0.000    3.000    0.000    0.000    0.000    0.000 
#    0.000    0.000    0.000    0.000    0.000    0.000 
#
# Total GULP energy -223322.050505 kJ/mol
# GULP energy per Si atom -5583.051263 kJ/mol
# Density = 1.783097 g / cm^3
# Si number density = 17.871644 Si / 1000 Ang^3
#
#
#
# Elastic Constant Matrix: (Units=GPa)
#
#
# Indices 1 2 3 4 5 6 
#
# 1 112.1909 33.1661 41.0101 0.0000 0.0000 0.0000
# 2 33.1661 90.3247 52.9258 0.0000 0.0000 0.0000
# 3 41.0101 52.9258 113.1777 0.0000 0.0000 0.0000
# 4 0.0000 0.0000 0.0000 -19.5861 0.0000 0.0000
# 5 0.0000 0.0000 0.0000 0.0000 11.3955 0.0000
# 6 0.0000 0.0000 0.0000 0.0000 0.0000 9.3084
#
#
#
# Elastic Compliance Matrix: (Units=1/GPa)
#
#
# Indices 1 2 3 4 5 6 
#
# 1 0.010599 -0.002261 -0.002783 0.000000 0.000000 0.000000
# 2 -0.002261 0.015732 -0.006538 0.000000 0.000000 0.000000
# 3 -0.002783 -0.006538 0.012901 0.000000 0.000000 0.000000
# 4 0.000000 0.000000 0.000000 -0.051057 0.000000 0.000000
# 5 0.000000 0.000000 0.000000 0.000000 0.087754 0.000000
# 6 0.000000 0.000000 0.000000 0.000000 0.000000 0.107430
#
#
# Mechanical properties :
#
#
# Convention : Reuss Voigt Hill
#
# Bulk Modulus (GPa) = 62.23214 63.32193 62.77703
# Shear Modulus (GPa) = 23.59829 12.79632 18.19730
#
# Velocity S-wave (km/s) = 3.63772 2.67874 3.19442
# Velocity P-wave (km/s) = 7.24854 6.71387 6.98632
#
# Compressibility (1/GPa) = 0.01606887
#
# Stress axis : x y z
#
# Youngs Moduli (GPa) = 94.34684 63.56439 77.51106
#
# Poissons Ratio (x) = 0.14372 0.21574
# Poissons Ratio (y) = 0.21332 0.50673
# Poissons Ratio (z) = 0.26260 0.41556
#
# Static dielectric constant tensor:
#      x y z
#    x 1.616440 0.000000 0.000000 
#    y 0.000000 1.635380 0.000000 
#    z 0.000000 0.000000 1.559810 
# 
# From -- ./inp_files/23734.got.cif
#   From: 2010.05.17/outbox.cif.g08.bks.cpg/sg51_12_cif.got.tgz:23734.got - 2010.06.03 11:52:47.
