data_PCOD9401653
_publ_section_title
;
Structure prediction by ZEFSAII (Michael W. Deem and Ramdas Pophale) SiO2 
 PCOD9401653
Probable space group: P M M A
;
_chemical_formula_sum "Si O2"
_cell_formula_units_Z 56
_cell_length_a 8.667340
_cell_length_b 20.990399
_cell_length_c 15.764637
_cell_angle_alpha 90.000000
_cell_angle_beta 90.000000
_cell_angle_gamma 90.000000
_cell_volume 2868.074990
_symmetry_space_group_name_H-M "P M M A"
_symmetry_group_IT_number 51
_symmetry_cell_setting 'orthorhombic'
loop_
_space_group_symop_operation_xyz
x,y,z
1/2-x,-y,z
1/2+x,-y,-z
-x,y,-z
-x,-y,-z
1/2+x,y,-z
1/2-x,y,z
x,-y,z
loop_
_atom_site_type_symbol
_atom_site_label
_atom_site_fract_x
_atom_site_fract_y
_atom_site_fract_z
Si Si1 0.569932 0.205228 0.673645
Si Si2 0.933721 0.673170 0.408625
Si Si3 0.430245 0.236343 0.127204
Si Si4 0.936300 0.930535 0.729382
Si Si5 0.931528 0.897867 0.088172
Si Si6 0.935315 0.625472 0.087782
Si Si7 0.937920 0.571302 0.269257
O O1 0.750000 0.204704 0.648598
O O2 0.481255 0.255179 0.616081
O O3 0.561440 0.230505 0.770642
O O4 0.510540 0.132388 0.678980
O O5 0.750000 0.669016 0.411104
O O6 0.991389 0.624821 0.335483
O O7 0.000000 0.656067 0.500000
O O8 0.250000 0.229526 0.102814
O O9 0.527914 0.177305 0.092537
O O10 0.497362 0.303394 0.098218
O O11 0.750000 0.926778 0.731398
O O12 0.993181 0.925186 0.826330
O O13 0.981753 0.000000 0.695345
O O14 0.750000 0.908269 0.090296
O O15 0.000000 0.922808 0.000000
O O16 0.750000 0.628077 0.084216
O O17 0.982198 0.588200 0.172920
O O18 0.000000 0.598108 0.000000
O O19 0.750000 0.572295 0.270799
O O20 0.988312 0.500000 0.291969
#
# Coordination Sequence:
#
# PCOD9401653 Si02
#       7
#     8   8   8   8   8   8   8
#     4   9  18  34  58  85 114 146 183 232 284 339
#     4  11  22  38  63  92 119 150 189 235 289 349
#     4  10  19  33  53  77 108 145 189 241 294 343
#     4   9  19  36  56  79 109 148 189 231 286 346
#     4  11  21  32  47  70 104 144 192 243 293 343
#     4  11  21  34  54  81 113 153 199 243 290 341
#     4   9  20  39  60  83 117 158 196 237 289 346
#
# _framework density 19.525290999999999
#
# number of rings (size 3 to 8) (size 9 to 14) (size 15 to 20)
#    0.000    2.000    1.429    3.857    0.000    3.429 
#    0.000    0.000    0.000    6.429    0.000    0.000 
#    0.000    0.000    0.000    0.000    0.000    0.000 
#
# Total GULP energy -312714.007809 kJ/mol
# GULP energy per Si atom -5584.178711 kJ/mol
# Density = 1.948085 g / cm^3
# Si number density = 19.525291 Si / 1000 Ang^3
#
#
#
# Elastic Constant Matrix: (Units=GPa)
#
#
# Indices 1 2 3 4 5 6 
#
# 1 29.3385 15.5215 21.5498 0.0000 0.0000 0.0000
# 2 15.5215 122.6446 49.7588 0.0000 0.0000 0.0000
# 3 21.5498 49.7588 92.8173 0.0000 0.0000 0.0000
# 4 0.0000 0.0000 0.0000 -6.1498 0.0000 0.0000
# 5 0.0000 0.0000 0.0000 0.0000 27.3828 0.0000
# 6 0.0000 0.0000 0.0000 0.0000 0.0000 13.6816
#
#
#
# Elastic Compliance Matrix: (Units=1/GPa)
#
#
# Indices 1 2 3 4 5 6 
#
# 1 0.041372 -0.001711 -0.008688 0.000000 0.000000 0.000000
# 2 -0.001711 0.010491 -0.005227 0.000000 0.000000 0.000000
# 3 -0.008688 -0.005227 0.015593 0.000000 0.000000 0.000000
# 4 0.000000 0.000000 0.000000 -0.162607 0.000000 0.000000
# 5 0.000000 0.000000 0.000000 0.000000 0.036519 0.000000
# 6 0.000000 0.000000 0.000000 0.000000 0.000000 0.073091
#
#
# Mechanical properties :
#
#
# Convention : Reuss Voigt Hill
#
# Bulk Modulus (GPa) = 27.62151 46.49562 37.05856
# Shear Modulus (GPa) = 86.53766 17.51428 52.02597
#
# Velocity S-wave (km/s) = 6.66461 2.99825 5.16752
# Velocity P-wave (km/s) = 8.56738 5.98755 7.39090
#
# Compressibility (1/GPa) = 0.03620368
#
# Stress axis : x y z
#
# Youngs Moduli (GPa) = 24.17108 95.32192 64.13093
#
# Poissons Ratio (x) = 0.16309 0.55718
# Poissons Ratio (y) = 0.04136 0.33520
# Poissons Ratio (z) = 0.21000 0.49823
#
# Static dielectric constant tensor:
#      x y z
#    x 1.660830 0.000000 0.000000 
#    y 0.000000 1.706540 0.000000 
#    z 0.000000 0.000000 1.679280 
# 
# From -- ./inp_files/21708.got.cif
#   From: 2010.05.17/outbox.cif.g08.bks.cpg/sg51_11_cif.got.tgz:21708.got - 2010.06.03 11:52:47.
