data_PCOD9401893
_publ_section_title
;
Structure prediction by ZEFSAII (Michael W. Deem and Ramdas Pophale) SiO2 
 PCOD9401893
Probable space group: P M M A
;
_chemical_formula_sum "Si O2"
_cell_formula_units_Z 48
_cell_length_a 16.024497
_cell_length_b 8.932058
_cell_length_c 17.315723
_cell_angle_alpha 90.000000
_cell_angle_beta 90.000000
_cell_angle_gamma 90.000000
_cell_volume 2478.429504
_symmetry_space_group_name_H-M "P M M A"
_symmetry_group_IT_number 51
_symmetry_cell_setting 'orthorhombic'
loop_
_space_group_symop_operation_xyz
x,y,z
1/2-x,-y,z
1/2+x,-y,-z
-x,y,-z
-x,-y,-z
1/2+x,y,-z
1/2-x,y,z
x,-y,z
loop_
_atom_site_type_symbol
_atom_site_label
_atom_site_fract_x
_atom_site_fract_y
_atom_site_fract_z
Si Si1 0.650139 0.825175 0.500000
Si Si2 0.500000 0.824152 0.907894
Si Si3 0.400988 0.176095 0.667313
Si Si4 0.400989 0.176095 0.332687
Si Si5 0.156568 0.321115 0.177605
Si Si6 0.843432 0.321115 0.177605
O O1 0.750000 0.820037 0.500001
O O2 0.617936 0.763719 0.418613
O O3 0.617935 0.763719 0.581386
O O4 0.622585 0.000000 0.500000
O O5 0.582716 0.751161 0.871921
O O6 0.417284 0.751162 0.871921
O O7 0.500000 0.000000 0.888357
O O8 0.500000 0.806598 0.000000
O O9 0.500000 0.183695 0.681106
O O10 0.355362 0.264402 0.734801
O O11 0.375939 0.000000 0.670106
O O12 0.355363 0.264402 0.265199
O O13 0.375940 0.000000 0.329894
O O14 0.250000 0.279754 0.150900
O O15 0.148797 0.500000 0.175149
O O16 0.750000 0.279755 0.150899
O O17 0.851203 0.500000 0.175149
#
# Coordination Sequence:
#
# PCOD9401893 Si02
#       6
#     8   8   8   8   8   8
#     4   9  17  29  48  79 118 159 205 256 304 351
#     4  11  25  45  69  96 123 154 197 251 306 361
#     4  10  19  33  56  85 118 160 209 257 303 353
#     4  10  19  33  56  85 118 160 209 257 303 353
#     4  11  24  41  63  92 127 166 204 245 300 366
#     4  11  24  41  63  92 127 166 204 245 300 366
#
# _framework density 19.367103
#
# number of rings (size 3 to 8) (size 9 to 14) (size 15 to 20)
#    0.000    1.667    1.667    3.000    0.000    8.000 
#    0.000    4.167    0.000    5.000    0.000    0.000 
#    0.000    0.000    0.000    0.000    0.000    0.000 
#
# Total GULP energy -268167.078709 kJ/mol
# GULP energy per Si atom -5586.814140 kJ/mol
# Density = 1.932302 g / cm^3
# Si number density = 19.367103 Si / 1000 Ang^3
#
#
#
# Elastic Constant Matrix: (Units=GPa)
#
#
# Indices 1 2 3 4 5 6 
#
# 1 144.8612 66.7150 68.6612 0.0000 0.0000 0.0000
# 2 66.7150 66.0732 52.2785 0.0000 0.0000 0.0000
# 3 68.6612 52.2785 81.8861 0.0000 0.0000 0.0000
# 4 0.0000 0.0000 0.0000 -35.6423 0.0000 0.0000
# 5 0.0000 0.0000 0.0000 0.0000 0.8007 0.0000
# 6 0.0000 0.0000 0.0000 0.0000 0.0000 20.9575
#
#
#
# Elastic Compliance Matrix: (Units=1/GPa)
#
#
# Indices 1 2 3 4 5 6 
#
# 1 0.014029 -0.009817 -0.005496 0.000000 0.000000 0.000000
# 2 -0.009817 0.037453 -0.015680 0.000000 0.000000 0.000000
# 3 -0.005496 -0.015680 0.026831 0.000000 0.000000 0.000000
# 4 0.000000 0.000000 0.000000 -0.028057 0.000000 0.000000
# 5 0.000000 0.000000 0.000000 0.000000 1.248983 0.000000
# 6 0.000000 0.000000 0.000000 0.000000 0.000000 0.047716
#
#
# Mechanical properties :
#
#
# Convention : Reuss Voigt Hill
#
# Bulk Modulus (GPa) = 61.24501 74.23667 67.74084
# Shear Modulus (GPa) = 3.53511 4.23423 3.88467
#
# Velocity S-wave (km/s) = 1.35251 1.48022 1.41780
# Velocity P-wave (km/s) = 5.84217 6.42930 6.14275
#
# Compressibility (1/GPa) = 0.01632786
#
# Stress axis : x y z
#
# Youngs Moduli (GPa) = 71.27903 26.69997 37.27036
#
# Poissons Ratio (x) = 0.26211 0.20484
# Poissons Ratio (y) = 0.69975 0.58439
# Poissons Ratio (z) = 0.39176 0.41865
#
# Static dielectric constant tensor:
#      x y z
#    x 1.670640 0.000000 0.000000 
#    y 0.000000 1.656790 0.000000 
#    z 0.000000 0.000000 1.677200 
# 
# From -- ./inp_files/29467.got.cif
#   From: 2010.05.17/outbox.cif.g08.bks.cpg/sg51_15_cif.got.tgz:29467.got - 2010.06.03 11:52:47.
