data_PCOD9401018
_publ_section_title
;
Structure prediction by ZEFSAII (Michael W. Deem and Ramdas Pophale) SiO2 
 PCOD9401018
Probable space group: P M M A
;
_chemical_formula_sum "Si O2"
_cell_formula_units_Z 48
_cell_length_a 14.506719
_cell_length_b 12.153536
_cell_length_c 14.825822
_cell_angle_alpha 90.000000
_cell_angle_beta 90.000000
_cell_angle_gamma 90.000000
_cell_volume 2613.910011
_symmetry_space_group_name_H-M "P M M A"
_symmetry_group_IT_number 51
_symmetry_cell_setting 'orthorhombic'
loop_
_space_group_symop_operation_xyz
x,y,z
1/2-x,-y,z
1/2+x,-y,-z
-x,y,-z
-x,-y,-z
1/2+x,y,-z
1/2-x,y,z
x,-y,z
loop_
_atom_site_type_symbol
_atom_site_label
_atom_site_fract_x
_atom_site_fract_y
_atom_site_fract_z
Si Si1 0.750000 0.864982 0.865670
Si Si2 0.111328 0.255784 0.003483
Si Si3 0.896197 0.500000 0.036805
Si Si4 0.362185 0.500000 0.749068
Si Si5 0.858048 0.879352 0.175786
Si Si6 0.250000 0.868714 0.343352
Si Si7 0.110094 0.873263 0.499162
Si Si8 0.141182 0.270967 0.670865
O O1 0.661485 0.811510 0.916763
O O2 0.750000 0.830558 0.760165
O O3 0.750000 0.000000 0.874574
O O4 0.142433 0.383373 0.998142
O O5 0.138571 0.195422 0.911556
O O6 0.000000 0.253004 0.000000
O O7 0.892492 0.500000 0.146113
O O8 0.000000 0.500000 0.000000
O O9 0.250000 0.500000 0.751675
O O10 0.395164 0.608470 0.695697
O O11 0.750000 0.893296 0.196797
O O12 0.902053 0.816413 0.259661
O O13 0.898669 0.000000 0.160069
O O14 0.160603 0.842770 0.405390
O O15 0.250000 0.000000 0.334747
O O16 0.134752 0.782003 0.572963
O O17 0.000000 0.875615 0.500000
O O18 0.140116 0.000000 0.522251
O O19 0.250000 0.279799 0.690416
#
# Coordination Sequence:
#
# PCOD9401018 Si02
#       8
#     4   8   4   4   8   4   8   8
#     4  11  24  41  60  87 124 169 205 241 306 371
#     4  11  23  38  59  85 118 159 206 251 294 356
#     4  10  22  40  58  81 117 161 208 250 297 349
#     4  10  20  34  59  87 113 150 194 238 304 358
#     4  10  19  31  51  83 115 144 181 233 296 354
#     4   9  20  40  60  79 118 162 196 239 294 363
#     4  10  20  36  61  90 116 151 196 241 296 362
#     4  10  19  33  56  84 114 146 185 240 295 351
#
# _framework density 18.363295999999998
#
# number of rings (size 3 to 8) (size 9 to 14) (size 15 to 20)
#    0.000    1.833    3.333    1.000    1.167    3.333 
#    0.000    2.083    0.000    2.000    0.000    0.000 
#    0.000    0.000    0.000    0.000    0.000    0.000 
#
# Total GULP energy -267251.292764 kJ/mol
# GULP energy per Si atom -5567.735266 kJ/mol
# Density = 1.832150 g / cm^3
# Si number density = 18.363296 Si / 1000 Ang^3
#
#
#
# Elastic Constant Matrix: (Units=GPa)
#
#
# Indices 1 2 3 4 5 6 
#
# 1 74.5479 29.0108 27.8290 0.0000 0.0000 0.0000
# 2 29.0108 153.9616 62.2084 0.0000 0.0000 0.0000
# 3 27.8290 62.2084 139.9337 0.0000 0.0000 0.0000
# 4 0.0000 0.0000 0.0000 -6.4187 0.0000 0.0000
# 5 0.0000 0.0000 0.0000 0.0000 -2.0596 0.0000
# 6 0.0000 0.0000 0.0000 0.0000 0.0000 18.4509
#
#
#
# Elastic Compliance Matrix: (Units=1/GPa)
#
#
# Indices 1 2 3 4 5 6 
#
# 1 0.014965 -0.001971 -0.002100 0.000000 0.000000 0.000000
# 2 -0.001971 0.008177 -0.003243 0.000000 0.000000 0.000000
# 3 -0.002100 -0.003243 0.009006 0.000000 0.000000 0.000000
# 4 0.000000 0.000000 0.000000 -0.155795 0.000000 0.000000
# 5 0.000000 0.000000 0.000000 0.000000 -0.485533 0.000000
# 6 0.000000 0.000000 0.000000 0.000000 0.000000 0.054198
#
#
# Mechanical properties :
#
#
# Convention : Reuss Voigt Hill
#
# Bulk Modulus (GPa) = 57.08020 67.39332 62.23676
# Shear Modulus (GPa) = -9.35428 18.62086 4.63329
#
# Velocity S-wave (km/s) = -2.25944 3.18783 1.59016
# Velocity P-wave (km/s) = 4.93402 7.09432 6.11040
#
# Compressibility (1/GPa) = 0.01751921
#
# Stress axis : x y z
#
# Youngs Moduli (GPa) = 66.82140 122.29472 111.04273
#
# Poissons Ratio (x) = 0.24110 0.23316
# Poissons Ratio (y) = 0.13174 0.36012
# Poissons Ratio (z) = 0.14031 0.39661
#
# Static dielectric constant tensor:
#      x y z
#    x 1.615470 0.000000 0.000000 
#    y 0.000000 1.687300 0.000000 
#    z 0.000000 0.000000 1.614220 
# 
# From -- ./inp_files/24118.got.cif
#   From: 2010.05.17/outbox.cif.g08.bks.cpg/sg51_13_cif.got.tgz:24118.got - 2010.06.03 11:52:47.
