data_PCOD9401038
_publ_section_title
;
Structure prediction by ZEFSAII (Michael W. Deem and Ramdas Pophale) SiO2 
 PCOD9401038
Probable space group: P M M A
;
_chemical_formula_sum "Si O2"
_cell_formula_units_Z 64
_cell_length_a 19.153040
_cell_length_b 7.649787
_cell_length_c 20.215861
_cell_angle_alpha 90.000000
_cell_angle_beta 90.000000
_cell_angle_gamma 90.000000
_cell_volume 2961.960764
_symmetry_space_group_name_H-M "P M M A"
_symmetry_group_IT_number 51
_symmetry_cell_setting 'orthorhombic'
loop_
_space_group_symop_operation_xyz
x,y,z
1/2-x,-y,z
1/2+x,-y,-z
-x,y,-z
-x,-y,-z
1/2+x,y,-z
1/2-x,y,z
x,-y,z
loop_
_atom_site_type_symbol
_atom_site_label
_atom_site_fract_x
_atom_site_fract_y
_atom_site_fract_z
Si Si1 0.934299 0.295678 0.100002
Si Si2 0.078476 0.213504 0.519627
Si Si3 0.169980 0.213834 0.395511
Si Si4 0.933083 0.788516 0.721522
Si Si5 0.327411 0.292005 0.792788
Si Si6 0.415207 0.211140 0.669568
Si Si7 0.913284 0.705528 0.873937
Si Si8 0.327423 0.798297 0.009240
O O1 0.945116 0.500000 0.116003
O O2 0.885883 0.218014 0.157830
O O3 0.012302 0.221766 0.099217
O O4 0.889025 0.285271 0.033785
O O5 0.132499 0.269963 0.463372
O O6 0.093714 0.271468 0.594240
O O7 0.000000 0.265782 0.500000
O O8 0.079248 0.000000 0.519714
O O9 0.250000 0.270962 0.391164
O O10 0.122974 0.268879 0.333226
O O11 0.169809 0.000000 0.395540
O O12 0.914388 0.731410 0.795375
O O13 0.010440 0.728510 0.699603
O O14 0.934194 0.000000 0.721082
O O15 0.250000 0.219870 0.803825
O O16 0.323991 0.500000 0.805536
O O17 0.354023 0.265615 0.718647
O O18 0.417402 0.000000 0.668387
O O19 0.908244 0.500000 0.888382
O O20 0.850108 0.788576 0.914459
O O21 0.250000 0.722571 0.998072
O O22 0.325471 0.000000 0.989030
#
# Coordination Sequence:
#
# PCOD9401038 Si02
#       8
#     8   8   8   8   8   8   8   8
#     4  10  21  39  62  86 112 147 190 231 273 332
#     4   9  15  27  48  75 108 144 181 225 281 338
#     4   9  17  29  48  76 109 146 189 235 283 335
#     4  10  19  33  54  81 112 148 187 233 287 335
#     4  10  21  37  56  79 112 151 184 220 271 330
#     4  10  19  31  53  81 110 143 183 233 281 330
#     4  11  23  39  62  88 113 147 192 236 277 332
#     4  11  25  42  60  86 119 151 184 228 283 337
#
# _framework density 21.607308
#
# number of rings (size 3 to 8) (size 9 to 14) (size 15 to 20)
#    0.000    2.000    2.500    1.500    0.000    5.750 
#    0.000    2.500    0.000    1.125    0.000    0.000 
#    0.000    0.000    0.000    0.000    0.000    0.000 
#
# Total GULP energy -357581.635170 kJ/mol
# GULP energy per Si atom -5587.213050 kJ/mol
# Density = 2.155813 g / cm^3
# Si number density = 21.607308 Si / 1000 Ang^3
#
#
#
# Elastic Constant Matrix: (Units=GPa)
#
#
# Indices 1 2 3 4 5 6 
#
# 1 82.4531 -0.1727 16.4135 0.0000 0.0000 0.0000
# 2 -0.1727 41.4803 -12.3857 0.0000 0.0000 0.0000
# 3 16.4135 -12.3857 103.8143 0.0000 0.0000 0.0000
# 4 0.0000 0.0000 0.0000 29.1938 0.0000 0.0000
# 5 0.0000 0.0000 0.0000 0.0000 23.1742 0.0000
# 6 0.0000 0.0000 0.0000 0.0000 0.0000 7.4010
#
#
#
# Elastic Compliance Matrix: (Units=1/GPa)
#
#
# Indices 1 2 3 4 5 6 
#
# 1 0.012535 -0.000560 -0.002049 0.000000 0.000000 0.000000
# 2 -0.000560 0.025023 0.003074 0.000000 0.000000 0.000000
# 3 -0.002049 0.003074 0.010323 0.000000 0.000000 0.000000
# 4 0.000000 0.000000 0.000000 0.034254 0.000000 0.000000
# 5 0.000000 0.000000 0.000000 0.000000 0.043151 0.000000
# 6 0.000000 0.000000 0.000000 0.000000 0.000000 0.135116
#
#
# Mechanical properties :
#
#
# Convention : Reuss Voigt Hill
#
# Bulk Modulus (GPa) = 20.48638 26.16201 23.32419
# Shear Modulus (GPa) = 18.13288 26.87998 22.50643
#
# Velocity S-wave (km/s) = 2.90004 3.53090 3.23090
# Velocity P-wave (km/s) = 4.55142 5.36257 4.97356
#
# Compressibility (1/GPa) = 0.04881293
#
# Stress axis : x y z
#
# Youngs Moduli (GPa) = 79.77840 39.96273 96.86917
#
# Poissons Ratio (x) = 0.02236 0.19844
# Poissons Ratio (y) = 0.04464 -0.29776
# Poissons Ratio (z) = 0.16343 -0.12284
#
# Static dielectric constant tensor:
#      x y z
#    x 1.771200 0.000000 0.000000 
#    y 0.000000 1.817680 0.000000 
#    z 0.000000 0.000000 1.764600 
# 
# From -- ./inp_files/33878.got.cif
#   From: 2010.05.17/outbox.cif.g08.bks.cpg/sg51_17_cif.got.tgz:33878.got - 2010.06.03 11:52:47.
