data_PCOD9401351
_publ_section_title
;
Structure prediction by ZEFSAII (Michael W. Deem and Ramdas Pophale) SiO2 
 PCOD9401351
Probable space group: P M M A
;
_chemical_formula_sum "Si O2"
_cell_formula_units_Z 64
_cell_length_a 8.707741
_cell_length_b 25.283360
_cell_length_c 15.797788
_cell_angle_alpha 90.000000
_cell_angle_beta 90.000000
_cell_angle_gamma 90.000000
_cell_volume 3478.056022
_symmetry_space_group_name_H-M "P M M A"
_symmetry_group_IT_number 51
_symmetry_cell_setting 'orthorhombic'
loop_
_space_group_symop_operation_xyz
x,y,z
1/2-x,-y,z
1/2+x,-y,-z
-x,y,-z
-x,-y,-z
1/2+x,y,-z
1/2-x,y,z
x,-y,z
loop_
_atom_site_type_symbol
_atom_site_label
_atom_site_fract_x
_atom_site_fract_y
_atom_site_fract_z
Si Si1 0.433745 0.096793 0.912597
Si Si2 0.434662 0.355054 0.722416
Si Si3 0.437173 0.058955 0.729096
Si Si4 0.431885 0.757954 0.322168
Si Si5 0.565663 0.144238 0.410563
Si Si6 0.433370 0.330540 0.911774
Si Si7 0.065724 0.213277 0.856070
Si Si8 0.066326 0.562106 0.408347
O O1 0.250000 0.091864 0.915592
O O2 0.487848 0.070422 0.825230
O O3 0.471452 0.159258 0.903562
O O4 0.500000 0.075579 0.000000
O O5 0.250000 0.354400 0.721434
O O6 0.495227 0.300321 0.682109
O O7 0.484413 0.355410 0.821745
O O8 0.497214 0.402963 0.666725
O O9 0.250000 0.060532 0.730368
O O10 0.485470 0.104247 0.663844
O O11 0.484019 0.000000 0.703065
O O12 0.250000 0.754093 0.332046
O O13 0.503041 0.797296 0.390725
O O14 0.476906 0.783901 0.232130
O O15 0.500000 0.125950 0.500000
O O16 0.750000 0.145389 0.411943
O O17 0.250000 0.335385 0.915422
O O18 0.470414 0.267884 0.903546
O O19 0.500000 0.351272 0.000000
O O20 0.250000 0.213112 0.838255
O O21 0.250000 0.567665 0.409660
O O22 0.028394 0.500000 0.396790
O O23 0.000000 0.578429 0.500000
#
# Coordination Sequence:
#
# PCOD9401351 Si02
#       8
#     8   8   8   8   8   8   8   8
#     4  10  19  32  52  78 107 141 179 220 270 327
#     4  10  21  37  57  84 119 157 194 234 281 333
#     4   9  19  37  59  78 103 142 180 220 276 336
#     4  11  21  34  55  83 113 145 183 224 274 330
#     4  11  22  39  60  82 109 139 177 223 275 336
#     4   9  18  30  48  75 111 149 189 230 277 327
#     4   9  17  32  50  73 106 146 182 220 272 327
#     4  10  21  38  61  89 119 152 193 240 287 335
#
# _framework density 18.401083
#
# number of rings (size 3 to 8) (size 9 to 14) (size 15 to 20)
#    0.000    2.125    1.250    3.375    0.000    4.750 
#    0.000    2.500    0.000    3.000    0.000    0.000 
#    0.000    0.000    0.000    0.000    0.000    0.000 
#
# Total GULP energy -357146.505140 kJ/mol
# GULP energy per Si atom -5580.414143 kJ/mol
# Density = 1.835920 g / cm^3
# Si number density = 18.401083 Si / 1000 Ang^3
#
#
#
# Elastic Constant Matrix: (Units=GPa)
#
#
# Indices 1 2 3 4 5 6 
#
# 1 31.7135 28.6310 35.5349 0.0000 0.0000 0.0000
# 2 28.6310 78.2416 61.9118 0.0000 0.0000 0.0000
# 3 35.5349 61.9118 134.4708 0.0000 0.0000 0.0000
# 4 0.0000 0.0000 0.0000 7.0979 0.0000 0.0000
# 5 0.0000 0.0000 0.0000 0.0000 34.0124 0.0000
# 6 0.0000 0.0000 0.0000 0.0000 0.0000 11.0620
#
#
#
# Elastic Compliance Matrix: (Units=1/GPa)
#
#
# Indices 1 2 3 4 5 6 
#
# 1 0.051824 -0.012785 -0.007808 0.000000 0.000000 0.000000
# 2 -0.012785 0.023260 -0.007331 0.000000 0.000000 0.000000
# 3 -0.007808 -0.007331 0.012875 0.000000 0.000000 0.000000
# 4 0.000000 0.000000 0.000000 0.140887 0.000000 0.000000
# 5 0.000000 0.000000 0.000000 0.000000 0.029401 0.000000
# 6 0.000000 0.000000 0.000000 0.000000 0.000000 0.090400
#
#
# Mechanical properties :
#
#
# Convention : Reuss Voigt Hill
#
# Bulk Modulus (GPa) = 31.14224 55.17570 43.15897
# Shear Modulus (GPa) = 12.04239 18.32433 15.18336
#
# Velocity S-wave (km/s) = 2.56098 3.15910 2.87563
# Velocity P-wave (km/s) = 5.07008 6.58458 5.87632
#
# Compressibility (1/GPa) = 0.03211073
#
# Stress axis : x y z
#
# Youngs Moduli (GPa) = 19.29594 42.99204 77.66957
#
# Poissons Ratio (x) = 0.54967 0.60647
# Poissons Ratio (y) = 0.24671 0.56936
# Poissons Ratio (z) = 0.15067 0.31516
#
# Static dielectric constant tensor:
#      x y z
#    x 1.622690 0.000000 0.000000 
#    y 0.000000 1.626250 0.000000 
#    z 0.000000 0.000000 1.649730 
# 
# From -- ./inp_files/22339.got.cif
#   From: 2010.05.17/outbox.cif.g08.bks.cpg/sg51_12_cif.got.tgz:22339.got - 2010.06.03 11:52:47.
