data_PCOD9401757
_publ_section_title
;
Structure prediction by ZEFSAII (Michael W. Deem and Ramdas Pophale) SiO2 
 PCOD9401757
Probable space group: P M M A
;
_chemical_formula_sum "Si O2"
_cell_formula_units_Z 48
_cell_length_a 8.513374
_cell_length_b 32.254331
_cell_length_c 9.305128
_cell_angle_alpha 90.000000
_cell_angle_beta 90.000000
_cell_angle_gamma 90.000000
_cell_volume 2555.124715
_symmetry_space_group_name_H-M "P M M A"
_symmetry_group_IT_number 51
_symmetry_cell_setting 'orthorhombic'
loop_
_space_group_symop_operation_xyz
x,y,z
1/2-x,-y,z
1/2+x,-y,-z
-x,y,-z
-x,-y,-z
1/2+x,y,-z
1/2-x,y,z
x,-y,z
loop_
_atom_site_type_symbol
_atom_site_label
_atom_site_fract_x
_atom_site_fract_y
_atom_site_fract_z
Si Si1 0.562865 0.786008 0.161956
Si Si2 0.060254 0.626070 0.161131
Si Si3 0.939580 0.955538 0.664127
Si Si4 0.560746 0.864526 0.664139
Si Si5 0.061409 0.707261 0.337928
Si Si6 0.560201 0.453322 0.661237
O O1 0.750000 0.784873 0.160452
O O2 0.505894 0.827772 0.240066
O O3 0.499709 0.746821 0.250913
O O4 0.500000 0.784381 0.000000
O O5 0.250000 0.625810 0.158801
O O6 0.010161 0.665157 0.257612
O O7 0.006168 0.583059 0.233472
O O8 0.000000 0.630318 0.000000
O O9 0.750000 0.955576 0.662695
O O10 0.987921 0.910400 0.721623
O O11 0.000000 0.955756 0.500000
O O12 0.991228 0.000000 0.729311
O O13 0.500000 0.860562 0.500000
O O14 0.750000 0.862226 0.662203
O O15 0.250000 0.708314 0.339750
O O16 0.000000 0.708028 0.500000
O O17 0.500000 0.445632 0.500000
O O18 0.750000 0.452667 0.658289
O O19 0.510313 0.500000 0.703518
#
# Coordination Sequence:
#
# PCOD9401757 Si02
#       6
#     8   8   8   8   8   8
#     4  12  25  41  59  80 108 141 179 223 273 326
#     4  10  22  37  55  81 113 147 182 223 270 322
#     4   8  14  25  44  72 105 139 175 217 263 310
#     4  10  19  33  54  81 112 145 182 223 268 318
#     4  11  23  40  61  85 111 141 180 223 270 322
#     4   9  18  34  55  80 110 144 184 228 272 319
#
# _framework density 18.785777
#
# number of rings (size 3 to 8) (size 9 to 14) (size 15 to 20)
#    0.000    2.000    0.000    4.000    0.000    4.333 
#    0.000    0.000    0.000    0.500    0.000    0.000 
#    0.000    0.000    0.000    0.000    0.000    0.000 
#
# Total GULP energy -267903.094106 kJ/mol
# GULP energy per Si atom -5581.314461 kJ/mol
# Density = 1.874302 g / cm^3
# Si number density = 18.785777 Si / 1000 Ang^3
#
#
#
# Elastic Constant Matrix: (Units=GPa)
#
#
# Indices 1 2 3 4 5 6 
#
# 1 52.2277 46.6543 34.1819 0.0000 0.0000 0.0000
# 2 46.6543 212.0406 114.1195 0.0000 0.0000 0.0000
# 3 34.1819 114.1195 137.3258 0.0000 0.0000 0.0000
# 4 0.0000 0.0000 0.0000 -10.3577 0.0000 0.0000
# 5 0.0000 0.0000 0.0000 0.0000 32.3770 0.0000
# 6 0.0000 0.0000 0.0000 0.0000 0.0000 0.1203
#
#
#
# Elastic Compliance Matrix: (Units=1/GPa)
#
#
# Indices 1 2 3 4 5 6 
#
# 1 0.024463 -0.003809 -0.002924 0.000000 0.000000 0.000000
# 2 -0.003809 0.009125 -0.006635 0.000000 0.000000 0.000000
# 3 -0.002924 -0.006635 0.013523 0.000000 0.000000 0.000000
# 4 0.000000 0.000000 0.000000 -0.096547 0.000000 0.000000
# 5 0.000000 0.000000 0.000000 0.000000 0.030886 0.000000
# 6 0.000000 0.000000 0.000000 0.000000 0.000000 8.309518
#
#
# Mechanical properties :
#
#
# Convention : Reuss Voigt Hill
#
# Bulk Modulus (GPa) = 49.07719 87.94507 68.51113
# Shear Modulus (GPa) = 0.60064 18.20383 9.40223
#
# Velocity S-wave (km/s) = 0.56606 3.11629 2.23961
# Velocity P-wave (km/s) = 5.15835 7.73723 6.57546
#
# Compressibility (1/GPa) = 0.02037606
#
# Stress axis : x y z
#
# Youngs Moduli (GPa) = 40.87813 109.58878 73.94548
#
# Poissons Ratio (x) = 0.41740 0.21621
# Poissons Ratio (y) = 0.15570 0.49062
# Poissons Ratio (z) = 0.11952 0.72712
#
# Static dielectric constant tensor:
#      x y z
#    x 1.632330 0.000000 0.000000 
#    y 0.000000 1.689390 0.000000 
#    z 0.000000 0.000000 1.588370 
# 
# From -- ./inp_files/6029.got.cif
#   From: 2010.05.17/outbox.cif.g08.bks.cpg/sg51_4_cif.got.tgz:6029.got - 2010.06.03 11:52:47.
