data_PCOD9401525
_publ_section_title
;
Structure prediction by ZEFSAII (Michael W. Deem and Ramdas Pophale) SiO2 
 PCOD9401525
Probable space group: P M M A
;
_chemical_formula_sum "Si O2"
_cell_formula_units_Z 36
_cell_length_a 8.679712
_cell_length_b 18.826398
_cell_length_c 14.693978
_cell_angle_alpha 90.000000
_cell_angle_beta 90.000000
_cell_angle_gamma 90.000000
_cell_volume 2401.109335
_symmetry_space_group_name_H-M "P M M A"
_symmetry_group_IT_number 51
_symmetry_cell_setting 'orthorhombic'
loop_
_space_group_symop_operation_xyz
x,y,z
1/2-x,-y,z
1/2+x,-y,-z
-x,y,-z
-x,-y,-z
1/2+x,y,-z
1/2-x,y,z
x,-y,z
loop_
_atom_site_type_symbol
_atom_site_label
_atom_site_fract_x
_atom_site_fract_y
_atom_site_fract_z
Si Si1 0.435548 0.582679 0.902760
Si Si2 0.566457 0.224949 0.602719
Si Si3 0.934775 0.922394 0.397143
Si Si4 0.435514 0.500000 0.601283
Si Si5 0.936681 0.358232 0.289150
O O1 0.250000 0.583343 0.906091
O O2 0.482743 0.500000 0.888768
O O3 0.483050 0.628493 0.815517
O O4 0.500000 0.606231 0.000000
O O5 0.500000 0.233208 0.500000
O O6 0.750000 0.223679 0.596690
O O7 0.506137 0.149593 0.641848
O O8 0.509086 0.289802 0.663947
O O9 0.750000 0.915838 0.400297
O O10 0.000000 0.924359 0.500000
O O11 0.972626 0.000000 0.355837
O O12 0.250000 0.500000 0.597843
O O13 0.500000 0.500000 0.500000
O O14 0.481839 0.571022 0.654986
O O15 0.750000 0.352636 0.292645
#
# Coordination Sequence:
#
# PCOD9401525 Si02
#       5
#     8   8   8   4   8
#     4   9  17  31  50  69  88 112 143 185 235 279
#     4  11  21  31  44  64  91 123 156 189 226 266
#     4   9  16  27  44  64  86 115 150 185 222 264
#     4  10  20  32  45  60  82 116 155 190 223 260
#     4  10  19  33  48  63  88 119 152 189 229 270
#
# _framework density 14.993069999999999
#
# number of rings (size 3 to 8) (size 9 to 14) (size 15 to 20)
#    0.000    2.222    1.111    4.667    0.000    4.889 
#    0.000    0.000    0.000    0.000    0.000    0.000 
#    0.000    0.889    0.000    2.889    0.000    4.000 
#
# Total GULP energy -200669.933375 kJ/mol
# GULP energy per Si atom -5574.164816 kJ/mol
# Density = 1.495894 g / cm^3
# Si number density = 14.993070 Si / 1000 Ang^3
#
#
#
# Elastic Constant Matrix: (Units=GPa)
#
#
# Indices 1 2 3 4 5 6 
#
# 1 56.1196 49.2485 33.0468 0.0000 0.0000 0.0000
# 2 49.2485 153.4848 66.0832 0.0000 0.0000 0.0000
# 3 33.0468 66.0832 100.0721 0.0000 0.0000 0.0000
# 4 0.0000 0.0000 0.0000 3.1006 0.0000 0.0000
# 5 0.0000 0.0000 0.0000 0.0000 21.2698 0.0000
# 6 0.0000 0.0000 0.0000 0.0000 0.0000 22.6903
#
#
#
# Elastic Compliance Matrix: (Units=1/GPa)
#
#
# Indices 1 2 3 4 5 6 
#
# 1 0.026069 -0.006509 -0.004311 0.000000 0.000000 0.000000
# 2 -0.006509 0.010729 -0.004935 0.000000 0.000000 0.000000
# 3 -0.004311 -0.004935 0.014675 0.000000 0.000000 0.000000
# 4 0.000000 0.000000 0.000000 0.322515 0.000000 0.000000
# 5 0.000000 0.000000 0.000000 0.000000 0.047015 0.000000
# 6 0.000000 0.000000 0.000000 0.000000 0.000000 0.044072
#
#
# Mechanical properties :
#
#
# Convention : Reuss Voigt Hill
#
# Bulk Modulus (GPa) = 50.09099 67.38151 58.73625
# Shear Modulus (GPa) = 9.93563 20.16535 15.05049
#
# Velocity S-wave (km/s) = 2.57705 3.67137 3.17176
# Velocity P-wave (km/s) = 6.50668 7.93797 7.25769
#
# Compressibility (1/GPa) = 0.01996367
#
# Stress axis : x y z
#
# Youngs Moduli (GPa) = 38.35908 93.20764 68.14117
#
# Poissons Ratio (x) = 0.60668 0.29374
# Poissons Ratio (y) = 0.24967 0.33630
# Poissons Ratio (z) = 0.16535 0.46001
#
# Static dielectric constant tensor:
#      x y z
#    x 1.503960 0.000000 0.000000 
#    y 0.000000 1.522540 0.000000 
#    z 0.000000 0.000000 1.473120 
# 
# From -- ./inp_files/20759.got.cif
#   From: 2010.05.17/outbox.cif.g08.bks.cpg/sg51_11_cif.got.tgz:20759.got - 2010.06.03 11:52:47.
