data_PCOD9401261
_publ_section_title
;
Structure prediction by ZEFSAII (Michael W. Deem and Ramdas Pophale) SiO2 
 PCOD9401261
Probable space group: P M M A
;
_chemical_formula_sum "Si O2"
_cell_formula_units_Z 56
_cell_length_a 8.337672
_cell_length_b 19.389757
_cell_length_c 19.645178
_cell_angle_alpha 90.000000
_cell_angle_beta 90.000000
_cell_angle_gamma 90.000000
_cell_volume 3175.946228
_symmetry_space_group_name_H-M "P M M A"
_symmetry_group_IT_number 51
_symmetry_cell_setting 'orthorhombic'
loop_
_space_group_symop_operation_xyz
x,y,z
1/2-x,-y,z
1/2+x,-y,-z
-x,y,-z
-x,-y,-z
1/2+x,y,-z
1/2-x,y,z
x,-y,z
loop_
_atom_site_type_symbol
_atom_site_label
_atom_site_fract_x
_atom_site_fract_y
_atom_site_fract_z
Si Si1 0.941829 0.287232 0.206501
Si Si2 0.943868 0.841500 0.709969
Si Si3 0.445404 0.077215 0.154581
Si Si4 0.553969 0.420649 0.280087
Si Si5 0.943739 0.079914 0.575524
Si Si6 0.941946 0.580581 0.429816
Si Si7 0.558870 0.790656 0.925017
O O1 0.750000 0.287603 0.203656
O O2 0.998941 0.363658 0.226452
O O3 0.992879 0.232077 0.264258
O O4 0.006383 0.261089 0.134421
O O5 0.750000 0.837834 0.708859
O O6 0.988713 0.894852 0.770397
O O7 0.998746 0.870816 0.637118
O O8 0.250000 0.076014 0.152626
O O9 0.500725 0.133929 0.100091
O O10 0.503766 0.000000 0.142661
O O11 0.750000 0.422316 0.279862
O O12 0.501735 0.500000 0.269788
O O13 0.504661 0.394758 0.355653
O O14 0.750000 0.080239 0.576281
O O15 0.000000 0.100371 0.500000
O O16 0.995177 0.000000 0.587060
O O17 0.750000 0.582019 0.431060
O O18 0.993071 0.500000 0.430613
O O19 0.000000 0.613726 0.500000
O O20 0.750000 0.792734 0.925694
O O21 0.500000 0.773450 0.000000
#
# Coordination Sequence:
#
# PCOD9401261 Si02
#       7
#     8   8   8   8   8   8   8
#     4  10  19  32  52  74  95 121 155 193 233 282
#     4   9  17  30  47  66  93 127 160 196 238 285
#     4   8  14  26  46  70  93 120 154 189 225 266
#     4   8  15  29  49  71  94 122 156 194 237 283
#     4   9  17  29  46  67  91 124 167 212 254 290
#     4   8  13  23  40  62  88 116 146 180 219 264
#     4  10  20  34  52  73  99 128 156 187 225 273
#
# _framework density 17.632539999999999
#
# number of rings (size 3 to 8) (size 9 to 14) (size 15 to 20)
#    0.000    3.143    0.000    3.000    0.000    2.571 
#    0.000    2.143    0.000   21.000    0.000    0.000 
#    0.000    0.000    0.000    0.000    0.000    0.000 
#
# Total GULP energy -311811.183668 kJ/mol
# GULP energy per Si atom -5568.056851 kJ/mol
# Density = 1.759241 g / cm^3
# Si number density = 17.632540 Si / 1000 Ang^3
#
#
#
# Elastic Constant Matrix: (Units=GPa)
#
#
# Indices 1 2 3 4 5 6 
#
# 1 12.0436 15.4632 21.8409 0.0000 0.0000 0.0000
# 2 15.4632 106.9988 78.5234 0.0000 0.0000 0.0000
# 3 21.8409 78.5234 147.9758 0.0000 0.0000 0.0000
# 4 0.0000 0.0000 0.0000 9.3329 0.0000 0.0000
# 5 0.0000 0.0000 0.0000 0.0000 24.0769 0.0000
# 6 0.0000 0.0000 0.0000 0.0000 0.0000 14.2767
#
#
#
# Elastic Compliance Matrix: (Units=1/GPa)
#
#
# Indices 1 2 3 4 5 6 
#
# 1 0.116410 -0.006902 -0.013519 0.000000 0.000000 0.000000
# 2 -0.006902 0.015716 -0.007321 0.000000 0.000000 0.000000
# 3 -0.013519 -0.007321 0.012638 0.000000 0.000000 0.000000
# 4 0.000000 0.000000 0.000000 0.107148 0.000000 0.000000
# 5 0.000000 0.000000 0.000000 0.000000 0.041534 0.000000
# 6 0.000000 0.000000 0.000000 0.000000 0.000000 0.070044
#
#
# Mechanical properties :
#
#
# Convention : Reuss Voigt Hill
#
# Bulk Modulus (GPa) = 11.20074 55.40813 33.30443
# Shear Modulus (GPa) = 11.14246 19.61670 15.37958
#
# Velocity S-wave (km/s) = 2.51654 3.33908 2.95655
# Velocity P-wave (km/s) = 3.84839 6.80867 5.53028
#
# Compressibility (1/GPa) = 0.08927985
#
# Stress axis : x y z
#
# Youngs Moduli (GPa) = 8.59032 63.62937 79.12530
#
# Poissons Ratio (x) = 0.43916 1.06973
# Poissons Ratio (y) = 0.05929 0.57928
# Poissons Ratio (z) = 0.11614 0.46583
#
# Static dielectric constant tensor:
#      x y z
#    x 1.616720 0.000000 0.000000 
#    y 0.000000 1.607170 0.000000 
#    z 0.000000 0.000000 1.628640 
# 
# From -- ./inp_files/28185.got.cif
#   From: 2010.05.17/outbox.cif.g08.bks.cpg/sg51_15_cif.got.tgz:28185.got - 2010.06.03 11:52:47.
