data_PCOD9401256
_publ_section_title
;
Structure prediction by ZEFSAII (Michael W. Deem and Ramdas Pophale) SiO2 
 PCOD9401256
Probable space group: P M M A
;
_chemical_formula_sum "Si O2"
_cell_formula_units_Z 64
_cell_length_a 19.729291
_cell_length_b 21.368158
_cell_length_c 8.432364
_cell_angle_alpha 90.000000
_cell_angle_beta 90.000000
_cell_angle_gamma 90.000000
_cell_volume 3554.904272
_symmetry_space_group_name_H-M "P M M A"
_symmetry_group_IT_number 51
_symmetry_cell_setting 'orthorhombic'
loop_
_space_group_symop_operation_xyz
x,y,z
1/2-x,-y,z
1/2+x,-y,-z
-x,y,-z
-x,-y,-z
1/2+x,y,-z
1/2-x,y,z
x,-y,z
loop_
_atom_site_type_symbol
_atom_site_label
_atom_site_fract_x
_atom_site_fract_y
_atom_site_fract_z
Si Si1 0.669680 0.072929 0.612786
Si Si2 0.942771 0.927995 0.364848
Si Si3 0.830905 0.567062 0.656000
Si Si4 0.830990 0.176512 0.872396
Si Si5 0.168928 0.704111 0.339886
Si Si6 0.936299 0.294522 0.379975
Si Si7 0.436567 0.432659 0.621993
Si Si8 0.058053 0.816692 0.870953
O O1 0.750000 0.079594 0.584708
O O2 0.626866 0.088365 0.456408
O O3 0.651237 0.118704 0.756646
O O4 0.655373 0.000000 0.651144
O O5 0.957194 0.879307 0.227514
O O6 0.000000 0.923982 0.500000
O O7 0.939519 0.000000 0.309719
O O8 0.750000 0.566965 0.634971
O O9 0.849350 0.500000 0.734567
O O10 0.848176 0.634767 0.728750
O O11 0.869853 0.567081 0.488716
O O12 0.750000 0.175679 0.897478
O O13 0.849255 0.240054 0.778157
O O14 0.872257 0.174506 0.033727
O O15 0.250000 0.707320 0.365851
O O16 0.128761 0.710863 0.504501
O O17 0.938274 0.364046 0.301521
O O18 0.938026 0.240445 0.251420
O O19 0.000000 0.289231 0.500000
O O20 0.500000 0.432934 0.500000
O O21 0.438967 0.500000 0.709257
O O22 0.000000 0.805349 0.000000
#
# Coordination Sequence:
#
# PCOD9401256 Si02
#       8
#     8   8   8   8   8   8   8   8
#     4   9  18  35  58  79  99 126 161 201 243 287
#     4  10  21  37  57  78  99 126 163 205 244 286
#     4   8  13  22  40  68  95 117 150 198 244 282
#     4  10  21  35  51  73 103 135 163 196 240 289
#     4   9  17  31  51  72  96 128 164 202 243 287
#     4  10  19  32  52  73  95 127 166 206 244 286
#     4   8  14  25  43  68  93 116 150 200 250 286
#     4  12  24  35  50  73 103 135 164 199 242 289
#
# _framework density 18.003297
#
# number of rings (size 3 to 8) (size 9 to 14) (size 15 to 20)
#    0.000    2.500    0.000    2.625    0.000    1.750 
#    0.000    0.000    0.000    1.125    0.000    0.000 
#    0.000    0.000    0.000    0.000    0.000    0.000 
#
# Total GULP energy -356533.403099 kJ/mol
# GULP energy per Si atom -5570.834423 kJ/mol
# Density = 1.796232 g / cm^3
# Si number density = 18.003297 Si / 1000 Ang^3
#
#
#
# Elastic Constant Matrix: (Units=GPa)
#
#
# Indices 1 2 3 4 5 6 
#
# 1 23.4429 8.0076 5.6763 0.0000 0.0000 0.0000
# 2 8.0076 75.1551 18.2480 0.0000 0.0000 0.0000
# 3 5.6763 18.2480 27.8581 0.0000 0.0000 0.0000
# 4 0.0000 0.0000 0.0000 -5.0568 0.0000 0.0000
# 5 0.0000 0.0000 0.0000 0.0000 25.4775 0.0000
# 6 0.0000 0.0000 0.0000 0.0000 0.0000 19.1538
#
#
#
# Elastic Compliance Matrix: (Units=1/GPa)
#
#
# Indices 1 2 3 4 5 6 
#
# 1 0.045464 -0.003086 -0.007242 0.000000 0.000000 0.000000
# 2 -0.003086 0.016032 -0.009873 0.000000 0.000000 0.000000
# 3 -0.007242 -0.009873 0.043839 0.000000 0.000000 0.000000
# 4 0.000000 0.000000 0.000000 -0.197754 0.000000 0.000000
# 5 0.000000 0.000000 0.000000 0.000000 0.039250 0.000000
# 6 0.000000 0.000000 0.000000 0.000000 0.000000 0.052209
#
#
# Mechanical properties :
#
#
# Convention : Reuss Voigt Hill
#
# Bulk Modulus (GPa) = 15.40038 21.14667 18.27353
# Shear Modulus (GPa) = 81.85208 14.21653 48.03430
#
# Velocity S-wave (km/s) = 6.75009 2.81314 5.17095
# Velocity P-wave (km/s) = 8.32613 4.72474 6.76933
#
# Compressibility (1/GPa) = 0.06493347
#
# Stress axis : x y z
#
# Youngs Moduli (GPa) = 21.99523 62.37643 22.81084
#
# Poissons Ratio (x) = 0.19247 0.16521
# Poissons Ratio (y) = 0.06787 0.22520
# Poissons Ratio (z) = 0.15930 0.61582
#
# Static dielectric constant tensor:
#      x y z
#    x 1.638190 0.000000 0.000000 
#    y 0.000000 1.679290 0.000000 
#    z 0.000000 0.000000 1.554630 
# 
# From -- ./inp_files/10082.got.cif
#   From: 2010.05.17/outbox.cif.g08.bks.cpg/sg51_6_cif.got.tgz:10082.got - 2010.06.03 11:52:47.
