data_PCOD9401667
_publ_section_title
;
Structure prediction by ZEFSAII (Michael W. Deem and Ramdas Pophale) SiO2 
 PCOD9401667
Probable space group: P M M A
;
_chemical_formula_sum "Si O2"
_cell_formula_units_Z 58
_cell_length_a 31.846843
_cell_length_b 14.703632
_cell_length_c 5.259360
_cell_angle_alpha 90.000000
_cell_angle_beta 90.000000
_cell_angle_gamma 90.000000
_cell_volume 2462.770318
_symmetry_space_group_name_H-M "P M M A"
_symmetry_group_IT_number 51
_symmetry_cell_setting 'orthorhombic'
loop_
_space_group_symop_operation_xyz
x,y,z
1/2-x,-y,z
1/2+x,-y,-z
-x,y,-z
-x,-y,-z
1/2+x,y,-z
1/2-x,y,z
x,-y,z
loop_
_atom_site_type_symbol
_atom_site_label
_atom_site_fract_x
_atom_site_fract_y
_atom_site_fract_z
Si Si1 0.798679 0.658852 0.342236
Si Si2 0.544418 0.609387 0.627292
Si Si3 0.876429 0.155958 0.813553
Si Si4 0.924575 0.601623 0.126374
Si Si5 0.473259 0.110225 0.252230
Si Si6 0.658720 0.637797 0.843224
Si Si7 0.250000 0.000000 0.737719
Si Si8 0.170450 0.132162 0.683887
O O1 0.750000 0.657264 0.413180
O O2 0.825429 0.610429 0.565022
O O3 0.815818 0.762213 0.330979
O O4 0.805329 0.625744 0.054539
O O5 0.500000 0.626028 0.500000
O O6 0.549769 0.500000 0.667243
O O7 0.548014 0.649154 0.908793
O O8 0.576715 0.642577 0.408612
O O9 0.926057 0.149290 0.765473
O O10 0.858042 0.258474 0.821028
O O11 0.851624 0.109062 0.582326
O O12 0.862288 0.117509 0.086608
O O13 0.942019 0.500000 0.173384
O O14 0.880816 0.593597 0.982865
O O15 0.500000 0.139863 0.500000
O O16 0.468760 0.000000 0.266252
O O17 0.500000 0.131290 0.000000
O O18 0.212815 0.077532 0.732004
#
# Coordination Sequence:
#
# PCOD9401667 Si02
#       8
#     8   8   8   8   8   8   2   8
#     4  10  19  38  55  78 104 145 184 213 264 322
#     4   9  17  30  50  76 109 142 172 211 264 327
#     4  10  22  40  56  81 111 150 184 224 280 320
#     4  10  19  33  53  79 108 140 179 224 270 317
#     4  10  21  37  58  79 104 140 188 232 266 309
#     4  10  21  35  58  78 107 142 181 222 267 335
#     4  12  24  38  56  94 120 142 174 222 284 342
#     4  10  23  35  57  83 118 144 174 223 269 347
#
# _framework density 23.550712999999998
#
# number of rings (size 3 to 8) (size 9 to 14) (size 15 to 20)
#    0.000    2.069    0.690    2.483    1.931    2.759 
#    0.000    2.069    0.000    2.483    0.000    0.000 
#    0.000    0.000    0.000    0.000    0.000    0.000 
#
# Total GULP energy -323345.011350 kJ/mol
# GULP energy per Si atom -5574.913989 kJ/mol
# Density = 2.349711 g / cm^3
# Si number density = 23.550713 Si / 1000 Ang^3
#
#
#
# Elastic Constant Matrix: (Units=GPa)
#
#
# Indices 1 2 3 4 5 6 
#
# 1 146.1391 -0.7195 50.4079 0.0000 0.0000 0.0000
# 2 -0.7195 53.0960 21.2493 0.0000 0.0000 0.0000
# 3 50.4079 21.2493 145.8118 0.0000 0.0000 0.0000
# 4 0.0000 0.0000 0.0000 24.1231 0.0000 0.0000
# 5 0.0000 0.0000 0.0000 0.0000 33.5004 0.0000
# 6 0.0000 0.0000 0.0000 0.0000 0.0000 23.4795
#
#
#
# Elastic Compliance Matrix: (Units=1/GPa)
#
#
# Indices 1 2 3 4 5 6 
#
# 1 0.007849 0.001266 -0.002898 0.000000 0.000000 0.000000
# 2 0.001266 0.020204 -0.003382 0.000000 0.000000 0.000000
# 3 -0.002898 -0.003382 0.008353 0.000000 0.000000 0.000000
# 4 0.000000 0.000000 0.000000 0.041454 0.000000 0.000000
# 5 0.000000 0.000000 0.000000 0.000000 0.029850 0.000000
# 6 0.000000 0.000000 0.000000 0.000000 0.000000 0.042590
#
#
# Mechanical properties :
#
#
# Convention : Reuss Voigt Hill
#
# Bulk Modulus (GPa) = 37.91010 54.10248 46.00629
# Shear Modulus (GPa) = 29.56461 34.49453 32.02957
#
# Velocity S-wave (km/s) = 3.54695 3.83128 3.69185
# Velocity P-wave (km/s) = 5.73643 6.52643 6.14414
#
# Compressibility (1/GPa) = 0.02637819
#
# Stress axis : x y z
#
# Youngs Moduli (GPa) = 127.41173 49.49396 119.72005
#
# Poissons Ratio (x) = -0.06266 0.34692
# Poissons Ratio (y) = -0.16131 0.40491
# Poissons Ratio (z) = 0.36921 0.16739
#
# Static dielectric constant tensor:
#      x y z
#    x 1.887710 0.000000 0.000000 
#    y 0.000000 1.995310 0.000000 
#    z 0.000000 0.000000 1.928290 
# 
# From -- ./inp_files/3617.got.cif
#   From: 2010.05.17/outbox.cif.g08.bks.cpg/sg51_2_cif.got.tgz:3617.got - 2010.06.03 11:52:47.
