data_PCOD9401855
_publ_section_title
;
Structure prediction by ZEFSAII (Michael W. Deem and Ramdas Pophale) SiO2 
 PCOD9401855
Probable space group: P M M A
;
_chemical_formula_sum "Si O2"
_cell_formula_units_Z 56
_cell_length_a 15.747747
_cell_length_b 19.994085
_cell_length_c 8.488502
_cell_angle_alpha 90.000000
_cell_angle_beta 90.000000
_cell_angle_gamma 90.000000
_cell_volume 2672.704952
_symmetry_space_group_name_H-M "P M M A"
_symmetry_group_IT_number 51
_symmetry_cell_setting 'orthorhombic'
loop_
_space_group_symop_operation_xyz
x,y,z
1/2-x,-y,z
1/2+x,-y,-z
-x,y,-z
-x,-y,-z
1/2+x,y,-z
1/2-x,y,z
x,-y,z
loop_
_atom_site_type_symbol
_atom_site_label
_atom_site_fract_x
_atom_site_fract_y
_atom_site_fract_z
Si Si1 0.845128 0.825266 0.161938
Si Si2 0.942161 0.700159 0.124533
Si Si3 0.649497 0.572430 0.108218
Si Si4 0.602520 0.572456 0.478338
Si Si5 0.153989 0.834858 0.220992
Si Si6 0.426858 0.294244 0.379511
Si Si7 0.994932 0.076249 0.191667
O O1 0.750000 0.838647 0.217005
O O2 0.875678 0.750359 0.201210
O O3 0.913919 0.877237 0.226231
O O4 0.844691 0.827035 0.970040
O O5 0.896324 0.637932 0.044603
O O6 0.011181 0.675341 0.247029
O O7 0.000000 0.740424 0.000000
O O8 0.750000 0.577140 0.084210
O O9 0.619728 0.500000 0.047529
O O10 0.630315 0.573892 0.295842
O O11 0.500000 0.571324 0.500000
O O12 0.633489 0.500000 0.542369
O O13 0.627002 0.643769 0.553022
O O14 0.250000 0.853451 0.267884
O O15 0.126428 0.765959 0.305454
O O16 0.080757 0.889089 0.253200
O O17 0.500000 0.268451 0.500000
O O18 0.985681 0.000000 0.245829
O O19 0.000000 0.074816 0.000000
#
# Coordination Sequence:
#
# PCOD9401855 Si02
#       7
#     8   8   8   8   8   8   8
#     4  10  19  33  55  83 118 153 185 229 284 339
#     4  12  20  35  57  79 113 148 188 235 291 346
#     4  10  21  36  54  80 111 145 190 242 293 349
#     4   9  17  32  54  76 103 141 186 235 286 337
#     4  10  20  35  55  82 116 151 188 235 288 335
#     4  11  20  35  56  81 111 145 193 247 281 338
#     4   9  17  32  55  85 118 148 184 227 272 332
#
# _framework density 20.952556000000001
#
# number of rings (size 3 to 8) (size 9 to 14) (size 15 to 20)
#    0.000    1.857    5.714    0.857    0.000    1.429 
#    0.000    2.857    0.000    0.429    0.000    0.000 
#    0.000    0.000    0.000    0.000    0.000    0.000 
#
# Total GULP energy -312176.591485 kJ/mol
# GULP energy per Si atom -5574.581991 kJ/mol
# Density = 2.090487 g / cm^3
# Si number density = 20.952556 Si / 1000 Ang^3
#
#
#
# Elastic Constant Matrix: (Units=GPa)
#
#
# Indices 1 2 3 4 5 6 
#
# 1 144.0811 75.7694 10.3207 0.0000 0.0000 0.0000
# 2 75.7694 163.5387 4.8089 0.0000 0.0000 0.0000
# 3 10.3207 4.8089 15.3939 0.0000 0.0000 0.0000
# 4 0.0000 0.0000 0.0000 16.8919 0.0000 0.0000
# 5 0.0000 0.0000 0.0000 0.0000 17.3364 0.0000
# 6 0.0000 0.0000 0.0000 0.0000 0.0000 13.9490
#
#
#
# Elastic Compliance Matrix: (Units=1/GPa)
#
#
# Indices 1 2 3 4 5 6 
#
# 1 0.009553 -0.004277 -0.005069 0.000000 0.000000 0.000000
# 2 -0.004277 0.008086 0.000341 0.000000 0.000000 0.000000
# 3 -0.005069 0.000341 0.068253 0.000000 0.000000 0.000000
# 4 0.000000 0.000000 0.000000 0.059200 0.000000 0.000000
# 5 0.000000 0.000000 0.000000 0.000000 0.057682 0.000000
# 6 0.000000 0.000000 0.000000 0.000000 0.000000 0.071690
#
#
# Mechanical properties :
#
#
# Convention : Reuss Voigt Hill
#
# Bulk Modulus (GPa) = 14.73114 56.09019 35.41067
# Shear Modulus (GPa) = 15.86802 25.10977 20.48889
#
# Velocity S-wave (km/s) = 2.75495 3.46556 3.13049
# Velocity P-wave (km/s) = 4.14314 6.54536 5.47756
#
# Compressibility (1/GPa) = 0.06788339
#
# Stress axis : x y z
#
# Youngs Moduli (GPa) = 104.68233 123.66696 14.65147
#
# Poissons Ratio (x) = 0.52890 0.07426
# Poissons Ratio (y) = 0.44771 -0.00500
# Poissons Ratio (z) = 0.53059 -0.04221
#
# Static dielectric constant tensor:
#      x y z
#    x 1.730890 0.000000 0.000000 
#    y 0.000000 1.778870 0.000000 
#    z 0.000000 0.000000 1.825530 
# 
# From -- ./inp_files/8510.got.cif
#   From: 2010.05.17/outbox.cif.g08.bks.cpg/sg51_5_cif.got.tgz:8510.got - 2010.06.03 11:52:47.
