data_PCOD9401358
_publ_section_title
;
Structure prediction by ZEFSAII (Michael W. Deem and Ramdas Pophale) SiO2 
 PCOD9401358
Probable space group: P M M A
;
_chemical_formula_sum "Si O2"
_cell_formula_units_Z 56
_cell_length_a 14.606691
_cell_length_b 15.494378
_cell_length_c 11.617839
_cell_angle_alpha 90.000000
_cell_angle_beta 90.000000
_cell_angle_gamma 90.000000
_cell_volume 2629.367814
_symmetry_space_group_name_H-M "P M M A"
_symmetry_group_IT_number 51
_symmetry_cell_setting 'orthorhombic'
loop_
_space_group_symop_operation_xyz
x,y,z
1/2-x,-y,z
1/2+x,-y,-z
-x,y,-z
-x,-y,-z
1/2+x,y,-z
1/2-x,y,z
x,-y,z
loop_
_atom_site_type_symbol
_atom_site_label
_atom_site_fract_x
_atom_site_fract_y
_atom_site_fract_z
Si Si1 0.599281 0.098300 0.559464
Si Si2 0.652705 0.753979 0.387291
Si Si3 0.991836 0.675338 0.743655
Si Si4 0.894662 0.403510 0.540159
Si Si5 0.853180 0.406391 0.135523
Si Si6 0.859030 0.903471 0.820946
Si Si7 0.143948 0.268111 0.063075
O O1 0.500000 0.094733 0.500000
O O2 0.647296 0.170778 0.482375
O O3 0.600186 0.121800 0.695461
O O4 0.637215 0.000000 0.553340
O O5 0.750000 0.764212 0.323435
O O6 0.559784 0.747421 0.311798
O O7 0.652343 0.663429 0.455400
O O8 0.066215 0.601543 0.772675
O O9 0.910930 0.643718 0.660777
O O10 0.937424 0.698081 0.857659
O O11 0.856865 0.500000 0.546625
O O12 0.000000 0.410004 0.500000
O O13 0.750000 0.404993 0.184307
O O14 0.862177 0.500000 0.074661
O O15 0.861621 0.322992 0.053785
O O16 0.750000 0.906559 0.800515
O O17 0.871472 0.834763 0.923545
O O18 0.891495 0.000000 0.849114
O O19 0.250000 0.282472 0.103605
#
# Coordination Sequence:
#
# PCOD9401358 Si02
#       7
#     8   8   8   8   8   8   8
#     4  10  19  32  52  78 109 146 189 236 282 331
#     4  11  22  35  53  80 116 154 189 228 276 331
#     4  11  21  36  57  80 112 150 186 226 277 337
#     4   9  19  34  51  73 102 137 178 222 267 318
#     4  10  22  40  61  85 111 142 185 234 284 340
#     4   9  17  31  53  79 106 140 183 228 275 328
#     4  10  21  36  56  82 110 140 182 238 288 328
#
# _framework density 21.297896000000001
#
# number of rings (size 3 to 8) (size 9 to 14) (size 15 to 20)
#    0.000    2.000    0.000    4.714    0.000    5.143 
#    0.000    0.000    0.000    2.571    0.000    2.000 
#    0.000    0.000    0.000    0.000    0.000    0.000 
#
# Total GULP energy -311897.308189 kJ/mol
# GULP energy per Si atom -5569.594789 kJ/mol
# Density = 2.124942 g / cm^3
# Si number density = 21.297896 Si / 1000 Ang^3
#
#
#
# Elastic Constant Matrix: (Units=GPa)
#
#
# Indices 1 2 3 4 5 6 
#
# 1 82.4272 21.7452 6.9342 0.0000 0.0000 0.0000
# 2 21.7452 101.3228 26.5104 0.0000 0.0000 0.0000
# 3 6.9342 26.5104 40.0124 0.0000 0.0000 0.0000
# 4 0.0000 0.0000 0.0000 25.9396 0.0000 0.0000
# 5 0.0000 0.0000 0.0000 0.0000 17.7928 0.0000
# 6 0.0000 0.0000 0.0000 0.0000 0.0000 7.5838
#
#
#
# Elastic Compliance Matrix: (Units=1/GPa)
#
#
# Indices 1 2 3 4 5 6 
#
# 1 0.012868 -0.002635 -0.000484 0.000000 0.000000 0.000000
# 2 -0.002635 0.012479 -0.007811 0.000000 0.000000 0.000000
# 3 -0.000484 -0.007811 0.030251 0.000000 0.000000 0.000000
# 4 0.000000 0.000000 0.000000 0.038551 0.000000 0.000000
# 5 0.000000 0.000000 0.000000 0.000000 0.056202 0.000000
# 6 0.000000 0.000000 0.000000 0.000000 0.000000 0.131861
#
#
# Mechanical properties :
#
#
# Convention : Reuss Voigt Hill
#
# Bulk Modulus (GPa) = 29.64076 37.12688 33.38382
# Shear Modulus (GPa) = 15.85700 21.50142 18.67921
#
# Velocity S-wave (km/s) = 2.73157 3.18080 2.96471
# Velocity P-wave (km/s) = 4.88836 5.56417 5.23718
#
# Compressibility (1/GPa) = 0.03373733
#
# Stress axis : x y z
#
# Youngs Moduli (GPa) = 77.71360 80.13678 33.05626
#
# Poissons Ratio (x) = 0.21115 0.01601
# Poissons Ratio (y) = 0.20477 0.25821
# Poissons Ratio (z) = 0.03763 0.62596
#
# Static dielectric constant tensor:
#      x y z
#    x 1.818940 0.000000 0.000000 
#    y 0.000000 1.843290 0.000000 
#    z 0.000000 0.000000 1.810380 
# 
# From -- ./inp_files/16586.got.cif
#   From: 2010.05.17/outbox.cif.g08.bks.cpg/sg51_9_cif.got.tgz:16586.got - 2010.06.03 11:52:47.
