data_PCOD9401717
_publ_section_title
;
Structure prediction by ZEFSAII (Michael W. Deem and Ramdas Pophale) SiO2 
 PCOD9401717
Probable space group: P M M A
;
_chemical_formula_sum "Si O2"
_cell_formula_units_Z 48
_cell_length_a 8.637000
_cell_length_b 32.088716
_cell_length_c 9.674489
_cell_angle_alpha 90.000000
_cell_angle_beta 90.000000
_cell_angle_gamma 90.000000
_cell_volume 2681.286949
_symmetry_space_group_name_H-M "P M M A"
_symmetry_group_IT_number 51
_symmetry_cell_setting 'orthorhombic'
loop_
_space_group_symop_operation_xyz
x,y,z
1/2-x,-y,z
1/2+x,-y,-z
-x,y,-z
-x,-y,-z
1/2+x,y,-z
1/2-x,y,z
x,-y,z
loop_
_atom_site_type_symbol
_atom_site_label
_atom_site_fract_x
_atom_site_fract_y
_atom_site_fract_z
Si Si1 0.064859 0.837005 0.652526
Si Si2 0.064137 0.258755 0.653720
Si Si3 0.937208 0.591290 0.656209
Si Si4 0.435906 0.090855 0.155687
Si Si5 0.563926 0.331178 0.845129
Si Si6 0.436421 0.000000 0.156152
Si Si7 0.063475 0.500000 0.344139
O O1 0.250000 0.839330 0.650372
O O2 0.021645 0.789188 0.688075
O O3 0.000000 0.845266 0.500000
O O4 0.999402 0.871049 0.756357
O O5 0.250000 0.262070 0.651065
O O6 0.000000 0.267873 0.500000
O O7 0.995538 0.290751 0.763388
O O8 0.750000 0.592226 0.648182
O O9 0.987222 0.628414 0.756394
O O10 0.984935 0.545300 0.712090
O O11 0.000000 0.596519 0.500000
O O12 0.250000 0.092631 0.152064
O O13 0.483403 0.045080 0.215421
O O14 0.500000 0.093378 0.000000
O O15 0.750000 0.330706 0.849109
O O16 0.500000 0.332502 0.000000
O O17 0.250000 0.000000 0.151522
O O18 0.500000 0.000000 0.000000
O O19 0.250000 0.500000 0.345893
O O20 0.000000 0.500000 0.500000
#
# Coordination Sequence:
#
# PCOD9401717 Si02
#       7
#     8   8   8   8   8   4   4
#     4  10  21  37  56  79 106 136 171 212 260 311
#     4  10  21  38  59  80 103 134 172 213 258 311
#     4   9  18  32  53  78 103 134 171 212 256 305
#     4  10  19  33  54  79 107 139 176 216 258 305
#     4  11  23  37  53  76 106 139 175 216 262 309
#     4   8  16  30  49  74 103 136 174 214 254 300
#     4   8  14  28  49  74 102 130 166 210 253 298
#
# _framework density 17.901852999999999
#
# number of rings (size 3 to 8) (size 9 to 14) (size 15 to 20)
#    0.000    2.333    0.000    2.500    0.000    6.000 
#    0.000    0.833    0.000    0.000    0.000    0.000 
#    0.000    0.000    0.000    0.000    0.000    0.000 
#
# Total GULP energy -267635.297923 kJ/mol
# GULP energy per Si atom -5575.735373 kJ/mol
# Density = 1.786111 g / cm^3
# Si number density = 17.901853 Si / 1000 Ang^3
#
#
#
# Elastic Constant Matrix: (Units=GPa)
#
#
# Indices 1 2 3 4 5 6 
#
# 1 38.8085 47.8324 32.8564 0.0000 0.0000 0.0000
# 2 47.8324 184.1249 111.5845 0.0000 0.0000 0.0000
# 3 32.8564 111.5845 103.5699 0.0000 0.0000 0.0000
# 4 0.0000 0.0000 0.0000 46.0572 0.0000 0.0000
# 5 0.0000 0.0000 0.0000 0.0000 30.9763 0.0000
# 6 0.0000 0.0000 0.0000 0.0000 0.0000 31.3338
#
#
#
# Elastic Compliance Matrix: (Units=1/GPa)
#
#
# Indices 1 2 3 4 5 6 
#
# 1 0.038512 -0.007493 -0.004145 0.000000 0.000000 0.000000
# 2 -0.007493 0.017106 -0.016053 0.000000 0.000000 0.000000
# 3 -0.004145 -0.016053 0.028265 0.000000 0.000000 0.000000
# 4 0.000000 0.000000 0.000000 0.021712 0.000000 0.000000
# 5 0.000000 0.000000 0.000000 0.000000 0.032283 0.000000
# 6 0.000000 0.000000 0.000000 0.000000 0.000000 0.031914
#
#
# Mechanical properties :
#
#
# Convention : Reuss Voigt Hill
#
# Bulk Modulus (GPa) = 35.08494 79.00554 57.04524
# Shear Modulus (GPa) = 21.30626 30.62212 25.96419
#
# Velocity S-wave (km/s) = 3.45363 4.14037 3.81250
# Velocity P-wave (km/s) = 5.96191 8.19056 7.16344
#
# Compressibility (1/GPa) = 0.02850226
#
# Stress axis : x y z
#
# Youngs Moduli (GPa) = 25.96612 58.45941 35.37954
#
# Poissons Ratio (x) = 0.43803 0.14664
# Poissons Ratio (y) = 0.19456 0.56793
# Poissons Ratio (z) = 0.10762 0.93842
#
# Static dielectric constant tensor:
#      x y z
#    x 1.603930 0.000000 0.000000 
#    y 0.000000 1.658530 0.000000 
#    z 0.000000 0.000000 1.604310 
# 
# From -- ./inp_files/6237.got.cif
#   From: 2010.05.17/outbox.cif.g08.bks.cpg/sg51_4_cif.got.tgz:6237.got - 2010.06.03 11:52:47.
