data_PCOD9401724
_publ_section_title
;
Structure prediction by ZEFSAII (Michael W. Deem and Ramdas Pophale) SiO2 
 PCOD9401724
Probable space group: P M M A
;
_chemical_formula_sum "Si O2"
_cell_formula_units_Z 40
_cell_length_a 7.563111
_cell_length_b 16.616156
_cell_length_c 14.148018
_cell_angle_alpha 90.000000
_cell_angle_beta 90.000000
_cell_angle_gamma 90.000000
_cell_volume 1777.979048
_symmetry_space_group_name_H-M "P M M A"
_symmetry_group_IT_number 51
_symmetry_cell_setting 'orthorhombic'
loop_
_space_group_symop_operation_xyz
x,y,z
1/2-x,-y,z
1/2+x,-y,-z
-x,y,-z
-x,-y,-z
1/2+x,y,-z
1/2-x,y,z
x,-y,z
loop_
_atom_site_type_symbol
_atom_site_label
_atom_site_fract_x
_atom_site_fract_y
_atom_site_fract_z
Si Si1 0.038079 0.915011 0.387114
Si Si2 0.460415 0.175486 0.888008
Si Si3 0.962037 0.000000 0.113233
Si Si4 0.037243 0.740148 0.390034
Si Si5 0.462881 0.500000 0.110188
Si Si6 0.042294 0.342200 0.213327
O O1 0.250000 0.915412 0.374991
O O2 0.968351 0.828168 0.357064
O O3 0.000000 0.915938 0.500000
O O4 0.032623 0.000000 0.651811
O O5 0.250000 0.175234 0.875828
O O6 0.529665 0.087656 0.852304
O O7 0.528870 0.256969 0.840765
O O8 0.500000 0.179296 0.000000
O O9 0.750000 0.000000 0.124787
O O10 0.000000 0.000000 0.000000
O O11 0.250000 0.743518 0.381756
O O12 0.968342 0.673910 0.317857
O O13 0.000000 0.727555 0.500000
O O14 0.250000 0.500000 0.118577
O O15 0.533177 0.581808 0.157868
O O16 0.500000 0.500000 0.000000
O O17 0.250000 0.359167 0.224154
#
# Coordination Sequence:
#
# PCOD9401724 Si02
#       6
#     8   8   4   8   4   8
#     4   8  13  23  41  64  91 125 166 210 253 297
#     4  10  19  33  54  79 109 143 178 220 268 325
#     4   8  16  30  48  72 105 142 177 212 261 320
#     4   9  18  33  52  74 104 140 180 223 268 317
#     4  10  22  40  61  82 110 140 173 220 277 336
#     4  10  21  37  55  80 109 142 181 225 276 329
#
# _framework density 22.497453
#
# number of rings (size 3 to 8) (size 9 to 14) (size 15 to 20)
#    0.000    2.800    0.000    1.200    0.000    4.000 
#    1.800    0.500    0.000    0.000    0.000    0.000 
#    0.000    0.000    0.000    0.000    0.000    0.000 
#
# Total GULP energy -223198.894166 kJ/mol
# GULP energy per Si atom -5579.972354 kJ/mol
# Density = 2.244625 g / cm^3
# Si number density = 22.497453 Si / 1000 Ang^3
#
#
#
# Elastic Constant Matrix: (Units=GPa)
#
#
# Indices 1 2 3 4 5 6 
#
# 1 69.1199 4.4963 -2.3524 0.0000 0.0000 0.0000
# 2 4.4963 202.7289 103.2750 0.0000 0.0000 0.0000
# 3 -2.3524 103.2750 119.7608 0.0000 0.0000 0.0000
# 4 0.0000 0.0000 0.0000 13.0141 0.0000 0.0000
# 5 0.0000 0.0000 0.0000 0.0000 17.8093 0.0000
# 6 0.0000 0.0000 0.0000 0.0000 0.0000 14.6795
#
#
#
# Elastic Compliance Matrix: (Units=1/GPa)
#
#
# Indices 1 2 3 4 5 6 
#
# 1 0.014556 -0.000836 0.001006 0.000000 0.000000 0.000000
# 2 -0.000836 0.008845 -0.007644 0.000000 0.000000 0.000000
# 3 0.001006 -0.007644 0.014962 0.000000 0.000000 0.000000
# 4 0.000000 0.000000 0.000000 0.076840 0.000000 0.000000
# 5 0.000000 0.000000 0.000000 0.000000 0.056151 0.000000
# 6 0.000000 0.000000 0.000000 0.000000 0.000000 0.068122
#
#
# Mechanical properties :
#
#
# Convention : Reuss Voigt Hill
#
# Bulk Modulus (GPa) = 42.70455 66.93861 54.82158
# Shear Modulus (GPa) = 19.06741 28.17995 23.62368
#
# Velocity S-wave (km/s) = 2.91441 3.54303 3.24398
# Velocity P-wave (km/s) = 5.50892 6.82318 6.20097
#
# Compressibility (1/GPa) = 0.02341671
#
# Stress axis : x y z
#
# Youngs Moduli (GPa) = 68.69913 113.05399 66.83769
#
# Poissons Ratio (x) = 0.09446 -0.06727
# Poissons Ratio (y) = 0.05740 0.51092
# Poissons Ratio (z) = -0.06914 0.86420
#
# Static dielectric constant tensor:
#      x y z
#    x 1.868620 0.000000 0.000000 
#    y 0.000000 1.879230 0.000000 
#    z 0.000000 0.000000 1.881910 
# 
# From -- ./inp_files/20582.got.cif
#   From: 2010.05.17/outbox.cif.g08.bks.cpg/sg51_11_cif.got.tgz:20582.got - 2010.06.03 11:52:47.
