data_PCOD9401274
_publ_section_title
;
Structure prediction by ZEFSAII (Michael W. Deem and Ramdas Pophale) SiO2 
 PCOD9401274
Probable space group: P M M A
;
_chemical_formula_sum "Si O2"
_cell_formula_units_Z 48
_cell_length_a 26.256309
_cell_length_b 7.682086
_cell_length_c 12.174703
_cell_angle_alpha 90.000000
_cell_angle_beta 90.000000
_cell_angle_gamma 90.000000
_cell_volume 2455.676844
_symmetry_space_group_name_H-M "P M M A"
_symmetry_group_IT_number 51
_symmetry_cell_setting 'orthorhombic'
loop_
_space_group_symop_operation_xyz
x,y,z
1/2-x,-y,z
1/2+x,-y,-z
-x,y,-z
-x,-y,-z
1/2+x,y,-z
1/2-x,y,z
x,-y,z
loop_
_atom_site_type_symbol
_atom_site_label
_atom_site_fract_x
_atom_site_fract_y
_atom_site_fract_z
Si Si1 0.000867 0.210457 0.125636
Si Si2 0.401609 0.786705 0.736685
Si Si3 0.598730 0.294508 0.727946
Si Si4 0.442675 0.205152 0.507578
Si Si5 0.192541 0.209129 0.878393
Si Si6 0.807800 0.709763 0.870039
O O1 0.051139 0.264599 0.191116
O O2 0.950495 0.265880 0.191171
O O3 0.000623 0.000000 0.123963
O O4 0.000000 0.272263 0.000000
O O5 0.411607 0.726605 0.612276
O O6 0.349898 0.725166 0.794270
O O7 0.399768 0.000000 0.738230
O O8 0.605318 0.500000 0.713730
O O9 0.585019 0.222523 0.608510
O O10 0.649696 0.223677 0.785901
O O11 0.500000 0.280206 0.500000
O O12 0.449080 0.000000 0.530393
O O13 0.250000 0.276826 0.860985
O O14 0.194517 0.000000 0.867737
O O15 0.177859 0.247225 0.004424
O O16 0.750000 0.773867 0.851159
O O17 0.806743 0.500000 0.861783
#
# Coordination Sequence:
#
# PCOD9401274 Si02
#       6
#     8   8   8   8   8   8
#     4  10  19  32  52  75 101 134 169 203 249 314
#     4   9  17  31  50  74 101 131 166 204 250 301
#     4  11  22  34  51  76 104 131 170 219 259 294
#     4  10  19  35  55  71  98 141 179 206 246 309
#     4   9  17  31  54  81 104 127 163 212 257 298
#     4   9  19  36  54  72 101 139 169 199 251 311
#
# _framework density 19.546544000000001
#
# number of rings (size 3 to 8) (size 9 to 14) (size 15 to 20)
#    0.000    2.333    1.667    1.500    0.000    3.333 
#    0.000    2.500    0.000    1.000    0.000    0.000 
#    0.000    0.000    0.000    0.000    0.000    0.000 
#
# Total GULP energy -267921.664098 kJ/mol
# GULP energy per Si atom -5581.701335 kJ/mol
# Density = 1.950206 g / cm^3
# Si number density = 19.546544 Si / 1000 Ang^3
#
#
#
# Elastic Constant Matrix: (Units=GPa)
#
#
# Indices 1 2 3 4 5 6 
#
# 1 138.6218 -3.2896 96.3579 0.0000 0.0000 0.0000
# 2 -3.2896 28.8944 -11.1121 0.0000 0.0000 0.0000
# 3 96.3579 -11.1121 161.1150 0.0000 0.0000 0.0000
# 4 0.0000 0.0000 0.0000 38.4883 0.0000 0.0000
# 5 0.0000 0.0000 0.0000 0.0000 19.0458 0.0000
# 6 0.0000 0.0000 0.0000 0.0000 0.0000 11.8380
#
#
#
# Elastic Compliance Matrix: (Units=1/GPa)
#
#
# Indices 1 2 3 4 5 6 
#
# 1 0.012408 -0.001481 -0.007523 0.000000 0.000000 0.000000
# 2 -0.001481 0.035728 0.003350 0.000000 0.000000 0.000000
# 3 -0.007523 0.003350 0.010937 0.000000 0.000000 0.000000
# 4 0.000000 0.000000 0.000000 0.025982 0.000000 0.000000
# 5 0.000000 0.000000 0.000000 0.000000 0.052505 0.000000
# 6 0.000000 0.000000 0.000000 0.000000 0.000000 0.084474
#
#
# Mechanical properties :
#
#
# Convention : Reuss Voigt Hill
#
# Bulk Modulus (GPa) = 20.93549 54.72706 37.83128
# Shear Modulus (GPa) = 20.05903 30.31941 25.18922
#
# Velocity S-wave (km/s) = 3.20694 3.94272 3.59371
# Velocity P-wave (km/s) = 4.94434 6.98469 6.05113
#
# Compressibility (1/GPa) = 0.04776578
#
# Stress axis : x y z
#
# Youngs Moduli (GPa) = 80.59268 27.98892 91.43242
#
# Poissons Ratio (x) = 0.04144 0.68785
# Poissons Ratio (y) = 0.11932 -0.30626
# Poissons Ratio (z) = 0.60630 -0.09375
#
# Static dielectric constant tensor:
#      x y z
#    x 1.685200 0.000000 0.000000 
#    y 0.000000 1.735020 0.000000 
#    z 0.000000 0.000000 1.658140 
# 
# From -- ./inp_files/18617.got.cif
#   From: 2010.05.17/outbox.cif.g08.bks.cpg/sg51_10_cif.got.tgz:18617.got - 2010.06.03 11:52:47.
