data_PCOD9401213
_publ_section_title
;
Structure prediction by ZEFSAII (Michael W. Deem and Ramdas Pophale) SiO2 
 PCOD9401213
Probable space group: P M M A
;
_chemical_formula_sum "Si O2"
_cell_formula_units_Z 44
_cell_length_a 9.780203
_cell_length_b 17.597260
_cell_length_c 13.210764
_cell_angle_alpha 90.000000
_cell_angle_beta 90.000000
_cell_angle_gamma 90.000000
_cell_volume 2273.635566
_symmetry_space_group_name_H-M "P M M A"
_symmetry_group_IT_number 51
_symmetry_cell_setting 'orthorhombic'
loop_
_space_group_symop_operation_xyz
x,y,z
1/2-x,-y,z
1/2+x,-y,-z
-x,y,-z
-x,-y,-z
1/2+x,y,-z
1/2-x,y,z
x,-y,z
loop_
_atom_site_type_symbol
_atom_site_label
_atom_site_fract_x
_atom_site_fract_y
_atom_site_fract_z
Si Si1 0.907274 0.208492 0.823018
Si Si2 0.913229 0.660027 0.091895
Si Si3 0.000000 0.162399 0.500000
Si Si4 0.908890 0.090506 0.289416
Si Si5 0.589435 0.585608 0.313341
Si Si6 0.890822 0.297661 0.611357
O O1 0.750000 0.196461 0.860456
O O2 0.893860 0.258970 0.721757
O O3 0.009818 0.259289 0.889914
O O4 0.987248 0.133251 0.786103
O O5 0.750000 0.667590 0.070699
O O6 0.927119 0.612971 0.196461
O O7 0.000000 0.623936 0.000000
O O8 0.948550 0.114425 0.404508
O O9 0.892944 0.224466 0.539862
O O10 0.750000 0.113438 0.271808
O O11 0.919036 0.000000 0.279486
O O12 0.750000 0.586524 0.333651
O O13 0.536807 0.500000 0.324820
O O14 0.516644 0.645568 0.386207
O O15 0.750000 0.341362 0.597757
#
# Coordination Sequence:
#
# PCOD9401213 Si02
#       6
#     8   8   4   8   8   8
#     4   9  18  33  51  72 101 135 170 206 247 298
#     4  10  19  32  53  79 105 132 166 206 248 297
#     4  10  19  32  51  74 102 134 170 212 253 298
#     4  10  20  33  51  76 105 136 169 207 254 304
#     4   9  19  35  52  71  99 134 168 205 253 304
#     4   9  18  31  49  72  96 128 170 211 250 294
#
# _framework density 19.352264000000002
#
# number of rings (size 3 to 8) (size 9 to 14) (size 15 to 20)
#    0.000    2.545    0.000    1.909    0.000    7.636 
#    0.000    0.455    0.000    0.545    0.000    0.000 
#    0.000    0.000    0.000    0.000    0.000    0.000 
#
# Total GULP energy -244963.274587 kJ/mol
# GULP energy per Si atom -5567.347150 kJ/mol
# Density = 1.930822 g / cm^3
# Si number density = 19.352264 Si / 1000 Ang^3
#
#
#
# Elastic Constant Matrix: (Units=GPa)
#
#
# Indices 1 2 3 4 5 6 
#
# 1 111.3515 36.6707 1.3410 0.0000 0.0000 0.0000
# 2 36.6707 81.9292 0.3707 0.0000 0.0000 0.0000
# 3 1.3410 0.3707 28.6282 0.0000 0.0000 0.0000
# 4 0.0000 0.0000 0.0000 13.7044 0.0000 0.0000
# 5 0.0000 0.0000 0.0000 0.0000 -59.8916 0.0000
# 6 0.0000 0.0000 0.0000 0.0000 0.0000 16.9413
#
#
#
# Elastic Compliance Matrix: (Units=1/GPa)
#
#
# Indices 1 2 3 4 5 6 
#
# 1 0.010539 -0.004715 -0.000433 0.000000 0.000000 0.000000
# 2 -0.004715 0.014316 0.000035 0.000000 0.000000 0.000000
# 3 -0.000433 0.000035 0.034950 0.000000 0.000000 0.000000
# 4 0.000000 0.000000 0.000000 0.072969 0.000000 0.000000
# 5 0.000000 0.000000 0.000000 0.000000 -0.016697 0.000000
# 6 0.000000 0.000000 0.000000 0.000000 0.000000 0.059027
#
#
# Mechanical properties :
#
#
# Convention : Reuss Voigt Hill
#
# Bulk Modulus (GPa) = 20.16919 33.18597 26.67758
# Shear Modulus (GPa) = 24.77023 6.38594 15.57809
#
# Velocity S-wave (km/s) = 3.58154 1.81852 2.84029
# Velocity P-wave (km/s) = 5.24862 4.64704 4.95696
#
# Compressibility (1/GPa) = 0.04958058
#
# Stress axis : x y z
#
# Youngs Moduli (GPa) = 94.88985 69.85250 28.61201
#
# Poissons Ratio (x) = 0.32935 0.01238
# Poissons Ratio (y) = 0.44740 -0.00101
# Poissons Ratio (z) = 0.04105 -0.00248
#
# Static dielectric constant tensor:
#      x y z
#    x 1.559350 0.000000 0.000000 
#    y 0.000000 1.635420 0.000000 
#    z 0.000000 0.000000 1.718450 
# 
# From -- ./inp_files/20933.got.cif
#   From: 2010.05.17/outbox.cif.g08.bks.cpg/sg51_11_cif.got.tgz:20933.got - 2010.06.03 11:52:47.
