data_PCOD9401924
_publ_section_title
;
Structure prediction by ZEFSAII (Michael W. Deem and Ramdas Pophale) SiO2 
 PCOD9401924
Probable space group: P M M A
;
_chemical_formula_sum "Si O2"
_cell_formula_units_Z 64
_cell_length_a 8.600925
_cell_length_b 31.966218
_cell_length_c 14.785345
_cell_angle_alpha 90.000000
_cell_angle_beta 90.000000
_cell_angle_gamma 90.000000
_cell_volume 4065.068613
_symmetry_space_group_name_H-M "P M M A"
_symmetry_group_IT_number 51
_symmetry_cell_setting 'orthorhombic'
loop_
_space_group_symop_operation_xyz
x,y,z
1/2-x,-y,z
1/2+x,-y,-z
-x,y,-z
-x,-y,-z
1/2+x,y,-z
1/2-x,y,z
x,-y,z
loop_
_atom_site_type_symbol
_atom_site_label
_atom_site_fract_x
_atom_site_fract_y
_atom_site_fract_z
Si Si1 0.062709 0.712442 0.790961
Si Si2 0.937044 0.257657 0.403649
Si Si3 0.438735 0.872338 0.788410
Si Si4 0.937029 0.160366 0.403905
Si Si5 0.935284 0.632991 0.897381
Si Si6 0.436508 0.454330 0.897274
Si Si7 0.563992 0.207074 0.898164
Si Si8 0.937669 0.952612 0.100197
O O1 0.250000 0.712238 0.795208
O O2 0.014806 0.717478 0.685944
O O3 0.997547 0.671066 0.837827
O O4 0.001626 0.752913 0.844634
O O5 0.750000 0.257915 0.407057
O O6 0.987013 0.208986 0.392684
O O7 0.000000 0.272850 0.500000
O O8 0.250000 0.869581 0.792226
O O9 0.486403 0.865126 0.684501
O O10 0.506515 0.834707 0.847938
O O11 0.486834 0.916711 0.830326
O O12 0.750000 0.160082 0.407163
O O13 0.000000 0.145151 0.500000
O O14 0.750000 0.633625 0.901850
O O15 0.992147 0.588195 0.858769
O O16 0.000000 0.637178 0.000000
O O17 0.250000 0.450655 0.899467
O O18 0.476214 0.500000 0.856533
O O19 0.500000 0.455431 0.000000
O O20 0.750000 0.208583 0.899437
O O21 0.500000 0.207545 0.000000
O O22 0.750000 0.952304 0.096881
O O23 0.987677 0.000000 0.123603
O O24 0.000000 0.942996 0.000000
#
# Coordination Sequence:
#
# PCOD9401924 Si02
#       8
#     8   8   8   8   8   8   8   8
#     4  11  21  36  51  67  95 129 162 197 238 282
#     4   9  18  32  51  70  92 120 154 195 239 281
#     4  10  19  34  52  71  97 124 157 196 235 280
#     4   9  17  31  49  71  94 121 153 192 237 280
#     4  11  21  32  46  67  95 131 169 204 243 288
#     4   9  16  27  44  65  89 121 162 206 248 288
#     4  12  24  35  48  68  95 127 162 196 232 277
#     4   9  18  32  51  73  96 124 156 192 234 280
#
# _framework density 15.743891
#
# number of rings (size 3 to 8) (size 9 to 14) (size 15 to 20)
#    0.000    2.000    1.250    4.500    0.000    3.750 
#    0.000    0.000    0.000    0.375    0.000    0.000 
#    0.000    0.500    0.000    1.625    0.000    2.250 
#
# Total GULP energy -356996.616055 kJ/mol
# GULP energy per Si atom -5578.072126 kJ/mol
# Density = 1.570806 g / cm^3
# Si number density = 15.743891 Si / 1000 Ang^3
#
#
#
# Elastic Constant Matrix: (Units=GPa)
#
#
# Indices 1 2 3 4 5 6 
#
# 1 56.6602 38.6658 36.6452 0.0000 0.0000 0.0000
# 2 38.6658 131.3418 80.8865 0.0000 0.0000 0.0000
# 3 36.6452 80.8865 133.5738 0.0000 0.0000 0.0000
# 4 0.0000 0.0000 0.0000 4.7359 0.0000 0.0000
# 5 0.0000 0.0000 0.0000 0.0000 23.8764 0.0000
# 6 0.0000 0.0000 0.0000 0.0000 0.0000 21.7406
#
#
#
# Elastic Compliance Matrix: (Units=1/GPa)
#
#
# Indices 1 2 3 4 5 6 
#
# 1 0.023089 -0.004619 -0.003537 0.000000 0.000000 0.000000
# 2 -0.004619 0.013066 -0.006645 0.000000 0.000000 0.000000
# 3 -0.003537 -0.006645 0.012481 0.000000 0.000000 0.000000
# 4 0.000000 0.000000 0.000000 0.211151 0.000000 0.000000
# 5 0.000000 0.000000 0.000000 0.000000 0.041882 0.000000
# 6 0.000000 0.000000 0.000000 0.000000 0.000000 0.045997
#
#
# Mechanical properties :
#
#
# Convention : Reuss Voigt Hill
#
# Bulk Modulus (GPa) = 52.53935 70.44121 61.49028
# Shear Modulus (GPa) = 13.03400 21.09581 17.06491
#
# Velocity S-wave (km/s) = 2.88041 3.66448 3.29585
# Velocity P-wave (km/s) = 6.67128 7.92109 7.32290
#
# Compressibility (1/GPa) = 0.01903335
#
# Stress axis : x y z
#
# Youngs Moduli (GPa) = 43.31114 76.53662 80.12273
#
# Poissons Ratio (x) = 0.35349 0.28343
# Poissons Ratio (y) = 0.20004 0.53241
# Poissons Ratio (z) = 0.15321 0.50858
#
# Static dielectric constant tensor:
#      x y z
#    x 1.531990 0.000000 0.000000 
#    y 0.000000 1.535530 0.000000 
#    z 0.000000 0.000000 1.509700 
# 
# From -- ./inp_files/22576.got.cif
#   From: 2010.05.17/outbox.cif.g08.bks.cpg/sg51_12_cif.got.tgz:22576.got - 2010.06.03 11:52:47.
