data_PCOD9401576
_publ_section_title
;
Structure prediction by ZEFSAII (Michael W. Deem and Ramdas Pophale) SiO2 
 PCOD9401576
Probable space group: P M M A
;
_chemical_formula_sum "Si O2"
_cell_formula_units_Z 64
_cell_length_a 26.813292
_cell_length_b 7.485092
_cell_length_c 13.731100
_cell_angle_alpha 90.000000
_cell_angle_beta 90.000000
_cell_angle_gamma 90.000000
_cell_volume 2755.831186
_symmetry_space_group_name_H-M "P M M A"
_symmetry_group_IT_number 51
_symmetry_cell_setting 'orthorhombic'
loop_
_space_group_symop_operation_xyz
x,y,z
1/2-x,-y,z
1/2+x,-y,-z
-x,y,-z
-x,-y,-z
1/2+x,y,-z
1/2-x,y,z
x,-y,z
loop_
_atom_site_type_symbol
_atom_site_label
_atom_site_fract_x
_atom_site_fract_y
_atom_site_fract_z
Si Si1 0.356350 0.792679 0.403369
Si Si2 0.118435 0.211860 0.820198
Si Si3 0.309096 0.297936 0.207403
Si Si4 0.991643 0.219368 0.111187
Si Si5 0.556284 0.798911 0.726288
Si Si6 0.531435 0.289684 0.402496
Si Si7 0.644009 0.799085 0.389295
Si Si8 0.692339 0.716001 0.002238
O O1 0.319764 0.787355 0.311411
O O2 0.406430 0.713954 0.352645
O O3 0.337760 0.716270 0.507159
O O4 0.366630 0.000000 0.426511
O O5 0.062731 0.279067 0.847905
O O6 0.143485 0.283736 0.719596
O O7 0.155609 0.235815 0.910557
O O8 0.112386 0.000000 0.802489
O O9 0.250000 0.305298 0.194822
O O10 0.328953 0.500000 0.215029
O O11 0.326666 0.218301 0.104245
O O12 0.040286 0.283806 0.171685
O O13 0.992020 0.000000 0.115771
O O14 0.000000 0.270488 0.000000
O O15 0.502299 0.803133 0.677228
O O16 0.575680 0.000000 0.743086
O O17 0.500000 0.273105 0.500000
O O18 0.537556 0.500000 0.380600
O O19 0.584771 0.201629 0.410144
O O20 0.665379 0.000000 0.380646
O O21 0.750000 0.775014 0.018945
O O22 0.693614 0.500000 0.995377
#
# Coordination Sequence:
#
# PCOD9401576 Si02
#       8
#     8   8   8   8   8   8   8   8
#     4  10  21  33  55  85 109 140 186 231 268 318
#     4  10  20  34  57  83 110 145 185 229 275 319
#     4   9  20  40  62  81 107 142 175 216 278 341
#     4   9  18  31  49  76 110 145 180 220 266 319
#     4  10  19  33  52  73 104 147 185 217 264 324
#     4  11  21  31  47  73 104 140 185 230 261 296
#     4  10  20  36  53  75 110 151 186 219 271 329
#     4   9  20  40  62  82 107 141 178 220 276 336
#
# _framework density 23.223483000000002
#
# number of rings (size 3 to 8) (size 9 to 14) (size 15 to 20)
#    0.000    2.250    2.500    1.125    1.750    3.000 
#    0.000    1.875    0.000    4.500    0.000    0.000 
#    0.000    0.000    0.000    0.000    0.000    0.000 
#
# Total GULP energy -356627.909793 kJ/mol
# GULP energy per Si atom -5572.311091 kJ/mol
# Density = 2.317063 g / cm^3
# Si number density = 23.223483 Si / 1000 Ang^3
#
#
#
# Elastic Constant Matrix: (Units=GPa)
#
#
# Indices 1 2 3 4 5 6 
#
# 1 40.5150 -4.3570 34.5969 0.0000 0.0000 0.0000
# 2 -4.3570 62.6431 12.2638 0.0000 0.0000 0.0000
# 3 34.5969 12.2638 223.7331 0.0000 0.0000 0.0000
# 4 0.0000 0.0000 0.0000 25.6427 0.0000 0.0000
# 5 0.0000 0.0000 0.0000 0.0000 37.3899 0.0000
# 6 0.0000 0.0000 0.0000 0.0000 0.0000 17.8659
#
#
#
# Elastic Compliance Matrix: (Units=1/GPa)
#
#
# Indices 1 2 3 4 5 6 
#
# 1 0.028957 0.002922 -0.004638 0.000000 0.000000 0.000000
# 2 0.002922 0.016431 -0.001353 0.000000 0.000000 0.000000
# 3 -0.004638 -0.001353 0.005261 0.000000 0.000000 0.000000
# 4 0.000000 0.000000 0.000000 0.038998 0.000000 0.000000
# 5 0.000000 0.000000 0.000000 0.000000 0.026745 0.000000
# 6 0.000000 0.000000 0.000000 0.000000 0.000000 0.055973
#
#
# Mechanical properties :
#
#
# Convention : Reuss Voigt Hill
#
# Bulk Modulus (GPa) = 22.46562 45.76651 34.11607
# Shear Modulus (GPa) = 25.86132 35.13885 30.50008
#
# Velocity S-wave (km/s) = 3.34066 3.89405 3.62792
# Velocity P-wave (km/s) = 4.95729 6.32202 5.68078
#
# Compressibility (1/GPa) = 0.04451246
#
# Stress axis : x y z
#
# Youngs Moduli (GPa) = 34.53408 60.85878 190.08044
#
# Poissons Ratio (x) = -0.17783 0.88158
# Poissons Ratio (y) = -0.10091 0.25709
# Poissons Ratio (z) = 0.16017 0.08231
#
# Static dielectric constant tensor:
#      x y z
#    x 1.839420 0.000000 0.000000 
#    y 0.000000 1.903310 0.000000 
#    z 0.000000 0.000000 2.001800 
# 
# From -- ./inp_files/26222.got.cif
#   From: 2010.05.17/outbox.cif.g08.bks.cpg/sg51_14_cif.got.tgz:26222.got - 2010.06.03 11:52:47.
