data_PCOD9401929
_publ_section_title
;
Structure prediction by ZEFSAII (Michael W. Deem and Ramdas Pophale) SiO2 
 PCOD9401929
Probable space group: P M M A
;
_chemical_formula_sum "Si O2"
_cell_formula_units_Z 30
_cell_length_a 14.832326
_cell_length_b 8.025712
_cell_length_c 13.784592
_cell_angle_alpha 90.000000
_cell_angle_beta 90.000000
_cell_angle_gamma 90.000000
_cell_volume 1640.917511
_symmetry_space_group_name_H-M "P M M A"
_symmetry_group_IT_number 51
_symmetry_cell_setting 'orthorhombic'
loop_
_space_group_symop_operation_xyz
x,y,z
1/2-x,-y,z
1/2+x,-y,-z
-x,y,-z
-x,-y,-z
1/2+x,y,-z
1/2-x,y,z
x,-y,z
loop_
_atom_site_type_symbol
_atom_site_label
_atom_site_fract_x
_atom_site_fract_y
_atom_site_fract_z
Si Si1 0.948269 0.817401 0.601448
Si Si2 0.250000 0.807441 0.871204
Si Si3 0.750000 0.500000 0.982536
Si Si4 0.147233 0.500000 0.344491
Si Si5 0.049045 0.191262 0.806190
Si Si6 0.439026 0.500000 0.134485
O O1 0.879138 0.666655 0.600201
O O2 0.000000 0.815395 0.500000
O O3 0.013772 0.795288 0.695011
O O4 0.905397 0.000000 0.613503
O O5 0.343230 0.785614 0.812375
O O6 0.250000 0.000000 0.907466
O O7 0.250000 0.667579 0.953574
O O8 0.845855 0.500000 0.925306
O O9 0.250000 0.500000 0.318081
O O10 0.092183 0.500000 0.245600
O O11 0.999630 0.332085 0.871558
O O12 0.028820 0.000000 0.837682
#
# Coordination Sequence:
#
# PCOD9401929 Si02
#       6
#     8   4   2   4   8   4
#     4   9  18  34  56  80 108 143 180 218 260 314
#     4  10  22  38  56  81 111 141 177 224 276 330
#     4  12  24  38  56  82 108 138 186 232 268 326
#     4  10  19  34  52  75 109 142 174 218 270 317
#     4   9  19  37  58  80 111 146 178 219 275 325
#     4  10  21  37  57  78 106 142 180 226 275 319
#
# _framework density 18.282454000000001
#
# number of rings (size 3 to 8) (size 9 to 14) (size 15 to 20)
#    0.000    2.400    0.667    1.200    0.000    3.733 
#    2.400    2.667    0.000    0.000    0.000    0.000 
#    0.000    0.000    0.000    0.000    0.000    0.000 
#
# Total GULP energy -167069.117705 kJ/mol
# GULP energy per Si atom -5568.970590 kJ/mol
# Density = 1.824084 g / cm^3
# Si number density = 18.282454 Si / 1000 Ang^3
#
#
#
# Elastic Constant Matrix: (Units=GPa)
#
#
# Indices 1 2 3 4 5 6 
#
# 1 92.0879 69.1200 1.5751 0.0000 0.0000 0.0000
# 2 69.1200 149.4970 33.3732 0.0000 0.0000 0.0000
# 3 1.5751 33.3732 32.6041 0.0000 0.0000 0.0000
# 4 0.0000 0.0000 0.0000 28.6112 0.0000 0.0000
# 5 0.0000 0.0000 0.0000 0.0000 19.8556 0.0000
# 6 0.0000 0.0000 0.0000 0.0000 0.0000 147.0045
#
#
#
# Elastic Compliance Matrix: (Units=1/GPa)
#
#
# Indices 1 2 3 4 5 6 
#
# 1 0.019048 -0.011149 0.010492 0.000000 0.000000 0.000000
# 2 -0.011149 0.015196 -0.015016 0.000000 0.000000 0.000000
# 3 0.010492 -0.015016 0.045534 0.000000 0.000000 0.000000
# 4 0.000000 0.000000 0.000000 0.034951 0.000000 0.000000
# 5 0.000000 0.000000 0.000000 0.000000 0.050364 0.000000
# 6 0.000000 0.000000 0.000000 0.000000 0.000000 0.006803
#
#
# Mechanical properties :
#
#
# Convention : Reuss Voigt Hill
#
# Bulk Modulus (GPa) = 20.64747 53.59175 37.11961
# Shear Modulus (GPa) = 22.79092 50.43563 36.61328
#
# Velocity S-wave (km/s) = 3.53455 5.25802 4.47995
# Velocity P-wave (km/s) = 5.28919 8.13875 6.86348
#
# Compressibility (1/GPa) = 0.04843208
#
# Stress axis : x y z
#
# Youngs Moduli (GPa) = 52.49876 65.80706 21.96157
#
# Poissons Ratio (x) = 0.73369 -0.23042
# Poissons Ratio (y) = 0.58531 0.32977
# Poissons Ratio (z) = -0.55081 0.98814
#
# Static dielectric constant tensor:
#      x y z
#    x 1.614650 0.000000 0.000000 
#    y 0.000000 1.682450 0.000000 
#    z 0.000000 0.000000 1.583110 
# 
# From -- ./inp_files/22779.got.cif
#   From: 2010.05.17/outbox.cif.g08.bks.cpg/sg51_12_cif.got.tgz:22779.got - 2010.06.03 11:52:47.
