data_PCOD9401673
_publ_section_title
;
Structure prediction by ZEFSAII (Michael W. Deem and Ramdas Pophale) SiO2 
 PCOD9401673
Probable space group: P M M A
;
_chemical_formula_sum "Si O2"
_cell_formula_units_Z 48
_cell_length_a 8.061752
_cell_length_b 14.988396
_cell_length_c 21.084008
_cell_angle_alpha 90.000000
_cell_angle_beta 90.000000
_cell_angle_gamma 90.000000
_cell_volume 2547.638276
_symmetry_space_group_name_H-M "P M M A"
_symmetry_group_IT_number 51
_symmetry_cell_setting 'orthorhombic'
loop_
_space_group_symop_operation_xyz
x,y,z
1/2-x,-y,z
1/2+x,-y,-z
-x,y,-z
-x,-y,-z
1/2+x,y,-z
1/2-x,y,z
x,-y,z
loop_
_atom_site_type_symbol
_atom_site_label
_atom_site_fract_x
_atom_site_fract_y
_atom_site_fract_z
Si Si1 0.450474 0.692471 0.811354
Si Si2 0.049780 0.000000 0.877714
Si Si3 0.049893 0.190279 0.928944
Si Si4 0.049480 0.000000 0.269659
Si Si5 0.953013 0.500000 0.232581
Si Si6 0.950556 0.807067 0.688668
Si Si7 0.552785 0.308472 0.570735
Si Si8 0.947891 0.500000 0.379075
O O1 0.250000 0.690834 0.813284
O O2 0.509814 0.740904 0.875217
O O3 0.508060 0.591108 0.800865
O O4 0.500718 0.750643 0.750531
O O5 0.989395 0.090701 0.910853
O O6 0.250000 0.000000 0.880983
O O7 0.001469 0.000000 0.803981
O O8 0.250000 0.188719 0.925806
O O9 0.000000 0.213793 0.000000
O O10 0.990287 0.908566 0.302127
O O11 0.250000 0.000000 0.271804
O O12 0.750000 0.500000 0.233010
O O13 0.008375 0.500000 0.306057
O O14 0.750000 0.809203 0.685856
O O15 0.013817 0.756481 0.626004
O O16 0.500000 0.283963 0.500000
O O17 0.750000 0.304321 0.573462
O O18 0.502727 0.409879 0.586532
O O19 0.750000 0.500000 0.377276
#
# Coordination Sequence:
#
# PCOD9401673 Si02
#       8
#     8   4   8   4   4   8   8   4
#     4  10  19  35  57  80 107 141 181 224 267 319
#     4  10  19  33  53  81 109 137 177 225 271 320
#     4  10  21  34  52  77 110 145 179 221 268 322
#     4  10  20  35  56  83 110 139 174 221 276 324
#     4   9  18  32  55  84 108 136 176 221 270 319
#     4  10  21  36  56  81 109 141 178 222 270 320
#     4  11  23  38  55  80 114 148 182 223 270 324
#     4  11  20  34  59  86 111 144 180 222 276 328
#
# _framework density 18.840979000000001
#
# number of rings (size 3 to 8) (size 9 to 14) (size 15 to 20)
#    0.000    1.833    3.333    1.250    0.000    2.000 
#    0.000    1.250    0.000    0.000    0.000    0.000 
#    0.000    0.000    0.000    0.000    0.000    0.000 
#
# Total GULP energy -268055.114960 kJ/mol
# GULP energy per Si atom -5584.481562 kJ/mol
# Density = 1.879810 g / cm^3
# Si number density = 18.840979 Si / 1000 Ang^3
#
#
#
# Elastic Constant Matrix: (Units=GPa)
#
#
# Indices 1 2 3 4 5 6 
#
# 1 13.1922 9.0336 7.4784 0.0000 0.0000 0.0000
# 2 9.0336 169.0507 98.1826 0.0000 0.0000 0.0000
# 3 7.4784 98.1826 185.3734 0.0000 0.0000 0.0000
# 4 0.0000 0.0000 0.0000 25.0467 0.0000 0.0000
# 5 0.0000 0.0000 0.0000 0.0000 26.4420 0.0000
# 6 0.0000 0.0000 0.0000 0.0000 0.0000 2.2939
#
#
#
# Elastic Compliance Matrix: (Units=1/GPa)
#
#
# Indices 1 2 3 4 5 6 
#
# 1 0.078923 -0.003420 -0.001372 0.000000 0.000000 0.000000
# 2 -0.003420 0.008692 -0.004466 0.000000 0.000000 0.000000
# 3 -0.001372 -0.004466 0.007815 0.000000 0.000000 0.000000
# 4 0.000000 0.000000 0.000000 0.039925 0.000000 0.000000
# 5 0.000000 0.000000 0.000000 0.000000 0.037819 0.000000
# 6 0.000000 0.000000 0.000000 0.000000 0.000000 0.435933
#
#
# Mechanical properties :
#
#
# Convention : Reuss Voigt Hill
#
# Bulk Modulus (GPa) = 13.00173 66.33395 39.66784
# Shear Modulus (GPa) = 7.65392 27.61798 17.63595
#
# Velocity S-wave (km/s) = 2.01772 3.83279 3.06280
# Velocity P-wave (km/s) = 3.51340 7.40748 5.79719
#
# Compressibility (1/GPa) = 0.07691287
#
# Stress axis : x y z
#
# Youngs Moduli (GPa) = 12.67063 115.05226 127.95822
#
# Poissons Ratio (x) = 0.39352 0.17560
# Poissons Ratio (y) = 0.04334 0.57140
# Poissons Ratio (z) = 0.01739 0.51377
#
# Static dielectric constant tensor:
#      x y z
#    x 1.662260 0.000000 0.000000 
#    y 0.000000 1.666870 0.000000 
#    z 0.000000 0.000000 1.637770 
# 
# From -- ./inp_files/27703.got.cif
#   From: 2010.05.17/outbox.cif.g08.bks.cpg/sg51_14_cif.got.tgz:27703.got - 2010.06.03 11:52:47.
