data_PCOD9401948
_publ_section_title
;
Structure prediction by ZEFSAII (Michael W. Deem and Ramdas Pophale) SiO2 
 PCOD9401948
Probable space group: P M M A
;
_chemical_formula_sum "Si O2"
_cell_formula_units_Z 40
_cell_length_a 10.317880
_cell_length_b 7.418895
_cell_length_c 25.731496
_cell_angle_alpha 90.000000
_cell_angle_beta 90.000000
_cell_angle_gamma 90.000000
_cell_volume 1969.675729
_symmetry_space_group_name_H-M "P M M A"
_symmetry_group_IT_number 51
_symmetry_cell_setting 'orthorhombic'
loop_
_space_group_symop_operation_xyz
x,y,z
1/2-x,-y,z
1/2+x,-y,-z
-x,y,-z
-x,-y,-z
1/2+x,y,-z
1/2-x,y,z
x,-y,z
loop_
_atom_site_type_symbol
_atom_site_label
_atom_site_fract_x
_atom_site_fract_y
_atom_site_fract_z
Si Si1 0.401119 0.221389 0.728098
Si Si2 0.750000 0.707400 0.431953
Si Si3 0.750000 0.780336 0.553348
Si Si4 0.099953 0.220717 0.955614
Si Si5 0.485728 0.206570 0.377518
Si Si6 0.592584 0.208855 0.158569
O O1 0.250000 0.272049 0.720457
O O2 0.485088 0.284688 0.679335
O O3 0.446056 0.283761 0.785217
O O4 0.401967 0.000000 0.728456
O O5 0.750000 0.500000 0.415813
O O6 0.750000 0.719041 0.494031
O O7 0.879067 0.792068 0.408281
O O8 0.624492 0.716737 0.585298
O O9 0.750000 0.000000 0.550327
O O10 0.250000 0.273846 0.964926
O O11 0.057933 0.284141 0.897921
O O12 0.100053 0.000000 0.954310
O O13 0.000000 0.276900 0.000000
O O14 0.445799 0.000000 0.368195
O O15 0.750000 0.210386 0.159384
O O16 0.550653 0.000000 0.158352
#
# Coordination Sequence:
#
# PCOD9401948 Si02
#       6
#     8   4   4   8   8   8
#     4   8  12  21  41  63  79  99 137 187 226 254
#     4  12  24  36  52  74  96 120 153 190 228 272
#     4  10  22  36  52  72  96 124 153 184 226 278
#     4   8  12  17  25  37  59  92 129 165 200 242
#     4  10  19  34  54  73  93 121 155 191 230 274
#     4   7  10  16  28  48  68  90 127 175 214 244
#
# _framework density 20.307911000000001
#
# number of rings (size 3 to 8) (size 9 to 14) (size 15 to 20)
#    0.000    3.200    1.000    3.900    0.000    3.200 
#    0.000    0.000    2.200    0.000    0.000    0.000 
#    0.000    0.000    0.000    0.000    0.000    1.000 
#
# Total GULP energy -222900.295725 kJ/mol
# GULP energy per Si atom -5572.507393 kJ/mol
# Density = 2.026169 g / cm^3
# Si number density = 20.307911 Si / 1000 Ang^3
#
#
#
# Elastic Constant Matrix: (Units=GPa)
#
#
# Indices 1 2 3 4 5 6 
#
# 1 71.0682 -9.4359 60.3166 0.0000 0.0000 0.0000
# 2 -9.4359 66.5544 -4.6676 0.0000 0.0000 0.0000
# 3 60.3166 -4.6676 218.1739 0.0000 0.0000 0.0000
# 4 0.0000 0.0000 0.0000 -37.0028 0.0000 0.0000
# 5 0.0000 0.0000 0.0000 0.0000 16.9761 0.0000
# 6 0.0000 0.0000 0.0000 0.0000 0.0000 -6.1717
#
#
#
# Elastic Compliance Matrix: (Units=1/GPa)
#
#
# Indices 1 2 3 4 5 6 
#
# 1 0.018728 0.002296 -0.005129 0.000000 0.000000 0.000000
# 2 0.002296 0.015329 -0.000307 0.000000 0.000000 0.000000
# 3 -0.005129 -0.000307 0.005995 0.000000 0.000000 0.000000
# 4 0.000000 0.000000 0.000000 -0.027025 0.000000 0.000000
# 5 0.000000 0.000000 0.000000 0.000000 0.058906 0.000000
# 6 0.000000 0.000000 0.000000 0.000000 0.000000 -0.162029
#
#
# Mechanical properties :
#
#
# Convention : Reuss Voigt Hill
#
# Bulk Modulus (GPa) = 29.60931 49.80251 39.70591
# Shear Modulus (GPa) = -68.91052 15.39922 -26.75565
#
# Velocity S-wave (km/s) = -5.83151 2.75669 -3.63367
# Velocity P-wave (km/s) = 5.54348 5.89147 1.41053
#
# Compressibility (1/GPa) = 0.03377316
#
# Stress axis : x y z
#
# Youngs Moduli (GPa) = 53.39464 65.23473 166.81150
#
# Poissons Ratio (x) = -0.14975 0.85551
# Poissons Ratio (y) = -0.12257 0.05116
# Poissons Ratio (z) = 0.27384 0.02001
#
# Static dielectric constant tensor:
#      x y z
#    x 1.671510 0.000000 0.000000 
#    y 0.000000 1.790650 0.000000 
#    z 0.000000 0.000000 1.754270 
# 
# From -- ./inp_files/36085.got.cif
#   From: 2010.05.17/outbox.cif.g08.bks.cpg/sg51_19_cif.got.tgz:36085.got - 2010.06.03 11:52:47.
