data_PCOD9401111
_publ_section_title
;
Structure prediction by ZEFSAII (Michael W. Deem and Ramdas Pophale) SiO2 
 PCOD9401111
Probable space group: P M M A
;
_chemical_formula_sum "Si O2"
_cell_formula_units_Z 64
_cell_length_a 7.936389
_cell_length_b 24.549931
_cell_length_c 19.724687
_cell_angle_alpha 90.000000
_cell_angle_beta 90.000000
_cell_angle_gamma 90.000000
_cell_volume 3843.114667
_symmetry_space_group_name_H-M "P M M A"
_symmetry_group_IT_number 51
_symmetry_cell_setting 'orthorhombic'
loop_
_space_group_symop_operation_xyz
x,y,z
1/2-x,-y,z
1/2+x,-y,-z
-x,y,-z
-x,-y,-z
1/2+x,y,-z
1/2-x,y,z
x,-y,z
loop_
_atom_site_type_symbol
_atom_site_label
_atom_site_fract_x
_atom_site_fract_y
_atom_site_fract_z
Si Si1 0.554612 0.725364 0.213949
Si Si2 0.545977 0.060651 0.216026
Si Si3 0.546541 0.765574 0.074479
Si Si4 0.046736 0.561131 0.577991
Si Si5 0.444013 0.169021 0.289394
Si Si6 0.951038 0.776924 0.422604
Si Si7 0.956586 0.667810 0.346017
Si Si8 0.047543 0.108843 0.925772
O O1 0.750000 0.709748 0.205906
O O2 0.480896 0.731769 0.138837
O O3 0.547733 0.785571 0.247713
O O4 0.482351 0.685244 0.271194
O O5 0.750000 0.060861 0.215814
O O6 0.488879 0.108836 0.265171
O O7 0.488658 0.075643 0.139592
O O8 0.488880 0.000000 0.234596
O O9 0.750000 0.767308 0.079249
O O10 0.485629 0.828443 0.079401
O O11 0.500000 0.744937 0.000000
O O12 0.250000 0.560412 0.582112
O O13 0.985302 0.500000 0.594470
O O14 0.985715 0.609818 0.625875
O O15 0.000000 0.572634 0.500000
O O16 0.250000 0.180060 0.273761
O O17 0.475922 0.180500 0.368479
O O18 0.750000 0.779037 0.416689
O O19 0.006230 0.716893 0.396612
O O20 0.000000 0.785920 0.500000
O O21 0.750000 0.667511 0.344651
O O22 0.250000 0.110275 0.922904
O O23 0.000000 0.087398 0.000000
#
# Coordination Sequence:
#
# PCOD9401111 Si02
#       8
#     8   8   8   8   8   8   8   8
#     4   9  16  30  47  62  85 117 150 182 222 267
#     4  10  20  35  52  66  85 116 150 181 215 260
#     4   9  16  26  42  61  85 113 142 177 218 266
#     4   9  16  26  40  60  88 122 156 186 216 252
#     4  11  21  32  48  69  92 114 142 179 222 266
#     4  10  19  32  50  70  93 117 146 180 220 265
#     4   8  15  26  43  65  89 119 151 185 219 255
#     4   9  17  29  44  64  87 113 145 177 215 257
#
# _framework density 16.653158999999999
#
# number of rings (size 3 to 8) (size 9 to 14) (size 15 to 20)
#    0.000    2.625    1.250    2.625    0.000    1.500 
#    0.000    2.500    0.000    0.375    0.000    0.000 
#    0.000    0.500    0.000    0.375    0.000    0.750 
#
# Total GULP energy -356737.264196 kJ/mol
# GULP energy per Si atom -5574.019753 kJ/mol
# Density = 1.661526 g / cm^3
# Si number density = 16.653159 Si / 1000 Ang^3
#
#
#
# Elastic Constant Matrix: (Units=GPa)
#
#
# Indices 1 2 3 4 5 6 
#
# 1 19.4261 4.4700 -1.2204 0.0000 0.0000 0.0000
# 2 4.4700 108.1794 68.4679 0.0000 0.0000 0.0000
# 3 -1.2204 68.4679 128.3323 0.0000 0.0000 0.0000
# 4 0.0000 0.0000 0.0000 26.7183 0.0000 0.0000
# 5 0.0000 0.0000 0.0000 0.0000 19.4798 0.0000
# 6 0.0000 0.0000 0.0000 0.0000 0.0000 2.7686
#
#
#
# Elastic Compliance Matrix: (Units=1/GPa)
#
#
# Indices 1 2 3 4 5 6 
#
# 1 0.052498 -0.003752 0.002501 0.000000 0.000000 0.000000
# 2 -0.003752 0.014225 -0.007625 0.000000 0.000000 0.000000
# 3 0.002501 -0.007625 0.011884 0.000000 0.000000 0.000000
# 4 0.000000 0.000000 0.000000 0.037427 0.000000 0.000000
# 5 0.000000 0.000000 0.000000 0.000000 0.051335 0.000000
# 6 0.000000 0.000000 0.000000 0.000000 0.000000 0.361189
#
#
# Mechanical properties :
#
#
# Convention : Reuss Voigt Hill
#
# Bulk Modulus (GPa) = 16.43263 44.37477 30.40370
# Shear Modulus (GPa) = 8.82464 22.07470 15.44967
#
# Velocity S-wave (km/s) = 2.30447 3.64477 3.04917
# Velocity P-wave (km/s) = 4.11944 6.66459 5.54015
#
# Compressibility (1/GPa) = 0.06085453
#
# Stress axis : x y z
#
# Youngs Moduli (GPa) = 19.04848 70.29951 84.14597
#
# Poissons Ratio (x) = 0.26378 -0.21046
# Poissons Ratio (y) = 0.07147 0.64161
# Poissons Ratio (z) = -0.04764 0.53603
#
# Static dielectric constant tensor:
#      x y z
#    x 1.606360 0.000000 0.000000 
#    y 0.000000 1.553140 0.000000 
#    z 0.000000 0.000000 1.574480 
# 
# From -- ./inp_files/32715.got.cif
#   From: 2010.05.17/outbox.cif.g08.bks.cpg/sg51_17_cif.got.tgz:32715.got - 2010.06.03 11:52:47.
