data_PCOD9401550
_publ_section_title
;
Structure prediction by ZEFSAII (Michael W. Deem and Ramdas Pophale) SiO2 
 PCOD9401550
Probable space group: P M M A
;
_chemical_formula_sum "Si O2"
_cell_formula_units_Z 64
_cell_length_a 7.647030
_cell_length_b 15.607742
_cell_length_c 24.863989
_cell_angle_alpha 90.000000
_cell_angle_beta 90.000000
_cell_angle_gamma 90.000000
_cell_volume 2967.588479
_symmetry_space_group_name_H-M "P M M A"
_symmetry_group_IT_number 51
_symmetry_cell_setting 'orthorhombic'
loop_
_space_group_symop_operation_xyz
x,y,z
1/2-x,-y,z
1/2+x,-y,-z
-x,y,-z
-x,-y,-z
1/2+x,y,-z
1/2-x,y,z
x,-y,z
loop_
_atom_site_type_symbol
_atom_site_label
_atom_site_fract_x
_atom_site_fract_y
_atom_site_fract_z
Si Si1 0.444834 0.103286 0.059925
Si Si2 0.455347 0.657842 0.170604
Si Si3 0.450927 0.407160 0.719661
Si Si4 0.960428 0.403842 0.562876
Si Si5 0.535910 0.095173 0.704422
Si Si6 0.956366 0.141100 0.822652
Si Si7 0.949167 0.262417 0.644153
Si Si8 0.540793 0.597823 0.942789
O O1 0.250000 0.140090 0.065872
O O2 0.532965 0.121478 0.117904
O O3 0.440097 0.000000 0.057000
O O4 0.500000 0.131789 0.000000
O O5 0.250000 0.634250 0.171760
O O6 0.545097 0.603003 0.216367
O O7 0.468353 0.757315 0.184128
O O8 0.523975 0.643257 0.110620
O O9 0.250000 0.401988 0.701718
O O10 0.524069 0.500000 0.704611
O O11 0.551827 0.328225 0.694148
O O12 0.750000 0.405283 0.570234
O O13 0.025422 0.500000 0.577972
O O14 0.028341 0.323325 0.597590
O O15 0.000000 0.392493 0.500000
O O16 0.750000 0.102358 0.706371
O O17 0.474430 0.103309 0.766622
O O18 0.473256 0.173758 0.666988
O O19 0.492224 0.000000 0.684527
O O20 0.750000 0.114664 0.824941
O O21 0.750000 0.242385 0.627507
O O22 0.750000 0.594370 0.939598
O O23 0.473045 0.500000 0.943178
O O24 0.500000 0.639187 0.000000
#
# Coordination Sequence:
#
# PCOD9401550 Si02
#       8
#     8   8   8   8   8   8   8   8
#     4   9  17  29  45  65  90 120 156 201 254 313
#     4  10  19  33  51  70  93 125 168 213 256 311
#     4  11  23  35  49  74 107 140 171 210 264 317
#     4   9  18  32  52  80 113 148 184 219 257 302
#     4   9  16  28  51  81 106 131 172 225 270 307
#     4   9  16  28  47  71  95 122 161 210 259 308
#     4  10  19  34  56  82 109 141 182 223 259 302
#     4   9  18  31  46  63  84 115 157 204 254 309
#
# _framework density 21.566333
#
# number of rings (size 3 to 8) (size 9 to 14) (size 15 to 20)
#    0.000    2.500    1.250    1.500    0.000    5.000 
#    0.000    3.125    0.000    0.750    0.000    0.000 
#    0.000    0.000    0.000    0.000    0.000    0.000 
#
# Total GULP energy -356808.836402 kJ/mol
# GULP energy per Si atom -5575.138069 kJ/mol
# Density = 2.151725 g / cm^3
# Si number density = 21.566333 Si / 1000 Ang^3
#
#
#
# Elastic Constant Matrix: (Units=GPa)
#
#
# Indices 1 2 3 4 5 6 
#
# 1 38.3944 13.6699 -0.0821 0.0000 0.0000 0.0000
# 2 13.6699 116.5307 69.0678 0.0000 0.0000 0.0000
# 3 -0.0821 69.0678 141.6584 0.0000 0.0000 0.0000
# 4 0.0000 0.0000 0.0000 -31.5237 0.0000 0.0000
# 5 0.0000 0.0000 0.0000 0.0000 18.8800 0.0000
# 6 0.0000 0.0000 0.0000 0.0000 0.0000 -2.8396
#
#
#
# Elastic Compliance Matrix: (Units=1/GPa)
#
#
# Indices 1 2 3 4 5 6 
#
# 1 0.027681 -0.004580 0.002249 0.000000 0.000000 0.000000
# 2 -0.004580 0.012827 -0.006257 0.000000 0.000000 0.000000
# 3 0.002249 -0.006257 0.010111 0.000000 0.000000 0.000000
# 4 0.000000 0.000000 0.000000 -0.031722 0.000000 0.000000
# 5 0.000000 0.000000 0.000000 0.000000 0.052966 0.000000
# 6 0.000000 0.000000 0.000000 0.000000 0.000000 -0.352165
#
#
# Mechanical properties :
#
#
# Convention : Reuss Voigt Hill
#
# Bulk Modulus (GPa) = 29.90099 51.32163 40.61131
# Shear Modulus (GPa) = -19.84295 11.16520 -4.33887
#
# Velocity S-wave (km/s) = -3.03659 2.27780 -1.41994
# Velocity P-wave (km/s) = 1.26502 5.54677 4.02286
#
# Compressibility (1/GPa) = 0.03344371
#
# Stress axis : x y z
#
# Youngs Moduli (GPa) = 36.12576 77.96002 98.90127
#
# Poissons Ratio (x) = 0.35708 -0.22246
# Poissons Ratio (y) = 0.16547 0.61880
# Poissons Ratio (z) = -0.08126 0.48777
#
# Static dielectric constant tensor:
#      x y z
#    x 1.852740 0.000000 0.000000 
#    y 0.000000 1.792640 0.000000 
#    z 0.000000 0.000000 1.816820 
# 
# From -- ./inp_files/34991.got.cif
#   From: 2010.05.17/outbox.cif.g08.bks.cpg/sg51_18_cif.got.tgz:34991.got - 2010.06.03 11:52:47.
