data_PCOD9401470
_publ_section_title
;
Structure prediction by ZEFSAII (Michael W. Deem and Ramdas Pophale) SiO2 
 PCOD9401470
Probable space group: P M M A
;
_chemical_formula_sum "Si O2"
_cell_formula_units_Z 48
_cell_length_a 18.490237
_cell_length_b 8.808354
_cell_length_c 16.856352
_cell_angle_alpha 90.000000
_cell_angle_beta 90.000000
_cell_angle_gamma 90.000000
_cell_volume 2745.369660
_symmetry_space_group_name_H-M "P M M A"
_symmetry_group_IT_number 51
_symmetry_cell_setting 'orthorhombic'
loop_
_space_group_symop_operation_xyz
x,y,z
1/2-x,-y,z
1/2+x,-y,-z
-x,y,-z
-x,-y,-z
1/2+x,y,-z
1/2-x,y,z
x,-y,z
loop_
_atom_site_type_symbol
_atom_site_label
_atom_site_fract_x
_atom_site_fract_y
_atom_site_fract_z
Si Si1 0.470901 0.682695 0.915054
Si Si2 0.831375 0.182611 0.164515
Si Si3 0.406220 0.818167 0.671397
Si Si4 0.414453 0.681745 0.504359
Si Si5 0.452897 0.681952 0.247293
Si Si6 0.665411 0.818283 0.648165
O O1 0.465281 0.500000 0.917150
O O2 0.393091 0.748284 0.891053
O O3 0.525237 0.721330 0.842835
O O4 0.500000 0.735731 0.000000
O O5 0.750000 0.234129 0.146917
O O6 0.852912 0.219159 0.255605
O O7 0.833989 0.000000 0.157699
O O8 0.385726 0.745384 0.587801
O O9 0.483790 0.751924 0.698056
O O10 0.410616 0.000000 0.663910
O O11 0.500000 0.720771 0.500000
O O12 0.408360 0.500000 0.501606
O O13 0.372286 0.753241 0.430741
O O14 0.453569 0.500000 0.256071
O O15 0.377886 0.748570 0.277817
O O16 0.750000 0.779116 0.649454
O O17 0.658188 0.000000 0.648843
#
# Coordination Sequence:
#
# PCOD9401470 Si02
#       6
#     8   8   8   8   8   8
#     4   9  19  36  58  84 111 140 178 220 263 320
#     4   9  19  35  54  80 113 144 176 219 270 320
#     4  10  19  32  54  79 106 142 181 221 265 316
#     4  11  22  35  54  80 109 143 184 227 269 317
#     4  10  19  34  56  79 104 137 177 219 266 320
#     4  11  24  39  55  77 106 142 184 227 271 318
#
# _framework density 17.483985000000001
#
# number of rings (size 3 to 8) (size 9 to 14) (size 15 to 20)
#    0.000    2.000    1.667    2.000    0.000    4.667 
#    0.000    2.500    0.000    5.000    0.000    0.000 
#    0.000    0.000    0.000    0.000    0.000    0.000 
#
# Total GULP energy -267975.060942 kJ/mol
# GULP energy per Si atom -5582.813770 kJ/mol
# Density = 1.744419 g / cm^3
# Si number density = 17.483985 Si / 1000 Ang^3
#
#
#
# Elastic Constant Matrix: (Units=GPa)
#
#
# Indices 1 2 3 4 5 6 
#
# 1 148.6163 49.8257 83.4986 0.0000 0.0000 0.0000
# 2 49.8257 37.0448 37.6014 0.0000 0.0000 0.0000
# 3 83.4986 37.6014 136.7686 0.0000 0.0000 0.0000
# 4 0.0000 0.0000 0.0000 24.8323 0.0000 0.0000
# 5 0.0000 0.0000 0.0000 0.0000 19.1677 0.0000
# 6 0.0000 0.0000 0.0000 0.0000 0.0000 51.3963
#
#
#
# Elastic Compliance Matrix: (Units=1/GPa)
#
#
# Indices 1 2 3 4 5 6 
#
# 1 0.014163 -0.014249 -0.004729 0.000000 0.000000 0.000000
# 2 -0.014249 0.051779 -0.005536 0.000000 0.000000 0.000000
# 3 -0.004729 -0.005536 0.011721 0.000000 0.000000 0.000000
# 4 0.000000 0.000000 0.000000 0.040270 0.000000 0.000000
# 5 0.000000 0.000000 0.000000 0.000000 0.052171 0.000000
# 6 0.000000 0.000000 0.000000 0.000000 0.000000 0.019457
#
#
# Mechanical properties :
#
#
# Convention : Reuss Voigt Hill
#
# Bulk Modulus (GPa) = 34.92378 73.80899 54.36639
# Shear Modulus (GPa) = 20.15039 29.17954 24.66496
#
# Velocity S-wave (km/s) = 3.39854 4.08969 3.76003
# Velocity P-wave (km/s) = 5.95132 8.03788 7.07198
#
# Compressibility (1/GPa) = 0.02863378
#
# Stress axis : x y z
#
# Youngs Moduli (GPa) = 70.60646 19.31289 85.31786
#
# Poissons Ratio (x) = 0.27519 0.40348
# Poissons Ratio (y) = 1.00608 0.47233
# Poissons Ratio (z) = 0.33391 0.10692
#
# Static dielectric constant tensor:
#      x y z
#    x 1.582940 0.000000 0.000000 
#    y 0.000000 1.584690 0.000000 
#    z 0.000000 0.000000 1.590010 
# 
# From -- ./inp_files/24811.got.cif
#   From: 2010.05.17/outbox.cif.g08.bks.cpg/sg51_13_cif.got.tgz:24811.got - 2010.06.03 11:52:47.
