data_PCOD9401349
_publ_section_title
;
Structure prediction by ZEFSAII (Michael W. Deem and Ramdas Pophale) SiO2 
 PCOD9401349
Probable space group: P M M A
;
_chemical_formula_sum "Si O2"
_cell_formula_units_Z 56
_cell_length_a 14.732267
_cell_length_b 20.320734
_cell_length_c 9.996912
_cell_angle_alpha 90.000000
_cell_angle_beta 90.000000
_cell_angle_gamma 90.000000
_cell_volume 2992.780333
_symmetry_space_group_name_H-M "P M M A"
_symmetry_group_IT_number 51
_symmetry_cell_setting 'orthorhombic'
loop_
_space_group_symop_operation_xyz
x,y,z
1/2-x,-y,z
1/2+x,-y,-z
-x,y,-z
-x,-y,-z
1/2+x,y,-z
1/2-x,y,z
x,-y,z
loop_
_atom_site_type_symbol
_atom_site_label
_atom_site_fract_x
_atom_site_fract_y
_atom_site_fract_z
Si Si1 0.516169 0.848496 0.339223
Si Si2 0.853919 0.572371 0.311417
Si Si3 0.144045 0.843457 0.128109
Si Si4 0.151299 0.305567 0.173259
Si Si5 0.142137 0.077431 0.859723
Si Si6 0.473970 0.700651 0.651682
Si Si7 0.890728 0.571232 0.999365
O O1 0.500000 0.856855 0.500000
O O2 0.421839 0.854650 0.255120
O O3 0.585476 0.898123 0.268043
O O4 0.554988 0.774628 0.307878
O O5 0.750000 0.577263 0.357109
O O6 0.890164 0.500000 0.357128
O O7 0.907713 0.638610 0.343090
O O8 0.857175 0.570069 0.150707
O O9 0.250000 0.859784 0.157529
O O10 0.140163 0.764903 0.101540
O O11 0.116309 0.883038 0.995182
O O12 0.250000 0.303348 0.242848
O O13 0.065388 0.314812 0.267639
O O14 0.149202 0.366440 0.073856
O O15 0.250000 0.088366 0.838956
O O16 0.127248 0.000000 0.881602
O O17 0.500000 0.709233 0.500000
O O18 0.868633 0.500000 0.936662
O O19 0.000000 0.577414 0.000000
#
# Coordination Sequence:
#
# PCOD9401349 Si02
#       7
#     8   8   8   8   8   8   8
#     4  10  22  38  59  87 118 157 195 232 283 341
#     4  10  21  36  54  77 106 142 185 232 282 335
#     4   9  20  37  58  85 117 151 190 237 286 337
#     4  10  20  34  55  80 107 140 181 227 278 334
#     4  10  22  40  62  90 120 150 189 235 282 336
#     4  10  22  38  55  78 110 146 186 230 274 326
#     4  10  19  32  52  78 107 138 174 226 286 336
#
# _framework density 18.711697999999998
#
# number of rings (size 3 to 8) (size 9 to 14) (size 15 to 20)
#    0.000    2.143    1.429    0.857    2.000    4.286 
#    0.000    2.857    0.000    1.714    0.000    0.000 
#    0.000    0.000    0.000    0.000    0.000    0.000 
#
# Total GULP energy -312029.018800 kJ/mol
# GULP energy per Si atom -5571.946764 kJ/mol
# Density = 1.866911 g / cm^3
# Si number density = 18.711698 Si / 1000 Ang^3
#
#
#
# Elastic Constant Matrix: (Units=GPa)
#
#
# Indices 1 2 3 4 5 6 
#
# 1 77.4692 57.8725 22.4847 0.0000 0.0000 0.0000
# 2 57.8725 107.3957 44.7514 0.0000 0.0000 0.0000
# 3 22.4847 44.7514 70.9374 0.0000 0.0000 0.0000
# 4 0.0000 0.0000 0.0000 11.1831 0.0000 0.0000
# 5 0.0000 0.0000 0.0000 0.0000 -914.3864 0.0000
# 6 0.0000 0.0000 0.0000 0.0000 0.0000 34.7664
#
#
#
# Elastic Compliance Matrix: (Units=1/GPa)
#
#
# Indices 1 2 3 4 5 6 
#
# 1 0.021630 -0.011937 0.000674 0.000000 0.000000 0.000000
# 2 -0.011937 0.019219 -0.008341 0.000000 0.000000 0.000000
# 3 0.000674 -0.008341 0.019145 0.000000 0.000000 0.000000
# 4 0.000000 0.000000 0.000000 0.089421 0.000000 0.000000
# 5 0.000000 0.000000 0.000000 0.000000 -0.001094 0.000000
# 6 0.000000 0.000000 0.000000 0.000000 0.000000 0.028763
#
#
# Mechanical properties :
#
#
# Convention : Reuss Voigt Hill
#
# Bulk Modulus (GPa) = 48.10562 56.22438 52.16500
# Shear Modulus (GPa) = 22.39928 -164.97448 -71.28760
#
# Velocity S-wave (km/s) = 3.46363 -9.39989 -6.17904
# Velocity P-wave (km/s) = 6.46222 9.36470 4.79256
#
# Compressibility (1/GPa) = 0.02078759
#
# Stress axis : x y z
#
# Youngs Moduli (GPa) = 46.23253 52.03062 52.23224
#
# Poissons Ratio (x) = 0.62107 -0.03523
# Poissons Ratio (y) = 0.55186 0.43568
# Poissons Ratio (z) = -0.03118 0.43400
#
# Static dielectric constant tensor:
#      x y z
#    x 3.042290 0.000000 0.000000 
#    y 0.000000 1.705980 0.000000 
#    z 0.000000 0.000000 1.660470 
# 
# From -- ./inp_files/8515.got.cif
#   From: 2010.05.17/outbox.cif.g08.bks.cpg/sg51_5_cif.got.tgz:8515.got - 2010.06.03 11:52:47.
