data_PCOD9401864
_publ_section_title
;
Structure prediction by ZEFSAII (Michael W. Deem and Ramdas Pophale) SiO2 
 PCOD9401864
Probable space group: P M M A
;
_chemical_formula_sum "Si O2"
_cell_formula_units_Z 56
_cell_length_a 16.433941
_cell_length_b 18.548414
_cell_length_c 9.550154
_cell_angle_alpha 90.000000
_cell_angle_beta 90.000000
_cell_angle_gamma 90.000000
_cell_volume 2911.111762
_symmetry_space_group_name_H-M "P M M A"
_symmetry_group_IT_number 51
_symmetry_cell_setting 'orthorhombic'
loop_
_space_group_symop_operation_xyz
x,y,z
1/2-x,-y,z
1/2+x,-y,-z
-x,y,-z
-x,-y,-z
1/2+x,y,-z
1/2-x,y,z
x,-y,z
loop_
_atom_site_type_symbol
_atom_site_label
_atom_site_fract_x
_atom_site_fract_y
_atom_site_fract_z
Si Si1 0.157007 0.692535 0.907499
Si Si2 0.848192 0.082243 0.771134
Si Si3 0.656714 0.084653 0.445743
Si Si4 0.846463 0.704068 0.538689
Si Si5 0.912903 0.795769 0.293376
Si Si6 0.410638 0.763889 0.174564
Si Si7 0.848666 0.418311 0.332180
O O1 0.250000 0.677019 0.950498
O O2 0.154788 0.762766 0.808228
O O3 0.126494 0.628941 0.803754
O O4 0.103643 0.713888 0.040409
O O5 0.750000 0.081554 0.777033
O O6 0.870143 0.095051 0.607086
O O7 0.878002 0.154192 0.849635
O O8 0.874933 0.000000 0.810036
O O9 0.750000 0.112632 0.434302
O O10 0.600098 0.121779 0.331711
O O11 0.659016 0.000000 0.423319
O O12 0.750000 0.713937 0.514158
O O13 0.898018 0.757746 0.442146
O O14 0.864899 0.724293 0.697410
O O15 0.868363 0.625770 0.474107
O O16 0.997184 0.774699 0.223554
O O17 0.750000 0.420458 0.325426
O O18 0.879192 0.500000 0.330727
#
# Coordination Sequence:
#
# PCOD9401864 Si02
#       7
#     8   8   8   8   8   8   8
#     4  10  21  37  58  78 105 147 184 218 267 330
#     4   9  18  32  51  75 107 146 183 223 274 326
#     4   9  17  31  53  78 104 141 190 234 272 322
#     4  10  19  33  56  80 106 141 179 217 264 324
#     4  11  21  34  52  78 110 143 180 228 274 318
#     4  12  22  33  52  83 115 141 180 233 274 317
#     4   8  16  34  60  86 108 136 179 225 268 320
#
# _framework density 19.236637999999999
#
# number of rings (size 3 to 8) (size 9 to 14) (size 15 to 20)
#    0.000    2.143    1.429    5.143    0.000    0.571 
#    0.000    2.857    0.000   21.429    0.000    0.000 
#    0.000    0.000    0.000    0.000    0.000    0.143 
#
# Total GULP energy -312131.230604 kJ/mol
# GULP energy per Si atom -5573.771975 kJ/mol
# Density = 1.919285 g / cm^3
# Si number density = 19.236638 Si / 1000 Ang^3
#
#
#
# Elastic Constant Matrix: (Units=GPa)
#
#
# Indices 1 2 3 4 5 6 
#
# 1 39.8080 13.9515 -4.8673 0.0000 0.0000 0.0000
# 2 13.9515 114.6590 32.2512 0.0000 0.0000 0.0000
# 3 -4.8673 32.2512 55.3172 0.0000 0.0000 0.0000
# 4 0.0000 0.0000 0.0000 18.1675 0.0000 0.0000
# 5 0.0000 0.0000 0.0000 0.0000 23.1372 0.0000
# 6 0.0000 0.0000 0.0000 0.0000 0.0000 -1.3887
#
#
#
# Elastic Compliance Matrix: (Units=1/GPa)
#
#
# Indices 1 2 3 4 5 6 
#
# 1 0.027443 -0.004807 0.005217 0.000000 0.000000 0.000000
# 2 -0.004807 0.011274 -0.006996 0.000000 0.000000 0.000000
# 3 0.005217 -0.006996 0.022615 0.000000 0.000000 0.000000
# 4 0.000000 0.000000 0.000000 0.055043 0.000000 0.000000
# 5 0.000000 0.000000 0.000000 0.000000 0.043220 0.000000
# 6 0.000000 0.000000 0.000000 0.000000 0.000000 -0.720095
#
#
# Mechanical properties :
#
#
# Convention : Reuss Voigt Hill
#
# Bulk Modulus (GPa) = 20.76347 32.49501 26.62924
# Shear Modulus (GPa) = -9.41135 19.21312 4.90089
#
# Velocity S-wave (km/s) = -2.21428 3.16377 1.59788
# Velocity P-wave (km/s) = 2.06876 5.50226 4.15660
#
# Compressibility (1/GPa) = 0.04816151
#
# Stress axis : x y z
#
# Youngs Moduli (GPa) = 36.43904 88.69780 44.21748
#
# Poissons Ratio (x) = 0.42634 -0.23069
# Poissons Ratio (y) = 0.17515 0.30935
# Poissons Ratio (z) = -0.19011 0.62054
#
# Static dielectric constant tensor:
#      x y z
#    x 1.710010 0.000000 0.000000 
#    y 0.000000 1.701130 0.000000 
#    z 0.000000 0.000000 1.674500 
# 
# From -- ./inp_files/8531.got.cif
#   From: 2010.05.17/outbox.cif.g08.bks.cpg/sg51_5_cif.got.tgz:8531.got - 2010.06.03 11:52:47.
