data_PCOD9401220
_publ_section_title
;
Structure prediction by ZEFSAII (Michael W. Deem and Ramdas Pophale) SiO2 
 PCOD9401220
Probable space group: P M M A
;
_chemical_formula_sum "Si O2"
_cell_formula_units_Z 56
_cell_length_a 7.686146
_cell_length_b 19.981271
_cell_length_c 18.640372
_cell_angle_alpha 90.000000
_cell_angle_beta 90.000000
_cell_angle_gamma 90.000000
_cell_volume 2862.769061
_symmetry_space_group_name_H-M "P M M A"
_symmetry_group_IT_number 51
_symmetry_cell_setting 'orthorhombic'
loop_
_space_group_symop_operation_xyz
x,y,z
1/2-x,-y,z
1/2+x,-y,-z
-x,y,-z
-x,-y,-z
1/2+x,y,-z
1/2-x,y,z
x,-y,z
loop_
_atom_site_type_symbol
_atom_site_label
_atom_site_fract_x
_atom_site_fract_y
_atom_site_fract_z
Si Si1 0.454407 0.073653 0.723310
Si Si2 0.457049 0.290644 0.081878
Si Si3 0.457674 0.853860 0.419332
Si Si4 0.450671 0.714803 0.360653
Si Si5 0.537266 0.425595 0.680040
Si Si6 0.454308 0.787794 0.779991
Si Si7 0.961896 0.573673 0.847635
O O1 0.250000 0.069603 0.740815
O O2 0.470889 0.096064 0.640508
O O3 0.525008 0.137343 0.767111
O O4 0.531158 0.000000 0.734867
O O5 0.250000 0.291388 0.089677
O O6 0.525541 0.238240 0.139954
O O7 0.523952 0.364106 0.105552
O O8 0.500000 0.275859 0.000000
O O9 0.500000 0.873285 0.500000
O O10 0.250000 0.852269 0.409445
O O11 0.527004 0.778397 0.403047
O O12 0.250000 0.709184 0.383749
O O13 0.526587 0.640022 0.362139
O O14 0.456345 0.738603 0.277416
O O15 0.750000 0.424174 0.678574
O O16 0.483394 0.500000 0.655707
O O17 0.487556 0.418691 0.764023
O O18 0.250000 0.787302 0.760863
O O19 0.750000 0.573874 0.848770
O O20 0.019128 0.500000 0.872300
#
# Coordination Sequence:
#
# PCOD9401220 Si02
#       7
#     8   8   8   8   8   8   8
#     4   9  19  36  57  79 102 128 157 192 236 285
#     4  11  21  33  49  69  97 131 167 206 245 287
#     4  10  20  32  49  74 105 136 166 196 233 282
#     4   9  16  29  49  71  93 125 166 205 241 282
#     4   8  12  21  42  69  91 115 156 207 250 285
#     4  10  19  32  51  74  98 124 157 196 240 290
#     4   8  14  25  43  66  92 124 160 200 246 290
#
# _framework density 19.56148
#
# number of rings (size 3 to 8) (size 9 to 14) (size 15 to 20)
#    0.000    2.714    1.429    2.143    0.000    2.000 
#    0.000    0.000    0.000    3.429    0.000    0.000 
#    0.000    0.000    0.000    0.000    0.000    0.429 
#
# Total GULP energy -312216.488922 kJ/mol
# GULP energy per Si atom -5575.294445 kJ/mol
# Density = 1.951696 g / cm^3
# Si number density = 19.561480 Si / 1000 Ang^3
#
#
#
# Elastic Constant Matrix: (Units=GPa)
#
#
# Indices 1 2 3 4 5 6 
#
# 1 38.8914 -0.4183 -7.8686 0.0000 0.0000 0.0000
# 2 -0.4183 145.5574 20.7199 0.0000 0.0000 0.0000
# 3 -7.8686 20.7199 35.6358 0.0000 0.0000 0.0000
# 4 0.0000 0.0000 0.0000 10.0862 0.0000 0.0000
# 5 0.0000 0.0000 0.0000 0.0000 11.1830 0.0000
# 6 0.0000 0.0000 0.0000 0.0000 0.0000 15.3109
#
#
#
# Elastic Compliance Matrix: (Units=1/GPa)
#
#
# Indices 1 2 3 4 5 6 
#
# 1 0.027009 -0.000841 0.006453 0.000000 0.000000 0.000000
# 2 -0.000841 0.007516 -0.004556 0.000000 0.000000 0.000000
# 3 0.006453 -0.004556 0.032135 0.000000 0.000000 0.000000
# 4 0.000000 0.000000 0.000000 0.099146 0.000000 0.000000
# 5 0.000000 0.000000 0.000000 0.000000 0.089421 0.000000
# 6 0.000000 0.000000 0.000000 0.000000 0.000000 0.065313
#
#
# Mechanical properties :
#
#
# Convention : Reuss Voigt Hill
#
# Bulk Modulus (GPa) = 14.54066 27.21672 20.87869
# Shear Modulus (GPa) = 14.64760 21.15947 17.90353
#
# Velocity S-wave (km/s) = 2.73939 3.29247 3.02858
# Velocity P-wave (km/s) = 4.17793 5.32893 4.78814
#
# Compressibility (1/GPa) = 0.06877268
#
# Stress axis : x y z
#
# Youngs Moduli (GPa) = 37.02449 133.04511 31.11832
#
# Poissons Ratio (x) = 0.11188 -0.20080
# Poissons Ratio (y) = 0.03113 0.14177
# Poissons Ratio (z) = -0.23891 0.60614
#
# Static dielectric constant tensor:
#      x y z
#    x 1.728780 0.000000 0.000000 
#    y 0.000000 1.741160 0.000000 
#    z 0.000000 0.000000 1.666700 
# 
# From -- ./inp_files/28266.got.cif
#   From: 2010.05.17/outbox.cif.g08.bks.cpg/sg51_15_cif.got.tgz:28266.got - 2010.06.03 11:52:47.
