data_PCOD9401105
_publ_section_title
;
Structure prediction by ZEFSAII (Michael W. Deem and Ramdas Pophale) SiO2 
 PCOD9401105
Probable space group: P M M A
;
_chemical_formula_sum "Si O2"
_cell_formula_units_Z 64
_cell_length_a 8.545552
_cell_length_b 32.241578
_cell_length_c 14.745511
_cell_angle_alpha 90.000000
_cell_angle_beta 90.000000
_cell_angle_gamma 90.000000
_cell_volume 4062.713881
_symmetry_space_group_name_H-M "P M M A"
_symmetry_group_IT_number 51
_symmetry_cell_setting 'orthorhombic'
loop_
_space_group_symop_operation_xyz
x,y,z
1/2-x,-y,z
1/2+x,-y,-z
-x,y,-z
-x,-y,-z
1/2+x,y,-z
1/2-x,y,z
x,-y,z
loop_
_atom_site_type_symbol
_atom_site_label
_atom_site_fract_x
_atom_site_fract_y
_atom_site_fract_z
Si Si1 0.560921 0.955426 0.896623
Si Si2 0.060650 0.864610 0.102973
Si Si3 0.561876 0.625088 0.782125
Si Si4 0.563636 0.342520 0.402819
Si Si5 0.938862 0.547053 0.899448
Si Si6 0.063038 0.702777 0.897578
Si Si7 0.939560 0.782912 0.790802
Si Si8 0.937510 0.248749 0.596808
O O1 0.750000 0.955492 0.897346
O O2 0.511360 0.910234 0.860597
O O3 0.510148 0.000000 0.855718
O O4 0.500000 0.955581 0.000000
O O5 0.250000 0.863950 0.099682
O O6 0.009317 0.826181 0.164568
O O7 0.000000 0.859798 0.000000
O O8 0.750000 0.626435 0.779425
O O9 0.496752 0.631005 0.681421
O O10 0.510837 0.582224 0.829153
O O11 0.502644 0.663446 0.842713
O O12 0.500000 0.357127 0.500000
O O13 0.750000 0.341514 0.404362
O O14 0.501694 0.295428 0.390362
O O15 0.750000 0.547406 0.902114
O O16 0.989689 0.500000 0.877045
O O17 0.000000 0.556987 0.000000
O O18 0.250000 0.701045 0.898282
O O19 0.007550 0.744484 0.847206
O O20 0.000000 0.702402 0.000000
O O21 0.750000 0.780596 0.796006
O O22 0.983229 0.777416 0.685334
O O23 0.750000 0.251042 0.592599
O O24 0.000000 0.233297 0.500000
#
# Coordination Sequence:
#
# PCOD9401105 Si02
#       8
#     8   8   8   8   8   8   8   8
#     4   8  13  22  37  56  79 108 145 188 229 270
#     4   9  17  28  41  60  86 120 156 188 228 275
#     4  11  21  35  54  76 102 128 160 199 237 280
#     4  11  21  34  53  76 100 126 159 197 240 284
#     4   9  19  35  55  78 103 131 161 195 236 280
#     4  12  24  35  48  67  95 129 164 197 231 274
#     4  10  20  33  47  64  91 124 156 192 233 280
#     4  10  19  32  50  68  91 119 154 196 240 281
#
# _framework density 15.753016000000001
#
# number of rings (size 3 to 8) (size 9 to 14) (size 15 to 20)
#    0.000    2.000    1.250    4.500    0.000    4.000 
#    0.000    0.000    0.000    0.375    0.000    0.000 
#    0.000    0.500    0.000    0.375    0.000    1.000 
#
# Total GULP energy -356921.217366 kJ/mol
# GULP energy per Si atom -5576.894021 kJ/mol
# Density = 1.571716 g / cm^3
# Si number density = 15.753016 Si / 1000 Ang^3
#
#
#
# Elastic Constant Matrix: (Units=GPa)
#
#
# Indices 1 2 3 4 5 6 
#
# 1 43.1301 30.1235 33.4969 0.0000 0.0000 0.0000
# 2 30.1235 135.0294 86.9564 0.0000 0.0000 0.0000
# 3 33.4969 86.9564 133.9666 0.0000 0.0000 0.0000
# 4 0.0000 0.0000 0.0000 -90.1837 0.0000 0.0000
# 5 0.0000 0.0000 0.0000 0.0000 24.9485 0.0000
# 6 0.0000 0.0000 0.0000 0.0000 0.0000 6.9287
#
#
#
# Elastic Compliance Matrix: (Units=1/GPa)
#
#
# Indices 1 2 3 4 5 6 
#
# 1 0.029533 -0.003150 -0.005340 0.000000 0.000000 0.000000
# 2 -0.003150 0.013061 -0.007690 0.000000 0.000000 0.000000
# 3 -0.005340 -0.007690 0.013791 0.000000 0.000000 0.000000
# 4 0.000000 0.000000 0.000000 -0.011088 0.000000 0.000000
# 5 0.000000 0.000000 0.000000 0.000000 0.040083 0.000000
# 6 0.000000 0.000000 0.000000 0.000000 0.000000 0.144328
#
#
# Mechanical properties :
#
#
# Convention : Reuss Voigt Hill
#
# Bulk Modulus (GPa) = 41.62246 68.14217 54.88232
# Shear Modulus (GPa) = 18.51341 -0.89134 8.81104
#
# Velocity S-wave (km/s) = 3.43188 -0.75303 2.36757
# Velocity P-wave (km/s) = 6.49484 6.52644 6.51066
#
# Compressibility (1/GPa) = 0.02402549
#
# Stress axis : x y z
#
# Youngs Moduli (GPa) = 33.86077 76.56588 72.50958
#
# Poissons Ratio (x) = 0.24115 0.38720
# Poissons Ratio (y) = 0.10665 0.55760
# Poissons Ratio (z) = 0.18082 0.58879
#
# Static dielectric constant tensor:
#      x y z
#    x 1.529970 0.000000 0.000000 
#    y 0.000000 1.547320 0.000000 
#    z 0.000000 0.000000 1.508910 
# 
# From -- ./inp_files/22616.got.cif
#   From: 2010.05.17/outbox.cif.g08.bks.cpg/sg51_12_cif.got.tgz:22616.got - 2010.06.03 11:52:47.
