data_PCOD9401995
_publ_section_title
;
Structure prediction by ZEFSAII (Michael W. Deem and Ramdas Pophale) SiO2 
 PCOD9401995
Probable space group: P M M A
;
_chemical_formula_sum "Si O2"
_cell_formula_units_Z 64
_cell_length_a 13.967136
_cell_length_b 25.270157
_cell_length_c 8.642313
_cell_angle_alpha 90.000000
_cell_angle_beta 90.000000
_cell_angle_gamma 90.000000
_cell_volume 3050.319234
_symmetry_space_group_name_H-M "P M M A"
_symmetry_group_IT_number 51
_symmetry_cell_setting 'orthorhombic'
loop_
_space_group_symop_operation_xyz
x,y,z
1/2-x,-y,z
1/2+x,-y,-z
-x,y,-z
-x,-y,-z
1/2+x,y,-z
1/2-x,y,z
x,-y,z
loop_
_atom_site_type_symbol
_atom_site_label
_atom_site_fract_x
_atom_site_fract_y
_atom_site_fract_z
Si Si1 0.464882 0.058837 0.320522
Si Si2 0.858919 0.841140 0.583657
Si Si3 0.141569 0.120735 0.773185
Si Si4 0.958608 0.558857 0.830118
Si Si5 0.856697 0.439284 0.384942
Si Si6 0.539011 0.253927 0.743232
Si Si7 0.861315 0.230911 0.071778
Si Si8 0.642372 0.643973 0.661556
O O1 0.500000 0.056339 0.500000
O O2 0.386318 0.105056 0.325600
O O3 0.556338 0.078613 0.222724
O O4 0.432799 0.000000 0.276330
O O5 0.750000 0.825005 0.618045
O O6 0.864832 0.853502 0.400071
O O7 0.930818 0.796035 0.640174
O O8 0.250000 0.099273 0.786974
O O9 0.129089 0.167802 0.896655
O O10 0.918381 0.500000 0.800699
O O11 0.884336 0.605456 0.802630
O O12 0.051501 0.566893 0.722411
O O13 0.000000 0.560137 0.000000
O O14 0.750000 0.433900 0.311959
O O15 0.861062 0.500000 0.444989
O O16 0.863997 0.395568 0.517074
O O17 0.429054 0.255679 0.796417
O O18 0.571247 0.307183 0.660731
O O19 0.597871 0.246747 0.904665
O O20 0.750000 0.244679 0.087166
O O21 0.750000 0.664717 0.673020
#
# Coordination Sequence:
#
# PCOD9401995 Si02
#       8
#     8   8   8   8   8   8   8   8
#     4   9  17  30  49  79 114 147 190 242 294 347
#     4  10  19  34  55  80 112 152 194 240 290 345
#     4   9  18  34  56  82 110 145 193 240 293 359
#     4  10  22  40  62  91 124 159 200 246 302 359
#     4   9  19  40  67  92 121 159 204 251 299 355
#     4  11  23  39  61  85 118 155 192 243 297 353
#     4  10  21  39  61  84 111 152 196 235 292 360
#     4  11  23  39  59  87 119 156 202 248 299 358
#
# _framework density 20.98141
#
# number of rings (size 3 to 8) (size 9 to 14) (size 15 to 20)
#    0.000    2.125    1.250    1.875    1.750    2.750 
#    4.500    4.375    0.000    1.500    0.000    1.750 
#    0.000    0.000    0.000    0.000    0.000    0.000 
#
# Total GULP energy -357459.894172 kJ/mol
# GULP energy per Si atom -5585.310846 kJ/mol
# Density = 2.093366 g / cm^3
# Si number density = 20.981410 Si / 1000 Ang^3
#
#
#
# Elastic Constant Matrix: (Units=GPa)
#
#
# Indices 1 2 3 4 5 6 
#
# 1 88.2116 26.2279 16.2752 0.0000 0.0000 0.0000
# 2 26.2279 88.1259 11.2172 0.0000 0.0000 0.0000
# 3 16.2752 11.2172 30.4630 0.0000 0.0000 0.0000
# 4 0.0000 0.0000 0.0000 15.5990 0.0000 0.0000
# 5 0.0000 0.0000 0.0000 0.0000 13.8713 0.0000
# 6 0.0000 0.0000 0.0000 0.0000 0.0000 28.6263
#
#
#
# Elastic Compliance Matrix: (Units=1/GPa)
#
#
# Indices 1 2 3 4 5 6 
#
# 1 0.013397 -0.003227 -0.005969 0.000000 0.000000 0.000000
# 2 -0.003227 0.012683 -0.002946 0.000000 0.000000 0.000000
# 3 -0.005969 -0.002946 0.037101 0.000000 0.000000 0.000000
# 4 0.000000 0.000000 0.000000 0.064107 0.000000 0.000000
# 5 0.000000 0.000000 0.000000 0.000000 0.072091 0.000000
# 6 0.000000 0.000000 0.000000 0.000000 0.000000 0.034933
#
#
# Mechanical properties :
#
#
# Convention : Reuss Voigt Hill
#
# Bulk Modulus (GPa) = 25.70978 34.91567 30.31272
# Shear Modulus (GPa) = 18.41198 21.82466 20.11832
#
# Velocity S-wave (km/s) = 2.96554 3.22870 3.09991
# Velocity P-wave (km/s) = 4.89960 5.52962 5.22412
#
# Compressibility (1/GPa) = 0.03889571
#
# Stress axis : x y z
#
# Youngs Moduli (GPa) = 74.64170 78.84613 26.95376
#
# Poissons Ratio (x) = 0.25448 0.16089
# Poissons Ratio (y) = 0.24091 0.07940
# Poissons Ratio (z) = 0.44555 0.23227
#
# Static dielectric constant tensor:
#      x y z
#    x 1.765310 0.000000 0.000000 
#    y 0.000000 1.743510 0.000000 
#    z 0.000000 0.000000 1.764900 
# 
# From -- ./inp_files/8733.got.cif
#   From: 2010.05.17/outbox.cif.g08.bks.cpg/sg51_5_cif.got.tgz:8733.got - 2010.06.03 11:52:47.
