data_PCOD9401172
_publ_section_title
;
Structure prediction by ZEFSAII (Michael W. Deem and Ramdas Pophale) SiO2 
 PCOD9401172
Probable space group: P M M A
;
_chemical_formula_sum "Si O2"
_cell_formula_units_Z 40
_cell_length_a 16.278531
_cell_length_b 7.479079
_cell_length_c 14.747034
_cell_angle_alpha 90.000000
_cell_angle_beta 90.000000
_cell_angle_gamma 90.000000
_cell_volume 1795.428080
_symmetry_space_group_name_H-M "P M M A"
_symmetry_group_IT_number 51
_symmetry_cell_setting 'orthorhombic'
loop_
_space_group_symop_operation_xyz
x,y,z
1/2-x,-y,z
1/2+x,-y,-z
-x,y,-z
-x,-y,-z
1/2+x,y,-z
1/2-x,y,z
x,-y,z
loop_
_atom_site_type_symbol
_atom_site_label
_atom_site_fract_x
_atom_site_fract_y
_atom_site_fract_z
Si Si1 0.344884 0.289693 0.615864
Si Si2 0.655112 0.785148 0.585800
Si Si3 0.409927 0.219551 0.223029
Si Si4 0.912976 0.796209 0.195912
Si Si5 0.250000 0.782401 0.111173
Si Si6 0.250000 0.780530 0.901687
O O1 0.250000 0.223606 0.617536
O O2 0.343824 0.500000 0.634682
O O3 0.376585 0.263031 0.513864
O O4 0.394882 0.201700 0.696546
O O5 0.750000 0.721108 0.592707
O O6 0.604793 0.723189 0.673000
O O7 0.657703 0.000000 0.590031
O O8 0.496863 0.284112 0.184712
O O9 0.331714 0.274542 0.163997
O O10 0.412075 0.000000 0.223087
O O11 0.832676 0.716913 0.148220
O O12 0.918297 0.000000 0.161941
O O13 0.250000 0.000000 0.113086
O O14 0.250000 0.729264 0.006565
O O15 0.250000 0.000000 0.895514
#
# Coordination Sequence:
#
# PCOD9401172 Si02
#       6
#     8   8   8   8   4   4
#     4  10  20  33  50  73 100 135 171 206 248 294
#     4   9  16  29  50  73  97 131 170 208 246 290
#     4   9  17  29  49  75 104 134 166 204 250 298
#     4  10  19  32  50  76 105 134 167 204 247 298
#     4   9  16  30  49  75 106 130 161 211 258 295
#     4   9  18  30  48  73 104 134 163 205 256 297
#
# _framework density 22.278808999999999
#
# number of rings (size 3 to 8) (size 9 to 14) (size 15 to 20)
#    0.000    2.600    2.000    0.600    0.000    2.400 
#    0.000    9.000    0.000    0.000    0.000    7.000 
#    0.000    0.000    0.000    0.000    0.000    0.000 
#
# Total GULP energy -223391.838190 kJ/mol
# GULP energy per Si atom -5584.795955 kJ/mol
# Density = 2.222810 g / cm^3
# Si number density = 22.278809 Si / 1000 Ang^3
#
#
#
# Elastic Constant Matrix: (Units=GPa)
#
#
# Indices 1 2 3 4 5 6 
#
# 1 180.3405 1.8056 83.2823 0.0000 0.0000 0.0000
# 2 1.8056 65.5682 -6.7953 0.0000 0.0000 0.0000
# 3 83.2823 -6.7953 127.8207 0.0000 0.0000 0.0000
# 4 0.0000 0.0000 0.0000 -55.3839 0.0000 0.0000
# 5 0.0000 0.0000 0.0000 0.0000 -4.2762 0.0000
# 6 0.0000 0.0000 0.0000 0.0000 0.0000 -5.9503
#
#
#
# Elastic Compliance Matrix: (Units=1/GPa)
#
#
# Indices 1 2 3 4 5 6 
#
# 1 0.007969 -0.000762 -0.005233 0.000000 0.000000 0.000000
# 2 -0.000762 0.015409 0.001315 0.000000 0.000000 0.000000
# 3 -0.005233 0.001315 0.011303 0.000000 0.000000 0.000000
# 4 0.000000 0.000000 0.000000 -0.018056 0.000000 0.000000
# 5 0.000000 0.000000 0.000000 0.000000 -0.233851 0.000000
# 6 0.000000 0.000000 0.000000 0.000000 0.000000 -0.168060
#
#
# Mechanical properties :
#
#
# Convention : Reuss Voigt Hill
#
# Bulk Modulus (GPa) = 39.49071 58.92385 49.20728
# Shear Modulus (GPa) = -13.60594 6.57370 -3.51612
#
# Velocity S-wave (km/s) = -2.47394 1.71961 -1.25764
# Velocity P-wave (km/s) = 3.09898 5.51802 4.47505
#
# Compressibility (1/GPa) = 0.02532241
#
# Stress axis : x y z
#
# Youngs Moduli (GPa) = 125.48157 64.89883 88.47246
#
# Poissons Ratio (x) = 0.04944 0.46297
# Poissons Ratio (y) = 0.09559 -0.11639
# Poissons Ratio (z) = 0.65664 -0.08537
#
# Static dielectric constant tensor:
#      x y z
#    x 1.822730 0.000000 0.000000 
#    y 0.000000 1.840980 0.000000 
#    z 0.000000 0.000000 1.773670 
# 
# From -- ./inp_files/23742.got.cif
#   From: 2010.05.17/outbox.cif.g08.bks.cpg/sg51_12_cif.got.tgz:23742.got - 2010.06.03 11:52:47.
