data_PCOD9401352
_publ_section_title
;
Structure prediction by ZEFSAII (Michael W. Deem and Ramdas Pophale) SiO2 
 PCOD9401352
Probable space group: P M M A
;
_chemical_formula_sum "Si O2"
_cell_formula_units_Z 64
_cell_length_a 24.634050
_cell_length_b 8.847187
_cell_length_c 16.312683
_cell_angle_alpha 90.000000
_cell_angle_beta 90.000000
_cell_angle_gamma 90.000000
_cell_volume 3555.219524
_symmetry_space_group_name_H-M "P M M A"
_symmetry_group_IT_number 51
_symmetry_cell_setting 'orthorhombic'
loop_
_space_group_symop_operation_xyz
x,y,z
1/2-x,-y,z
1/2+x,-y,-z
-x,y,-z
-x,-y,-z
1/2+x,y,-z
1/2-x,y,z
x,-y,z
loop_
_atom_site_type_symbol
_atom_site_label
_atom_site_fract_x
_atom_site_fract_y
_atom_site_fract_z
Si Si1 0.188254 0.679783 0.468989
Si Si2 0.383500 0.822523 0.606604
Si Si3 0.976562 0.818192 0.271993
Si Si4 0.186578 0.326594 0.741774
Si Si5 0.916802 0.679818 0.790882
Si Si6 0.561417 0.822428 0.967188
Si Si7 0.311786 0.180557 0.288469
Si Si8 0.903072 0.323853 0.128407
O O1 0.250000 0.712014 0.501456
O O2 0.184707 0.500000 0.457264
O O3 0.141243 0.734719 0.529751
O O4 0.183326 0.762527 0.382036
O O5 0.441106 0.776269 0.647532
O O6 0.340881 0.788343 0.679285
O O7 0.385916 0.000000 0.587954
O O8 0.944533 0.753935 0.192590
O O9 0.036704 0.751692 0.267138
O O10 0.977956 0.000000 0.266610
O O11 0.250000 0.302004 0.749926
O O12 0.177753 0.500000 0.710782
O O13 0.154890 0.315927 0.827067
O O14 0.919383 0.500000 0.785905
O O15 0.929604 0.734848 0.882939
O O16 0.858117 0.739661 0.764009
O O17 0.571144 0.000000 0.953409
O O18 0.500000 0.804144 0.000000
O O19 0.596734 0.757799 0.041607
O O20 0.250000 0.216345 0.261633
O O21 0.318782 0.000000 0.285480
O O22 0.918466 0.500000 0.118909
#
# Coordination Sequence:
#
# PCOD9401352 Si02
#       8
#     8   8   8   8   8   8   8   8
#     4  10  20  35  57  84 114 148 189 236 281 327
#     4  10  20  32  51  80 113 148 189 233 276 324
#     4  10  20  35  53  78 114 151 185 227 278 333
#     4   9  18  32  49  72 107 148 184 222 273 329
#     4  12  24  38  61  88 114 145 184 231 281 336
#     4  11  22  36  57  82 111 145 184 230 277 330
#     4  10  22  42  66  88 113 146 184 228 279 334
#     4  10  19  32  52  78 107 141 184 231 277 327
#
# _framework density 18.001702000000002
#
# number of rings (size 3 to 8) (size 9 to 14) (size 15 to 20)
#    0.000    1.750    1.250    3.750    0.000    5.750 
#    0.000    1.250    0.000    6.000    0.000    0.000 
#    0.000    0.000    0.000    0.000    0.000    0.000 
#
# Total GULP energy -357316.593350 kJ/mol
# GULP energy per Si atom -5583.071771 kJ/mol
# Density = 1.796073 g / cm^3
# Si number density = 18.001702 Si / 1000 Ang^3
#
#
#
# Elastic Constant Matrix: (Units=GPa)
#
#
# Indices 1 2 3 4 5 6 
#
# 1 97.7418 50.7218 33.5063 0.0000 0.0000 0.0000
# 2 50.7218 82.9508 31.8406 0.0000 0.0000 0.0000
# 3 33.5063 31.8406 50.1874 0.0000 0.0000 0.0000
# 4 0.0000 0.0000 0.0000 42.6659 0.0000 0.0000
# 5 0.0000 0.0000 0.0000 0.0000 19.8607 0.0000
# 6 0.0000 0.0000 0.0000 0.0000 0.0000 26.2713
#
#
#
# Elastic Compliance Matrix: (Units=1/GPa)
#
#
# Indices 1 2 3 4 5 6 
#
# 1 0.016250 -0.007630 -0.006008 0.000000 0.000000 0.000000
# 2 -0.007630 0.019519 -0.007289 0.000000 0.000000 0.000000
# 3 -0.006008 -0.007289 0.028561 0.000000 0.000000 0.000000
# 4 0.000000 0.000000 0.000000 0.023438 0.000000 0.000000
# 5 0.000000 0.000000 0.000000 0.000000 0.050351 0.000000
# 6 0.000000 0.000000 0.000000 0.000000 0.000000 0.038064
#
#
# Mechanical properties :
#
#
# Convention : Reuss Voigt Hill
#
# Bulk Modulus (GPa) = 44.49430 51.44639 47.97034
# Shear Modulus (GPa) = 22.16993 25.41367 23.79180
#
# Velocity S-wave (km/s) = 3.51315 3.76139 3.63938
# Velocity P-wave (km/s) = 6.42080 6.89236 6.66076
#
# Compressibility (1/GPa) = 0.02247479
#
# Stress axis : x y z
#
# Youngs Moduli (GPa) = 61.53731 51.23204 35.01262
#
# Poissons Ratio (x) = 0.39092 0.21036
# Poissons Ratio (y) = 0.46955 0.25522
# Poissons Ratio (z) = 0.36973 0.37345
#
# Static dielectric constant tensor:
#      x y z
#    x 1.623510 0.000000 0.000000 
#    y 0.000000 1.608530 0.000000 
#    z 0.000000 0.000000 1.599650 
# 
# From -- ./inp_files/26267.got.cif
#   From: 2010.05.17/outbox.cif.g08.bks.cpg/sg51_14_cif.got.tgz:26267.got - 2010.06.03 11:52:47.
