data_PCOD9401159
_publ_section_title
;
Structure prediction by ZEFSAII (Michael W. Deem and Ramdas Pophale) SiO2 
 PCOD9401159
Probable space group: P M M A
;
_chemical_formula_sum "Si O2"
_cell_formula_units_Z 44
_cell_length_a 8.153827
_cell_length_b 30.042099
_cell_length_c 9.383717
_cell_angle_alpha 90.000000
_cell_angle_beta 90.000000
_cell_angle_gamma 90.000000
_cell_volume 2298.617280
_symmetry_space_group_name_H-M "P M M A"
_symmetry_group_IT_number 51
_symmetry_cell_setting 'orthorhombic'
loop_
_space_group_symop_operation_xyz
x,y,z
1/2-x,-y,z
1/2+x,-y,-z
-x,y,-z
-x,-y,-z
1/2+x,y,-z
1/2-x,y,z
x,-y,z
loop_
_atom_site_type_symbol
_atom_site_label
_atom_site_fract_x
_atom_site_fract_y
_atom_site_fract_z
Si Si1 0.051580 0.500000 0.833363
Si Si2 0.054796 0.221057 0.337071
Si Si3 0.051550 0.135239 0.163137
Si Si4 0.948066 0.595644 0.165966
Si Si5 0.948060 0.950088 0.662736
Si Si6 0.553703 0.692685 0.164727
O O1 0.250000 0.500000 0.827620
O O2 0.993999 0.547866 0.772949
O O3 0.000000 0.500000 0.000000
O O4 0.250000 0.218450 0.334553
O O5 0.990421 0.177959 0.251655
O O6 0.000000 0.220591 0.500000
O O7 0.005000 0.266295 0.258235
O O8 0.250000 0.135180 0.168893
O O9 0.992883 0.089426 0.235819
O O10 0.000000 0.138334 0.000000
O O11 0.750000 0.595505 0.173459
O O12 0.005549 0.643953 0.219896
O O13 0.000000 0.595489 0.000000
O O14 0.750000 0.950368 0.667294
O O15 0.000000 0.941466 0.500000
O O16 0.005603 0.000000 0.701668
O O17 0.750000 0.692319 0.166652
O O18 0.500000 0.697890 0.000000
#
# Coordination Sequence:
#
# PCOD9401159 Si02
#       6
#     4   8   8   8   8   8
#     4   8  12  20  34  56  87 122 157 192 234 284
#     4  11  23  38  55  75  99 130 168 210 256 306
#     4  10  22  37  54  78 106 135 168 207 251 298
#     4   8  14  23  38  61  91 125 159 196 239 287
#     4   9  18  34  55  79 107 138 172 209 248 292
#     4  10  19  32  50  74 103 134 168 207 251 298
#
# _framework density 19.141942
#
# number of rings (size 3 to 8) (size 9 to 14) (size 15 to 20)
#    0.000    2.545    0.000    2.182    0.000    4.727 
#    0.000    0.000    0.000    0.000    0.000    0.636 
#    0.000    0.000    0.000    0.000    0.000    0.000 
#
# Total GULP energy -245225.358884 kJ/mol
# GULP energy per Si atom -5573.303611 kJ/mol
# Density = 1.909837 g / cm^3
# Si number density = 19.141942 Si / 1000 Ang^3
#
#
#
# Elastic Constant Matrix: (Units=GPa)
#
#
# Indices 1 2 3 4 5 6 
#
# 1 17.7745 21.5364 8.8631 0.0000 0.0000 0.0000
# 2 21.5364 237.1176 109.9457 0.0000 0.0000 0.0000
# 3 8.8631 109.9457 100.2086 0.0000 0.0000 0.0000
# 4 0.0000 0.0000 0.0000 -14.9682 0.0000 0.0000
# 5 0.0000 0.0000 0.0000 0.0000 26.6807 0.0000
# 6 0.0000 0.0000 0.0000 0.0000 0.0000 17.9932
#
#
#
# Elastic Compliance Matrix: (Units=1/GPa)
#
#
# Indices 1 2 3 4 5 6 
#
# 1 0.063320 -0.006421 0.001444 0.000000 0.000000 0.000000
# 2 -0.006421 0.009236 -0.009565 0.000000 0.000000 0.000000
# 3 0.001444 -0.009565 0.020346 0.000000 0.000000 0.000000
# 4 0.000000 0.000000 0.000000 -0.066808 0.000000 0.000000
# 5 0.000000 0.000000 0.000000 0.000000 0.037480 0.000000
# 6 0.000000 0.000000 0.000000 0.000000 0.000000 0.055577
#
#
# Mechanical properties :
#
#
# Convention : Reuss Voigt Hill
#
# Bulk Modulus (GPa) = 15.66949 70.64344 43.15646
# Shear Modulus (GPa) = 29.49742 20.25816 24.87779
#
# Velocity S-wave (km/s) = 3.92980 3.25670 3.60897
# Velocity P-wave (km/s) = 5.36608 7.15029 6.32145
#
# Compressibility (1/GPa) = 0.06381830
#
# Stress axis : x y z
#
# Youngs Moduli (GPa) = 15.79281 108.27665 49.14971
#
# Poissons Ratio (x) = 0.69521 -0.07098
# Poissons Ratio (y) = 0.10140 0.47012
# Poissons Ratio (z) = -0.02281 1.03568
#
# Static dielectric constant tensor:
#      x y z
#    x 1.691770 0.000000 0.000000 
#    y 0.000000 1.746800 0.000000 
#    z 0.000000 0.000000 1.603730 
# 
# From -- ./inp_files/5896.got.cif
#   From: 2010.05.17/outbox.cif.g08.bks.cpg/sg51_3_cif.got.tgz:5896.got - 2010.06.03 11:52:47.
