data_PCOD9401589
_publ_section_title
;
Structure prediction by ZEFSAII (Michael W. Deem and Ramdas Pophale) SiO2 
 PCOD9401589
Probable space group: P M M A
;
_chemical_formula_sum "Si O2"
_cell_formula_units_Z 56
_cell_length_a 9.480353
_cell_length_b 17.342179
_cell_length_c 20.121384
_cell_angle_alpha 90.000000
_cell_angle_beta 90.000000
_cell_angle_gamma 90.000000
_cell_volume 3308.156315
_symmetry_space_group_name_H-M "P M M A"
_symmetry_group_IT_number 51
_symmetry_cell_setting 'orthorhombic'
loop_
_space_group_symop_operation_xyz
x,y,z
1/2-x,-y,z
1/2+x,-y,-z
-x,y,-z
-x,-y,-z
1/2+x,y,-z
1/2-x,y,z
x,-y,z
loop_
_atom_site_type_symbol
_atom_site_label
_atom_site_fract_x
_atom_site_fract_y
_atom_site_fract_z
Si Si1 0.088422 0.690931 0.436922
Si Si2 0.597837 0.500000 0.236174
Si Si3 0.919321 0.326861 0.934025
Si Si4 0.079181 0.086187 0.283810
Si Si5 0.911006 0.338816 0.307358
Si Si6 0.581555 0.500000 0.890833
Si Si7 0.412402 0.122582 0.434972
Si Si8 0.419417 0.237453 0.202735
O O1 0.250000 0.664555 0.437672
O O2 0.090136 0.784319 0.437161
O O3 0.000000 0.664115 0.500000
O O4 0.004586 0.666400 0.372332
O O5 0.750000 0.500000 0.199289
O O6 0.593348 0.574729 0.281143
O O7 0.472756 0.500000 0.184141
O O8 0.750000 0.327204 0.943833
O O9 0.947925 0.269887 0.871480
O O10 0.964229 0.416514 0.919902
O O11 0.000000 0.301188 0.000000
O O12 0.250000 0.087370 0.287590
O O13 0.032625 0.102208 0.360568
O O14 0.044026 0.151035 0.228734
O O15 0.033510 0.000000 0.265084
O O16 0.750000 0.311849 0.318782
O O17 0.989654 0.290032 0.251390
O O18 0.250000 0.500000 0.106059
O O19 0.500000 0.096582 0.500000
O O20 0.250000 0.095472 0.440248
O O21 0.250000 0.247414 0.213361
#
# Coordination Sequence:
#
# PCOD9401589 Si02
#       8
#     8   4   8   8   8   4   8   8
#     4  10  19  33  52  75 102 135 177 226 269 315
#     4  10  22  35  50  77 109 139 173 217 262 309
#     4  10  21  34  53  79 109 141 174 211 256 311
#     4   9  17  31  52  77 104 135 174 219 263 308
#     4  11  21  34  53  77 104 138 177 219 264 312
#     4  10  19  33  53  79 109 141 172 209 256 307
#     4   9  17  29  47  72 102 135 168 208 256 308
#     4  10  19  35  56  78 103 137 178 217 257 309
#
# _framework density 16.927858000000001
#
# number of rings (size 3 to 8) (size 9 to 14) (size 15 to 20)
#    0.000    2.143    2.857    1.071    0.000    2.571 
#    0.000    0.357    0.000    1.714    0.000    0.000 
#    0.000    0.000    0.000    0.000    0.000    0.000 
#
# Total GULP energy -311920.687985 kJ/mol
# GULP energy per Si atom -5570.012285 kJ/mol
# Density = 1.688933 g / cm^3
# Si number density = 16.927858 Si / 1000 Ang^3
#
#
#
# Elastic Constant Matrix: (Units=GPa)
#
#
# Indices 1 2 3 4 5 6 
#
# 1 51.5884 23.6381 59.0453 0.0000 0.0000 0.0000
# 2 23.6381 84.4196 50.8165 0.0000 0.0000 0.0000
# 3 59.0453 50.8165 140.0986 0.0000 0.0000 0.0000
# 4 0.0000 0.0000 0.0000 16.8954 0.0000 0.0000
# 5 0.0000 0.0000 0.0000 0.0000 32.0782 0.0000
# 6 0.0000 0.0000 0.0000 0.0000 0.0000 -78.1379
#
#
#
# Elastic Compliance Matrix: (Units=1/GPa)
#
#
# Indices 1 2 3 4 5 6 
#
# 1 0.037554 -0.001264 -0.015369 0.000000 0.000000 0.000000
# 2 -0.001264 0.015197 -0.004979 0.000000 0.000000 0.000000
# 3 -0.015369 -0.004979 0.015421 0.000000 0.000000 0.000000
# 4 0.000000 0.000000 0.000000 0.059188 0.000000 0.000000
# 5 0.000000 0.000000 0.000000 0.000000 0.031174 0.000000
# 6 0.000000 0.000000 0.000000 0.000000 0.000000 -0.012798
#
#
# Mechanical properties :
#
#
# Convention : Reuss Voigt Hill
#
# Bulk Modulus (GPa) = 40.08453 60.34516 50.21485
# Shear Modulus (GPa) = 25.34525 3.67423 14.50974
#
# Velocity S-wave (km/s) = 3.87363 1.47487 2.93089
# Velocity P-wave (km/s) = 6.61345 6.21499 6.41731
#
# Compressibility (1/GPa) = 0.02494728
#
# Stress axis : x y z
#
# Youngs Moduli (GPa) = 26.62863 65.80271 64.84586
#
# Poissons Ratio (x) = 0.08318 0.99659
# Poissons Ratio (y) = 0.03366 0.32290
# Poissons Ratio (z) = 0.40925 0.32766
#
# Static dielectric constant tensor:
#      x y z
#    x 1.585100 0.000000 0.000000 
#    y 0.000000 1.586740 0.000000 
#    z 0.000000 0.000000 1.583490 
# 
# From -- ./inp_files/32131.got.cif
#   From: 2010.05.17/outbox.cif.g08.bks.cpg/sg51_17_cif.got.tgz:32131.got - 2010.06.03 11:52:47.
