data_PCOD9401973
_publ_section_title
;
Structure prediction by ZEFSAII (Michael W. Deem and Ramdas Pophale) SiO2 
 PCOD9401973
Probable space group: P M M A
;
_chemical_formula_sum "Si O2"
_cell_formula_units_Z 64
_cell_length_a 18.868900
_cell_length_b 14.732166
_cell_length_c 12.347132
_cell_angle_alpha 90.000000
_cell_angle_beta 90.000000
_cell_angle_gamma 90.000000
_cell_volume 3432.252877
_symmetry_space_group_name_H-M "P M M A"
_symmetry_group_IT_number 51
_symmetry_cell_setting 'orthorhombic'
loop_
_space_group_symop_operation_xyz
x,y,z
1/2-x,-y,z
1/2+x,-y,-z
-x,y,-z
-x,-y,-z
1/2+x,y,-z
1/2-x,y,z
x,-y,z
loop_
_atom_site_type_symbol
_atom_site_label
_atom_site_fract_x
_atom_site_fract_y
_atom_site_fract_z
Si Si1 0.528106 0.600107 0.875864
Si Si2 0.668451 0.893498 0.783569
Si Si3 0.382553 0.600965 0.742868
Si Si4 0.076952 0.786654 0.052757
Si Si5 0.836430 0.104337 0.364398
Si Si6 0.083903 0.397555 0.490584
Si Si7 0.166304 0.226541 0.430734
Si Si8 0.169320 0.218403 0.838909
O O1 0.560258 0.500000 0.852972
O O2 0.460997 0.611363 0.795888
O O3 0.573297 0.692137 0.879160
O O4 0.500000 0.596245 0.000000
O O5 0.750000 0.877258 0.822043
O O6 0.610813 0.862176 0.870624
O O7 0.658745 0.835486 0.674753
O O8 0.662270 0.000000 0.759575
O O9 0.357692 0.500000 0.774038
O O10 0.387357 0.605686 0.613531
O O11 0.335492 0.682314 0.785795
O O12 0.126889 0.777061 0.949159
O O13 0.000000 0.805354 0.000000
O O14 0.750000 0.104754 0.363743
O O15 0.857598 0.168167 0.464506
O O16 0.860238 0.148723 0.251185
O O17 0.859187 0.000000 0.376549
O O18 0.094784 0.500000 0.447875
O O19 0.122117 0.318899 0.424661
O O20 0.000000 0.382169 0.500000
O O21 0.250000 0.247512 0.444440
O O22 0.250000 0.192672 0.860737
#
# Coordination Sequence:
#
# PCOD9401973 Si02
#       8
#     8   8   8   8   8   8   8   8
#     4   9  17  32  55  79 106 146 191 226 272 336
#     4  10  23  43  64  85 112 152 200 247 299 357
#     4  10  19  34  54  80 114 153 191 229 285 347
#     4  11  22  37  61  86 115 155 196 245 294 343
#     4   9  18  34  57  82 107 141 183 229 287 348
#     4  10  22  36  56  86 121 158 191 227 281 347
#     4  10  20  37  63  87 113 149 195 244 286 339
#     4  11  21  34  54  85 119 149 187 236 292 351
#
# _framework density 18.646644999999999
#
# number of rings (size 3 to 8) (size 9 to 14) (size 15 to 20)
#    0.000    2.000    3.750    0.750    1.750    2.750 
#    0.000    2.500    0.000    2.625    0.000    0.000 
#    0.000    0.000    0.000    0.000    0.000    0.000 
#
# Total GULP energy -356985.593351 kJ/mol
# GULP energy per Si atom -5577.899896 kJ/mol
# Density = 1.860420 g / cm^3
# Si number density = 18.646645 Si / 1000 Ang^3
#
#
#
# Elastic Constant Matrix: (Units=GPa)
#
#
# Indices 1 2 3 4 5 6 
#
# 1 55.4580 49.3503 25.4840 0.0000 0.0000 0.0000
# 2 49.3503 138.5788 29.4925 0.0000 0.0000 0.0000
# 3 25.4840 29.4925 37.3446 0.0000 0.0000 0.0000
# 4 0.0000 0.0000 0.0000 27.0026 0.0000 0.0000
# 5 0.0000 0.0000 0.0000 0.0000 11.9257 0.0000
# 6 0.0000 0.0000 0.0000 0.0000 0.0000 29.5876
#
#
#
# Elastic Compliance Matrix: (Units=1/GPa)
#
#
# Indices 1 2 3 4 5 6 
#
# 1 0.032616 -0.008268 -0.015728 0.000000 0.000000 0.000000
# 2 -0.008268 0.010770 -0.002863 0.000000 0.000000 0.000000
# 3 -0.015728 -0.002863 0.039772 0.000000 0.000000 0.000000
# 4 0.000000 0.000000 0.000000 0.037033 0.000000 0.000000
# 5 0.000000 0.000000 0.000000 0.000000 0.083852 0.000000
# 6 0.000000 0.000000 0.000000 0.000000 0.000000 0.033798
#
#
# Mechanical properties :
#
#
# Convention : Reuss Voigt Hill
#
# Bulk Modulus (GPa) = 33.96799 48.89277 41.43038
# Shear Modulus (GPa) = 16.59072 22.17350 19.38211
#
# Velocity S-wave (km/s) = 2.98609 3.45213 3.22754
# Velocity P-wave (km/s) = 5.49047 6.49363 6.01301
#
# Compressibility (1/GPa) = 0.02943948
#
# Stress axis : x y z
#
# Youngs Moduli (GPa) = 30.65939 92.85175 25.14354
#
# Poissons Ratio (x) = 0.76770 0.39546
# Poissons Ratio (y) = 0.25349 0.07199
# Poissons Ratio (z) = 0.48221 0.26586
#
# Static dielectric constant tensor:
#      x y z
#    x 1.630800 0.000000 0.000000 
#    y 0.000000 1.659600 0.000000 
#    z 0.000000 0.000000 1.637310 
# 
# From -- ./inp_files/17609.got.cif
#   From: 2010.05.17/outbox.cif.g08.bks.cpg/sg51_9_cif.got.tgz:17609.got - 2010.06.03 11:52:47.
