data_PCOD9401869
_publ_section_title
;
Structure prediction by ZEFSAII (Michael W. Deem and Ramdas Pophale) SiO2 
 PCOD9401869
Probable space group: P M M A
;
_chemical_formula_sum "Si O2"
_cell_formula_units_Z 64
_cell_length_a 18.181704
_cell_length_b 8.799941
_cell_length_c 22.104674
_cell_angle_alpha 90.000000
_cell_angle_beta 90.000000
_cell_angle_gamma 90.000000
_cell_volume 3536.701917
_symmetry_space_group_name_H-M "P M M A"
_symmetry_group_IT_number 51
_symmetry_cell_setting 'orthorhombic'
loop_
_space_group_symop_operation_xyz
x,y,z
1/2-x,-y,z
1/2+x,-y,-z
-x,y,-z
-x,-y,-z
1/2+x,y,-z
1/2-x,y,z
x,-y,z
loop_
_atom_site_type_symbol
_atom_site_label
_atom_site_fract_x
_atom_site_fract_y
_atom_site_fract_z
Si Si1 0.832111 0.817726 0.875701
Si Si2 0.423248 0.681907 0.610350
Si Si3 0.975444 0.316975 0.933970
Si Si4 0.335573 0.181773 0.498559
Si Si5 0.449878 0.317521 0.809992
Si Si6 0.096543 0.318076 0.378697
Si Si7 0.094731 0.181643 0.250651
Si Si8 0.664151 0.182134 0.275778
O O1 0.750000 0.765549 0.890434
O O2 0.895655 0.743905 0.915546
O O3 0.851264 0.785849 0.805472
O O4 0.835587 0.000000 0.882793
O O5 0.416759 0.500000 0.613206
O O6 0.386975 0.742944 0.549058
O O7 0.509800 0.719750 0.613213
O O8 0.379768 0.753539 0.666623
O O9 0.972926 0.500000 0.934907
O O10 0.030262 0.274047 0.878993
O O11 0.000000 0.262891 0.000000
O O12 0.250000 0.217269 0.511077
O O13 0.358588 0.244008 0.433184
O O14 0.344319 0.000000 0.500410
O O15 0.448899 0.500000 0.805121
O O16 0.516638 0.253188 0.769167
O O17 0.375464 0.248970 0.783417
O O18 0.104149 0.500000 0.380207
O O19 0.119355 0.253492 0.313584
O O20 0.087053 0.000000 0.256690
O O21 0.750000 0.223824 0.279204
O O22 0.658454 0.000000 0.275651
#
# Coordination Sequence:
#
# PCOD9401869 Si02
#       8
#     8   8   8   8   8   8   8   8
#     4   9  19  35  55  83 117 150 188 233 279 330
#     4  11  23  39  60  84 111 143 184 233 283 337
#     4   9  19  36  58  84 114 150 192 234 276 328
#     4  11  25  42  58  79 109 146 189 235 283 336
#     4  10  19  34  56  81 110 144 184 228 275 330
#     4  11  23  38  58  85 113 144 186 232 280 339
#     4  10  19  33  56  82 111 147 183 226 278 330
#     4  11  23  37  56  83 113 146 186 231 281 336
#
# _framework density 18.095956000000001
#
# number of rings (size 3 to 8) (size 9 to 14) (size 15 to 20)
#    0.000    1.750    1.250    3.000    0.000    8.500 
#    0.000    1.875    0.000    3.750    0.000    0.000 
#    0.000    0.000    0.000    0.000    0.000    0.000 
#
# Total GULP energy -357557.645074 kJ/mol
# GULP energy per Si atom -5586.838204 kJ/mol
# Density = 1.805477 g / cm^3
# Si number density = 18.095956 Si / 1000 Ang^3
#
#
#
# Elastic Constant Matrix: (Units=GPa)
#
#
# Indices 1 2 3 4 5 6 
#
# 1 38.0321 12.4510 11.9808 0.0000 0.0000 0.0000
# 2 12.4510 26.0271 11.4897 0.0000 0.0000 0.0000
# 3 11.9808 11.4897 105.8963 0.0000 0.0000 0.0000
# 4 0.0000 0.0000 0.0000 25.8252 0.0000 0.0000
# 5 0.0000 0.0000 0.0000 0.0000 16.0898 0.0000
# 6 0.0000 0.0000 0.0000 0.0000 0.0000 39.6457
#
#
#
# Elastic Compliance Matrix: (Units=1/GPa)
#
#
# Indices 1 2 3 4 5 6 
#
# 1 0.031587 -0.014214 -0.002031 0.000000 0.000000 0.000000
# 2 -0.014214 0.046751 -0.003464 0.000000 0.000000 0.000000
# 3 -0.002031 -0.003464 0.010049 0.000000 0.000000 0.000000
# 4 0.000000 0.000000 0.000000 0.038722 0.000000 0.000000
# 5 0.000000 0.000000 0.000000 0.000000 0.062151 0.000000
# 6 0.000000 0.000000 0.000000 0.000000 0.000000 0.025223
#
#
# Mechanical properties :
#
#
# Convention : Reuss Voigt Hill
#
# Bulk Modulus (GPa) = 20.42190 26.86649 23.64420
# Shear Modulus (GPa) = 18.50312 25.24774 21.87543
#
# Velocity S-wave (km/s) = 3.20112 3.73931 3.48063
# Velocity P-wave (km/s) = 4.99728 5.78983 5.40809
#
# Compressibility (1/GPa) = 0.04896703
#
# Stress axis : x y z
#
# Youngs Moduli (GPa) = 31.65866 21.39006 99.51337
#
# Poissons Ratio (x) = 0.30404 0.20215
# Poissons Ratio (y) = 0.45000 0.34474
# Poissons Ratio (z) = 0.06431 0.07410
#
# Static dielectric constant tensor:
#      x y z
#    x 1.605190 0.000000 0.000000 
#    y 0.000000 1.604610 0.000000 
#    z 0.000000 0.000000 1.611490 
# 
# From -- ./inp_files/33940.got.cif
#   From: 2010.05.17/outbox.cif.g08.bks.cpg/sg51_17_cif.got.tgz:33940.got - 2010.06.03 11:52:47.
