data_PCOD9401580
_publ_section_title
;
Structure prediction by ZEFSAII (Michael W. Deem and Ramdas Pophale) SiO2 
 PCOD9401580
Probable space group: P M M A
;
_chemical_formula_sum "Si O2"
_cell_formula_units_Z 40
_cell_length_a 8.542426
_cell_length_b 27.278431
_cell_length_c 9.484362
_cell_angle_alpha 90.000000
_cell_angle_beta 90.000000
_cell_angle_gamma 90.000000
_cell_volume 2210.083764
_symmetry_space_group_name_H-M "P M M A"
_symmetry_group_IT_number 51
_symmetry_cell_setting 'orthorhombic'
loop_
_space_group_symop_operation_xyz
x,y,z
1/2-x,-y,z
1/2+x,-y,-z
-x,y,-z
-x,-y,-z
1/2+x,y,-z
1/2-x,y,z
x,-y,z
loop_
_atom_site_type_symbol
_atom_site_label
_atom_site_fract_x
_atom_site_fract_y
_atom_site_fract_z
Si Si1 0.062372 0.556424 0.656471
Si Si2 0.936128 0.644217 0.842207
Si Si3 0.438925 0.158145 0.660713
Si Si4 0.061630 0.734388 0.660334
Si Si5 0.560494 0.947223 0.338390
O O1 0.250000 0.559543 0.655615
O O2 0.017473 0.500000 0.688155
O O3 0.000000 0.568046 0.500000
O O4 0.995019 0.594997 0.766044
O O5 0.750000 0.644554 0.843789
O O6 0.996591 0.690620 0.753587
O O7 0.000000 0.646561 0.000000
O O8 0.500000 0.157940 0.500000
O O9 0.250000 0.158052 0.658691
O O10 0.486855 0.211470 0.717824
O O11 0.490128 0.105538 0.724462
O O12 0.250000 0.731878 0.657626
O O13 0.000000 0.730008 0.500000
O O14 0.500000 0.947212 0.500000
O O15 0.750000 0.947253 0.340542
O O16 0.509729 0.000000 0.275896
#
# Coordination Sequence:
#
# PCOD9401580 Si02
#       5
#     8   8   8   8   8
#     4  10  21  39  63  89 115 143 175 209 246 291
#     4  12  25  40  57  78 106 138 173 213 259 307
#     4   8  14  23  37  58  85 119 158 200 243 290
#     4  10  19  33  52  74 101 134 174 215 256 303
#     4   8  12  18  29  48  77 113 151 190 235 287
#
# _framework density 18.098860999999999
#
# number of rings (size 3 to 8) (size 9 to 14) (size 15 to 20)
#    0.000    2.400    0.000    3.600    0.000    2.400 
#    0.000    0.000    0.000    0.000    0.000    0.000 
#    0.000    0.800    0.000    1.400    0.000   10.000 
#
# Total GULP energy -222815.370218 kJ/mol
# GULP energy per Si atom -5570.384255 kJ/mol
# Density = 1.805767 g / cm^3
# Si number density = 18.098861 Si / 1000 Ang^3
#
#
#
# Elastic Constant Matrix: (Units=GPa)
#
#
# Indices 1 2 3 4 5 6 
#
# 1 58.3257 48.0224 27.2739 0.0000 0.0000 0.0000
# 2 48.0224 183.1084 86.7558 0.0000 0.0000 0.0000
# 3 27.2739 86.7558 68.6355 0.0000 0.0000 0.0000
# 4 0.0000 0.0000 0.0000 -5.6174 0.0000 0.0000
# 5 0.0000 0.0000 0.0000 0.0000 22.8946 0.0000
# 6 0.0000 0.0000 0.0000 0.0000 0.0000 11.2809
#
#
#
# Elastic Compliance Matrix: (Units=1/GPa)
#
#
# Indices 1 2 3 4 5 6 
#
# 1 0.022228 -0.004100 -0.003650 0.000000 0.000000 0.000000
# 2 -0.004100 0.014371 -0.016536 0.000000 0.000000 0.000000
# 3 -0.003650 -0.016536 0.036922 0.000000 0.000000 0.000000
# 4 0.000000 0.000000 0.000000 -0.178018 0.000000 0.000000
# 5 0.000000 0.000000 0.000000 0.000000 0.043678 0.000000
# 6 0.000000 0.000000 0.000000 0.000000 0.000000 0.088645
#
#
# Mechanical properties :
#
#
# Convention : Reuss Voigt Hill
#
# Bulk Modulus (GPa) = 40.08304 70.46378 55.27341
# Shear Modulus (GPa) = 59.02130 15.57946 37.30038
#
# Velocity S-wave (km/s) = 5.71676 2.93712 4.54467
# Velocity P-wave (km/s) = 8.10986 7.10770 7.62526
#
# Compressibility (1/GPa) = 0.02494821
#
# Stress axis : x y z
#
# Youngs Moduli (GPa) = 44.98881 69.58319 27.08407
#
# Poissons Ratio (x) = 0.28529 0.09886
# Poissons Ratio (y) = 0.18446 0.44787
# Poissons Ratio (z) = 0.16422 1.15064
#
# Static dielectric constant tensor:
#      x y z
#    x 1.605430 0.000000 0.000000 
#    y 0.000000 1.706050 0.000000 
#    z 0.000000 0.000000 1.557310 
# 
# From -- ./inp_files/5493.got.cif
#   From: 2010.05.17/outbox.cif.g08.bks.cpg/sg51_3_cif.got.tgz:5493.got - 2010.06.03 11:52:47.
