data_PCOD9401828
_publ_section_title
;
Structure prediction by ZEFSAII (Michael W. Deem and Ramdas Pophale) SiO2 
 PCOD9401828
Probable space group: P M M A
;
_chemical_formula_sum "Si O2"
_cell_formula_units_Z 48
_cell_length_a 28.440525
_cell_length_b 7.524667
_cell_length_c 10.009983
_cell_angle_alpha 90.000000
_cell_angle_beta 90.000000
_cell_angle_gamma 90.000000
_cell_volume 2142.191216
_symmetry_space_group_name_H-M "P M M A"
_symmetry_group_IT_number 51
_symmetry_cell_setting 'orthorhombic'
loop_
_space_group_symop_operation_xyz
x,y,z
1/2-x,-y,z
1/2+x,-y,-z
-x,y,-z
-x,-y,-z
1/2+x,y,-z
1/2-x,y,z
x,-y,z
loop_
_atom_site_type_symbol
_atom_site_label
_atom_site_fract_x
_atom_site_fract_y
_atom_site_fract_z
Si Si1 0.198396 0.714134 0.627379
Si Si2 0.543313 0.297099 0.580720
Si Si3 0.897022 0.284150 0.822347
Si Si4 0.545777 0.208596 0.073616
Si Si5 0.802030 0.716479 0.682837
Si Si6 0.403365 0.208404 0.668091
O O1 0.250000 0.773638 0.675591
O O2 0.198661 0.500000 0.627932
O O3 0.193612 0.772084 0.472211
O O4 0.151442 0.771256 0.702546
O O5 0.500000 0.212820 0.500000
O O6 0.529392 0.500000 0.611587
O O7 0.563313 0.218583 0.717038
O O8 0.585371 0.298117 0.473129
O O9 0.897410 0.500000 0.817780
O O10 0.846239 0.224081 0.769930
O O11 0.911827 0.226503 0.968845
O O12 0.562714 0.281260 0.215877
O O13 0.536245 0.000000 0.096055
O O14 0.500000 0.286996 0.000000
O O15 0.750000 0.770664 0.730195
O O16 0.802865 0.500000 0.682404
O O17 0.412625 0.000000 0.650603
#
# Coordination Sequence:
#
# PCOD9401828 Si02
#       6
#     8   8   8   8   8   8
#     4   9  17  33  58  83 110 144 178 219 272 326
#     4  10  20  34  54  81 110 137 177 234 283 326
#     4  10  19  33  55  82 106 135 178 225 272 317
#     4  10  23  41  55  71 105 151 189 220 265 325
#     4   8  14  28  52  80 108 135 166 212 267 318
#     4  11  22  35  54  80 110 146 184 226 274 324
#
# _framework density 22.406965
#
# number of rings (size 3 to 8) (size 9 to 14) (size 15 to 20)
#    0.000    2.333    1.667    2.500    0.000    3.000 
#    0.000    0.833    0.000    3.500    0.000    0.000 
#    0.000    0.000    0.000    0.000    0.000    0.000 
#
# Total GULP energy -268045.222343 kJ/mol
# GULP energy per Si atom -5584.275465 kJ/mol
# Density = 2.235597 g / cm^3
# Si number density = 22.406965 Si / 1000 Ang^3
#
#
#
# Elastic Constant Matrix: (Units=GPa)
#
#
# Indices 1 2 3 4 5 6 
#
# 1 104.6755 2.9397 -7.5515 0.0000 0.0000 0.0000
# 2 2.9397 64.9026 -0.8410 0.0000 0.0000 0.0000
# 3 -7.5515 -0.8410 57.4688 0.0000 0.0000 0.0000
# 4 0.0000 0.0000 0.0000 12.6337 0.0000 0.0000
# 5 0.0000 0.0000 0.0000 0.0000 32.7531 0.0000
# 6 0.0000 0.0000 0.0000 0.0000 0.0000 23.7532
#
#
#
# Elastic Compliance Matrix: (Units=1/GPa)
#
#
# Indices 1 2 3 4 5 6 
#
# 1 0.009656 -0.000421 0.001263 0.000000 0.000000 0.000000
# 2 -0.000421 0.015429 0.000170 0.000000 0.000000 0.000000
# 3 0.001263 0.000170 0.017569 0.000000 0.000000 0.000000
# 4 0.000000 0.000000 0.000000 0.079153 0.000000 0.000000
# 5 0.000000 0.000000 0.000000 0.000000 0.030531 0.000000
# 6 0.000000 0.000000 0.000000 0.000000 0.000000 0.042100
#
#
# Mechanical properties :
#
#
# Convention : Reuss Voigt Hill
#
# Bulk Modulus (GPa) = 22.38205 24.01571 23.19888
# Shear Modulus (GPa) = 24.11876 29.32798 26.72337
#
# Velocity S-wave (km/s) = 3.28441 3.62177 3.45720
# Velocity P-wave (km/s) = 4.93899 5.31327 5.12955
#
# Compressibility (1/GPa) = 0.04467866
#
# Stress axis : x y z
#
# Youngs Moduli (GPa) = 103.55989 64.81311 56.91792
#
# Poissons Ratio (x) = 0.02729 -0.07187
# Poissons Ratio (y) = 0.04360 -0.00970
# Poissons Ratio (z) = -0.13076 -0.01105
#
# Static dielectric constant tensor:
#      x y z
#    x 1.888160 0.000000 0.000000 
#    y 0.000000 1.852570 0.000000 
#    z 0.000000 0.000000 1.782750 
# 
# From -- ./inp_files/12828.got.cif
#   From: 2010.05.17/outbox.cif.g08.bks.cpg/sg51_7_cif.got.tgz:12828.got - 2010.06.03 11:52:47.
