data_PCOD9401675
_publ_section_title
;
Structure prediction by ZEFSAII (Michael W. Deem and Ramdas Pophale) SiO2 
 PCOD9401675
Probable space group: P M M A
;
_chemical_formula_sum "Si O2"
_cell_formula_units_Z 56
_cell_length_a 14.596628
_cell_length_b 8.805816
_cell_length_c 23.741705
_cell_angle_alpha 90.000000
_cell_angle_beta 90.000000
_cell_angle_gamma 90.000000
_cell_volume 3051.645285
_symmetry_space_group_name_H-M "P M M A"
_symmetry_group_IT_number 51
_symmetry_cell_setting 'orthorhombic'
loop_
_space_group_symop_operation_xyz
x,y,z
1/2-x,-y,z
1/2+x,-y,-z
-x,y,-z
-x,-y,-z
1/2+x,y,-z
1/2-x,y,z
x,-y,z
loop_
_atom_site_type_symbol
_atom_site_label
_atom_site_fract_x
_atom_site_fract_y
_atom_site_fract_z
Si Si1 0.644151 0.814520 0.251519
Si Si2 0.854685 0.683108 0.594409
Si Si3 0.359479 0.322307 0.967871
Si Si4 0.466883 0.181022 0.638121
Si Si5 0.460632 0.183278 0.860813
Si Si6 0.353920 0.183136 0.089504
Si Si7 0.140669 0.321570 0.534975
O O1 0.750000 0.764816 0.251411
O O2 0.590598 0.765974 0.307587
O O3 0.590549 0.764317 0.195533
O O4 0.644917 0.000000 0.251420
O O5 0.750000 0.730274 0.606548
O O6 0.857251 0.500000 0.596039
O O7 0.876906 0.726999 0.529487
O O8 0.931692 0.750454 0.634376
O O9 0.250000 0.307539 0.959590
O O10 0.382787 0.500000 0.969979
O O11 0.409931 0.243918 0.916129
O O12 0.380144 0.246683 0.028054
O O13 0.413498 0.230887 0.581922
O O14 0.473015 0.000000 0.640291
O O15 0.567266 0.228066 0.866653
O O16 0.456457 0.000000 0.861405
O O17 0.250000 0.233931 0.102552
O O18 0.353062 0.000000 0.086183
O O19 0.250000 0.308344 0.543915
O O20 0.116084 0.500000 0.539591
#
# Coordination Sequence:
#
# PCOD9401675 Si02
#       7
#     8   8   8   8   8   8   8
#     4   9  19  35  52  72 101 134 165 200 246 297
#     4   9  19  36  55  74 100 135 172 209 251 302
#     4  10  20  32  48  74 106 134 159 196 251 304
#     4  11  21  32  50  77 106 135 168 209 258 306
#     4  10  19  33  54  74  94 130 175 209 240 285
#     4   9  18  32  50  74 101 127 161 204 245 290
#     4   9  18  33  53  76 102 135 173 209 249 302
#
# _framework density 18.350757000000002
#
# number of rings (size 3 to 8) (size 9 to 14) (size 15 to 20)
#    0.000    2.429    0.000    3.429    0.000    7.143 
#    0.000    3.571    0.000    6.000    0.000    2.000 
#    0.000    0.000    0.000    0.000    0.000    0.000 
#
# Total GULP energy -312531.011612 kJ/mol
# GULP energy per Si atom -5580.910922 kJ/mol
# Density = 1.830899 g / cm^3
# Si number density = 18.350757 Si / 1000 Ang^3
#
#
#
# Elastic Constant Matrix: (Units=GPa)
#
#
# Indices 1 2 3 4 5 6 
#
# 1 143.8451 30.5802 107.9339 0.0000 0.0000 0.0000
# 2 30.5802 10.9035 21.5605 0.0000 0.0000 0.0000
# 3 107.9339 21.5605 97.0253 0.0000 0.0000 0.0000
# 4 0.0000 0.0000 0.0000 -263.7705 0.0000 0.0000
# 5 0.0000 0.0000 0.0000 0.0000 33.6413 0.0000
# 6 0.0000 0.0000 0.0000 0.0000 0.0000 25.1254
#
#
#
# Elastic Compliance Matrix: (Units=1/GPa)
#
#
# Indices 1 2 3 4 5 6 
#
# 1 0.060028 -0.064773 -0.052383 0.000000 0.000000 0.000000
# 2 -0.064773 0.233494 0.020170 0.000000 0.000000 0.000000
# 3 -0.052383 0.020170 0.064097 0.000000 0.000000 0.000000
# 4 0.000000 0.000000 0.000000 -0.003791 0.000000 0.000000
# 5 0.000000 0.000000 0.000000 0.000000 0.029725 0.000000
# 6 0.000000 0.000000 0.000000 0.000000 0.000000 0.039800
#
#
# Mechanical properties :
#
#
# Convention : Reuss Voigt Hill
#
# Bulk Modulus (GPa) = 6.11076 63.54702 34.82889
# Shear Modulus (GPa) = 7.44187 -34.88746 -13.72280
#
# Velocity S-wave (km/s) = 2.01597 -4.36494 -2.73757
# Velocity P-wave (km/s) = 2.95907 3.04969 3.00472
#
# Compressibility (1/GPa) = 0.16364573
#
# Stress axis : x y z
#
# Youngs Moduli (GPa) = 16.65902 4.28277 15.60135
#
# Poissons Ratio (x) = 0.27741 0.81724
# Poissons Ratio (y) = 1.07905 -0.31467
# Poissons Ratio (z) = 0.87265 -0.08638
#
# Static dielectric constant tensor:
#      x y z
#    x 1.658730 0.000000 0.000000 
#    y 0.000000 1.617860 0.000000 
#    z 0.000000 0.000000 1.600410 
# 
# From -- ./inp_files/33294.got.cif
#   From: 2010.05.17/outbox.cif.g08.bks.cpg/sg51_17_cif.got.tgz:33294.got - 2010.06.03 11:52:47.
