data_PCOD9401194
_publ_section_title
;
Structure prediction by ZEFSAII (Michael W. Deem and Ramdas Pophale) SiO2 
 PCOD9401194
Probable space group: P M M A
;
_chemical_formula_sum "Si O2"
_cell_formula_units_Z 64
_cell_length_a 8.945859
_cell_length_b 14.524499
_cell_length_c 32.084132
_cell_angle_alpha 90.000000
_cell_angle_beta 90.000000
_cell_angle_gamma 90.000000
_cell_volume 4168.823461
_symmetry_space_group_name_H-M "P M M A"
_symmetry_group_IT_number 51
_symmetry_cell_setting 'orthorhombic'
loop_
_space_group_symop_operation_xyz
x,y,z
1/2-x,-y,z
1/2+x,-y,-z
-x,y,-z
-x,-y,-z
1/2+x,y,-z
1/2-x,y,z
x,-y,z
loop_
_atom_site_type_symbol
_atom_site_label
_atom_site_fract_x
_atom_site_fract_y
_atom_site_fract_z
Si Si1 0.570342 0.392438 0.956216
Si Si2 0.923853 0.388265 0.457772
Si Si3 0.571933 0.103606 0.833410
Si Si4 0.069985 0.704848 0.128703
Si Si5 0.569379 0.390728 0.365398
Si Si6 0.072081 0.609547 0.790885
Si Si7 0.928334 0.286115 0.712165
Si Si8 0.572143 0.105946 0.257306
O O1 0.750000 0.387389 0.959415
O O2 0.529937 0.500000 0.949494
O O3 0.522957 0.333767 0.916139
O O4 0.500000 0.362645 0.000000
O O5 0.750000 0.364198 0.459643
O O6 0.933658 0.500000 0.457952
O O7 0.980898 0.360878 0.411946
O O8 0.000000 0.354286 0.500000
O O9 0.750000 0.108619 0.824124
O O10 0.537008 0.187252 0.864222
O O11 0.483730 0.117188 0.790330
O O12 0.540516 0.000000 0.848929
O O13 0.250000 0.692522 0.132118
O O14 0.993079 0.649450 0.166168
O O15 0.750000 0.380216 0.363049
O O16 0.538889 0.500000 0.360598
O O17 0.491118 0.334826 0.329016
O O18 0.250000 0.626193 0.788745
O O19 0.046465 0.500000 0.788590
O O20 0.993293 0.660049 0.752304
O O21 0.750000 0.288364 0.713247
O O22 0.988048 0.182027 0.715803
O O23 0.750000 0.120598 0.259193
O O24 0.540175 0.000000 0.269195
#
# Coordination Sequence:
#
# PCOD9401194 Si02
#       8
#     8   8   8   8   8   8   8   8
#     4   9  18  32  49  69  93 121 155 193 234 281
#     4   8  14  25  42  63  87 118 157 201 245 284
#     4   9  17  30  49  73  97 120 150 189 234 282
#     4  10  19  32  51  73  95 122 154 193 238 281
#     4   9  18  32  47  64  92 131 169 203 241 285
#     4  11  23  35  47  66  94 128 162 195 232 278
#     4  12  23  33  47  68  95 128 162 198 238 282
#     4  10  20  34  52  71  92 121 157 197 239 282
#
# _framework density 15.352055
#
# number of rings (size 3 to 8) (size 9 to 14) (size 15 to 20)
#    0.000    2.250    1.250    3.375    0.000    5.000 
#    0.000    2.500    0.000    0.375    0.000    0.000 
#    0.000    0.500    0.000    1.625    0.000    2.000 
#
# Total GULP energy -356885.242763 kJ/mol
# GULP energy per Si atom -5576.331918 kJ/mol
# Density = 1.531711 g / cm^3
# Si number density = 15.352055 Si / 1000 Ang^3
#
#
#
# Elastic Constant Matrix: (Units=GPa)
#
#
# Indices 1 2 3 4 5 6 
#
# 1 51.9455 51.1632 56.7438 0.0000 0.0000 0.0000
# 2 51.1632 93.9084 73.1027 0.0000 0.0000 0.0000
# 3 56.7438 73.1027 150.0166 0.0000 0.0000 0.0000
# 4 0.0000 0.0000 0.0000 6.0200 0.0000 0.0000
# 5 0.0000 0.0000 0.0000 0.0000 27.8537 0.0000
# 6 0.0000 0.0000 0.0000 0.0000 0.0000 19.5376
#
#
#
# Elastic Compliance Matrix: (Units=1/GPa)
#
#
# Indices 1 2 3 4 5 6 
#
# 1 0.047625 -0.019212 -0.008652 0.000000 0.000000 0.000000
# 2 -0.019212 0.024907 -0.004870 0.000000 0.000000 0.000000
# 3 -0.008652 -0.004870 0.012312 0.000000 0.000000 0.000000
# 4 0.000000 0.000000 0.000000 0.166112 0.000000 0.000000
# 5 0.000000 0.000000 0.000000 0.000000 0.035902 0.000000
# 6 0.000000 0.000000 0.000000 0.000000 0.000000 0.051183
#
#
# Mechanical properties :
#
#
# Convention : Reuss Voigt Hill
#
# Bulk Modulus (GPa) = 51.61237 73.09889 62.35563
# Shear Modulus (GPa) = 12.19608 18.33965 15.26786
#
# Velocity S-wave (km/s) = 2.82162 3.46006 3.15702
# Velocity P-wave (km/s) = 6.65639 7.98004 7.34808
#
# Compressibility (1/GPa) = 0.01937520
#
# Stress axis : x y z
#
# Youngs Moduli (GPa) = 20.99748 40.14985 81.22223
#
# Poissons Ratio (x) = 0.77134 0.70276
# Poissons Ratio (y) = 0.40339 0.39557
# Poissons Ratio (z) = 0.18168 0.19554
#
# Static dielectric constant tensor:
#      x y z
#    x 1.514400 0.000000 0.000000 
#    y 0.000000 1.511930 0.000000 
#    z 0.000000 0.000000 1.496610 
# 
# From -- ./inp_files/37641.got.cif
#   From: 2010.05.17/outbox.cif.g08.bks.cpg/sg51_19_cif.got.tgz:37641.got - 2010.06.03 11:52:47.
