data_PCOD9401803
_publ_section_title
;
Structure prediction by ZEFSAII (Michael W. Deem and Ramdas Pophale) SiO2 
 PCOD9401803
Probable space group: P M M A
;
_chemical_formula_sum "Si O2"
_cell_formula_units_Z 52
_cell_length_a 7.647165
_cell_length_b 15.513672
_cell_length_c 21.115522
_cell_angle_alpha 90.000000
_cell_angle_beta 90.000000
_cell_angle_gamma 90.000000
_cell_volume 2505.052823
_symmetry_space_group_name_H-M "P M M A"
_symmetry_group_IT_number 51
_symmetry_cell_setting 'orthorhombic'
loop_
_space_group_symop_operation_xyz
x,y,z
1/2-x,-y,z
1/2+x,-y,-z
-x,y,-z
-x,-y,-z
1/2+x,y,-z
1/2-x,y,z
x,-y,z
loop_
_atom_site_type_symbol
_atom_site_label
_atom_site_fract_x
_atom_site_fract_y
_atom_site_fract_z
Si Si1 0.035140 0.777311 0.816483
Si Si2 0.540100 0.902403 0.072359
Si Si3 0.446719 0.158100 0.573619
Si Si4 0.958017 0.500000 0.427284
Si Si5 0.454350 0.598080 0.777877
Si Si6 0.450157 0.670381 0.358031
Si Si7 0.464015 0.904788 0.704913
O O1 0.250000 0.775152 0.815709
O O2 0.977222 0.834284 0.875984
O O3 0.972665 0.678151 0.818515
O O4 0.981367 0.828957 0.752661
O O5 0.750000 0.905840 0.078999
O O6 0.473221 0.000000 0.083045
O O7 0.500000 0.878480 0.000000
O O8 0.500000 0.156185 0.500000
O O9 0.250000 0.125759 0.571492
O O10 0.456792 0.254798 0.602086
O O11 0.531038 0.106935 0.632812
O O12 0.750000 0.500000 0.414296
O O13 0.000000 0.500000 0.500000
O O14 0.042012 0.415332 0.398840
O O15 0.250000 0.589684 0.793681
O O16 0.528304 0.500000 0.779523
O O17 0.466813 0.639230 0.707713
O O18 0.250000 0.696950 0.347358
O O19 0.250000 0.900508 0.703527
O O20 0.510787 0.000000 0.728830
#
# Coordination Sequence:
#
# PCOD9401803 Si02
#       7
#     8   8   8   4   8   8   8
#     4   9  16  30  53  81 108 139 178 221 266 313
#     4   9  17  30  52  82 115 147 180 218 262 316
#     4  11  22  37  54  73 100 135 176 223 275 327
#     4  12  24  38  54  74 100 130 169 220 279 336
#     4  10  19  33  55  80 105 136 175 222 268 315
#     4  12  23  36  53  75 102 134 173 218 274 333
#     4   9  17  30  52  79 102 130 175 225 271 320
#
# _framework density 20.758044000000002
#
# number of rings (size 3 to 8) (size 9 to 14) (size 15 to 20)
#    0.000    1.846    2.308    3.462    0.000    2.154 
#    0.000    0.769    0.000    1.846    0.000    0.000 
#    0.000    0.000    0.000    0.000    0.000    0.000 
#
# Total GULP energy -289975.046246 kJ/mol
# GULP energy per Si atom -5576.443197 kJ/mol
# Density = 2.071080 g / cm^3
# Si number density = 20.758044 Si / 1000 Ang^3
#
#
#
# Elastic Constant Matrix: (Units=GPa)
#
#
# Indices 1 2 3 4 5 6 
#
# 1 51.4728 1.4592 1.7497 0.0000 0.0000 0.0000
# 2 1.4592 150.0692 75.6161 0.0000 0.0000 0.0000
# 3 1.7497 75.6161 123.6025 0.0000 0.0000 0.0000
# 4 0.0000 0.0000 0.0000 34.6043 0.0000 0.0000
# 5 0.0000 0.0000 0.0000 0.0000 19.2080 0.0000
# 6 0.0000 0.0000 0.0000 0.0000 0.0000 -2.2999
#
#
#
# Elastic Compliance Matrix: (Units=1/GPa)
#
#
# Indices 1 2 3 4 5 6 
#
# 1 0.019438 -0.000073 -0.000231 0.000000 0.000000 0.000000
# 2 -0.000073 0.009633 -0.005892 0.000000 0.000000 0.000000
# 3 -0.000231 -0.005892 0.011698 0.000000 0.000000 0.000000
# 4 0.000000 0.000000 0.000000 0.028898 0.000000 0.000000
# 5 0.000000 0.000000 0.000000 0.000000 0.052062 0.000000
# 6 0.000000 0.000000 0.000000 0.000000 0.000000 -0.434805
#
#
# Mechanical properties :
#
#
# Convention : Reuss Voigt Hill
#
# Bulk Modulus (GPa) = 35.23865 53.64383 44.44124
# Shear Modulus (GPa) = -17.16884 26.72379 4.77748
#
# Velocity S-wave (km/s) = -2.87904 3.59192 1.51872
# Velocity P-wave (km/s) = 2.44150 6.56514 4.95288
#
# Compressibility (1/GPa) = 0.02837793
#
# Stress axis : x y z
#
# Youngs Moduli (GPa) = 51.44654 103.80664 85.48135
#
# Poissons Ratio (x) = 0.00756 0.01971
# Poissons Ratio (y) = 0.00375 0.50368
# Poissons Ratio (z) = 0.01186 0.61166
#
# Static dielectric constant tensor:
#      x y z
#    x 1.811360 0.000000 0.000000 
#    y 0.000000 1.770510 0.000000 
#    z 0.000000 0.000000 1.734030 
# 
# From -- ./inp_files/31796.got.cif
#   From: 2010.05.17/outbox.cif.g08.bks.cpg/sg51_16_cif.got.tgz:31796.got - 2010.06.03 11:52:47.
