data_PCOD9401283
_publ_section_title
;
Structure prediction by ZEFSAII (Michael W. Deem and Ramdas Pophale) SiO2 
 PCOD9401283
Probable space group: P M M A
;
_chemical_formula_sum "Si O2"
_cell_formula_units_Z 64
_cell_length_a 16.927922
_cell_length_b 16.738434
_cell_length_c 12.296102
_cell_angle_alpha 90.000000
_cell_angle_beta 90.000000
_cell_angle_gamma 90.000000
_cell_volume 3484.062447
_symmetry_space_group_name_H-M "P M M A"
_symmetry_group_IT_number 51
_symmetry_cell_setting 'orthorhombic'
loop_
_space_group_symop_operation_xyz
x,y,z
1/2-x,-y,z
1/2+x,-y,-z
-x,y,-z
-x,-y,-z
1/2+x,y,-z
1/2-x,y,z
x,-y,z
loop_
_atom_site_type_symbol
_atom_site_label
_atom_site_fract_x
_atom_site_fract_y
_atom_site_fract_z
Si Si1 0.552991 0.691436 0.172281
Si Si2 0.160502 0.847187 0.197873
Si Si3 0.339185 0.910512 0.748996
Si Si4 0.156604 0.717137 0.385070
Si Si5 0.906318 0.406502 0.779928
Si Si6 0.342465 0.746171 0.631072
Si Si7 0.163202 0.698059 0.035181
Si Si8 0.501769 0.131942 0.129256
O O1 0.494289 0.617822 0.183536
O O2 0.608475 0.700054 0.277242
O O3 0.504491 0.774426 0.163849
O O4 0.601255 0.690109 0.060800
O O5 0.250000 0.882170 0.199697
O O6 0.149738 0.795075 0.307941
O O7 0.159811 0.782694 0.098323
O O8 0.081391 0.898792 0.178665
O O9 0.250000 0.899742 0.798736
O O10 0.347942 0.839868 0.662131
O O11 0.414622 0.901921 0.827954
O O12 0.340917 0.000000 0.703116
O O13 0.250000 0.697966 0.386187
O O14 0.111844 0.644541 0.327757
O O15 0.130094 0.732032 0.508146
O O16 0.895348 0.500000 0.766725
O O17 0.850986 0.368736 0.873368
O O18 0.250000 0.724365 0.638292
O O19 0.250000 0.690481 0.986683
O O20 0.500000 0.123725 0.000000
#
# Coordination Sequence:
#
# PCOD9401283 Si02
#       8
#     8   8   8   8   8   8   8   8
#     4  11  19  33  50  80 111 140 184 227 272 329
#     4   9  17  30  50  78 107 138 183 234 272 312
#     4   9  20  37  56  84 116 143 179 226 279 339
#     4   9  18  35  55  77 101 136 187 232 269 317
#     4  11  22  35  52  76 108 143 178 226 285 338
#     4   9  19  35  59  81 102 138 180 227 275 319
#     4  10  19  32  52  75 105 141 185 235 275 317
#     4  11  18  31  54  80 112 151 188 226 273 320
#
# _framework density 18.36936
#
# number of rings (size 3 to 8) (size 9 to 14) (size 15 to 20)
#    0.000    2.125    3.750    1.875    0.000    3.750 
#    0.000    1.250    0.000    3.750    0.000    1.750 
#    0.000    0.000    0.000    0.000    0.000    0.000 
#
# Total GULP energy -356769.530080 kJ/mol
# GULP energy per Si atom -5574.523907 kJ/mol
# Density = 1.832755 g / cm^3
# Si number density = 18.369360 Si / 1000 Ang^3
#
#
#
# Elastic Constant Matrix: (Units=GPa)
#
#
# Indices 1 2 3 4 5 6 
#
# 1 102.3322 16.8523 29.3391 0.0000 0.0000 0.0000
# 2 16.8523 35.9915 -0.4497 0.0000 0.0000 0.0000
# 3 29.3391 -0.4497 93.9133 0.0000 0.0000 0.0000
# 4 0.0000 0.0000 0.0000 -4.2478 0.0000 0.0000
# 5 0.0000 0.0000 0.0000 0.0000 3.8589 0.0000
# 6 0.0000 0.0000 0.0000 0.0000 0.0000 13.7324
#
#
#
# Elastic Compliance Matrix: (Units=1/GPa)
#
#
# Indices 1 2 3 4 5 6 
#
# 1 0.011745 -0.005545 -0.003696 0.000000 0.000000 0.000000
# 2 -0.005545 0.030404 0.001878 0.000000 0.000000 0.000000
# 3 -0.003696 0.001878 0.011812 0.000000 0.000000 0.000000
# 4 0.000000 0.000000 0.000000 -0.235416 0.000000 0.000000
# 5 0.000000 0.000000 0.000000 0.000000 0.259143 0.000000
# 6 0.000000 0.000000 0.000000 0.000000 0.000000 0.072820
#
#
# Mechanical properties :
#
#
# Convention : Reuss Voigt Hill
#
# Bulk Modulus (GPa) = 25.48773 35.96893 30.72833
# Shear Modulus (GPa) = 28.04054 15.10172 21.57113
#
# Velocity S-wave (km/s) = 3.91126 2.87036 3.43052
# Velocity P-wave (km/s) = 5.85684 5.53252 5.69699
#
# Compressibility (1/GPa) = 0.03923456
#
# Stress axis : x y z
#
# Youngs Moduli (GPa) = 85.14314 32.89004 84.66195
#
# Poissons Ratio (x) = 0.18239 0.31289
# Poissons Ratio (y) = 0.47216 -0.15900
# Poissons Ratio (z) = 0.31467 -0.06177
#
# Static dielectric constant tensor:
#      x y z
#    x 1.709100 0.000000 0.000000 
#    y 0.000000 1.615320 0.000000 
#    z 0.000000 0.000000 1.607570 
# 
# From -- ./inp_files/16816.got.cif
#   From: 2010.05.17/outbox.cif.g08.bks.cpg/sg51_9_cif.got.tgz:16816.got - 2010.06.03 11:52:47.
