data_PCOD9401490
_publ_section_title
;
Structure prediction by ZEFSAII (Michael W. Deem and Ramdas Pophale) SiO2 
 PCOD9401490
Probable space group: P M M A
;
_chemical_formula_sum "Si O2"
_cell_formula_units_Z 48
_cell_length_a 28.502802
_cell_length_b 7.782377
_cell_length_c 10.041275
_cell_angle_alpha 90.000000
_cell_angle_beta 90.000000
_cell_angle_gamma 90.000000
_cell_volume 2227.351109
_symmetry_space_group_name_H-M "P M M A"
_symmetry_group_IT_number 51
_symmetry_cell_setting 'orthorhombic'
loop_
_space_group_symop_operation_xyz
x,y,z
1/2-x,-y,z
1/2+x,-y,-z
-x,y,-z
-x,-y,-z
1/2+x,y,-z
1/2-x,y,z
x,-y,z
loop_
_atom_site_type_symbol
_atom_site_label
_atom_site_fract_x
_atom_site_fract_y
_atom_site_fract_z
Si Si1 0.435536 0.699451 0.595147
Si Si2 0.467295 0.199241 0.305547
Si Si3 0.333945 0.707465 0.680133
Si Si4 0.801987 0.708001 0.612506
Si Si5 0.623315 0.201856 0.831460
Si Si6 0.301300 0.797245 0.967917
O O1 0.428028 0.500000 0.559634
O O2 0.482055 0.713964 0.684288
O O3 0.446007 0.791324 0.455343
O O4 0.388405 0.760942 0.666175
O O5 0.427588 0.274278 0.207946
O O6 0.475437 0.000000 0.273334
O O7 0.331826 0.500000 0.690632
O O8 0.309654 0.756154 0.541349
O O9 0.310263 0.779420 0.811475
O O10 0.750000 0.761698 0.656843
O O11 0.804778 0.500000 0.620063
O O12 0.842826 0.781798 0.703686
O O13 0.615153 0.000000 0.858649
O O14 0.654611 0.277455 0.950797
O O15 0.250000 0.723105 0.001944
O O16 0.299797 0.000000 0.000850
#
# Coordination Sequence:
#
# PCOD9401490 Si02
#       6
#     8   8   8   8   8   8
#     4  10  19  33  55  81 111 144 177 221 274 324
#     4  10  19  32  54  83 112 142 178 222 272 325
#     4  10  21  37  56  80 110 144 183 226 274 325
#     4  10  20  34  54  80 108 138 179 230 276 322
#     4  10  21  37  56  80 111 145 182 225 274 326
#     4  10  22  39  57  78 108 147 187 226 272 326
#
# _framework density 21.550262
#
# number of rings (size 3 to 8) (size 9 to 14) (size 15 to 20)
#    0.000    2.000    1.667    3.000    0.000    5.333 
#    0.000    0.833    0.000    5.000    0.000    0.000 
#    0.000    0.000    0.000    0.000    0.000    0.000 
#
# Total GULP energy -268052.415423 kJ/mol
# GULP energy per Si atom -5584.425321 kJ/mol
# Density = 2.150121 g / cm^3
# Si number density = 21.550262 Si / 1000 Ang^3
#
#
#
# Elastic Constant Matrix: (Units=GPa)
#
#
# Indices 1 2 3 4 5 6 
#
# 1 91.9872 -3.8580 -11.2757 0.0000 0.0000 0.0000
# 2 -3.8580 33.0139 -11.0263 0.0000 0.0000 0.0000
# 3 -11.2757 -11.0263 45.5094 0.0000 0.0000 0.0000
# 4 0.0000 0.0000 0.0000 26.1281 0.0000 0.0000
# 5 0.0000 0.0000 0.0000 0.0000 14.0567 0.0000
# 6 0.0000 0.0000 0.0000 0.0000 0.0000 8.5012
#
#
#
# Elastic Compliance Matrix: (Units=1/GPa)
#
#
# Indices 1 2 3 4 5 6 
#
# 1 0.011394 0.002475 0.003423 0.000000 0.000000 0.000000
# 2 0.002475 0.033495 0.008728 0.000000 0.000000 0.000000
# 3 0.003423 0.008728 0.024936 0.000000 0.000000 0.000000
# 4 0.000000 0.000000 0.000000 0.038273 0.000000 0.000000
# 5 0.000000 0.000000 0.000000 0.000000 0.071140 0.000000
# 6 0.000000 0.000000 0.000000 0.000000 0.000000 0.117631
#
#
# Mechanical properties :
#
#
# Convention : Reuss Voigt Hill
#
# Bulk Modulus (GPa) = 10.09316 13.13229 11.61272
# Shear Modulus (GPa) = 16.63101 22.84856 19.73978
#
# Velocity S-wave (km/s) = 2.78102 3.25967 3.02981
# Velocity P-wave (km/s) = 3.87373 4.50270 4.20001
#
# Compressibility (1/GPa) = 0.09907703
#
# Stress axis : x y z
#
# Youngs Moduli (GPa) = 87.76223 29.85555 40.10218
#
# Poissons Ratio (x) = -0.07388 -0.13726
# Poissons Ratio (y) = -0.21718 -0.35003
# Poissons Ratio (z) = -0.30039 -0.26059
#
# Static dielectric constant tensor:
#      x y z
#    x 1.867310 0.000000 0.000000 
#    y 0.000000 -11.474790 0.000000 
#    z 0.000000 0.000000 1.753240 
# 
# From -- ./inp_files/12815.got.cif
#   From: 2010.05.17/outbox.cif.g08.bks.cpg/sg51_7_cif.got.tgz:12815.got - 2010.06.03 11:52:47.
