data_PCOD9401195
_publ_section_title
;
Structure prediction by ZEFSAII (Michael W. Deem and Ramdas Pophale) SiO2 
 PCOD9401195
Probable space group: P M M A
;
_chemical_formula_sum "Si O2"
_cell_formula_units_Z 64
_cell_length_a 9.075358
_cell_length_b 14.499603
_cell_length_c 31.856488
_cell_angle_alpha 90.000000
_cell_angle_beta 90.000000
_cell_angle_gamma 90.000000
_cell_volume 4191.966205
_symmetry_space_group_name_H-M "P M M A"
_symmetry_group_IT_number 51
_symmetry_cell_setting 'orthorhombic'
loop_
_space_group_symop_operation_xyz
x,y,z
1/2-x,-y,z
1/2+x,-y,-z
-x,y,-z
-x,-y,-z
1/2+x,y,-z
1/2-x,y,z
x,-y,z
loop_
_atom_site_type_symbol
_atom_site_label
_atom_site_fract_x
_atom_site_fract_y
_atom_site_fract_z
Si Si1 0.425265 0.106404 0.245633
Si Si2 0.573284 0.392383 0.128648
Si Si3 0.073685 0.391279 0.289279
Si Si4 0.580196 0.612257 0.957569
Si Si5 0.075122 0.106081 0.663225
Si Si6 0.573173 0.717550 0.212639
Si Si7 0.427111 0.721581 0.373996
Si Si8 0.927144 0.392618 0.543833
O O1 0.250000 0.122394 0.247879
O O2 0.494601 0.118172 0.291973
O O3 0.501896 0.181647 0.216475
O O4 0.450488 0.000000 0.232996
O O5 0.750000 0.388996 0.123606
O O6 0.532874 0.500000 0.135784
O O7 0.498841 0.360053 0.085528
O O8 0.533038 0.332849 0.169218
O O9 0.250000 0.381387 0.282467
O O10 0.039889 0.500000 0.291065
O O11 0.038893 0.341816 0.333399
O O12 0.988676 0.341823 0.251566
O O13 0.750000 0.640362 0.957698
O O14 0.575428 0.500000 0.958078
O O15 0.500000 0.643793 0.000000
O O16 0.250000 0.119882 0.668681
O O17 0.007953 0.181616 0.632375
O O18 0.050802 0.000000 0.649842
O O19 0.750000 0.723058 0.215410
O O20 0.250000 0.735023 0.374440
O O21 0.470285 0.669226 0.416513
O O22 0.750000 0.388379 0.539964
O O23 0.966788 0.500000 0.551576
O O24 0.000000 0.364105 0.500000
#
# Coordination Sequence:
#
# PCOD9401195 Si02
#       8
#     8   8   8   8   8   8   8   8
#     4  10  20  34  51  69  91 122 160 200 241 286
#     4   9  18  31  44  61  91 129 163 195 234 280
#     4  10  20  32  46  66  94 129 164 195 229 274
#     4   9  16  26  42  63  86 116 157 202 243 281
#     4  10  20  33  50  73  98 122 152 194 241 285
#     4  11  21  32  47  68  96 128 161 199 241 282
#     4  10  19  32  51  73  97 126 159 195 235 280
#     4   9  18  33  52  74 100 128 158 192 232 278
#
# _framework density 15.267299
#
# number of rings (size 3 to 8) (size 9 to 14) (size 15 to 20)
#    0.000    2.250    1.250    2.250    0.000    6.750 
#    0.000    1.250    0.000    2.625    0.000    0.000 
#    0.000    0.500    0.000    1.625    0.000    2.375 
#
# Total GULP energy -356997.927708 kJ/mol
# GULP energy per Si atom -5578.092620 kJ/mol
# Density = 1.523255 g / cm^3
# Si number density = 15.267299 Si / 1000 Ang^3
#
#
#
# Elastic Constant Matrix: (Units=GPa)
#
#
# Indices 1 2 3 4 5 6 
#
# 1 53.4152 50.9222 62.5931 0.0000 0.0000 0.0000
# 2 50.9222 97.6146 73.4821 0.0000 0.0000 0.0000
# 3 62.5931 73.4821 145.0913 0.0000 0.0000 0.0000
# 4 0.0000 0.0000 0.0000 9.3471 0.0000 0.0000
# 5 0.0000 0.0000 0.0000 0.0000 28.2790 0.0000
# 6 0.0000 0.0000 0.0000 0.0000 0.0000 23.5074
#
#
#
# Elastic Compliance Matrix: (Units=1/GPa)
#
#
# Indices 1 2 3 4 5 6 
#
# 1 0.049273 -0.015681 -0.013315 0.000000 0.000000 0.000000
# 2 -0.015681 0.021547 -0.004148 0.000000 0.000000 0.000000
# 3 -0.013315 -0.004148 0.014737 0.000000 0.000000 0.000000
# 4 0.000000 0.000000 0.000000 0.106984 0.000000 0.000000
# 5 0.000000 0.000000 0.000000 0.000000 0.035362 0.000000
# 6 0.000000 0.000000 0.000000 0.000000 0.000000 0.042540
#
#
# Mechanical properties :
#
#
# Convention : Reuss Voigt Hill
#
# Bulk Modulus (GPa) = 51.89469 74.45733 63.17601
# Shear Modulus (GPa) = 14.57074 19.50164 17.03619
#
# Velocity S-wave (km/s) = 3.09265 3.57788 3.34408
# Velocity P-wave (km/s) = 6.84231 8.12055 7.50868
#
# Compressibility (1/GPa) = 0.01926980
#
# Stress axis : x y z
#
# Youngs Moduli (GPa) = 20.29504 46.41059 67.85639
#
# Poissons Ratio (x) = 0.72776 0.90351
# Poissons Ratio (y) = 0.31824 0.28145
# Poissons Ratio (z) = 0.27023 0.19250
#
# Static dielectric constant tensor:
#      x y z
#    x 1.510110 0.000000 0.000000 
#    y 0.000000 1.503290 0.000000 
#    z 0.000000 0.000000 1.483990 
# 
# From -- ./inp_files/37639.got.cif
#   From: 2010.05.17/outbox.cif.g08.bks.cpg/sg51_19_cif.got.tgz:37639.got - 2010.06.03 11:52:47.
