data_PCOD9401849
_publ_section_title
;
Structure prediction by ZEFSAII (Michael W. Deem and Ramdas Pophale) SiO2 
 PCOD9401849
Probable space group: P M M A
;
_chemical_formula_sum "Si O2"
_cell_formula_units_Z 44
_cell_length_a 16.739928
_cell_length_b 10.801960
_cell_length_c 13.546679
_cell_angle_alpha 90.000000
_cell_angle_beta 90.000000
_cell_angle_gamma 90.000000
_cell_volume 2449.565126
_symmetry_space_group_name_H-M "P M M A"
_symmetry_group_IT_number 51
_symmetry_cell_setting 'orthorhombic'
loop_
_space_group_symop_operation_xyz
x,y,z
1/2-x,-y,z
1/2+x,-y,-z
-x,y,-z
-x,-y,-z
1/2+x,y,-z
1/2-x,y,z
x,-y,z
loop_
_atom_site_type_symbol
_atom_site_label
_atom_site_fract_x
_atom_site_fract_y
_atom_site_fract_z
Si Si1 0.982279 0.635495 0.218069
Si Si2 0.405352 0.140771 0.276509
Si Si3 0.656642 0.638764 0.363201
Si Si4 0.403114 0.139343 0.500753
Si Si5 0.000000 0.719192 0.000000
Si Si6 0.337805 0.145327 0.064366
O O1 0.014672 0.500000 0.248267
O O2 0.894315 0.645677 0.263199
O O3 0.030867 0.750740 0.261604
O O4 0.985777 0.645185 0.100483
O O5 0.373395 0.150767 0.387595
O O6 0.346444 0.154725 0.183666
O O7 0.439405 0.000000 0.268642
O O8 0.750000 0.649211 0.343917
O O9 0.641210 0.500000 0.405656
O O10 0.629566 0.749288 0.434157
O O11 0.500000 0.146498 0.500000
O O12 0.382348 0.000000 0.536291
O O13 0.918045 0.795647 0.980690
O O14 0.250000 0.195618 0.035166
O O15 0.339163 0.000000 0.039862
#
# Coordination Sequence:
#
# PCOD9401849 Si02
#       6
#     8   8   8   8   4   8
#     4  10  20  35  55  77 105 141 181 224 274 331
#     4   9  18  33  55  80 107 138 174 221 269 323
#     4  10  22  37  52  76 111 149 185 222 269 330
#     4  10  19  33  55  83 111 141 181 226 271 325
#     4  10  20  34  56  80 105 140 183 236 281 328
#     4   9  18  33  53  79 109 141 179 222 275 335
#
# _framework density 17.962371000000001
#
# number of rings (size 3 to 8) (size 9 to 14) (size 15 to 20)
#    0.000    2.364    1.818    0.545    0.000    3.636 
#    0.000    1.818    0.000   13.091    0.000    0.000 
#    0.000    0.000    0.000    0.000    0.000    0.000 
#
# Total GULP energy -244993.921154 kJ/mol
# GULP energy per Si atom -5568.043663 kJ/mol
# Density = 1.792149 g / cm^3
# Si number density = 17.962371 Si / 1000 Ang^3
#
#
#
# Elastic Constant Matrix: (Units=GPa)
#
#
# Indices 1 2 3 4 5 6 
#
# 1 102.5091 67.2212 21.8628 0.0000 0.0000 0.0000
# 2 67.2212 138.3735 47.8703 0.0000 0.0000 0.0000
# 3 21.8628 47.8703 63.6957 0.0000 0.0000 0.0000
# 4 0.0000 0.0000 0.0000 10.4958 0.0000 0.0000
# 5 0.0000 0.0000 0.0000 0.0000 14.8386 0.0000
# 6 0.0000 0.0000 0.0000 0.0000 0.0000 19.6794
#
#
#
# Elastic Compliance Matrix: (Units=1/GPa)
#
#
# Indices 1 2 3 4 5 6 
#
# 1 0.014324 -0.007105 0.000423 0.000000 0.000000 0.000000
# 2 -0.007105 0.013290 -0.007549 0.000000 0.000000 0.000000
# 3 0.000423 -0.007549 0.021228 0.000000 0.000000 0.000000
# 4 0.000000 0.000000 0.000000 0.095276 0.000000 0.000000
# 5 0.000000 0.000000 0.000000 0.000000 0.067392 0.000000
# 6 0.000000 0.000000 0.000000 0.000000 0.000000 0.050815
#
#
# Mechanical properties :
#
#
# Convention : Reuss Voigt Hill
#
# Bulk Modulus (GPa) = 49.06809 64.27630 56.67219
# Shear Modulus (GPa) = 16.80218 20.17771 18.48995
#
# Velocity S-wave (km/s) = 3.06177 3.35525 3.21186
# Velocity P-wave (km/s) = 6.31472 7.13245 6.73600
#
# Compressibility (1/GPa) = 0.02037984
#
# Stress axis : x y z
#
# Youngs Moduli (GPa) = 69.81224 75.24398 47.10728
#
# Poissons Ratio (x) = 0.53461 -0.01993
# Poissons Ratio (y) = 0.49601 0.35563
# Poissons Ratio (z) = -0.02954 0.56805
#
# Static dielectric constant tensor:
#      x y z
#    x 1.615880 0.000000 0.000000 
#    y 0.000000 1.627700 0.000000 
#    z 0.000000 0.000000 1.614040 
# 
# From -- ./inp_files/24595.got.cif
#   From: 2010.05.17/outbox.cif.g08.bks.cpg/sg51_13_cif.got.tgz:24595.got - 2010.06.03 11:52:47.
