data_PCOD9401063
_publ_section_title
;
Structure prediction by ZEFSAII (Michael W. Deem and Ramdas Pophale) SiO2 
 PCOD9401063
Probable space group: P M M A
;
_chemical_formula_sum "Si O2"
_cell_formula_units_Z 40
_cell_length_a 8.740179
_cell_length_b 16.029307
_cell_length_c 20.231771
_cell_angle_alpha 90.000000
_cell_angle_beta 90.000000
_cell_angle_gamma 90.000000
_cell_volume 2834.451137
_symmetry_space_group_name_H-M "P M M A"
_symmetry_group_IT_number 51
_symmetry_cell_setting 'orthorhombic'
loop_
_space_group_symop_operation_xyz
x,y,z
1/2-x,-y,z
1/2+x,-y,-z
-x,y,-z
-x,-y,-z
1/2+x,y,-z
1/2-x,y,z
x,-y,z
loop_
_atom_site_type_symbol
_atom_site_label
_atom_site_fract_x
_atom_site_fract_y
_atom_site_fract_z
Si Si1 0.068411 0.099221 0.068291
Si Si2 0.434565 0.316455 0.425283
Si Si3 0.433738 0.902559 0.794078
Si Si4 0.433493 0.000000 0.426229
Si Si5 0.433538 0.500000 0.426293
Si Si6 0.565744 0.840824 0.348984
O O1 0.250000 0.107437 0.067041
O O2 0.002813 0.131240 0.137646
O O3 0.029606 0.000000 0.069102
O O4 0.000000 0.133743 0.000000
O O5 0.500000 0.308775 0.500000
O O6 0.250000 0.309510 0.427961
O O7 0.477158 0.409251 0.398442
O O8 0.503437 0.243827 0.380614
O O9 0.250000 0.902233 0.799874
O O10 0.476032 0.852918 0.728048
O O11 0.481294 0.000000 0.785181
O O12 0.500000 0.000000 0.500000
O O13 0.494963 0.081530 0.388631
O O14 0.250000 0.000000 0.427837
O O15 0.250000 0.500000 0.430045
O O16 0.500000 0.500000 0.500000
O O17 0.750000 0.844347 0.354401
#
# Coordination Sequence:
#
# PCOD9401063 Si02
#       6
#     8   8   8   4   4   8
#     4   9  16  25  39  59  80 104 137 175 210 247
#     4  10  19  32  48  67  86 110 141 179 221 266
#     4   9  17  30  44  57  79 111 142 175 213 251
#     4  12  24  36  48  60  79 110 149 188 220 256
#     4   8  16  30  48  66  86 106 133 172 219 266
#     4  11  21  34  47  63  86 114 145 181 221 260
#
# _framework density 14.112080000000001
#
# number of rings (size 3 to 8) (size 9 to 14) (size 15 to 20)
#    0.000    2.200    1.000    3.300    0.000    4.800 
#    0.000    0.000    0.000    0.000    0.000    0.000 
#    0.000    0.000    0.000    0.900    0.000   11.600 
#
# Total GULP energy -222910.505491 kJ/mol
# GULP energy per Si atom -5572.762637 kJ/mol
# Density = 1.407996 g / cm^3
# Si number density = 14.112080 Si / 1000 Ang^3
#
#
#
# Elastic Constant Matrix: (Units=GPa)
#
#
# Indices 1 2 3 4 5 6 
#
# 1 33.2658 29.8198 40.1703 0.0000 0.0000 0.0000
# 2 29.8198 101.8837 55.4890 0.0000 0.0000 0.0000
# 3 40.1703 55.4890 132.0116 0.0000 0.0000 0.0000
# 4 0.0000 0.0000 0.0000 0.0389 0.0000 0.0000
# 5 0.0000 0.0000 0.0000 0.0000 25.3979 0.0000
# 6 0.0000 0.0000 0.0000 0.0000 0.0000 8.8444
#
#
#
# Elastic Compliance Matrix: (Units=1/GPa)
#
#
# Indices 1 2 3 4 5 6 
#
# 1 0.052875 -0.008706 -0.012430 0.000000 0.000000 0.000000
# 2 -0.008706 0.014163 -0.003304 0.000000 0.000000 0.000000
# 3 -0.012430 -0.003304 0.012746 0.000000 0.000000 0.000000
# 4 0.000000 0.000000 0.000000 25.727089 0.000000 0.000000
# 5 0.000000 0.000000 0.000000 0.000000 0.039373 0.000000
# 6 0.000000 0.000000 0.000000 0.000000 0.000000 0.113066
#
#
# Mechanical properties :
#
#
# Convention : Reuss Voigt Hill
#
# Bulk Modulus (GPa) = 32.35821 57.56881 44.96351
# Shear Modulus (GPa) = 0.19217 16.30171 8.24694
#
# Velocity S-wave (km/s) = 0.36942 3.40245 2.42004
# Velocity P-wave (km/s) = 4.81261 7.50454 6.30394
#
# Compressibility (1/GPa) = 0.03090406
#
# Stress axis : x y z
#
# Youngs Moduli (GPa) = 18.91254 70.60864 78.45454
#
# Poissons Ratio (x) = 0.61471 0.97520
# Poissons Ratio (y) = 0.16465 0.25921
# Poissons Ratio (z) = 0.23509 0.23328
#
# Static dielectric constant tensor:
#      x y z
#    x 1.471000 0.000000 0.000000 
#    y 0.000000 1.463620 0.000000 
#    z 0.000000 0.000000 1.463630 
# 
# From -- ./inp_files/27771.got.cif
#   From: 2010.05.17/outbox.cif.g08.bks.cpg/sg51_14_cif.got.tgz:27771.got - 2010.06.03 11:52:47.
