data_PCOD9401167
_publ_section_title
;
Structure prediction by ZEFSAII (Michael W. Deem and Ramdas Pophale) SiO2 
 PCOD9401167
Probable space group: P M M A
;
_chemical_formula_sum "Si O2"
_cell_formula_units_Z 56
_cell_length_a 7.626914
_cell_length_b 19.768902
_cell_length_c 19.191994
_cell_angle_alpha 90.000000
_cell_angle_beta 90.000000
_cell_angle_gamma 90.000000
_cell_volume 2893.686626
_symmetry_space_group_name_H-M "P M M A"
_symmetry_group_IT_number 51
_symmetry_cell_setting 'orthorhombic'
loop_
_space_group_symop_operation_xyz
x,y,z
1/2-x,-y,z
1/2+x,-y,-z
-x,y,-z
-x,-y,-z
1/2+x,y,-z
1/2-x,y,z
x,-y,z
loop_
_atom_site_type_symbol
_atom_site_label
_atom_site_fract_x
_atom_site_fract_y
_atom_site_fract_z
Si Si1 0.958304 0.574548 0.372718
Si Si2 0.460458 0.157215 0.078235
Si Si3 0.451185 0.710788 0.146487
Si Si4 0.457245 0.210804 0.715519
Si Si5 0.460183 0.716516 0.577022
Si Si6 0.537262 0.575745 0.790653
Si Si7 0.962009 0.923757 0.786803
O O1 0.750000 0.571791 0.385774
O O2 0.031907 0.500000 0.389790
O O3 0.030292 0.640020 0.412133
O O4 0.982860 0.585945 0.289831
O O5 0.250000 0.160645 0.085601
O O6 0.530621 0.232867 0.095176
O O7 0.522827 0.106540 0.138627
O O8 0.500000 0.136128 0.000000
O O9 0.250000 0.699785 0.124331
O O10 0.453066 0.748594 0.221433
O O11 0.529481 0.637054 0.161522
O O12 0.250000 0.225262 0.721524
O O13 0.521670 0.237326 0.641092
O O14 0.484940 0.131656 0.729772
O O15 0.500000 0.741641 0.500000
O O16 0.250000 0.713209 0.583194
O O17 0.750000 0.577789 0.791343
O O18 0.481719 0.500000 0.811172
O O19 0.750000 0.925298 0.788144
O O20 0.024789 0.000000 0.775623
#
# Coordination Sequence:
#
# PCOD9401167 Si02
#       7
#     8   8   8   8   8   8   8
#     4   9  17  30  45  63  93 128 159 198 248 292
#     4   9  18  31  47  71 101 132 161 190 226 274
#     4   9  17  30  48  68  94 128 163 200 244 288
#     4  10  19  32  50  74  99 122 159 203 238 279
#     4  10  21  33  46  68  96 129 165 202 243 286
#     4   9  16  26  44  69  91 117 160 208 248 287
#     4   9  19  36  56  77 101 129 157 186 229 284
#
# _framework density 19.352477
#
# number of rings (size 3 to 8) (size 9 to 14) (size 15 to 20)
#    0.000    2.714    1.429    1.286    0.000    4.857 
#    0.000    0.000    0.000    0.857    0.000    0.000 
#    0.000    0.000    0.000    0.000    0.000    0.286 
#
# Total GULP energy -312209.935694 kJ/mol
# GULP energy per Si atom -5575.177423 kJ/mol
# Density = 1.930843 g / cm^3
# Si number density = 19.352477 Si / 1000 Ang^3
#
#
#
# Elastic Constant Matrix: (Units=GPa)
#
#
# Indices 1 2 3 4 5 6 
#
# 1 40.3190 -0.0990 -0.0198 0.0000 0.0000 0.0000
# 2 -0.0990 116.1861 37.5093 0.0000 0.0000 0.0000
# 3 -0.0198 37.5093 71.7812 0.0000 0.0000 0.0000
# 4 0.0000 0.0000 0.0000 18.0009 0.0000 0.0000
# 5 0.0000 0.0000 0.0000 0.0000 20.2007 0.0000
# 6 0.0000 0.0000 0.0000 0.0000 0.0000 5.3943
#
#
#
# Elastic Compliance Matrix: (Units=1/GPa)
#
#
# Indices 1 2 3 4 5 6 
#
# 1 0.024802 0.000023 -0.000005 0.000000 0.000000 0.000000
# 2 0.000023 0.010354 -0.005410 0.000000 0.000000 0.000000
# 3 -0.000005 -0.005410 0.016758 0.000000 0.000000 0.000000
# 4 0.000000 0.000000 0.000000 0.055553 0.000000 0.000000
# 5 0.000000 0.000000 0.000000 0.000000 0.049503 0.000000
# 6 0.000000 0.000000 0.000000 0.000000 0.000000 0.185380
#
#
# Mechanical properties :
#
#
# Convention : Reuss Voigt Hill
#
# Bulk Modulus (GPa) = 24.31371 33.67416 28.99394
# Shear Modulus (GPa) = 13.62974 21.44558 17.53766
#
# Velocity S-wave (km/s) = 2.65672 3.33251 3.01362
# Velocity P-wave (km/s) = 4.69061 5.67853 5.20805
#
# Compressibility (1/GPa) = 0.04112906
#
# Stress axis : x y z
#
# Youngs Moduli (GPa) = 40.31890 96.58544 59.67182
#
# Poissons Ratio (x) = -0.00220 0.00030
# Poissons Ratio (y) = -0.00092 0.32284
# Poissons Ratio (z) = 0.00020 0.52255
#
# Static dielectric constant tensor:
#      x y z
#    x 1.727850 0.000000 0.000000 
#    y 0.000000 1.712910 0.000000 
#    z 0.000000 0.000000 1.647340 
# 
# From -- ./inp_files/28165.got.cif
#   From: 2010.05.17/outbox.cif.g08.bks.cpg/sg51_15_cif.got.tgz:28165.got - 2010.06.03 11:52:47.
