data_PCOD9401659
_publ_section_title
;
Structure prediction by ZEFSAII (Michael W. Deem and Ramdas Pophale) SiO2 
 PCOD9401659
Probable space group: P M M A
;
_chemical_formula_sum "Si O2"
_cell_formula_units_Z 40
_cell_length_a 8.610227
_cell_length_b 26.718803
_cell_length_c 9.460888
_cell_angle_alpha 90.000000
_cell_angle_beta 90.000000
_cell_angle_gamma 90.000000
_cell_volume 2176.524201
_symmetry_space_group_name_H-M "P M M A"
_symmetry_group_IT_number 51
_symmetry_cell_setting 'orthorhombic'
loop_
_space_group_symop_operation_xyz
x,y,z
1/2-x,-y,z
1/2+x,-y,-z
-x,y,-z
-x,-y,-z
1/2+x,y,-z
1/2-x,y,z
x,-y,z
loop_
_atom_site_type_symbol
_atom_site_label
_atom_site_fract_x
_atom_site_fract_y
_atom_site_fract_z
Si Si1 0.063913 0.500000 0.159678
Si Si2 0.936460 0.108874 0.659348
Si Si3 0.437058 0.312244 0.842256
Si Si4 0.436134 0.800622 0.842546
Si Si5 0.437101 0.000000 0.339847
Si Si6 0.437257 0.407242 0.659027
O O1 0.250000 0.500000 0.156454
O O2 0.002915 0.548268 0.244442
O O3 0.000000 0.500000 0.000000
O O4 0.750000 0.110946 0.656822
O O5 0.000000 0.111222 0.500000
O O6 0.000314 0.155604 0.744992
O O7 0.984525 0.054074 0.721252
O O8 0.250000 0.313118 0.850260
O O9 0.484515 0.255881 0.799189
O O10 0.485080 0.354898 0.732454
O O11 0.500000 0.322182 0.000000
O O12 0.250000 0.802422 0.843659
O O13 0.500000 0.807978 0.000000
O O14 0.500000 0.000000 0.500000
O O15 0.250000 0.000000 0.344277
O O16 0.500000 0.411071 0.500000
O O17 0.250000 0.410138 0.656924
#
# Coordination Sequence:
#
# PCOD9401659 Si02
#       6
#     4   8   8   8   4   8
#     4  12  25  42  63  88 116 150 188 228 271 324
#     4  10  19  33  53  78 105 138 177 222 270 323
#     4   9  20  37  58  81 108 142 183 224 269 323
#     4  10  20  36  55  79 109 143 180 223 271 323
#     4   8  16  30  49  72 101 134 174 218 266 320
#     4  11  23  40  60  86 117 150 185 227 274 321
#
# _framework density 18.377927
#
# number of rings (size 3 to 8) (size 9 to 14) (size 15 to 20)
#    0.000    2.000    0.000    3.600    0.000    5.600 
#    0.000    2.500    0.000    0.000    0.000    0.000 
#    0.000    0.000    0.000    0.000    0.000    0.000 
#
# Total GULP energy -223232.713682 kJ/mol
# GULP energy per Si atom -5580.817842 kJ/mol
# Density = 1.833610 g / cm^3
# Si number density = 18.377927 Si / 1000 Ang^3
#
#
#
# Elastic Constant Matrix: (Units=GPa)
#
#
# Indices 1 2 3 4 5 6 
#
# 1 64.9398 58.6368 41.0762 0.0000 0.0000 0.0000
# 2 58.6368 203.1374 116.7116 0.0000 0.0000 0.0000
# 3 41.0762 116.7116 119.1518 0.0000 0.0000 0.0000
# 4 0.0000 0.0000 0.0000 39.4687 0.0000 0.0000
# 5 0.0000 0.0000 0.0000 0.0000 34.1990 0.0000
# 6 0.0000 0.0000 0.0000 0.0000 0.0000 26.5981
#
#
#
# Elastic Compliance Matrix: (Units=1/GPa)
#
#
# Indices 1 2 3 4 5 6 
#
# 1 0.021292 -0.004411 -0.003019 0.000000 0.000000 0.000000
# 2 -0.004411 0.012173 -0.010403 0.000000 0.000000 0.000000
# 3 -0.003019 -0.010403 0.019624 0.000000 0.000000 0.000000
# 4 0.000000 0.000000 0.000000 0.025337 0.000000 0.000000
# 5 0.000000 0.000000 0.000000 0.000000 0.029241 0.000000
# 6 0.000000 0.000000 0.000000 0.000000 0.000000 0.037597
#
#
# Mechanical properties :
#
#
# Convention : Reuss Voigt Hill
#
# Bulk Modulus (GPa) = 57.40082 91.11982 74.26032
# Shear Modulus (GPa) = 26.77569 31.44012 29.10790
#
# Velocity S-wave (km/s) = 3.82114 4.14061 3.98408
# Velocity P-wave (km/s) = 7.12527 8.51753 7.85232
#
# Compressibility (1/GPa) = 0.01742135
#
# Stress axis : x y z
#
# Youngs Moduli (GPa) = 46.96651 82.14739 50.95929
#
# Poissons Ratio (x) = 0.36239 0.15385
# Poissons Ratio (y) = 0.20719 0.53014
# Poissons Ratio (z) = 0.14179 0.85459
#
# Static dielectric constant tensor:
#      x y z
#    x 1.623290 0.000000 0.000000 
#    y 0.000000 1.668120 0.000000 
#    z 0.000000 0.000000 1.600060 
# 
# From -- ./inp_files/5616.got.cif
#   From: 2010.05.17/outbox.cif.g08.bks.cpg/sg51_3_cif.got.tgz:5616.got - 2010.06.03 11:52:47.
