data_PCOD9401454
_publ_section_title
;
Structure prediction by ZEFSAII (Michael W. Deem and Ramdas Pophale) SiO2 
 PCOD9401454
Probable space group: P M M A
;
_chemical_formula_sum "Si O2"
_cell_formula_units_Z 36
_cell_length_a 9.090485
_cell_length_b 7.434238
_cell_length_c 25.558074
_cell_angle_alpha 90.000000
_cell_angle_beta 90.000000
_cell_angle_gamma 90.000000
_cell_volume 1727.235829
_symmetry_space_group_name_H-M "P M M A"
_symmetry_group_IT_number 51
_symmetry_cell_setting 'orthorhombic'
loop_
_space_group_symop_operation_xyz
x,y,z
1/2-x,-y,z
1/2+x,-y,-z
-x,y,-z
-x,-y,-z
1/2+x,y,-z
1/2-x,y,z
x,-y,z
loop_
_atom_site_type_symbol
_atom_site_label
_atom_site_fract_x
_atom_site_fract_y
_atom_site_fract_z
Si Si1 0.425555 0.500000 0.943359
Si Si2 0.919450 0.280400 0.659052
Si Si3 0.080449 0.719718 0.553039
Si Si4 0.080496 0.281913 0.765031
Si Si5 0.920696 0.793155 0.872758
O O1 0.250000 0.500000 0.947439
O O2 0.482727 0.329839 0.910406
O O3 0.500000 0.500000 0.000000
O O4 0.750000 0.223630 0.661614
O O5 0.920416 0.500000 0.658916
O O6 0.995962 0.222562 0.605278
O O7 0.009017 0.223614 0.710313
O O8 0.250000 0.775933 0.553825
O O9 0.079194 0.500000 0.553039
O O10 0.000000 0.777385 0.500000
O O11 0.250000 0.223874 0.769495
O O12 0.079686 0.500000 0.765700
O O13 0.985294 0.220871 0.814342
O O14 0.750000 0.734347 0.873074
O O15 0.926599 0.000000 0.889587
#
# Coordination Sequence:
#
# PCOD9401454 Si02
#       5
#     4   8   8   8   8
#     4  12  26  46  72 100 132 172 211 256 305 358
#     4   9  16  25  39  61  91 132 181 234 292 356
#     4   9  15  22  32  49  79 121 171 228 289 355
#     4  10  19  32  53  81 113 152 196 246 303 362
#     4  11  24  42  66  96 130 168 210 257 308 364
#
# _framework density 20.842551
#
# number of rings (size 3 to 8) (size 9 to 14) (size 15 to 20)
#    0.000    2.000    1.111    3.667    0.000    8.444 
#    0.000    0.000    0.000    0.000    0.000    0.000 
#    0.000    0.889    0.000    3.333    0.000    7.333 
#
# Total GULP energy -201376.113589 kJ/mol
# GULP energy per Si atom -5593.780933 kJ/mol
# Density = 2.079511 g / cm^3
# Si number density = 20.842551 Si / 1000 Ang^3
#
#
#
# Elastic Constant Matrix: (Units=GPa)
#
#
# Indices 1 2 3 4 5 6 
#
# 1 210.1950 35.2837 93.6788 0.0000 0.0000 0.0000
# 2 35.2837 79.9765 31.4876 0.0000 0.0000 0.0000
# 3 93.6788 31.4876 178.0840 0.0000 0.0000 0.0000
# 4 0.0000 0.0000 0.0000 -28.7649 0.0000 0.0000
# 5 0.0000 0.0000 0.0000 0.0000 46.9428 0.0000
# 6 0.0000 0.0000 0.0000 0.0000 0.0000 -11.9206
#
#
#
# Elastic Compliance Matrix: (Units=1/GPa)
#
#
# Indices 1 2 3 4 5 6 
#
# 1 0.006402 -0.001611 -0.003083 0.000000 0.000000 0.000000
# 2 -0.001611 0.013844 -0.001601 0.000000 0.000000 0.000000
# 3 -0.003083 -0.001601 0.007520 0.000000 0.000000 0.000000
# 4 0.000000 0.000000 0.000000 -0.034765 0.000000 0.000000
# 5 0.000000 0.000000 0.000000 0.000000 0.021303 0.000000
# 6 0.000000 0.000000 0.000000 0.000000 0.000000 -0.083888
#
#
# Mechanical properties :
#
#
# Convention : Reuss Voigt Hill
#
# Bulk Modulus (GPa) = 65.88423 87.68397 76.78410
# Shear Modulus (GPa) = -96.27102 21.77180 -37.24961
#
# Velocity S-wave (km/s) = -6.80367 3.23551 -4.23210
# Velocity P-wave (km/s) = 5.48095 7.49127 3.61097
#
# Compressibility (1/GPa) = 0.01517814
#
# Stress axis : x y z
#
# Youngs Moduli (GPa) = 156.20678 72.23131 132.97847
#
# Poissons Ratio (x) = 0.11633 0.40995
# Poissons Ratio (y) = 0.25158 0.21285
# Poissons Ratio (z) = 0.48155 0.11562
#
# Static dielectric constant tensor:
#      x y z
#    x 1.696730 0.000000 0.000000 
#    y 0.000000 1.883230 0.000000 
#    z 0.000000 0.000000 1.684950 
# 
# From -- ./inp_files/34329.got.cif
#   From: 2010.05.17/outbox.cif.g08.bks.cpg/sg51_18_cif.got.tgz:34329.got - 2010.06.03 11:52:47.
