data_PCOD9401180
_publ_section_title
;
Structure prediction by ZEFSAII (Michael W. Deem and Ramdas Pophale) SiO2 
 PCOD9401180
Probable space group: P M M A
;
_chemical_formula_sum "Si O2"
_cell_formula_units_Z 64
_cell_length_a 14.563725
_cell_length_b 9.575856
_cell_length_c 21.208506
_cell_angle_alpha 90.000000
_cell_angle_beta 90.000000
_cell_angle_gamma 90.000000
_cell_volume 2957.741076
_symmetry_space_group_name_H-M "P M M A"
_symmetry_group_IT_number 51
_symmetry_cell_setting 'orthorhombic'
loop_
_space_group_symop_operation_xyz
x,y,z
1/2-x,-y,z
1/2+x,-y,-z
-x,y,-z
-x,-y,-z
1/2+x,y,-z
1/2-x,y,z
x,-y,z
loop_
_atom_site_type_symbol
_atom_site_label
_atom_site_fract_x
_atom_site_fract_y
_atom_site_fract_z
Si Si1 0.612239 0.839161 0.498517
Si Si2 0.640290 0.842979 0.741854
Si Si3 0.389933 0.659041 0.382102
Si Si4 0.862571 0.159262 0.119716
Si Si5 0.359861 0.657946 0.762161
Si Si6 0.637836 0.660356 0.858416
Si Si7 0.361714 0.660007 0.999090
Si Si8 0.608475 0.659194 0.380233
O O1 0.500000 0.840794 0.500000
O O2 0.643456 0.747623 0.558106
O O3 0.641982 0.762629 0.434344
O O4 0.641521 0.000000 0.502232
O O5 0.750000 0.855200 0.749143
O O6 0.626036 0.745004 0.681558
O O7 0.605800 0.764995 0.804420
O O8 0.602717 0.000000 0.733396
O O9 0.354925 0.500000 0.379217
O O10 0.499499 0.649288 0.389522
O O11 0.750000 0.158101 0.119637
O O12 0.892221 0.244782 0.181363
O O13 0.891804 0.237924 0.056145
O O14 0.893775 0.000000 0.121443
O O15 0.250000 0.648246 0.769306
O O16 0.397915 0.500000 0.766497
O O17 0.376528 0.709866 0.691190
O O18 0.750000 0.660993 0.857636
O O19 0.610069 0.500000 0.845717
O O20 0.610077 0.697551 0.929768
O O21 0.250000 0.660762 0.998814
O O22 0.389606 0.500000 0.985996
O O23 0.645035 0.500000 0.385286
#
# Coordination Sequence:
#
# PCOD9401180 Si02
#       8
#     8   8   8   8   8   8   8   8
#     4   9  17  30  49  71  93 118 150 189 232 273
#     4  10  20  32  46  67  96 125 152 186 229 276
#     4  10  19  32  51  71  92 119 153 192 228 269
#     4   9  16  24  36  58  88 119 151 187 225 265
#     4   9  17  30  47  66  92 124 153 184 225 271
#     4   8  14  25  41  61  86 117 152 187 224 268
#     4   8  13  22  37  57  82 114 151 187 222 263
#     4   9  18  32  50  72  93 117 154 194 229 268
#
# _framework density 21.638134999999998
#
# number of rings (size 3 to 8) (size 9 to 14) (size 15 to 20)
#    0.000    3.000    0.000    2.250    0.000    5.250 
#    0.000    3.125    0.000    2.250    0.000    0.875 
#    0.000    7.000    0.000    0.000    0.000    0.000 
#
# Total GULP energy -357401.632532 kJ/mol
# GULP energy per Si atom -5584.400508 kJ/mol
# Density = 2.158889 g / cm^3
# Si number density = 21.638135 Si / 1000 Ang^3
#
#
#
# Elastic Constant Matrix: (Units=GPa)
#
#
# Indices 1 2 3 4 5 6 
#
# 1 67.7098 6.7651 -1.2970 0.0000 0.0000 0.0000
# 2 6.7651 196.8803 162.9555 0.0000 0.0000 0.0000
# 3 -1.2970 162.9555 228.6198 0.0000 0.0000 0.0000
# 4 0.0000 0.0000 0.0000 24.6000 0.0000 0.0000
# 5 0.0000 0.0000 0.0000 0.0000 18.2992 0.0000
# 6 0.0000 0.0000 0.0000 0.0000 0.0000 -1.3312
#
#
#
# Elastic Compliance Matrix: (Units=1/GPa)
#
#
# Indices 1 2 3 4 5 6 
#
# 1 0.014932 -0.001422 0.001099 0.000000 0.000000 0.000000
# 2 -0.001422 0.012523 -0.008934 0.000000 0.000000 0.000000
# 3 0.001099 -0.008934 0.010748 0.000000 0.000000 0.000000
# 4 0.000000 0.000000 0.000000 0.040650 0.000000 0.000000
# 5 0.000000 0.000000 0.000000 0.000000 0.054647 0.000000
# 6 0.000000 0.000000 0.000000 0.000000 0.000000 -0.751187
#
#
# Mechanical properties :
#
#
# Convention : Reuss Voigt Hill
#
# Bulk Modulus (GPa) = 50.79382 92.22855 71.51119
# Shear Modulus (GPa) = -8.43727 29.96603 10.76438
#
# Velocity S-wave (km/s) = -1.97680 3.72542 2.23283
# Velocity P-wave (km/s) = 4.27959 7.82437 6.30617
#
# Compressibility (1/GPa) = 0.01968743
#
# Stress axis : x y z
#
# Youngs Moduli (GPa) = 66.97003 79.85550 93.03853
#
# Poissons Ratio (x) = 0.11358 -0.10220
# Poissons Ratio (y) = 0.09525 0.83120
# Poissons Ratio (z) = -0.07357 0.71342
#
# Static dielectric constant tensor:
#      x y z
#    x 1.858410 0.000000 0.000000 
#    y 0.000000 1.747260 0.000000 
#    z 0.000000 0.000000 1.746590 
# 
# From -- ./inp_files/30894.got.cif
#   From: 2010.05.17/outbox.cif.g08.bks.cpg/sg51_16_cif.got.tgz:30894.got - 2010.06.03 11:52:47.
