data_PCOD9401196
_publ_section_title
;
Structure prediction by ZEFSAII (Michael W. Deem and Ramdas Pophale) SiO2 
 PCOD9401196
Probable space group: P M M A
;
_chemical_formula_sum "Si O2"
_cell_formula_units_Z 48
_cell_length_a 13.611934
_cell_length_b 13.743336
_cell_length_c 13.578002
_cell_angle_alpha 90.000000
_cell_angle_beta 90.000000
_cell_angle_gamma 90.000000
_cell_volume 2540.082763
_symmetry_space_group_name_H-M "P M M A"
_symmetry_group_IT_number 51
_symmetry_cell_setting 'orthorhombic'
loop_
_space_group_symop_operation_xyz
x,y,z
1/2-x,-y,z
1/2+x,-y,-z
-x,y,-z
-x,-y,-z
1/2+x,y,-z
1/2-x,y,z
x,-y,z
loop_
_atom_site_type_symbol
_atom_site_label
_atom_site_fract_x
_atom_site_fract_y
_atom_site_fract_z
Si Si1 0.131373 0.393368 0.851319
Si Si2 0.447840 0.111607 0.739292
Si Si3 0.935475 0.311568 0.355610
Si Si4 0.861965 0.616915 0.564384
Si Si5 0.131397 0.807230 0.940809
Si Si6 0.360702 0.884324 0.151683
O O1 0.250000 0.393191 0.851739
O O2 0.097038 0.500000 0.882714
O O3 0.097093 0.370208 0.740815
O O4 0.099095 0.302546 0.917024
O O5 0.414137 0.197985 0.667685
O O6 0.400326 0.127676 0.847562
O O7 0.563052 0.130596 0.760786
O O8 0.432244 0.000000 0.707549
O O9 0.879084 0.349422 0.451729
O O10 0.050743 0.331920 0.375343
O O11 0.750000 0.639044 0.594838
O O12 0.875819 0.500000 0.569693
O O13 0.250000 0.810772 0.942579
O O14 0.100930 0.839487 0.049561
O O15 0.250000 0.849636 0.171898
O O16 0.357105 0.000000 0.134813
#
# Coordination Sequence:
#
# PCOD9401196 Si02
#       6
#     8   8   8   8   8   8
#     4   9  16  27  46  71  98 127 158 194 238 284
#     4  10  20  32  48  70  97 129 161 195 236 279
#     4  10  19  32  51  73  98 122 153 194 234 280
#     4  10  20  35  56  77  95 118 150 189 234 284
#     4   9  17  28  45  70  97 127 164 203 238 272
#     4   9  17  30  48  68  91 123 164 203 234 268
#
# _framework density 18.897022
#
# number of rings (size 3 to 8) (size 9 to 14) (size 15 to 20)
#    0.000    2.500    0.000    3.500    0.000    5.000 
#    0.000    1.667    0.000   11.000    0.000    2.333 
#    0.000    0.000    0.000    0.000    0.000    0.000 
#
# Total GULP energy -267687.410365 kJ/mol
# GULP energy per Si atom -5576.821049 kJ/mol
# Density = 1.885401 g / cm^3
# Si number density = 18.897022 Si / 1000 Ang^3
#
#
#
# Elastic Constant Matrix: (Units=GPa)
#
#
# Indices 1 2 3 4 5 6 
#
# 1 28.9604 6.3659 -11.8928 0.0000 0.0000 0.0000
# 2 6.3659 87.0477 11.4383 0.0000 0.0000 0.0000
# 3 -11.8928 11.4383 17.6210 0.0000 0.0000 0.0000
# 4 0.0000 0.0000 0.0000 12.5839 0.0000 0.0000
# 5 0.0000 0.0000 0.0000 0.0000 12.3838 0.0000
# 6 0.0000 0.0000 0.0000 0.0000 0.0000 21.3203
#
#
#
# Elastic Compliance Matrix: (Units=1/GPa)
#
#
# Indices 1 2 3 4 5 6 
#
# 1 0.054225 -0.009593 0.042825 0.000000 0.000000 0.000000
# 2 -0.009593 0.014256 -0.015729 0.000000 0.000000 0.000000
# 3 0.042825 -0.015729 0.095864 0.000000 0.000000 0.000000
# 4 0.000000 0.000000 0.000000 0.079467 0.000000 0.000000
# 5 0.000000 0.000000 0.000000 0.000000 0.080751 0.000000
# 6 0.000000 0.000000 0.000000 0.000000 0.000000 0.046904
#
#
# Mechanical properties :
#
#
# Convention : Reuss Voigt Hill
#
# Bulk Modulus (GPa) = 5.01628 16.16133 10.58881
# Shear Modulus (GPa) = 12.40971 17.77209 15.09090
#
# Velocity S-wave (km/s) = 2.56540 3.07004 2.82899
# Velocity P-wave (km/s) = 3.38162 4.59758 4.03566
#
# Compressibility (1/GPa) = 0.19935092
#
# Stress axis : x y z
#
# Youngs Moduli (GPa) = 18.44175 70.14459 10.43149
#
# Poissons Ratio (x) = 0.67288 -0.44672
# Poissons Ratio (y) = 0.17691 0.16407
# Poissons Ratio (z) = -0.78976 1.10327
#
# Static dielectric constant tensor:
#      x y z
#    x 1.712040 0.000000 0.000000 
#    y 0.000000 1.659910 0.000000 
#    z 0.000000 0.000000 1.631640 
# 
# From -- ./inp_files/24016.got.cif
#   From: 2010.05.17/outbox.cif.g08.bks.cpg/sg51_13_cif.got.tgz:24016.got - 2010.06.03 11:52:47.
