data_PCOD9401052
_publ_section_title
;
Structure prediction by ZEFSAII (Michael W. Deem and Ramdas Pophale) SiO2 
 PCOD9401052
Probable space group: P M M A
;
_chemical_formula_sum "Si O2"
_cell_formula_units_Z 64
_cell_length_a 13.736325
_cell_length_b 14.437727
_cell_length_c 19.068184
_cell_angle_alpha 90.000000
_cell_angle_beta 90.000000
_cell_angle_gamma 90.000000
_cell_volume 3781.627237
_symmetry_space_group_name_H-M "P M M A"
_symmetry_group_IT_number 51
_symmetry_cell_setting 'orthorhombic'
loop_
_space_group_symop_operation_xyz
x,y,z
1/2-x,-y,z
1/2+x,-y,-z
-x,y,-z
-x,-y,-z
1/2+x,y,-z
1/2-x,y,z
x,-y,z
loop_
_atom_site_type_symbol
_atom_site_label
_atom_site_fract_x
_atom_site_fract_y
_atom_site_fract_z
Si Si1 0.144094 0.612723 0.458230
Si Si2 0.634315 0.294877 0.816990
Si Si3 0.059641 0.387724 0.605129
Si Si4 0.368001 0.395258 0.036297
Si Si5 0.457773 0.611237 0.759873
Si Si6 0.631530 0.895834 0.876036
Si Si7 0.867526 0.292644 0.105002
Si Si8 0.868559 0.895954 0.038433
O O1 0.250000 0.644363 0.433741
O O2 0.143612 0.500000 0.456619
O O3 0.126088 0.640188 0.539478
O O4 0.050268 0.642583 0.414206
O O5 0.750000 0.302916 0.804197
O O6 0.569289 0.353773 0.764092
O O7 0.604837 0.187275 0.824223
O O8 0.612722 0.336236 0.894432
O O9 0.059526 0.500000 0.604719
O O10 0.085401 0.361436 0.684200
O O11 0.250000 0.397969 0.031743
O O12 0.402996 0.500000 0.045391
O O13 0.400502 0.350649 0.963314
O O14 0.452881 0.500000 0.767952
O O15 0.406111 0.661913 0.824390
O O16 0.750000 0.894163 0.877930
O O17 0.602022 0.000000 0.856178
O O18 0.601834 0.878902 0.957349
O O19 0.750000 0.295104 0.106726
O O20 0.897985 0.186861 0.089492
O O21 0.750000 0.895245 0.037672
O O22 0.898886 0.000000 0.058089
#
# Coordination Sequence:
#
# PCOD9401052 Si02
#       8
#     8   8   8   8   8   8   8   8
#     4   8  13  25  48  69  83 106 139 175 215 252
#     4  10  19  32  46  61  84 115 151 194 237 273
#     4   8  16  29  41  61  90 112 141 182 211 244
#     4   9  16  27  42  56  74 108 155 197 224 250
#     4  11  23  33  42  61  91 126 158 184 214 259
#     4   8  13  25  47  68  82 102 139 192 250 293
#     4  10  19  32  46  61  84 115 151 194 237 273
#     4   8  13  25  47  68  82 102 139 192 250 293
#
# _framework density 16.923932000000001
#
# number of rings (size 3 to 8) (size 9 to 14) (size 15 to 20)
#    0.000    3.000    1.250    2.250    0.000    3.000 
#    0.000    4.375    0.000    1.500    0.000    0.000 
#    0.000    0.000    0.000    9.000    0.000   54.500 
#
# Total GULP energy -356876.802846 kJ/mol
# GULP energy per Si atom -5576.200044 kJ/mol
# Density = 1.688541 g / cm^3
# Si number density = 16.923932 Si / 1000 Ang^3
#
#
#
# Elastic Constant Matrix: (Units=GPa)
#
#
# Indices 1 2 3 4 5 6 
#
# 1 45.8981 0.1550 -9.4767 0.0000 0.0000 0.0000
# 2 0.1550 84.7202 17.2223 0.0000 0.0000 0.0000
# 3 -9.4767 17.2223 48.0602 0.0000 0.0000 0.0000
# 4 0.0000 0.0000 0.0000 2.7999 0.0000 0.0000
# 5 0.0000 0.0000 0.0000 0.0000 7.1835 0.0000
# 6 0.0000 0.0000 0.0000 0.0000 0.0000 13.7221
#
#
#
# Elastic Compliance Matrix: (Units=1/GPa)
#
#
# Indices 1 2 3 4 5 6 
#
# 1 0.022795 -0.001030 0.004864 0.000000 0.000000 0.000000
# 2 -0.001030 0.012778 -0.004782 0.000000 0.000000 0.000000
# 3 0.004864 -0.004782 0.023480 0.000000 0.000000 0.000000
# 4 0.000000 0.000000 0.000000 0.357150 0.000000 0.000000
# 5 0.000000 0.000000 0.000000 0.000000 0.139209 0.000000
# 6 0.000000 0.000000 0.000000 0.000000 0.000000 0.072875
#
#
# Mechanical properties :
#
#
# Convention : Reuss Voigt Hill
#
# Bulk Modulus (GPa) = 17.49599 21.60886 19.55243
# Shear Modulus (GPa) = 7.70137 16.12629 11.91383
#
# Velocity S-wave (km/s) = 2.13552 3.09021 2.65611
# Velocity P-wave (km/s) = 4.05476 5.05257 4.58091
#
# Compressibility (1/GPa) = 0.05715594
#
# Stress axis : x y z
#
# Youngs Moduli (GPa) = 43.86891 78.26225 42.58944
#
# Poissons Ratio (x) = 0.08065 -0.20716
# Poissons Ratio (y) = 0.04521 0.20366
# Poissons Ratio (z) = -0.21338 0.37425
#
# Static dielectric constant tensor:
#      x y z
#    x 1.675070 0.000000 0.000000 
#    y 0.000000 1.574220 0.000000 
#    z 0.000000 0.000000 1.550850 
# 
# From -- ./inp_files/29998.got.cif
#   From: 2010.05.17/outbox.cif.g08.bks.cpg/sg51_15_cif.got.tgz:29998.got - 2010.06.03 11:52:47.
