data_PCOD9401621
_publ_section_title
;
Structure prediction by ZEFSAII (Michael W. Deem and Ramdas Pophale) SiO2 
 PCOD9401621
Probable space group: P M M A
;
_chemical_formula_sum "Si O2"
_cell_formula_units_Z 64
_cell_length_a 17.451679
_cell_length_b 9.089232
_cell_length_c 23.250533
_cell_angle_alpha 90.000000
_cell_angle_beta 90.000000
_cell_angle_gamma 90.000000
_cell_volume 3688.054398
_symmetry_space_group_name_H-M "P M M A"
_symmetry_group_IT_number 51
_symmetry_cell_setting 'orthorhombic'
loop_
_space_group_symop_operation_xyz
x,y,z
1/2-x,-y,z
1/2+x,-y,-z
-x,y,-z
-x,-y,-z
1/2+x,y,-z
1/2-x,y,z
x,-y,z
loop_
_atom_site_type_symbol
_atom_site_label
_atom_site_fract_x
_atom_site_fract_y
_atom_site_fract_z
Si Si1 0.162706 0.323727 0.561999
Si Si2 0.012441 0.323744 0.636302
Si Si3 0.162441 0.327090 0.812833
Si Si4 0.517437 0.824777 0.240525
Si Si5 0.439149 0.673569 0.134558
Si Si6 0.595349 0.670746 0.064297
Si Si7 0.159763 0.828411 0.045310
Si Si8 0.922462 0.168284 0.538289
O O1 0.250000 0.287557 0.579641
O O2 0.158377 0.500000 0.553205
O O3 0.096056 0.287197 0.608182
O O4 0.140277 0.243049 0.502750
O O5 0.007993 0.500000 0.641191
O O6 0.004352 0.246868 0.697533
O O7 0.947401 0.263095 0.593242
O O8 0.250000 0.300625 0.796293
O O9 0.143725 0.500000 0.801789
O O10 0.101663 0.226763 0.780524
O O11 0.151389 0.305896 0.881297
O O12 0.460152 0.758531 0.192722
O O13 0.512102 0.000000 0.242608
O O14 0.432857 0.500000 0.145835
O O15 0.511457 0.694482 0.091224
O O16 0.367470 0.737443 0.100531
O O17 0.600997 0.500000 0.045991
O O18 0.615717 0.771459 0.010989
O O19 0.250000 0.809320 0.035302
O O20 0.143332 0.000000 0.054783
O O21 0.000000 0.164586 0.500000
O O22 0.902539 0.000000 0.553115
#
# Coordination Sequence:
#
# PCOD9401621 Si02
#       8
#     8   8   8   8   8   8   8   8
#     4   9  18  32  51  77 108 140 172 207 248 294
#     4  10  19  33  53  75 101 137 179 215 247 294
#     4   9  18  33  51  71 100 138 176 212 251 301
#     4  11  22  35  52  75 103 134 171 216 262 305
#     4  10  21  38  57  75  98 133 176 216 255 305
#     4   9  18  33  53  76 100 130 170 211 251 303
#     4  11  23  35  50  77 108 133 161 205 262 317
#     4   9  17  30  49  74 103 134 168 207 250 292
#
# _framework density 17.353321999999999
#
# number of rings (size 3 to 8) (size 9 to 14) (size 15 to 20)
#    0.000    2.250    0.000    4.125    0.000    8.500 
#    0.000    1.250    0.000    0.750    0.000    0.000 
#    0.000    0.000    0.000    0.000    0.000    0.000 
#
# Total GULP energy -357145.671862 kJ/mol
# GULP energy per Si atom -5580.401123 kJ/mol
# Density = 1.731383 g / cm^3
# Si number density = 17.353322 Si / 1000 Ang^3
#
#
#
# Elastic Constant Matrix: (Units=GPa)
#
#
# Indices 1 2 3 4 5 6 
#
# 1 12.8592 22.1546 19.0878 0.0000 0.0000 0.0000
# 2 22.1546 95.0145 68.6428 0.0000 0.0000 0.0000
# 3 19.0878 68.6428 105.9125 0.0000 0.0000 0.0000
# 4 0.0000 0.0000 0.0000 16.3802 0.0000 0.0000
# 5 0.0000 0.0000 0.0000 0.0000 6.1095 0.0000
# 6 0.0000 0.0000 0.0000 0.0000 0.0000 19.2376
#
#
#
# Elastic Compliance Matrix: (Units=1/GPa)
#
#
# Indices 1 2 3 4 5 6 
#
# 1 0.132896 -0.025733 -0.007273 0.000000 0.000000 0.000000
# 2 -0.025733 0.024774 -0.011419 0.000000 0.000000 0.000000
# 3 -0.007273 -0.011419 0.018153 0.000000 0.000000 0.000000
# 4 0.000000 0.000000 0.000000 0.061049 0.000000 0.000000
# 5 0.000000 0.000000 0.000000 0.000000 0.163680 0.000000
# 6 0.000000 0.000000 0.000000 0.000000 0.000000 0.051982
#
#
# Mechanical properties :
#
#
# Convention : Reuss Voigt Hill
#
# Bulk Modulus (GPa) = 11.49775 48.17295 29.83535
# Shear Modulus (GPa) = 8.76617 15.27219 12.01918
#
# Velocity S-wave (km/s) = 2.25001 2.96982 2.63461
# Velocity P-wave (km/s) = 3.65925 6.29127 5.14637
#
# Compressibility (1/GPa) = 0.08697353
#
# Stress axis : x y z
#
# Youngs Moduli (GPa) = 7.52469 40.36438 55.08692
#
# Poissons Ratio (x) = 1.03870 0.40065
# Poissons Ratio (y) = 0.19363 0.62902
# Poissons Ratio (z) = 0.05473 0.46091
#
# Static dielectric constant tensor:
#      x y z
#    x 1.591790 0.000000 0.000000 
#    y 0.000000 1.579960 0.000000 
#    z 0.000000 0.000000 1.573290 
# 
# From -- ./inp_files/33780.got.cif
#   From: 2010.05.17/outbox.cif.g08.bks.cpg/sg51_17_cif.got.tgz:33780.got - 2010.06.03 11:52:47.
