data_PCOD9401629
_publ_section_title
;
Structure prediction by ZEFSAII (Michael W. Deem and Ramdas Pophale) SiO2 
 PCOD9401629
Probable space group: P M M A
;
_chemical_formula_sum "Si O2"
_cell_formula_units_Z 40
_cell_length_a 8.579680
_cell_length_b 19.296783
_cell_length_c 13.920506
_cell_angle_alpha 90.000000
_cell_angle_beta 90.000000
_cell_angle_gamma 90.000000
_cell_volume 2304.682080
_symmetry_space_group_name_H-M "P M M A"
_symmetry_group_IT_number 51
_symmetry_cell_setting 'orthorhombic'
loop_
_space_group_symop_operation_xyz
x,y,z
1/2-x,-y,z
1/2+x,-y,-z
-x,y,-z
-x,-y,-z
1/2+x,y,-z
1/2-x,y,z
x,-y,z
loop_
_atom_site_type_symbol
_atom_site_label
_atom_site_fract_x
_atom_site_fract_y
_atom_site_fract_z
Si Si1 0.561937 0.077319 0.107692
Si Si2 0.064510 0.713287 0.395067
Si Si3 0.062509 0.218157 0.793974
Si Si4 0.936752 0.579110 0.295638
Si Si5 0.563789 0.646625 0.894676
O O1 0.750000 0.077773 0.104497
O O2 0.513454 0.141461 0.173738
O O3 0.511863 0.000000 0.139122
O O4 0.500000 0.088124 0.000000
O O5 0.250000 0.718458 0.392922
O O6 0.000000 0.729583 0.500000
O O7 0.992531 0.761799 0.312409
O O8 0.014218 0.635477 0.365004
O O9 0.250000 0.223785 0.799393
O O10 0.989715 0.275957 0.864371
O O11 0.750000 0.587429 0.299819
O O12 0.976627 0.500000 0.319355
O O13 0.993402 0.597765 0.188210
O O14 0.750000 0.642552 0.892898
O O15 0.500000 0.629997 0.000000
#
# Coordination Sequence:
#
# PCOD9401629 Si02
#       5
#     8   8   8   8   8
#     4   9  18  31  49  76 109 143 174 205 244 291
#     4  11  22  37  57  78 101 129 166 209 255 305
#     4  10  19  33  53  76 104 134 169 212 254 299
#     4  10  21  37  55  76 102 130 164 207 254 304
#     4  11  21  33  50  72 101 136 174 211 250 299
#
# _framework density 17.355974
#
# number of rings (size 3 to 8) (size 9 to 14) (size 15 to 20)
#    0.000    1.800    0.000    7.800    0.000    5.600 
#    0.000    0.000    0.000    0.600    0.000    0.000 
#    0.000    0.000    0.000    0.000    0.000    0.000 
#
# Total GULP energy -223395.082236 kJ/mol
# GULP energy per Si atom -5584.877056 kJ/mol
# Density = 1.731647 g / cm^3
# Si number density = 17.355974 Si / 1000 Ang^3
#
#
#
# Elastic Constant Matrix: (Units=GPa)
#
#
# Indices 1 2 3 4 5 6 
#
# 1 51.9583 8.6548 -6.9818 0.0000 0.0000 0.0000
# 2 8.6548 101.4935 11.2824 0.0000 0.0000 0.0000
# 3 -6.9818 11.2824 46.7875 0.0000 0.0000 0.0000
# 4 0.0000 0.0000 0.0000 5.0290 0.0000 0.0000
# 5 0.0000 0.0000 0.0000 0.0000 31.0411 0.0000
# 6 0.0000 0.0000 0.0000 0.0000 0.0000 20.6478
#
#
#
# Elastic Compliance Matrix: (Units=1/GPa)
#
#
# Indices 1 2 3 4 5 6 
#
# 1 0.020066 -0.002100 0.003501 0.000000 0.000000 0.000000
# 2 -0.002100 0.010344 -0.002808 0.000000 0.000000 0.000000
# 3 0.003501 -0.002808 0.022573 0.000000 0.000000 0.000000
# 4 0.000000 0.000000 0.000000 0.198849 0.000000 0.000000
# 5 0.000000 0.000000 0.000000 0.000000 0.032215 0.000000
# 6 0.000000 0.000000 0.000000 0.000000 0.000000 0.048431
#
#
# Mechanical properties :
#
#
# Convention : Reuss Voigt Hill
#
# Bulk Modulus (GPa) = 19.93269 25.12777 22.53023
# Shear Modulus (GPa) = 14.20390 23.82917 19.01654
#
# Velocity S-wave (km/s) = 2.86385 3.70938 3.31369
# Velocity P-wave (km/s) = 4.73762 5.73195 5.25834
#
# Compressibility (1/GPa) = 0.05016884
#
# Stress axis : x y z
#
# Youngs Moduli (GPa) = 49.83431 96.67373 44.30122
#
# Poissons Ratio (x) = 0.20305 -0.15509
# Poissons Ratio (y) = 0.10467 0.12439
# Poissons Ratio (z) = -0.17446 0.27144
#
# Static dielectric constant tensor:
#      x y z
#    x 1.579670 0.000000 0.000000 
#    y 0.000000 1.599620 0.000000 
#    z 0.000000 0.000000 1.560670 
# 
# From -- ./inp_files/20784.got.cif
#   From: 2010.05.17/outbox.cif.g08.bks.cpg/sg51_11_cif.got.tgz:20784.got - 2010.06.03 11:52:47.
