data_PCOD9401618
_publ_section_title
;
Structure prediction by ZEFSAII (Michael W. Deem and Ramdas Pophale) SiO2 
 PCOD9401618
Probable space group: P M M A
;
_chemical_formula_sum "Si O2"
_cell_formula_units_Z 60
_cell_length_a 8.911762
_cell_length_b 21.025430
_cell_length_c 18.763635
_cell_angle_alpha 90.000000
_cell_angle_beta 90.000000
_cell_angle_gamma 90.000000
_cell_volume 3515.810366
_symmetry_space_group_name_H-M "P M M A"
_symmetry_group_IT_number 51
_symmetry_cell_setting 'orthorhombic'
loop_
_space_group_symop_operation_xyz
x,y,z
1/2-x,-y,z
1/2+x,-y,-z
-x,y,-z
-x,-y,-z
1/2+x,y,-z
1/2-x,y,z
x,-y,z
loop_
_atom_site_type_symbol
_atom_site_label
_atom_site_fract_x
_atom_site_fract_y
_atom_site_fract_z
Si Si1 0.570179 0.825017 0.299014
Si Si2 0.069345 0.000000 0.077287
Si Si3 0.929613 0.698052 0.222387
Si Si4 0.073787 0.254676 0.075923
Si Si5 0.926703 0.126400 0.844536
Si Si6 0.071667 0.427091 0.280981
Si Si7 0.080749 0.423651 0.569596
Si Si8 0.568277 0.926032 0.421015
O O1 0.750000 0.823062 0.304692
O O2 0.520986 0.751313 0.282056
O O3 0.519866 0.857844 0.225594
O O4 0.519035 0.870494 0.364920
O O5 0.023427 0.061230 0.121379
O O6 0.250000 0.000000 0.071302
O O7 0.000000 0.000000 0.000000
O O8 0.750000 0.699997 0.220118
O O9 0.995226 0.714867 0.144885
O O10 0.987197 0.627959 0.239591
O O11 0.250000 0.270966 0.074711
O O12 0.058927 0.180127 0.094946
O O13 0.000000 0.269510 0.000000
O O14 0.750000 0.124002 0.824872
O O15 0.250000 0.421692 0.272353
O O16 0.027733 0.500000 0.262906
O O17 0.024021 0.415687 0.362558
O O18 0.250000 0.398916 0.580644
O O19 0.094389 0.500000 0.559839
O O20 0.000000 0.396837 0.500000
O O21 0.500000 0.915719 0.500000
O O22 0.750000 0.923470 0.425361
O O23 0.529671 0.000000 0.399697
#
# Coordination Sequence:
#
# PCOD9401618 Si02
#       8
#     8   4   8   8   8   8   8   8
#     4   9  19  34  52  74 100 131 170 214 257 305
#     4  10  20  32  44  66  99 132 165 202 245 296
#     4  10  20  35  54  77 105 135 170 212 258 310
#     4  10  19  33  53  75 100 132 171 212 255 305
#     4   9  19  32  47  70 100 132 167 208 252 301
#     4  10  20  34  53  77 105 137 173 213 258 312
#     4   9  16  27  45  70 100 133 168 205 245 291
#     4   9  18  33  52  75 102 133 173 219 264 308
#
# _framework density 17.065764999999999
#
# number of rings (size 3 to 8) (size 9 to 14) (size 15 to 20)
#    0.000    2.533    0.000    2.000    0.933    4.533 
#    0.000    0.667    0.000    2.000    0.000    0.000 
#    0.000    0.000    0.000    0.000    0.000    0.000 
#
# Total GULP energy -334074.802674 kJ/mol
# GULP energy per Si atom -5567.913378 kJ/mol
# Density = 1.702692 g / cm^3
# Si number density = 17.065765 Si / 1000 Ang^3
#
#
#
# Elastic Constant Matrix: (Units=GPa)
#
#
# Indices 1 2 3 4 5 6 
#
# 1 39.5331 36.5686 28.4104 0.0000 0.0000 0.0000
# 2 36.5686 111.4000 58.4190 0.0000 0.0000 0.0000
# 3 28.4104 58.4190 85.3451 0.0000 0.0000 0.0000
# 4 0.0000 0.0000 0.0000 -8.6471 0.0000 0.0000
# 5 0.0000 0.0000 0.0000 0.0000 30.0312 0.0000
# 6 0.0000 0.0000 0.0000 0.0000 0.0000 19.2096
#
#
#
# Elastic Compliance Matrix: (Units=1/GPa)
#
#
# Indices 1 2 3 4 5 6 
#
# 1 0.038505 -0.009232 -0.006499 0.000000 0.000000 0.000000
# 2 -0.009232 0.016217 -0.008027 0.000000 0.000000 0.000000
# 3 -0.006499 -0.008027 0.019375 0.000000 0.000000 0.000000
# 4 0.000000 0.000000 0.000000 -0.115645 0.000000 0.000000
# 5 0.000000 0.000000 0.000000 0.000000 0.033299 0.000000
# 6 0.000000 0.000000 0.000000 0.000000 0.000000 0.052057
#
#
# Mechanical properties :
#
#
# Convention : Reuss Voigt Hill
#
# Bulk Modulus (GPa) = 37.62027 53.67492 45.64759
# Shear Modulus (GPa) = 49.90847 15.64407 32.77627
#
# Velocity S-wave (km/s) = 5.41371 3.03098 4.38720
# Velocity P-wave (km/s) = 7.82112 6.61583 7.24359
#
# Compressibility (1/GPa) = 0.02658142
#
# Stress axis : x y z
#
# Youngs Moduli (GPa) = 25.97060 61.66501 51.61264
#
# Poissons Ratio (x) = 0.56928 0.33541
# Poissons Ratio (y) = 0.23976 0.41430
# Poissons Ratio (z) = 0.16877 0.49500
#
# Static dielectric constant tensor:
#      x y z
#    x 1.586240 0.000000 0.000000 
#    y 0.000000 1.604770 0.000000 
#    z 0.000000 0.000000 1.561180 
# 
# From -- ./inp_files/28400.got.cif
#   From: 2010.05.17/outbox.cif.g08.bks.cpg/sg51_15_cif.got.tgz:28400.got - 2010.06.03 11:52:47.
