data_PCOD9401211
_publ_section_title
;
Structure prediction by ZEFSAII (Michael W. Deem and Ramdas Pophale) SiO2 
 PCOD9401211
Probable space group: P M M A
;
_chemical_formula_sum "Si O2"
_cell_formula_units_Z 64
_cell_length_a 9.412983
_cell_length_b 20.138099
_cell_length_c 20.100244
_cell_angle_alpha 90.000000
_cell_angle_beta 90.000000
_cell_angle_gamma 90.000000
_cell_volume 3810.193882
_symmetry_space_group_name_H-M "P M M A"
_symmetry_group_IT_number 51
_symmetry_cell_setting 'orthorhombic'
loop_
_space_group_symop_operation_xyz
x,y,z
1/2-x,-y,z
1/2+x,-y,-z
-x,y,-z
-x,-y,-z
1/2+x,y,-z
1/2-x,y,z
x,-y,z
loop_
_atom_site_type_symbol
_atom_site_label
_atom_site_fract_x
_atom_site_fract_y
_atom_site_fract_z
Si Si1 0.084286 0.079698 0.432874
Si Si2 0.085917 0.395576 0.065604
Si Si3 0.916046 0.769915 0.194578
Si Si4 0.587243 0.233617 0.935458
Si Si5 0.417273 0.609854 0.802479
Si Si6 0.418986 0.301452 0.568785
Si Si7 0.082050 0.826992 0.661661
Si Si8 0.422761 0.427168 0.654609
O O1 0.250000 0.097858 0.439066
O O2 0.000000 0.099064 0.500000
O O3 0.011608 0.115664 0.370773
O O4 0.074601 0.000000 0.426506
O O5 0.250000 0.416885 0.064017
O O6 0.085414 0.314568 0.064637
O O7 0.006585 0.413659 0.134008
O O8 0.000000 0.417258 0.000000
O O9 0.750000 0.782615 0.179874
O O10 0.928507 0.690064 0.203667
O O11 0.953440 0.806847 0.262845
O O12 0.012230 0.788640 0.132227
O O13 0.750000 0.212516 0.938991
O O14 0.500000 0.212048 0.000000
O O15 0.250000 0.594183 0.812455
O O16 0.465789 0.581697 0.731550
O O17 0.500000 0.293058 0.500000
O O18 0.250000 0.307857 0.556524
O O19 0.438905 0.238381 0.616504
O O20 0.469984 0.366959 0.608226
O O21 0.250000 0.843990 0.659030
O O22 0.250000 0.424073 0.655738
O O23 0.465594 0.500000 0.630378
#
# Coordination Sequence:
#
# PCOD9401211 Si02
#       8
#     8   8   8   8   8   8   8   8
#     4  10  21  36  53  74 101 133 168 204 242 287
#     4   9  16  25  39  62  89 117 149 187 232 283
#     4   9  16  27  44  66  93 125 158 197 241 285
#     4   9  16  25  38  60  91 126 160 195 236 285
#     4   9  15  27  46  65  87 117 153 194 238 285
#     4  10  20  34  50  72  97 123 157 198 243 290
#     4  10  19  32  51  74 102 132 164 201 243 289
#     4   9  17  31  51  70  89 119 159 199 242 295
#
# _framework density 16.797046000000002
#
# number of rings (size 3 to 8) (size 9 to 14) (size 15 to 20)
#    0.000    2.625    1.250    1.500    0.000    6.000 
#    0.000    0.625    0.000    1.500    0.000    0.000 
#    0.000    0.500    0.000    1.625    0.000    2.375 
#
# Total GULP energy -356978.549433 kJ/mol
# GULP energy per Si atom -5577.789835 kJ/mol
# Density = 1.675882 g / cm^3
# Si number density = 16.797046 Si / 1000 Ang^3
#
#
#
# Elastic Constant Matrix: (Units=GPa)
#
#
# Indices 1 2 3 4 5 6 
#
# 1 88.7756 33.4965 77.6146 0.0000 0.0000 0.0000
# 2 33.4965 30.4824 29.0205 0.0000 0.0000 0.0000
# 3 77.6146 29.0205 135.3452 0.0000 0.0000 0.0000
# 4 0.0000 0.0000 0.0000 -78.6556 0.0000 0.0000
# 5 0.0000 0.0000 0.0000 0.0000 31.4959 0.0000
# 6 0.0000 0.0000 0.0000 0.0000 0.0000 760.6454
#
#
#
# Elastic Compliance Matrix: (Units=1/GPa)
#
#
# Indices 1 2 3 4 5 6 
#
# 1 0.030715 -0.021339 -0.013038 0.000000 0.000000 0.000000
# 2 -0.021339 0.056046 0.000220 0.000000 0.000000 0.000000
# 3 -0.013038 0.000220 0.014818 0.000000 0.000000 0.000000
# 4 0.000000 0.000000 0.000000 -0.012714 0.000000 0.000000
# 5 0.000000 0.000000 0.000000 0.000000 0.031750 0.000000
# 6 0.000000 0.000000 0.000000 0.000000 0.000000 0.001315
#
#
# Mechanical properties :
#
#
# Convention : Reuss Voigt Hill
#
# Bulk Modulus (GPa) = 30.06264 59.42961 44.74612
# Shear Modulus (GPa) = 24.83441 150.32856 87.58149
#
# Velocity S-wave (km/s) = 3.84930 9.47055 7.22871
# Velocity P-wave (km/s) = 6.13943 12.45176 9.81679
#
# Compressibility (1/GPa) = 0.03326388
#
# Stress axis : x y z
#
# Youngs Moduli (GPa) = 32.55728 17.84255 67.48447
#
# Poissons Ratio (x) = 0.38075 0.87988
# Poissons Ratio (y) = 0.69475 -0.01484
# Poissons Ratio (z) = 0.42449 -0.00392
#
# Static dielectric constant tensor:
#      x y z
#    x 1.558110 0.000000 0.000000 
#    y 0.000000 1.568400 0.000000 
#    z 0.000000 0.000000 1.547000 
# 
# From -- ./inp_files/32581.got.cif
#   From: 2010.05.17/outbox.cif.g08.bks.cpg/sg51_17_cif.got.tgz:32581.got - 2010.06.03 11:52:47.
