data_PCOD9401109
_publ_section_title
;
Structure prediction by ZEFSAII (Michael W. Deem and Ramdas Pophale) SiO2 
 PCOD9401109
Probable space group: P M M A
;
_chemical_formula_sum "Si O2"
_cell_formula_units_Z 56
_cell_length_a 8.501413
_cell_length_b 15.760026
_cell_length_c 21.295065
_cell_angle_alpha 90.000000
_cell_angle_beta 90.000000
_cell_angle_gamma 90.000000
_cell_volume 2853.165832
_symmetry_space_group_name_H-M "P M M A"
_symmetry_group_IT_number 51
_symmetry_cell_setting 'orthorhombic'
loop_
_space_group_symop_operation_xyz
x,y,z
1/2-x,-y,z
1/2+x,-y,-z
-x,y,-z
-x,-y,-z
1/2+x,y,-z
1/2-x,y,z
x,-y,z
loop_
_atom_site_type_symbol
_atom_site_label
_atom_site_fract_x
_atom_site_fract_y
_atom_site_fract_z
Si Si1 0.933083 0.378857 0.067084
Si Si2 0.069637 0.804690 0.059842
Si Si3 0.558482 0.594400 0.209137
Si Si4 0.939638 0.402831 0.431725
Si Si5 0.926033 0.097166 0.166544
Si Si6 0.938528 0.905520 0.693887
Si Si7 0.940559 0.720913 0.318971
O O1 0.750000 0.399743 0.067309
O O2 0.997328 0.403122 0.136320
O O3 0.963155 0.278480 0.065207
O O4 0.000000 0.409666 0.000000
O O5 0.250000 0.781121 0.049726
O O6 0.047449 0.854929 0.123283
O O7 0.000000 0.854146 0.000000
O O8 0.750000 0.598987 0.207396
O O9 0.518702 0.500000 0.234789
O O10 0.508160 0.672738 0.253998
O O11 0.750000 0.403416 0.432707
O O12 0.993218 0.500000 0.421300
O O13 0.987713 0.341539 0.375455
O O14 0.000000 0.375461 0.500000
O O15 0.750000 0.134544 0.161607
O O16 0.981870 0.096941 0.237741
O O17 0.918945 0.000000 0.145580
O O18 0.750000 0.903611 0.698900
O O19 0.994579 0.815070 0.667067
O O20 0.979881 0.000000 0.666502
O O21 0.750000 0.726486 0.316428
#
# Coordination Sequence:
#
# PCOD9401109 Si02
#       7
#     8   8   8   8   8   8   8
#     4  10  19  32  50  69  93 129 173 218 265 318
#     4  11  21  33  49  67  91 122 161 211 265 324
#     4   9  18  32  51  76 104 135 174 220 269 320
#     4   9  18  33  55  85 120 156 191 226 269 324
#     4  10  20  34  51  70  94 125 163 209 263 324
#     4  10  21  36  54  78 108 141 177 220 271 323
#     4  10  19  33  57  84 110 143 184 229 272 319
#
# _framework density 19.627320999999998
#
# number of rings (size 3 to 8) (size 9 to 14) (size 15 to 20)
#    0.000    2.143    0.000    4.714    0.000    5.714 
#    0.000    0.714    0.000    4.714    0.000    0.000 
#    0.000    0.000    0.000    0.000    0.000    0.000 
#
# Total GULP energy -312067.284556 kJ/mol
# GULP energy per Si atom -5572.630081 kJ/mol
# Density = 1.958265 g / cm^3
# Si number density = 19.627321 Si / 1000 Ang^3
#
#
#
# Elastic Constant Matrix: (Units=GPa)
#
#
# Indices 1 2 3 4 5 6 
#
# 1 39.4247 21.5482 16.6642 0.0000 0.0000 0.0000
# 2 21.5482 107.0832 55.8605 0.0000 0.0000 0.0000
# 3 16.6642 55.8605 93.4291 0.0000 0.0000 0.0000
# 4 0.0000 0.0000 0.0000 7.7995 0.0000 0.0000
# 5 0.0000 0.0000 0.0000 0.0000 24.9970 0.0000
# 6 0.0000 0.0000 0.0000 0.0000 0.0000 12.7983
#
#
#
# Elastic Compliance Matrix: (Units=1/GPa)
#
#
# Indices 1 2 3 4 5 6 
#
# 1 0.028876 -0.004540 -0.002436 0.000000 0.000000 0.000000
# 2 -0.004540 0.014285 -0.007731 0.000000 0.000000 0.000000
# 3 -0.002436 -0.007731 0.015760 0.000000 0.000000 0.000000
# 4 0.000000 0.000000 0.000000 0.128214 0.000000 0.000000
# 5 0.000000 0.000000 0.000000 0.000000 0.040005 0.000000
# 6 0.000000 0.000000 0.000000 0.000000 0.000000 0.078135
#
#
# Mechanical properties :
#
#
# Convention : Reuss Voigt Hill
#
# Bulk Modulus (GPa) = 33.89030 47.56476 40.72753
# Shear Modulus (GPa) = 14.51275 18.84323 16.67799
#
# Velocity S-wave (km/s) = 2.72217 3.10183 2.91818
# Velocity P-wave (km/s) = 5.21389 6.09221 5.67008
#
# Compressibility (1/GPa) = 0.02950697
#
# Stress axis : x y z
#
# Youngs Moduli (GPa) = 34.63107 70.00299 63.45090
#
# Poissons Ratio (x) = 0.31781 0.15457
# Poissons Ratio (y) = 0.15722 0.49055
# Poissons Ratio (z) = 0.08436 0.54121
#
# Static dielectric constant tensor:
#      x y z
#    x 1.694260 0.000000 0.000000 
#    y 0.000000 1.738290 0.000000 
#    z 0.000000 0.000000 1.702820 
# 
# From -- ./inp_files/31881.got.cif
#   From: 2010.05.17/outbox.cif.g08.bks.cpg/sg51_16_cif.got.tgz:31881.got - 2010.06.03 11:52:47.
