data_PCOD9401243
_publ_section_title
;
Structure prediction by ZEFSAII (Michael W. Deem and Ramdas Pophale) SiO2 
 PCOD9401243
Probable space group: P M M A
;
_chemical_formula_sum "Si O2"
_cell_formula_units_Z 32
_cell_length_a 20.923159
_cell_length_b 7.642542
_cell_length_c 10.219740
_cell_angle_alpha 90.000000
_cell_angle_beta 90.000000
_cell_angle_gamma 90.000000
_cell_volume 1634.198985
_symmetry_space_group_name_H-M "P M M A"
_symmetry_group_IT_number 51
_symmetry_cell_setting 'orthorhombic'
loop_
_space_group_symop_operation_xyz
x,y,z
1/2-x,-y,z
1/2+x,-y,-z
-x,y,-z
-x,-y,-z
1/2+x,y,-z
1/2-x,y,z
x,-y,z
loop_
_atom_site_type_symbol
_atom_site_label
_atom_site_fract_x
_atom_site_fract_y
_atom_site_fract_z
Si Si1 0.570532 0.206333 0.470827
Si Si2 0.447012 0.288576 0.819084
Si Si3 0.178440 0.207545 0.335950
Si Si4 0.410960 0.288868 0.104292
O O1 0.500000 0.282457 0.500000
O O2 0.582002 0.225878 0.316593
O O3 0.626897 0.281310 0.560590
O O4 0.566943 0.000000 0.502384
O O5 0.446960 0.500000 0.817451
O O6 0.521310 0.231376 0.832164
O O7 0.412477 0.231779 0.952955
O O8 0.250000 0.280799 0.344699
O O9 0.147286 0.229939 0.193245
O O10 0.183153 0.000000 0.361061
O O11 0.411624 0.500000 0.104281
#
# Coordination Sequence:
#
# PCOD9401243 Si02
#       4
#     8   8   8   8
#     4  10  19  32  51  77 104 134 173 213 252 300
#     4   9  18  32  52  78 104 130 165 211 258 299
#     4  10  21  36  52  73 104 138 171 210 257 306
#     4   9  18  33  52  76 104 132 166 209 255 304
#
# _framework density 19.581458999999999
#
# number of rings (size 3 to 8) (size 9 to 14) (size 15 to 20)
#    0.000    2.500    2.500    1.500    0.000    3.000 
#    0.000    3.750    0.000    4.500    0.000    0.000 
#    0.000    0.000    0.000    0.000    0.000    0.000 
#
# Total GULP energy -178515.251701 kJ/mol
# GULP energy per Si atom -5578.601616 kJ/mol
# Density = 1.953689 g / cm^3
# Si number density = 19.581459 Si / 1000 Ang^3
#
#
#
# Elastic Constant Matrix: (Units=GPa)
#
#
# Indices 1 2 3 4 5 6 
#
# 1 163.8471 11.5200 92.1912 0.0000 0.0000 0.0000
# 2 11.5200 35.2157 -9.9378 0.0000 0.0000 0.0000
# 3 92.1912 -9.9378 132.2609 0.0000 0.0000 0.0000
# 4 0.0000 0.0000 0.0000 21.1127 0.0000 0.0000
# 5 0.0000 0.0000 0.0000 0.0000 20.5356 0.0000
# 6 0.0000 0.0000 0.0000 0.0000 0.0000 13.7379
#
#
#
# Elastic Compliance Matrix: (Units=1/GPa)
#
#
# Indices 1 2 3 4 5 6 
#
# 1 0.011147 -0.005965 -0.008218 0.000000 0.000000 0.000000
# 2 -0.005965 0.032204 0.006578 0.000000 0.000000 0.000000
# 3 -0.008218 0.006578 0.013783 0.000000 0.000000 0.000000
# 4 0.000000 0.000000 0.000000 0.047365 0.000000 0.000000
# 5 0.000000 0.000000 0.000000 0.000000 0.048696 0.000000
# 6 0.000000 0.000000 0.000000 0.000000 0.000000 0.072792
#
#
# Mechanical properties :
#
#
# Convention : Reuss Voigt Hill
#
# Bulk Modulus (GPa) = 23.85316 57.65229 40.75273
# Shear Modulus (GPa) = 19.59468 26.91393 23.25430
#
# Velocity S-wave (km/s) = 3.16678 3.71139 3.44985
# Velocity P-wave (km/s) = 5.05759 6.91897 6.06017
#
# Compressibility (1/GPa) = 0.04192316
#
# Stress axis : x y z
#
# Youngs Moduli (GPa) = 89.71372 31.05195 72.55199
#
# Poissons Ratio (x) = 0.18524 0.59622
# Poissons Ratio (y) = 0.53518 -0.47724
# Poissons Ratio (z) = 0.73725 -0.20426
#
# Static dielectric constant tensor:
#      x y z
#    x 1.688210 0.000000 0.000000 
#    y 0.000000 1.726070 0.000000 
#    z 0.000000 0.000000 1.686150 
# 
# From -- ./inp_files/9141.got.cif
#   From: 2010.05.17/outbox.cif.g08.bks.cpg/sg51_5_cif.got.tgz:9141.got - 2010.06.03 11:52:47.
