data_PCOD9401209
_publ_section_title
;
Structure prediction by ZEFSAII (Michael W. Deem and Ramdas Pophale) SiO2 
 PCOD9401209
Probable space group: P M M A
;
_chemical_formula_sum "Si O2"
_cell_formula_units_Z 64
_cell_length_a 16.699505
_cell_length_b 9.101314
_cell_length_c 23.473946
_cell_angle_alpha 90.000000
_cell_angle_beta 90.000000
_cell_angle_gamma 90.000000
_cell_volume 3567.744928
_symmetry_space_group_name_H-M "P M M A"
_symmetry_group_IT_number 51
_symmetry_cell_setting 'orthorhombic'
loop_
_space_group_symop_operation_xyz
x,y,z
1/2-x,-y,z
1/2+x,-y,-z
-x,y,-z
-x,-y,-z
1/2+x,y,-z
1/2-x,y,z
x,-y,z
loop_
_atom_site_type_symbol
_atom_site_label
_atom_site_fract_x
_atom_site_fract_y
_atom_site_fract_z
Si Si1 0.838088 0.325106 0.682612
Si Si2 0.585155 0.668002 0.033106
Si Si3 0.496488 0.676121 0.742996
Si Si4 0.160419 0.175997 0.071532
Si Si5 0.595758 0.170654 0.573804
Si Si6 0.923720 0.828702 0.364800
Si Si7 0.996273 0.823781 0.135663
Si Si8 0.843638 0.670009 0.464122
O O1 0.750000 0.292228 0.706445
O O2 0.842849 0.500000 0.671452
O O3 0.912197 0.288015 0.723373
O O4 0.850307 0.241509 0.623256
O O5 0.608339 0.500000 0.045757
O O6 0.566169 0.760647 0.089495
O O7 0.500000 0.664343 0.000000
O O8 0.644636 0.744887 0.988696
O O9 0.488347 0.500000 0.745659
O O10 0.440578 0.743167 0.693669
O O11 0.482034 0.749900 0.803618
O O12 0.250000 0.212026 0.092719
O O13 0.086332 0.214817 0.113047
O O14 0.155990 0.000000 0.063104
O O15 0.505995 0.180534 0.598446
O O16 0.607640 0.255629 0.515181
O O17 0.615589 0.000000 0.565185
O O18 0.858876 0.753407 0.405098
O O19 0.907080 0.000000 0.354161
O O20 0.990937 0.000000 0.138810
O O21 0.750000 0.677369 0.479296
O O22 0.867127 0.500000 0.457904
#
# Coordination Sequence:
#
# PCOD9401209 Si02
#       8
#     8   8   8   8   8   8   8   8
#     4   9  18  32  48  68  98 135 170 204 247 299
#     4   9  17  30  49  73 100 131 168 207 245 286
#     4  10  20  34  52  73  99 133 172 212 251 292
#     4   9  18  32  50  75 108 141 169 202 248 297
#     4  10  20  33  51  76 102 129 165 207 250 300
#     4  10  21  37  55  75 100 131 169 211 253 300
#     4  10  19  32  51  74 101 135 174 211 246 291
#     4  11  23  36  52  76 103 130 162 203 254 310
#
# _framework density 17.938502
#
# number of rings (size 3 to 8) (size 9 to 14) (size 15 to 20)
#    0.000    2.250    0.000    3.000    0.000    9.000 
#    0.000    0.000    0.000    0.750    0.000    0.000 
#    0.000    0.000    0.000    0.000    0.000    0.000 
#
# Total GULP energy -357119.265385 kJ/mol
# GULP energy per Si atom -5579.988522 kJ/mol
# Density = 1.789767 g / cm^3
# Si number density = 17.938502 Si / 1000 Ang^3
#
#
#
# Elastic Constant Matrix: (Units=GPa)
#
#
# Indices 1 2 3 4 5 6 
#
# 1 6.3018 4.2263 2.9036 0.0000 0.0000 0.0000
# 2 4.2263 70.7280 54.6434 0.0000 0.0000 0.0000
# 3 2.9036 54.6434 122.3956 0.0000 0.0000 0.0000
# 4 0.0000 0.0000 0.0000 34.4053 0.0000 0.0000
# 5 0.0000 0.0000 0.0000 0.0000 12.1518 0.0000
# 6 0.0000 0.0000 0.0000 0.0000 0.0000 11.5766
#
#
#
# Elastic Compliance Matrix: (Units=1/GPa)
#
#
# Indices 1 2 3 4 5 6 
#
# 1 0.165354 -0.010457 0.000746 0.000000 0.000000 0.000000
# 2 -0.010457 0.022244 -0.009683 0.000000 0.000000 0.000000
# 3 0.000746 -0.009683 0.012475 0.000000 0.000000 0.000000
# 4 0.000000 0.000000 0.000000 0.029065 0.000000 0.000000
# 5 0.000000 0.000000 0.000000 0.000000 0.082292 0.000000
# 6 0.000000 0.000000 0.000000 0.000000 0.000000 0.086381
#
#
# Mechanical properties :
#
#
# Convention : Reuss Voigt Hill
#
# Bulk Modulus (GPa) = 6.20018 35.88578 21.04298
# Shear Modulus (GPa) = 10.19655 20.80356 15.50006
#
# Velocity S-wave (km/s) = 2.38674 3.40915 2.94269
# Velocity P-wave (km/s) = 3.32554 5.96194 4.82721
#
# Compressibility (1/GPa) = 0.16128570
#
# Stress axis : x y z
#
# Youngs Moduli (GPa) = 6.04764 44.95518 80.15739
#
# Poissons Ratio (x) = 0.47009 -0.05978
# Poissons Ratio (y) = 0.06324 0.77616
# Poissons Ratio (z) = -0.00451 0.43530
#
# Static dielectric constant tensor:
#      x y z
#    x 1.624180 0.000000 0.000000 
#    y 0.000000 1.602040 0.000000 
#    z 0.000000 0.000000 1.583480 
# 
# From -- ./inp_files/33782.got.cif
#   From: 2010.05.17/outbox.cif.g08.bks.cpg/sg51_17_cif.got.tgz:33782.got - 2010.06.03 11:52:47.
