data_PCOD9401344
_publ_section_title
;
Structure prediction by ZEFSAII (Michael W. Deem and Ramdas Pophale) SiO2 
 PCOD9401344
Probable space group: P M M A
;
_chemical_formula_sum "Si O2"
_cell_formula_units_Z 44
_cell_length_a 8.580358
_cell_length_b 29.231961
_cell_length_c 9.636981
_cell_angle_alpha 90.000000
_cell_angle_beta 90.000000
_cell_angle_gamma 90.000000
_cell_volume 2417.154228
_symmetry_space_group_name_H-M "P M M A"
_symmetry_group_IT_number 51
_symmetry_cell_setting 'orthorhombic'
loop_
_space_group_symop_operation_xyz
x,y,z
1/2-x,-y,z
1/2+x,-y,-z
-x,y,-z
-x,-y,-z
1/2+x,y,-z
1/2-x,y,z
x,-y,z
loop_
_atom_site_type_symbol
_atom_site_label
_atom_site_fract_x
_atom_site_fract_y
_atom_site_fract_z
Si Si1 0.064462 0.000000 0.155067
Si Si2 0.437715 0.350265 0.342228
Si Si3 0.061977 0.549051 0.342307
Si Si4 0.562880 0.268017 0.155539
Si Si5 0.062738 0.079887 0.653398
Si Si6 0.437712 0.815127 0.652547
O O1 0.004081 0.044419 0.237039
O O2 0.250000 0.000000 0.153397
O O3 0.000000 0.000000 0.000000
O O4 0.500000 0.345491 0.500000
O O5 0.250000 0.347701 0.345686
O O6 0.514876 0.401059 0.712943
O O7 0.496144 0.310717 0.754346
O O8 0.250000 0.548988 0.345017
O O9 0.011555 0.500000 0.278597
O O10 0.000000 0.548722 0.500000
O O11 0.750000 0.268529 0.152811
O O12 0.510595 0.221662 0.234153
O O13 0.500000 0.269860 0.000000
O O14 0.250000 0.077288 0.652847
O O15 0.015164 0.132510 0.683152
O O16 0.000000 0.068510 0.500000
O O17 0.500000 0.802839 0.500000
O O18 0.250000 0.814272 0.646970
#
# Coordination Sequence:
#
# PCOD9401344 Si02
#       6
#     4   8   8   8   8   8
#     4  12  25  40  57  82 114 150 186 224 269 316
#     4  10  19  32  52  78 106 138 175 216 261 312
#     4   8  14  25  43  69 100 131 165 208 257 306
#     4  11  23  38  54  76 106 141 178 219 267 318
#     4  10  20  38  61  86 113 144 181 221 264 313
#     4   9  20  37  59  84 109 138 176 219 264 314
#
# _framework density 18.203223000000001
#
# number of rings (size 3 to 8) (size 9 to 14) (size 15 to 20)
#    0.000    2.182    0.000    3.273    0.000    5.091 
#    0.000    1.818    0.000    0.545    0.000    0.000 
#    0.000    0.000    0.000    0.000    0.000    0.000 
#
# Total GULP energy -245449.154240 kJ/mol
# GULP energy per Si atom -5578.389869 kJ/mol
# Density = 1.816179 g / cm^3
# Si number density = 18.203223 Si / 1000 Ang^3
#
#
#
# Elastic Constant Matrix: (Units=GPa)
#
#
# Indices 1 2 3 4 5 6 
#
# 1 55.3537 46.1044 38.5403 0.0000 0.0000 0.0000
# 2 46.1044 163.0031 114.6286 0.0000 0.0000 0.0000
# 3 38.5403 114.6286 127.9100 0.0000 0.0000 0.0000
# 4 0.0000 0.0000 0.0000 -6.6464 0.0000 0.0000
# 5 0.0000 0.0000 0.0000 0.0000 29.6342 0.0000
# 6 0.0000 0.0000 0.0000 0.0000 0.0000 24.2803
#
#
#
# Elastic Compliance Matrix: (Units=1/GPa)
#
#
# Indices 1 2 3 4 5 6 
#
# 1 0.024084 -0.004621 -0.003115 0.000000 0.000000 0.000000
# 2 -0.004621 0.017477 -0.014270 0.000000 0.000000 0.000000
# 3 -0.003115 -0.014270 0.021545 0.000000 0.000000 0.000000
# 4 0.000000 0.000000 0.000000 -0.150456 0.000000 0.000000
# 5 0.000000 0.000000 0.000000 0.000000 0.033745 0.000000
# 6 0.000000 0.000000 0.000000 0.000000 0.000000 0.041186
#
#
# Mechanical properties :
#
#
# Convention : Reuss Voigt Hill
#
# Bulk Modulus (GPa) = 52.37564 82.75703 67.56634
# Shear Modulus (GPa) = 131.73191 19.25318 75.49254
#
# Velocity S-wave (km/s) = 8.51613 3.25573 6.44687
# Velocity P-wave (km/s) = 11.20422 7.72623 9.62364
#
# Compressibility (1/GPa) = 0.01909284
#
# Stress axis : x y z
#
# Youngs Moduli (GPa) = 41.52197 57.21855 46.41506
#
# Poissons Ratio (x) = 0.26442 0.14459
# Poissons Ratio (y) = 0.19188 0.66233
# Poissons Ratio (z) = 0.12935 0.81650
#
# Static dielectric constant tensor:
#      x y z
#    x 1.619730 0.000000 0.000000 
#    y 0.000000 1.672230 0.000000 
#    z 0.000000 0.000000 1.550380 
# 
# From -- ./inp_files/5882.got.cif
#   From: 2010.05.17/outbox.cif.g08.bks.cpg/sg51_3_cif.got.tgz:5882.got - 2010.06.03 11:52:47.
