data_PCOD9401823
_publ_section_title
;
Structure prediction by ZEFSAII (Michael W. Deem and Ramdas Pophale) SiO2 
 PCOD9401823
Probable space group: P M M A
;
_chemical_formula_sum "Si O2"
_cell_formula_units_Z 64
_cell_length_a 25.690171
_cell_length_b 7.583156
_cell_length_c 15.272802
_cell_angle_alpha 90.000000
_cell_angle_beta 90.000000
_cell_angle_gamma 90.000000
_cell_volume 2975.333875
_symmetry_space_group_name_H-M "P M M A"
_symmetry_group_IT_number 51
_symmetry_cell_setting 'orthorhombic'
loop_
_space_group_symop_operation_xyz
x,y,z
1/2-x,-y,z
1/2+x,-y,-z
-x,y,-z
-x,-y,-z
1/2+x,y,-z
1/2-x,y,z
x,-y,z
loop_
_atom_site_type_symbol
_atom_site_label
_atom_site_fract_x
_atom_site_fract_y
_atom_site_fract_z
Si Si1 0.806181 0.711572 0.184184
Si Si2 0.022598 0.213996 0.229301
Si Si3 0.887255 0.297639 0.648568
Si Si4 0.189970 0.285699 0.201319
Si Si5 0.087974 0.209058 0.715156
Si Si6 0.332512 0.701993 0.005564
Si Si7 0.058902 0.710085 0.516524
Si Si8 0.055019 0.786950 0.039723
O O1 0.750000 0.770139 0.220373
O O2 0.804968 0.500000 0.176706
O O3 0.856754 0.747833 0.242318
O O4 0.811512 0.781994 0.084486
O O5 0.055441 0.291618 0.308326
O O6 0.052059 0.264763 0.140991
O O7 0.962736 0.273419 0.230960
O O8 0.024058 0.000000 0.234561
O O9 0.869692 0.500000 0.636697
O O10 0.848467 0.219313 0.721978
O O11 0.898839 0.217795 0.553280
O O12 0.250000 0.248300 0.222526
O O13 0.183267 0.500000 0.197732
O O14 0.179028 0.219901 0.101935
O O15 0.078199 0.265028 0.615278
O O16 0.084445 0.000000 0.716473
O O17 0.313561 0.500000 0.009784
O O18 0.394719 0.706085 0.995982
O O19 0.056194 0.500000 0.500276
O O20 0.000000 0.780168 0.500000
O O21 0.059239 0.000000 0.032710
O O22 0.000000 0.735275 0.000000
#
# Coordination Sequence:
#
# PCOD9401823 Si02
#       8
#     8   8   8   8   8   8   8   8
#     4  10  22  40  60  83 113 149 189 236 285 329
#     4  10  20  33  51  77 111 147 181 226 281 332
#     4  10  19  33  55  81 109 144 183 225 278 334
#     4   9  17  31  53  81 111 141 179 226 271 322
#     4  11  23  38  59  85 112 148 191 234 283 342
#     4  10  19  33  56  83 108 140 186 232 274 323
#     4  10  20  35  57  85 117 147 181 233 288 340
#     4  10  20  33  48  71 110 152 184 221 274 331
#
# _framework density 21.510190999999999
#
# number of rings (size 3 to 8) (size 9 to 14) (size 15 to 20)
#    0.000    2.000    2.500    1.500    0.000    4.750 
#    0.000    0.625    0.000    4.500    0.000    0.000 
#    0.000    0.000    0.000    0.000    0.000    0.000 
#
# Total GULP energy -357189.191016 kJ/mol
# GULP energy per Si atom -5581.081110 kJ/mol
# Density = 2.146123 g / cm^3
# Si number density = 21.510191 Si / 1000 Ang^3
#
#
#
# Elastic Constant Matrix: (Units=GPa)
#
#
# Indices 1 2 3 4 5 6 
#
# 1 132.0629 -4.3997 56.2619 0.0000 0.0000 0.0000
# 2 -4.3997 45.5368 2.8170 0.0000 0.0000 0.0000
# 3 56.2619 2.8170 100.8304 0.0000 0.0000 0.0000
# 4 0.0000 0.0000 0.0000 -9.2984 0.0000 0.0000
# 5 0.0000 0.0000 0.0000 0.0000 14.0898 0.0000
# 6 0.0000 0.0000 0.0000 0.0000 0.0000 32.2855
#
#
#
# Elastic Compliance Matrix: (Units=1/GPa)
#
#
# Indices 1 2 3 4 5 6 
#
# 1 0.010011 0.001315 -0.005623 0.000000 0.000000 0.000000
# 2 0.001315 0.022171 -0.001353 0.000000 0.000000 0.000000
# 3 -0.005623 -0.001353 0.013093 0.000000 0.000000 0.000000
# 4 0.000000 0.000000 0.000000 -0.107546 0.000000 0.000000
# 5 0.000000 0.000000 0.000000 0.000000 0.070973 0.000000
# 6 0.000000 0.000000 0.000000 0.000000 0.000000 0.030974
#
#
# Mechanical properties :
#
#
# Convention : Reuss Voigt Hill
#
# Bulk Modulus (GPa) = 29.45222 43.08763 36.26992
# Shear Modulus (GPa) = 80.23521 22.33211 51.28366
#
# Velocity S-wave (km/s) = 6.11408 3.22562 4.88808
# Velocity P-wave (km/s) = 7.97274 5.82646 6.98256
#
# Compressibility (1/GPa) = 0.03395330
#
# Stress axis : x y z
#
# Youngs Moduli (GPa) = 99.88520 45.10390 76.37666
#
# Poissons Ratio (x) = -0.05932 0.42947
# Poissons Ratio (y) = -0.13136 0.10336
# Poissons Ratio (z) = 0.56166 0.06104
#
# Static dielectric constant tensor:
#      x y z
#    x 1.787040 0.000000 0.000000 
#    y 0.000000 1.804940 0.000000 
#    z 0.000000 0.000000 1.824860 
# 
# From -- ./inp_files/26257.got.cif
#   From: 2010.05.17/outbox.cif.g08.bks.cpg/sg51_14_cif.got.tgz:26257.got - 2010.06.03 11:52:47.
