data_PCOD9401997
_publ_section_title
;
Structure prediction by ZEFSAII (Michael W. Deem and Ramdas Pophale) SiO2 
 PCOD9401997
Probable space group: P M M A
;
_chemical_formula_sum "Si O2"
_cell_formula_units_Z 56
_cell_length_a 17.202753
_cell_length_b 15.470433
_cell_length_c 11.274191
_cell_angle_alpha 90.000000
_cell_angle_beta 90.000000
_cell_angle_gamma 90.000000
_cell_volume 3000.445973
_symmetry_space_group_name_H-M "P M M A"
_symmetry_group_IT_number 51
_symmetry_cell_setting 'orthorhombic'
loop_
_space_group_symop_operation_xyz
x,y,z
1/2-x,-y,z
1/2+x,-y,-z
-x,y,-z
-x,-y,-z
1/2+x,y,-z
1/2-x,y,z
x,-y,z
loop_
_atom_site_type_symbol
_atom_site_label
_atom_site_fract_x
_atom_site_fract_y
_atom_site_fract_z
Si Si1 0.051847 0.721900 0.695704
Si Si2 0.160392 0.756258 0.484735
Si Si3 0.092477 0.600313 0.352316
Si Si4 0.659502 0.904402 0.710429
Si Si5 0.048884 0.176454 0.116348
Si Si6 0.341360 0.594808 0.840716
Si Si7 0.841423 0.342372 0.896051
O O1 0.098817 0.766009 0.589719
O O2 0.112072 0.668152 0.774540
O O3 0.988810 0.652554 0.648023
O O4 0.008621 0.788505 0.781602
O O5 0.250000 0.767432 0.522138
O O6 0.147929 0.659647 0.433461
O O7 0.144359 0.825980 0.380903
O O8 0.086408 0.500000 0.386444
O O9 0.126062 0.608201 0.218580
O O10 0.750000 0.896339 0.745829
O O11 0.603346 0.894173 0.822400
O O12 0.649352 0.000000 0.656372
O O13 0.106938 0.256507 0.089083
O O14 0.000000 0.152824 0.000000
O O15 0.250000 0.601074 0.813333
O O16 0.370166 0.500000 0.804763
O O17 0.349341 0.605181 0.982222
O O18 0.750000 0.322562 0.877854
#
# Coordination Sequence:
#
# PCOD9401997 Si02
#       7
#     8   8   8   8   8   8   8
#     4  11  22  37  55  82 122 155 198 246 301 355
#     4  11  23  40  60  84 116 157 204 248 296 360
#     4  11  23  35  56  84 116 156 202 255 302 347
#     4  10  22  43  70  94 118 154 199 248 301 361
#     4  11  21  37  61  92 120 153 191 241 304 368
#     4  10  20  33  51  78 115 164 214 251 292 350
#     4  10  19  34  55  81 115 156 208 257 294 342
#
# _framework density 18.663892000000001
#
# number of rings (size 3 to 8) (size 9 to 14) (size 15 to 20)
#    0.000    1.429    4.286    2.571    0.000    3.714 
#    0.000    3.571    0.000    0.000    0.000    2.000 
#    0.000    0.000    0.000    0.000    0.000    0.000 
#
# Total GULP energy -312744.799042 kJ/mol
# GULP energy per Si atom -5584.728554 kJ/mol
# Density = 1.862141 g / cm^3
# Si number density = 18.663892 Si / 1000 Ang^3
#
#
#
# Elastic Constant Matrix: (Units=GPa)
#
#
# Indices 1 2 3 4 5 6 
#
# 1 98.2283 30.5868 56.5987 0.0000 0.0000 0.0000
# 2 30.5868 72.0406 28.7749 0.0000 0.0000 0.0000
# 3 56.5987 28.7749 75.3811 0.0000 0.0000 0.0000
# 4 0.0000 0.0000 0.0000 4.6708 0.0000 0.0000
# 5 0.0000 0.0000 0.0000 0.0000 38.6171 0.0000
# 6 0.0000 0.0000 0.0000 0.0000 0.0000 16.5200
#
#
#
# Elastic Compliance Matrix: (Units=1/GPa)
#
#
# Indices 1 2 3 4 5 6 
#
# 1 0.018379 -0.002704 -0.012767 0.000000 0.000000 0.000000
# 2 -0.002704 0.016776 -0.004374 0.000000 0.000000 0.000000
# 3 -0.012767 -0.004374 0.024522 0.000000 0.000000 0.000000
# 4 0.000000 0.000000 0.000000 0.214098 0.000000 0.000000
# 5 0.000000 0.000000 0.000000 0.000000 0.025895 0.000000
# 6 0.000000 0.000000 0.000000 0.000000 0.000000 0.060533
#
#
# Mechanical properties :
#
#
# Convention : Reuss Voigt Hill
#
# Bulk Modulus (GPa) = 50.03303 53.06342 51.54822
# Shear Modulus (GPa) = 12.29849 20.60755 16.45302
#
# Velocity S-wave (km/s) = 2.56978 3.32646 2.97230
# Velocity P-wave (km/s) = 5.97249 6.57621 6.28161
#
# Compressibility (1/GPa) = 0.01998680
#
# Stress axis : x y z
#
# Youngs Moduli (GPa) = 54.41081 59.60904 40.78025
#
# Poissons Ratio (x) = 0.16116 0.52065
# Poissons Ratio (y) = 0.14710 0.17837
# Poissons Ratio (z) = 0.69468 0.26072
#
# Static dielectric constant tensor:
#      x y z
#    x 1.658830 0.000000 0.000000 
#    y 0.000000 1.630870 0.000000 
#    z 0.000000 0.000000 1.644410 
# 
# From -- ./inp_files/16598.got.cif
#   From: 2010.05.17/outbox.cif.g08.bks.cpg/sg51_9_cif.got.tgz:16598.got - 2010.06.03 11:52:47.
