data_PCOD9401530
_publ_section_title
;
Structure prediction by ZEFSAII (Michael W. Deem and Ramdas Pophale) SiO2 
 PCOD9401530
Probable space group: P M M A
;
_chemical_formula_sum "Si O2"
_cell_formula_units_Z 64
_cell_length_a 8.430052
_cell_length_b 32.736258
_cell_length_c 14.893645
_cell_angle_alpha 90.000000
_cell_angle_beta 90.000000
_cell_angle_gamma 90.000000
_cell_volume 4110.174744
_symmetry_space_group_name_H-M "P M M A"
_symmetry_group_IT_number 51
_symmetry_cell_setting 'orthorhombic'
loop_
_space_group_symop_operation_xyz
x,y,z
1/2-x,-y,z
1/2+x,-y,-z
-x,y,-z
-x,-y,-z
1/2+x,y,-z
1/2-x,y,z
x,-y,z
loop_
_atom_site_type_symbol
_atom_site_label
_atom_site_fract_x
_atom_site_fract_y
_atom_site_fract_z
Si Si1 0.441748 0.123866 0.101434
Si Si2 0.056200 0.954775 0.213165
Si Si3 0.441117 0.173751 0.403592
Si Si4 0.058043 0.204032 0.212616
Si Si5 0.441742 0.456007 0.103260
Si Si6 0.438001 0.281269 0.897508
Si Si7 0.059654 0.632270 0.103047
Si Si8 0.440976 0.921366 0.403867
O O1 0.250000 0.123598 0.102070
O O2 0.496596 0.082313 0.150021
O O3 0.492516 0.163616 0.157754
O O4 0.500000 0.126251 0.000000
O O5 0.250000 0.954255 0.212496
O O6 0.006772 0.945587 0.315666
O O7 0.004719 0.000000 0.185006
O O8 0.500000 0.188878 0.500000
O O9 0.250000 0.173709 0.404063
O O10 0.494245 0.198398 0.315832
O O11 0.491964 0.126166 0.394399
O O12 0.250000 0.204887 0.211778
O O13 0.997311 0.244178 0.163239
O O14 0.250000 0.455882 0.102783
O O15 0.493902 0.500000 0.142653
O O16 0.491374 0.411906 0.142576
O O17 0.500000 0.456076 0.000000
O O18 0.250000 0.281157 0.901903
O O19 0.494428 0.325214 0.859832
O O20 0.500000 0.276643 0.000000
O O21 0.250000 0.634261 0.103545
O O22 0.000000 0.631763 0.000000
O O23 0.500000 0.936832 0.500000
O O24 0.250000 0.921843 0.404948
#
# Coordination Sequence:
#
# PCOD9401530 Si02
#       8
#     8   8   8   8   8   8   8   8
#     4  10  20  34  50  67  86 110 142 177 211 247
#     4   9  17  31  50  68  88 116 144 166 199 251
#     4   9  17  30  49  70  91 113 136 166 204 248
#     4  10  19  33  50  66  87 112 141 175 212 255
#     4   8  13  20  31  48  69  96 134 178 219 257
#     4  11  21  31  43  61  85 113 147 185 224 263
#     4   9  15  24  37  52  75 107 141 179 222 262
#     4   9  16  29  48  70  92 115 138 163 198 241
#
# _framework density 15.571114
#
# number of rings (size 3 to 8) (size 9 to 14) (size 15 to 20)
#    0.000    2.625    1.250    2.625    0.000    3.000 
#    0.000    0.625    0.000    0.750    0.000    0.000 
#    0.000    0.000    0.000    0.000    0.000    0.625 
#
# Total GULP energy -356456.222023 kJ/mol
# GULP energy per Si atom -5569.628469 kJ/mol
# Density = 1.553567 g / cm^3
# Si number density = 15.571114 Si / 1000 Ang^3
#
#
#
# Elastic Constant Matrix: (Units=GPa)
#
#
# Indices 1 2 3 4 5 6 
#
# 1 19.8225 23.8503 15.6342 0.0000 0.0000 0.0000
# 2 23.8503 156.3635 61.1023 0.0000 0.0000 0.0000
# 3 15.6342 61.1023 86.3401 0.0000 0.0000 0.0000
# 4 0.0000 0.0000 0.0000 3.9085 0.0000 0.0000
# 5 0.0000 0.0000 0.0000 0.0000 19.1915 0.0000
# 6 0.0000 0.0000 0.0000 0.0000 0.0000 16.7782
#
#
#
# Elastic Compliance Matrix: (Units=1/GPa)
#
#
# Indices 1 2 3 4 5 6 
#
# 1 0.064324 -0.007271 -0.006502 0.000000 0.000000 0.000000
# 2 -0.007271 0.009662 -0.005521 0.000000 0.000000 0.000000
# 3 -0.006502 -0.005521 0.016667 0.000000 0.000000 0.000000
# 4 0.000000 0.000000 0.000000 0.255854 0.000000 0.000000
# 5 0.000000 0.000000 0.000000 0.000000 0.052106 0.000000
# 6 0.000000 0.000000 0.000000 0.000000 0.000000 0.059601
#
#
# Mechanical properties :
#
#
# Convention : Reuss Voigt Hill
#
# Bulk Modulus (GPa) = 19.20685 51.52219 35.36452
# Shear Modulus (GPa) = 9.72466 18.77160 14.24813
#
# Velocity S-wave (km/s) = 2.50178 3.47586 3.02824
# Velocity P-wave (km/s) = 4.55048 7.01918 5.91506
#
# Compressibility (1/GPa) = 0.05206476
#
# Stress axis : x y z
#
# Youngs Moduli (GPa) = 15.54632 103.50030 59.99978
#
# Poissons Ratio (x) = 0.75250 0.39013
# Poissons Ratio (y) = 0.11303 0.33126
# Poissons Ratio (z) = 0.10109 0.57143
#
# Static dielectric constant tensor:
#      x y z
#    x 1.531580 0.000000 0.000000 
#    y 0.000000 1.566520 0.000000 
#    z 0.000000 0.000000 1.494790 
# 
# From -- ./inp_files/22601.got.cif
#   From: 2010.05.17/outbox.cif.g08.bks.cpg/sg51_12_cif.got.tgz:22601.got - 2010.06.03 11:52:47.
