data_PCOD9401066
_publ_section_title
;
Structure prediction by ZEFSAII (Michael W. Deem and Ramdas Pophale) SiO2 
 PCOD9401066
Probable space group: P M M A
;
_chemical_formula_sum "Si O2"
_cell_formula_units_Z 52
_cell_length_a 8.857698
_cell_length_b 16.285883
_cell_length_c 21.022450
_cell_angle_alpha 90.000000
_cell_angle_beta 90.000000
_cell_angle_gamma 90.000000
_cell_volume 3032.602633
_symmetry_space_group_name_H-M "P M M A"
_symmetry_group_IT_number 51
_symmetry_cell_setting 'orthorhombic'
loop_
_space_group_symop_operation_xyz
x,y,z
1/2-x,-y,z
1/2+x,-y,-z
-x,y,-z
-x,-y,-z
1/2+x,y,-z
1/2-x,y,z
x,-y,z
loop_
_atom_site_type_symbol
_atom_site_label
_atom_site_fract_x
_atom_site_fract_y
_atom_site_fract_z
Si Si1 0.567784 0.093664 0.069817
Si Si2 0.570873 0.902146 0.566130
Si Si3 0.432307 0.590070 0.804327
Si Si4 0.567859 0.774378 0.174572
Si Si5 0.926023 0.190101 0.689865
Si Si6 0.429066 0.500000 0.569178
Si Si7 0.074414 0.380772 0.333148
O O1 0.750000 0.097031 0.065898
O O2 0.517384 0.163404 0.119367
O O3 0.527116 0.000000 0.089692
O O4 0.500000 0.107403 0.000000
O O5 0.500000 0.871070 0.500000
O O6 0.750000 0.885060 0.564130
O O7 0.511866 0.865227 0.632484
O O8 0.548886 0.000000 0.567957
O O9 0.250000 0.591269 0.802194
O O10 0.476643 0.500000 0.831949
O O11 0.480251 0.678317 0.834046
O O12 0.497035 0.593455 0.732957
O O13 0.750000 0.774847 0.175585
O O14 0.509869 0.807152 0.242644
O O15 0.750000 0.168053 0.701365
O O16 0.931570 0.282913 0.664203
O O17 0.250000 0.500000 0.565864
O O18 0.500000 0.500000 0.500000
O O19 0.488511 0.577381 0.609210
O O20 0.250000 0.405065 0.332931
#
# Coordination Sequence:
#
# PCOD9401066 Si02
#       7
#     8   8   8   8   8   4   8
#     4   9  18  33  52  74 102 136 171 206 247 297
#     4   9  18  33  50  67  90 122 160 199 240 290
#     4   9  16  28  48  70  93 124 159 194 236 288
#     4   9  18  31  48  74 102 127 162 206 247 290
#     4   9  19  33  49  72 100 127 158 199 247 294
#     4  12  24  36  48  64  88 120 159 200 245 298
#     4  10  19  32  48  67  92 120 152 194 242 289
#
# _framework density 17.146986999999999
#
# number of rings (size 3 to 8) (size 9 to 14) (size 15 to 20)
#    0.000    2.615    0.769    1.154    0.000    3.077 
#    0.000    1.538    0.000    0.462    0.000    0.000 
#    0.000    0.000    0.000    0.000    0.000    0.000 
#
# Total GULP energy -289611.954630 kJ/mol
# GULP energy per Si atom -5569.460666 kJ/mol
# Density = 1.710796 g / cm^3
# Si number density = 17.146987 Si / 1000 Ang^3
#
#
#
# Elastic Constant Matrix: (Units=GPa)
#
#
# Indices 1 2 3 4 5 6 
#
# 1 15.0711 30.7215 25.2928 0.0000 0.0000 0.0000
# 2 30.7215 99.5143 80.9076 0.0000 0.0000 0.0000
# 3 25.2928 80.9076 104.1452 0.0000 0.0000 0.0000
# 4 0.0000 0.0000 0.0000 103.9763 0.0000 0.0000
# 5 0.0000 0.0000 0.0000 0.0000 26.7371 0.0000
# 6 0.0000 0.0000 0.0000 0.0000 0.0000 14.5633
#
#
#
# Elastic Compliance Matrix: (Units=1/GPa)
#
#
# Indices 1 2 3 4 5 6 
#
# 1 0.179073 -0.054085 -0.001473 0.000000 0.000000 0.000000
# 2 -0.054085 0.043613 -0.020747 0.000000 0.000000 0.000000
# 3 -0.001473 -0.020747 0.026077 0.000000 0.000000 0.000000
# 4 0.000000 0.000000 0.000000 0.009618 0.000000 0.000000
# 5 0.000000 0.000000 0.000000 0.000000 0.037401 0.000000
# 6 0.000000 0.000000 0.000000 0.000000 0.000000 0.068666
#
#
# Mechanical properties :
#
#
# Convention : Reuss Voigt Hill
#
# Bulk Modulus (GPa) = 10.39992 54.73050 32.56521
# Shear Modulus (GPa) = 9.10565 34.50925 21.80745
#
# Velocity S-wave (km/s) = 2.30692 4.49102 3.57009
# Velocity P-wave (km/s) = 3.62962 7.67333 6.00226
#
# Compressibility (1/GPa) = 0.09615460
#
# Stress axis : x y z
#
# Youngs Moduli (GPa) = 5.58430 22.92874 38.34762
#
# Poissons Ratio (x) = 1.24011 0.05647
# Poissons Ratio (y) = 0.30203 0.79559
# Poissons Ratio (z) = 0.00822 0.47570
#
# Static dielectric constant tensor:
#      x y z
#    x 1.580540 0.000000 0.000000 
#    y 0.000000 1.619590 0.000000 
#    z 0.000000 0.000000 1.525750 
# 
# From -- ./inp_files/27930.got.cif
#   From: 2010.05.17/outbox.cif.g08.bks.cpg/sg51_14_cif.got.tgz:27930.got - 2010.06.03 11:52:47.
