data_PCOD9401690
_publ_section_title
;
Structure prediction by ZEFSAII (Michael W. Deem and Ramdas Pophale) SiO2 
 PCOD9401690
Probable space group: P M M A
;
_chemical_formula_sum "Si O2"
_cell_formula_units_Z 64
_cell_length_a 9.072388
_cell_length_b 20.659635
_cell_length_c 20.330574
_cell_angle_alpha 90.000000
_cell_angle_beta 90.000000
_cell_angle_gamma 90.000000
_cell_volume 3810.604713
_symmetry_space_group_name_H-M "P M M A"
_symmetry_group_IT_number 51
_symmetry_cell_setting 'orthorhombic'
loop_
_space_group_symop_operation_xyz
x,y,z
1/2-x,-y,z
1/2+x,-y,-z
-x,y,-z
-x,-y,-z
1/2+x,y,-z
1/2-x,y,z
x,-y,z
loop_
_atom_site_type_symbol
_atom_site_label
_atom_site_fract_x
_atom_site_fract_y
_atom_site_fract_z
Si Si1 0.574694 0.076024 0.430481
Si Si2 0.427088 0.688920 0.428943
Si Si3 0.921245 0.395869 0.932791
Si Si4 0.926306 0.817082 0.654262
Si Si5 0.418872 0.762064 0.065072
Si Si6 0.424023 0.571818 0.333608
Si Si7 0.071334 0.753438 0.207941
Si Si8 0.073825 0.387877 0.797475
O O1 0.500000 0.094148 0.500000
O O2 0.750000 0.084339 0.435834
O O3 0.509613 0.121176 0.373930
O O4 0.543429 0.000000 0.418868
O O5 0.500000 0.686839 0.500000
O O6 0.250000 0.686940 0.435887
O O7 0.464822 0.754892 0.390606
O O8 0.470528 0.627982 0.383596
O O9 0.750000 0.415170 0.931122
O O10 0.925340 0.316800 0.933891
O O11 0.004786 0.413950 0.865732
O O12 0.000000 0.417767 0.000000
O O13 0.750000 0.827004 0.649405
O O14 0.960434 0.797475 0.729259
O O15 0.250000 0.781092 0.059307
O O16 0.472534 0.782691 0.137206
O O17 0.500000 0.784637 0.000000
O O18 0.250000 0.582440 0.318014
O O19 0.438506 0.500000 0.362726
O O20 0.515004 0.575410 0.266433
O O21 0.250000 0.741446 0.206652
O O22 0.988990 0.684952 0.212884
O O23 0.250000 0.387952 0.801761
#
# Coordination Sequence:
#
# PCOD9401690 Si02
#       8
#     8   8   8   8   8   8   8   8
#     4  10  21  36  53  75 105 139 175 210 247 298
#     4  10  21  36  54  77 101 126 161 204 254 306
#     4   9  16  27  44  67  96 128 164 203 246 299
#     4  10  19  33  54  77 104 135 171 213 252 297
#     4   8  14  23  38  60  91 128 162 198 238 284
#     4  10  21  39  58  71  91 129 170 207 254 311
#     4   9  17  31  48  68  98 135 170 206 250 298
#     4  11  20  30  48  73 100 128 162 207 256 304
#
# _framework density 16.795235000000002
#
# number of rings (size 3 to 8) (size 9 to 14) (size 15 to 20)
#    0.000    2.375    1.250    3.000    0.000    6.750 
#    0.000    0.000    0.000    0.375    0.000    0.000 
#    0.000    0.500    0.000    1.125    0.000    2.125 
#
# Total GULP energy -357003.726952 kJ/mol
# GULP energy per Si atom -5578.183234 kJ/mol
# Density = 1.675701 g / cm^3
# Si number density = 16.795235 Si / 1000 Ang^3
#
#
#
# Elastic Constant Matrix: (Units=GPa)
#
#
# Indices 1 2 3 4 5 6 
#
# 1 57.1231 31.3869 53.5322 0.0000 0.0000 0.0000
# 2 31.3869 57.0303 50.6228 0.0000 0.0000 0.0000
# 3 53.5322 50.6228 154.2516 0.0000 0.0000 0.0000
# 4 0.0000 0.0000 0.0000 -20.7377 0.0000 0.0000
# 5 0.0000 0.0000 0.0000 0.0000 33.1540 0.0000
# 6 0.0000 0.0000 0.0000 0.0000 0.0000 61.4980
#
#
#
# Elastic Compliance Matrix: (Units=1/GPa)
#
#
# Indices 1 2 3 4 5 6 
#
# 1 0.029568 -0.010109 -0.006944 0.000000 0.000000 0.000000
# 2 -0.010109 0.028199 -0.005746 0.000000 0.000000 0.000000
# 3 -0.006944 -0.005746 0.010778 0.000000 0.000000 0.000000
# 4 0.000000 0.000000 0.000000 -0.048221 0.000000 0.000000
# 5 0.000000 0.000000 0.000000 0.000000 0.030162 0.000000
# 6 0.000000 0.000000 0.000000 0.000000 0.000000 0.016261
#
#
# Mechanical properties :
#
#
# Convention : Reuss Voigt Hill
#
# Bulk Modulus (GPa) = 43.57854 59.94322 51.76088
# Shear Modulus (GPa) = 41.66897 23.64040 32.65469
#
# Velocity S-wave (km/s) = 4.98637 3.75582 4.41419
# Velocity P-wave (km/s) = 7.69124 7.38758 7.54094
#
# Compressibility (1/GPa) = 0.02294707
#
# Stress axis : x y z
#
# Youngs Moduli (GPa) = 33.82044 35.46274 92.77818
#
# Poissons Ratio (x) = 0.35850 0.64422
# Poissons Ratio (y) = 0.34190 0.53310
# Poissons Ratio (z) = 0.23484 0.20377
#
# Static dielectric constant tensor:
#      x y z
#    x 1.564320 0.000000 0.000000 
#    y 0.000000 1.559520 0.000000 
#    z 0.000000 0.000000 1.573460 
# 
# From -- ./inp_files/32448.got.cif
#   From: 2010.05.17/outbox.cif.g08.bks.cpg/sg51_17_cif.got.tgz:32448.got - 2010.06.03 11:52:47.
