data_PCOD9401295
_publ_section_title
;
Structure prediction by ZEFSAII (Michael W. Deem and Ramdas Pophale) SiO2 
 PCOD9401295
Probable space group: P M M A
;
_chemical_formula_sum "Si O2"
_cell_formula_units_Z 64
_cell_length_a 9.181398
_cell_length_b 17.678562
_cell_length_c 21.168850
_cell_angle_alpha 90.000000
_cell_angle_beta 90.000000
_cell_angle_gamma 90.000000
_cell_volume 3435.998894
_symmetry_space_group_name_H-M "P M M A"
_symmetry_group_IT_number 51
_symmetry_cell_setting 'orthorhombic'
loop_
_space_group_symop_operation_xyz
x,y,z
1/2-x,-y,z
1/2+x,-y,-z
-x,y,-z
-x,-y,-z
1/2+x,y,-z
1/2-x,y,z
x,-y,z
loop_
_atom_site_type_symbol
_atom_site_label
_atom_site_fract_x
_atom_site_fract_y
_atom_site_fract_z
Si Si1 0.577835 0.418166 0.150189
Si Si2 0.081337 0.696120 0.063660
Si Si3 0.422841 0.257703 0.562047
Si Si4 0.575236 0.781595 0.295524
Si Si5 0.077459 0.085548 0.803062
Si Si6 0.918233 0.414915 0.587349
Si Si7 0.420313 0.122038 0.065625
Si Si8 0.416476 0.626360 0.267352
O O1 0.750000 0.408070 0.146365
O O2 0.540140 0.500000 0.121058
O O3 0.496952 0.348317 0.118877
O O4 0.522973 0.417723 0.221562
O O5 0.250000 0.675854 0.060727
O O6 0.070112 0.786535 0.069579
O O7 0.000000 0.673566 0.000000
O O8 0.500000 0.224379 0.500000
O O9 0.250000 0.259199 0.553332
O O10 0.453173 0.215148 0.628726
O O11 0.483226 0.343847 0.568037
O O12 0.750000 0.766635 0.288791
O O13 0.539652 0.853317 0.251142
O O14 0.480176 0.710878 0.272464
O O15 0.250000 0.095227 0.816389
O O16 0.993671 0.094276 0.869554
O O17 0.054139 0.000000 0.779660
O O18 0.750000 0.404276 0.565585
O O19 0.965996 0.500000 0.569925
O O20 0.915576 0.409075 0.663252
O O21 0.250000 0.100826 0.062718
O O22 0.500000 0.099170 0.000000
O O23 0.250000 0.626395 0.243512
#
# Coordination Sequence:
#
# PCOD9401295 Si02
#       8
#     8   8   8   8   8   8   8   8
#     4  11  23  35  48  69  98 133 173 218 267 316
#     4  10  21  37  56  75  96 127 169 215 263 314
#     4  10  20  34  53  77 104 138 180 224 269 317
#     4   9  19  36  57  80 107 140 178 219 264 319
#     4  10  21  37  58  84 113 144 176 213 260 313
#     4   9  18  32  49  71 102 138 174 215 263 313
#     4  10  21  37  58  84 112 144 180 216 257 309
#     4  10  19  32  52  76 101 132 172 216 263 314
#
# _framework density 18.626315999999999
#
# number of rings (size 3 to 8) (size 9 to 14) (size 15 to 20)
#    0.000    2.125    0.000    3.000    0.000    7.750 
#    0.000    0.000    0.000    0.375    0.000    0.000 
#    0.000    0.000    0.000    0.000    0.000    0.375 
#
# Total GULP energy -357099.747119 kJ/mol
# GULP energy per Si atom -5579.683549 kJ/mol
# Density = 1.858392 g / cm^3
# Si number density = 18.626316 Si / 1000 Ang^3
#
#
#
# Elastic Constant Matrix: (Units=GPa)
#
#
# Indices 1 2 3 4 5 6 
#
# 1 69.5711 44.0191 39.8345 0.0000 0.0000 0.0000
# 2 44.0191 76.7978 50.5874 0.0000 0.0000 0.0000
# 3 39.8345 50.5874 103.4530 0.0000 0.0000 0.0000
# 4 0.0000 0.0000 0.0000 -15.9540 0.0000 0.0000
# 5 0.0000 0.0000 0.0000 0.0000 35.0790 0.0000
# 6 0.0000 0.0000 0.0000 0.0000 0.0000 124.2055
#
#
#
# Elastic Compliance Matrix: (Units=1/GPa)
#
#
# Indices 1 2 3 4 5 6 
#
# 1 0.023438 -0.011048 -0.003622 0.000000 0.000000 0.000000
# 2 -0.011048 0.024416 -0.007685 0.000000 0.000000 0.000000
# 3 -0.003622 -0.007685 0.014819 0.000000 0.000000 0.000000
# 4 0.000000 0.000000 0.000000 -0.062680 0.000000 0.000000
# 5 0.000000 0.000000 0.000000 0.000000 0.028507 0.000000
# 6 0.000000 0.000000 0.000000 0.000000 0.000000 0.008051
#
#
# Mechanical properties :
#
#
# Convention : Reuss Voigt Hill
#
# Bulk Modulus (GPa) = 55.67366 57.63380 56.65373
# Shear Modulus (GPa) = 57.30621 36.35815 46.83218
#
# Velocity S-wave (km/s) = 5.55275 4.42291 5.01972
# Velocity P-wave (km/s) = 8.43003 7.55594 8.00492
#
# Compressibility (1/GPa) = 0.01796182
#
# Stress axis : x y z
#
# Youngs Moduli (GPa) = 42.66505 40.95651 67.48111
#
# Poissons Ratio (x) = 0.45250 0.24445
# Poissons Ratio (y) = 0.47138 0.51860
# Poissons Ratio (z) = 0.15455 0.31475
#
# Static dielectric constant tensor:
#      x y z
#    x 1.629870 0.000000 0.000000 
#    y 0.000000 1.637170 0.000000 
#    z 0.000000 0.000000 1.511560 
# 
# From -- ./inp_files/32401.got.cif
#   From: 2010.05.17/outbox.cif.g08.bks.cpg/sg51_17_cif.got.tgz:32401.got - 2010.06.03 11:52:47.
