data_PCOD9401574
_publ_section_title
;
Structure prediction by ZEFSAII (Michael W. Deem and Ramdas Pophale) SiO2 
 PCOD9401574
Probable space group: P M M A
;
_chemical_formula_sum "Si O2"
_cell_formula_units_Z 52
_cell_length_a 9.136211
_cell_length_b 22.717265
_cell_length_c 15.181165
_cell_angle_alpha 90.000000
_cell_angle_beta 90.000000
_cell_angle_gamma 90.000000
_cell_volume 3150.846642
_symmetry_space_group_name_H-M "P M M A"
_symmetry_group_IT_number 51
_symmetry_cell_setting 'orthorhombic'
loop_
_space_group_symop_operation_xyz
x,y,z
1/2-x,-y,z
1/2+x,-y,-z
-x,y,-z
-x,-y,-z
1/2+x,y,-z
1/2-x,y,z
x,-y,z
loop_
_atom_site_type_symbol
_atom_site_label
_atom_site_fract_x
_atom_site_fract_y
_atom_site_fract_z
Si Si1 0.923262 0.153544 0.592937
Si Si2 0.575634 0.069308 0.268000
Si Si3 0.074632 0.500000 0.595746
Si Si4 0.583017 0.071363 0.913521
Si Si5 0.925518 0.569745 0.091366
Si Si6 0.923637 0.707861 0.594213
Si Si7 0.426635 0.386317 0.715640
O O1 0.750000 0.142796 0.587555
O O2 0.945056 0.222775 0.613285
O O3 0.000000 0.142447 0.500000
O O4 0.997119 0.111013 0.662906
O O5 0.750000 0.076991 0.269501
O O6 0.510397 0.084408 0.172663
O O7 0.544689 0.000000 0.285013
O O8 0.250000 0.500000 0.582966
O O9 0.037531 0.557104 0.654588
O O10 0.000000 0.500000 0.500000
O O11 0.750000 0.092547 0.907367
O O12 0.589454 0.000000 0.919663
O O13 0.500000 0.093164 0.000000
O O14 0.750000 0.575225 0.082761
O O15 0.958622 0.500000 0.102188
O O16 0.969079 0.601499 0.182608
O O17 0.000000 0.589622 0.000000
O O18 0.750000 0.696570 0.586877
O O19 0.000000 0.694858 0.500000
O O20 0.995170 0.668604 0.670085
O O21 0.250000 0.379249 0.713589
#
# Coordination Sequence:
#
# PCOD9401574 Si02
#       7
#     8   8   4   8   8   8   8
#     4  10  21  37  55  74  99 132 170 212 255 304
#     4  10  20  33  51  77 106 134 167 209 257 309
#     4  10  20  32  45  68 102 134 163 200 247 298
#     4   9  16  27  45  70 101 135 168 202 243 294
#     4   9  17  31  50  73 102 135 170 209 252 299
#     4  10  21  36  54  76 100 130 171 213 252 302
#     4  10  19  33  52  73 102 136 168 207 255 301
#
# _framework density 16.503502000000001
#
# number of rings (size 3 to 8) (size 9 to 14) (size 15 to 20)
#    0.000    2.308    0.769    2.308    0.000    7.385 
#    0.000    0.000    0.000    0.923    0.000    2.154 
#    0.000    0.000    0.000    0.000    0.000    0.000 
#
# Total GULP energy -290033.907587 kJ/mol
# GULP energy per Si atom -5577.575146 kJ/mol
# Density = 1.646594 g / cm^3
# Si number density = 16.503502 Si / 1000 Ang^3
#
#
#
# Elastic Constant Matrix: (Units=GPa)
#
#
# Indices 1 2 3 4 5 6 
#
# 1 87.8243 60.4259 86.0894 0.0000 0.0000 0.0000
# 2 60.4259 60.6435 85.6839 0.0000 0.0000 0.0000
# 3 86.0894 85.6839 184.0949 0.0000 0.0000 0.0000
# 4 0.0000 0.0000 0.0000 -5.8275 0.0000 0.0000
# 5 0.0000 0.0000 0.0000 0.0000 35.4049 0.0000
# 6 0.0000 0.0000 0.0000 0.0000 0.0000 26.2220
#
#
#
# Elastic Compliance Matrix: (Units=1/GPa)
#
#
# Indices 1 2 3 4 5 6 
#
# 1 0.036222 -0.035514 -0.000410 0.000000 0.000000 0.000000
# 2 -0.035514 0.082980 -0.022014 0.000000 0.000000 0.000000
# 3 -0.000410 -0.022014 0.015870 0.000000 0.000000 0.000000
# 4 0.000000 0.000000 0.000000 -0.171601 0.000000 0.000000
# 5 0.000000 0.000000 0.000000 0.000000 0.028245 0.000000
# 6 0.000000 0.000000 0.000000 0.000000 0.000000 0.038136
#
#
# Mechanical properties :
#
#
# Convention : Reuss Voigt Hill
#
# Bulk Modulus (GPa) = 52.09083 88.55124 70.32104
# Shear Modulus (GPa) = 32.86724 17.85079 25.35901
#
# Velocity S-wave (km/s) = 4.46750 3.29239 3.92418
# Velocity P-wave (km/s) = 7.63174 8.25988 7.95201
#
# Compressibility (1/GPa) = 0.01919724
#
# Stress axis : x y z
#
# Youngs Moduli (GPa) = 27.60720 12.05104 63.01274
#
# Poissons Ratio (x) = 0.42798 0.02582
# Poissons Ratio (y) = 0.98043 1.38719
# Poissons Ratio (z) = 0.01131 0.26530
#
# Static dielectric constant tensor:
#      x y z
#    x 1.547920 0.000000 0.000000 
#    y 0.000000 1.542720 0.000000 
#    z 0.000000 0.000000 1.515930 
# 
# From -- ./inp_files/21559.got.cif
#   From: 2010.05.17/outbox.cif.g08.bks.cpg/sg51_11_cif.got.tgz:21559.got - 2010.06.03 11:52:47.
