data_PCOD9401570
_publ_section_title
;
Structure prediction by ZEFSAII (Michael W. Deem and Ramdas Pophale) SiO2 
 PCOD9401570
Probable space group: P M M A
;
_chemical_formula_sum "Si O2"
_cell_formula_units_Z 48
_cell_length_a 16.040012
_cell_length_b 7.401561
_cell_length_c 18.335025
_cell_angle_alpha 90.000000
_cell_angle_beta 90.000000
_cell_angle_gamma 90.000000
_cell_volume 2176.754836
_symmetry_space_group_name_H-M "P M M A"
_symmetry_group_IT_number 51
_symmetry_cell_setting 'orthorhombic'
loop_
_space_group_symop_operation_xyz
x,y,z
1/2-x,-y,z
1/2+x,-y,-z
-x,y,-z
-x,-y,-z
1/2+x,y,-z
1/2-x,y,z
x,-y,z
loop_
_atom_site_type_symbol
_atom_site_label
_atom_site_fract_x
_atom_site_fract_y
_atom_site_fract_z
Si Si1 0.750000 0.779351 0.534932
Si Si2 0.250000 0.291750 0.944537
Si Si3 0.921696 0.778930 0.286402
Si Si4 0.750000 0.779484 0.703312
Si Si5 0.910922 0.779109 0.795234
Si Si6 0.584821 0.216699 0.961935
Si Si7 0.250000 0.204777 0.779665
Si Si8 0.919121 0.779642 0.454796
O O1 0.750000 0.721852 0.619219
O O2 0.833513 0.721944 0.493153
O O3 0.750000 0.000000 0.534915
O O4 0.250000 0.500000 0.925003
O O5 0.250000 0.195530 0.866807
O O6 0.332738 0.253530 0.991171
O O7 0.836178 0.715162 0.249320
O O8 0.924352 0.724242 0.370700
O O9 0.002988 0.721256 0.241937
O O10 0.923109 0.000000 0.284423
O O11 0.832169 0.722249 0.747026
O O12 0.750000 0.000000 0.702561
O O13 0.905763 0.718261 0.878967
O O14 0.909949 0.000000 0.795790
O O15 0.576998 0.000000 0.957750
O O16 0.500000 0.284338 0.000000
O O17 0.250000 0.000000 0.749944
O O18 0.000000 0.721560 0.500000
O O19 0.081025 0.000000 0.544773
#
# Coordination Sequence:
#
# PCOD9401570 Si02
#       8
#     4   4   8   4   8   8   4   8
#     4   9  15  21  29  45  75 119 160 186 220 277
#     4  12  25  38  54  78 109 140 170 212 270 328
#     4   9  16  26  42  65  91 123 164 205 244 289
#     4   9  15  22  33  52  82 119 158 196 232 281
#     4   9  16  26  42  64  87 114 155 205 248 286
#     4  10  20  36  58  80 102 133 176 221 262 310
#     4  10  19  33  52  71  95 130 174 216 250 296
#     4   9  15  22  33  53  86 125 159 191 234 291
#
# _framework density 22.051172999999999
#
# number of rings (size 3 to 8) (size 9 to 14) (size 15 to 20)
#    0.000    2.500    0.000    3.750    0.000   10.333 
#    0.000    0.000    0.000    0.000    0.000    0.000 
#    0.000    0.667    0.000   21.000    0.000   25.667 
#
# Total GULP energy -268339.313358 kJ/mol
# GULP energy per Si atom -5590.402362 kJ/mol
# Density = 2.200098 g / cm^3
# Si number density = 22.051173 Si / 1000 Ang^3
#
#
#
# Elastic Constant Matrix: (Units=GPa)
#
#
# Indices 1 2 3 4 5 6 
#
# 1 229.8041 -1.7613 107.7506 0.0000 0.0000 0.0000
# 2 -1.7613 73.2046 -0.1838 0.0000 0.0000 0.0000
# 3 107.7506 -0.1838 164.4915 0.0000 0.0000 0.0000
# 4 0.0000 0.0000 0.0000 -41.4278 0.0000 0.0000
# 5 0.0000 0.0000 0.0000 0.0000 54.4006 0.0000
# 6 0.0000 0.0000 0.0000 0.0000 0.0000 6.5620
#
#
#
# Elastic Compliance Matrix: (Units=1/GPa)
#
#
# Indices 1 2 3 4 5 6 
#
# 1 0.006282 0.000141 -0.004115 0.000000 0.000000 0.000000
# 2 0.000141 0.013664 -0.000077 0.000000 0.000000 0.000000
# 3 -0.004115 -0.000077 0.008775 0.000000 0.000000 0.000000
# 4 0.000000 0.000000 0.000000 -0.024138 0.000000 0.000000
# 5 0.000000 0.000000 0.000000 0.000000 0.018382 0.000000
# 6 0.000000 0.000000 0.000000 0.000000 0.000000 0.152393
#
#
# Mechanical properties :
#
#
# Convention : Reuss Voigt Hill
#
# Bulk Modulus (GPa) = 48.50091 75.45678 61.97884
# Shear Modulus (GPa) = 26.26996 28.01992 27.14494
#
# Velocity S-wave (km/s) = 3.45529 3.56852 3.51236
# Velocity P-wave (km/s) = 6.16126 7.16047 6.67958
#
# Compressibility (1/GPa) = 0.02061817
#
# Stress axis : x y z
#
# Youngs Moduli (GPa) = 159.18500 73.18750 113.96377
#
# Poissons Ratio (x) = -0.01031 0.46895
# Poissons Ratio (y) = -0.02242 0.00877
# Poissons Ratio (z) = 0.65503 0.00563
#
# Static dielectric constant tensor:
#      x y z
#    x 1.758280 0.000000 0.000000 
#    y 0.000000 1.839940 0.000000 
#    z 0.000000 0.000000 1.750010 
# 
# From -- ./inp_files/29705.got.cif
#   From: 2010.05.17/outbox.cif.g08.bks.cpg/sg51_15_cif.got.tgz:29705.got - 2010.06.03 11:52:47.
