data_PCOD9401025
_publ_section_title
;
Structure prediction by ZEFSAII (Michael W. Deem and Ramdas Pophale) SiO2 
 PCOD9401025
Probable space group: P M M A
;
_chemical_formula_sum "Si O2"
_cell_formula_units_Z 64
_cell_length_a 15.133255
_cell_length_b 9.087919
_cell_length_c 25.261188
_cell_angle_alpha 90.000000
_cell_angle_beta 90.000000
_cell_angle_gamma 90.000000
_cell_volume 3474.166023
_symmetry_space_group_name_H-M "P M M A"
_symmetry_group_IT_number 51
_symmetry_cell_setting 'orthorhombic'
loop_
_space_group_symop_operation_xyz
x,y,z
1/2-x,-y,z
1/2+x,-y,-z
-x,y,-z
-x,-y,-z
1/2+x,y,-z
1/2-x,y,z
x,-y,z
loop_
_atom_site_type_symbol
_atom_site_label
_atom_site_fract_x
_atom_site_fract_y
_atom_site_fract_z
Si Si1 0.148272 0.820699 0.786286
Si Si2 0.856174 0.833875 0.885524
Si Si3 0.355095 0.325352 0.222238
Si Si4 0.145459 0.164908 0.900900
Si Si5 0.647876 0.820662 0.502348
Si Si6 0.503017 0.821737 0.704762
Si Si7 0.395778 0.664016 0.006881
Si Si8 0.496224 0.821095 0.582969
O O1 0.250000 0.772359 0.777902
O O2 0.112809 0.773931 0.844455
O O3 0.082142 0.777773 0.739732
O O4 0.149452 0.000000 0.788384
O O5 0.750000 0.841116 0.883427
O O6 0.883761 0.740043 0.834642
O O7 0.878287 0.759954 0.941254
O O8 0.891414 0.000000 0.882215
O O9 0.250000 0.297419 0.228558
O O10 0.368894 0.500000 0.223060
O O11 0.411583 0.246532 0.267310
O O12 0.250000 0.151011 0.891676
O O13 0.109484 0.000000 0.910549
O O14 0.135347 0.261359 0.952797
O O15 0.750000 0.770371 0.503417
O O16 0.585687 0.776257 0.551921
O O17 0.590046 0.775891 0.450943
O O18 0.650481 0.000000 0.502411
O O19 0.494655 0.774599 0.643801
O O20 0.509116 0.000000 0.706201
O O21 0.358331 0.500000 0.013598
O O22 0.500000 0.653105 0.000000
O O23 0.495849 0.000000 0.582418
#
# Coordination Sequence:
#
# PCOD9401025 Si02
#       8
#     8   8   8   8   8   8   8   8
#     4   8  16  31  50  74 103 133 168 212 264 317
#     4  10  21  38  59  79  98 126 168 215 261 312
#     4  10  22  39  56  75 104 141 175 212 264 323
#     4   9  18  34  53  70  91 124 166 210 257 312
#     4   8  13  23  39  61  98 145 179 211 261 309
#     4  10  19  31  52  80 107 138 177 224 268 307
#     4  11  24  36  48  74 106 132 162 204 256 316
#     4   8  15  25  38  66 103 134 174 219 258 306
#
# _framework density 18.421686999999999
#
# number of rings (size 3 to 8) (size 9 to 14) (size 15 to 20)
#    0.000    2.750    0.000    3.000    1.750    5.250 
#    0.000    3.750    0.000    1.125    0.000    1.750 
#    0.000    1.000    0.000    0.000    0.000    0.000 
#
# Total GULP energy -356716.447620 kJ/mol
# GULP energy per Si atom -5573.694494 kJ/mol
# Density = 1.837976 g / cm^3
# Si number density = 18.421687 Si / 1000 Ang^3
#
#
#
# Elastic Constant Matrix: (Units=GPa)
#
#
# Indices 1 2 3 4 5 6 
#
# 1 78.2186 10.0281 33.5386 0.0000 0.0000 0.0000
# 2 10.0281 30.8182 18.9446 0.0000 0.0000 0.0000
# 3 33.5386 18.9446 141.9288 0.0000 0.0000 0.0000
# 4 0.0000 0.0000 0.0000 -10.8356 0.0000 0.0000
# 5 0.0000 0.0000 0.0000 0.0000 22.0367 0.0000
# 6 0.0000 0.0000 0.0000 0.0000 0.0000 22.3582
#
#
#
# Elastic Compliance Matrix: (Units=1/GPa)
#
#
# Indices 1 2 3 4 5 6 
#
# 1 0.014450 -0.002836 -0.003036 0.000000 0.000000 0.000000
# 2 -0.002836 0.035905 -0.004123 0.000000 0.000000 0.000000
# 3 -0.003036 -0.004123 0.008314 0.000000 0.000000 0.000000
# 4 0.000000 0.000000 0.000000 -0.092288 0.000000 0.000000
# 5 0.000000 0.000000 0.000000 0.000000 0.045379 0.000000
# 6 0.000000 0.000000 0.000000 0.000000 0.000000 0.044726
#
#
# Mechanical properties :
#
#
# Convention : Reuss Voigt Hill
#
# Bulk Modulus (GPa) = 25.85300 41.77646 33.81473
# Shear Modulus (GPa) = 55.94860 19.27549 37.61204
#
# Velocity S-wave (km/s) = 5.51697 3.23824 4.52345
# Velocity P-wave (km/s) = 7.39237 6.05877 6.75854
#
# Compressibility (1/GPa) = 0.03868023
#
# Stress axis : x y z
#
# Youngs Moduli (GPa) = 69.20391 27.85112 120.28612
#
# Poissons Ratio (x) = 0.07897 0.36520
# Poissons Ratio (y) = 0.19623 0.49588
# Poissons Ratio (z) = 0.21011 0.11482
#
# Static dielectric constant tensor:
#      x y z
#    x 1.650690 0.000000 0.000000 
#    y 0.000000 1.632880 0.000000 
#    z 0.000000 0.000000 1.651590 
# 
# From -- ./inp_files/35723.got.cif
#   From: 2010.05.17/outbox.cif.g08.bks.cpg/sg51_18_cif.got.tgz:35723.got - 2010.06.03 11:52:47.
