data_PCOD9401799
_publ_section_title
;
Structure prediction by ZEFSAII (Michael W. Deem and Ramdas Pophale) SiO2 
 PCOD9401799
Probable space group: P M M A
;
_chemical_formula_sum "Si O2"
_cell_formula_units_Z 48
_cell_length_a 8.498037
_cell_length_b 15.034956
_cell_length_c 19.426034
_cell_angle_alpha 90.000000
_cell_angle_beta 90.000000
_cell_angle_gamma 90.000000
_cell_volume 2482.017982
_symmetry_space_group_name_H-M "P M M A"
_symmetry_group_IT_number 51
_symmetry_cell_setting 'orthorhombic'
loop_
_space_group_symop_operation_xyz
x,y,z
1/2-x,-y,z
1/2+x,-y,-z
-x,y,-z
-x,-y,-z
1/2+x,y,-z
1/2-x,y,z
x,-y,z
loop_
_atom_site_type_symbol
_atom_site_label
_atom_site_fract_x
_atom_site_fract_y
_atom_site_fract_z
Si Si1 0.070433 0.764657 0.689352
Si Si2 0.938207 0.101012 0.577119
Si Si3 0.559485 0.339129 0.927754
Si Si4 0.428024 0.900377 0.214696
Si Si5 0.060734 0.400826 0.226657
Si Si6 0.435938 0.137943 0.927388
O O1 0.250000 0.748712 0.671055
O O2 0.990648 0.819321 0.627150
O O3 0.051330 0.835066 0.751292
O O4 0.999566 0.674424 0.721087
O O5 0.750000 0.099172 0.577155
O O6 0.000000 0.116306 0.500000
O O7 0.993061 0.000000 0.597016
O O8 0.750000 0.329234 0.931319
O O9 0.520495 0.383509 0.854138
O O10 0.475527 0.243165 0.925156
O O11 0.500000 0.381519 0.000000
O O12 0.250000 0.866350 0.226560
O O13 0.466141 0.902493 0.134711
O O14 0.436664 0.000000 0.242870
O O15 0.250000 0.398370 0.229310
O O16 0.006300 0.500000 0.245418
O O17 0.250000 0.122785 0.920449
O O18 0.500000 0.105104 0.000000
#
# Coordination Sequence:
#
# PCOD9401799 Si02
#       6
#     8   8   8   8   8   8
#     4  12  24  38  60  89 122 158 195 240 293 349
#     4  10  21  39  65  97 132 167 201 238 281 336
#     4  10  19  33  55  79 109 146 191 246 305 364
#     4  11  23  38  56  79 109 148 193 240 290 347
#     4  10  22  40  61  84 114 156 203 250 303 361
#     4  11  21  34  53  75 104 143 187 237 293 351
#
# _framework density 19.339102
#
# number of rings (size 3 to 8) (size 9 to 14) (size 15 to 20)
#    0.000    1.333    1.667    6.000    0.000    6.000 
#    0.000    0.000    0.000    0.500    0.000    0.000 
#    0.000    0.000    0.000    0.000    0.000    0.000 
#
# Total GULP energy -267998.577756 kJ/mol
# GULP energy per Si atom -5583.303703 kJ/mol
# Density = 1.929509 g / cm^3
# Si number density = 19.339102 Si / 1000 Ang^3
#
#
#
# Elastic Constant Matrix: (Units=GPa)
#
#
# Indices 1 2 3 4 5 6 
#
# 1 67.7362 29.8962 21.0733 0.0000 0.0000 0.0000
# 2 29.8962 125.6768 60.9666 0.0000 0.0000 0.0000
# 3 21.0733 60.9666 129.1059 0.0000 0.0000 0.0000
# 4 0.0000 0.0000 0.0000 21.4134 0.0000 0.0000
# 5 0.0000 0.0000 0.0000 0.0000 33.5356 0.0000
# 6 0.0000 0.0000 0.0000 0.0000 0.0000 -0.2193
#
#
#
# Elastic Compliance Matrix: (Units=1/GPa)
#
#
# Indices 1 2 3 4 5 6 
#
# 1 0.016614 -0.003420 -0.001097 0.000000 0.000000 0.000000
# 2 -0.003420 0.011025 -0.004648 0.000000 0.000000 0.000000
# 3 -0.001097 -0.004648 0.010120 0.000000 0.000000 0.000000
# 4 0.000000 0.000000 0.000000 0.046700 0.000000 0.000000
# 5 0.000000 0.000000 0.000000 0.000000 0.029819 0.000000
# 6 0.000000 0.000000 0.000000 0.000000 0.000000 -4.560476
#
#
# Mechanical properties :
#
#
# Convention : Reuss Voigt Hill
#
# Bulk Modulus (GPa) = 51.47012 60.71014 56.09013
# Shear Modulus (GPa) = -1.13087 24.98480 11.92697
#
# Velocity S-wave (km/s) = -0.76552 3.59824 2.48610
# Velocity P-wave (km/s) = 5.08831 6.98024 6.10797
#
# Compressibility (1/GPa) = 0.01942875
#
# Stress axis : x y z
#
# Youngs Moduli (GPa) = 60.19071 90.70011 98.81846
#
# Poissons Ratio (x) = 0.31020 0.10838
# Poissons Ratio (y) = 0.20586 0.45932
# Poissons Ratio (z) = 0.06602 0.42159
#
# Static dielectric constant tensor:
#      x y z
#    x 1.629470 0.000000 0.000000 
#    y 0.000000 1.710000 0.000000 
#    z 0.000000 0.000000 1.696280 
# 
# From -- ./inp_files/31598.got.cif
#   From: 2010.05.17/outbox.cif.g08.bks.cpg/sg51_16_cif.got.tgz:31598.got - 2010.06.03 11:52:47.
