data_PCOD9401812
_publ_section_title
;
Structure prediction by ZEFSAII (Michael W. Deem and Ramdas Pophale) SiO2 
 PCOD9401812
Probable space group: P M M A
;
_chemical_formula_sum "Si O2"
_cell_formula_units_Z 48
_cell_length_a 16.055601
_cell_length_b 7.742433
_cell_length_c 18.269561
_cell_angle_alpha 90.000000
_cell_angle_beta 90.000000
_cell_angle_gamma 90.000000
_cell_volume 2271.078441
_symmetry_space_group_name_H-M "P M M A"
_symmetry_group_IT_number 51
_symmetry_cell_setting 'orthorhombic'
loop_
_space_group_symop_operation_xyz
x,y,z
1/2-x,-y,z
1/2+x,-y,-z
-x,y,-z
-x,-y,-z
1/2+x,y,-z
1/2-x,y,z
x,-y,z
loop_
_atom_site_type_symbol
_atom_site_label
_atom_site_fract_x
_atom_site_fract_y
_atom_site_fract_z
Si Si1 0.750000 0.202021 0.533630
Si Si2 0.250000 0.299426 0.947778
Si Si3 0.919903 0.788227 0.288146
Si Si4 0.750000 0.701871 0.700871
Si Si5 0.913385 0.791681 0.793697
Si Si6 0.585285 0.208956 0.961196
Si Si7 0.250000 0.199678 0.782947
Si Si8 0.917543 0.788422 0.457692
O O1 0.750000 0.212318 0.621164
O O2 0.665565 0.274020 0.498507
O O3 0.750000 0.000000 0.513491
O O4 0.250000 0.500000 0.929541
O O5 0.250000 0.203628 0.870390
O O6 0.332573 0.258296 0.994023
O O7 0.835781 0.726255 0.248672
O O8 0.919476 0.737534 0.372942
O O9 0.002992 0.729727 0.246510
O O10 0.921285 0.000000 0.285725
O O11 0.750000 0.500000 0.686591
O O12 0.831665 0.747190 0.747578
O O13 0.909197 0.729097 0.877402
O O14 0.917631 0.000000 0.796705
O O15 0.582400 0.000000 0.959825
O O16 0.500000 0.268704 0.000000
O O17 0.250000 0.000000 0.758468
O O18 0.000000 0.731175 0.500000
O O19 0.917887 0.000000 0.459299
#
# Coordination Sequence:
#
# PCOD9401812 Si02
#       8
#     4   4   8   4   8   8   4   8
#     4  10  19  33  55  80 107 141 179 220 268 322
#     4  12  25  38  55  82 117 154 189 228 278 334
#     4   9  17  31  56  89 116 139 175 225 277 325
#     4  12  25  38  53  76 109 148 189 232 274 318
#     4  10  20  36  59  84 110 142 180 223 273 330
#     4  10  21  39  63  88 112 143 186 233 281 333
#     4  10  19  35  59  84 113 147 185 228 270 322
#     4   9  16  27  49  82 112 135 168 219 272 320
#
# _framework density 21.135331999999998
#
# number of rings (size 3 to 8) (size 9 to 14) (size 15 to 20)
#    0.000    2.000    0.000    4.500    0.000   10.333 
#    0.000    2.500    0.000    6.500    0.000    0.000 
#    0.000    0.000    0.000    0.000    0.000    0.000 
#
# Total GULP energy -268287.207296 kJ/mol
# GULP energy per Si atom -5589.316819 kJ/mol
# Density = 2.108723 g / cm^3
# Si number density = 21.135332 Si / 1000 Ang^3
#
#
#
# Elastic Constant Matrix: (Units=GPa)
#
#
# Indices 1 2 3 4 5 6 
#
# 1 238.4024 -1.8610 109.1343 0.0000 0.0000 0.0000
# 2 -1.8610 31.3987 -16.5054 0.0000 0.0000 0.0000
# 3 109.1343 -16.5054 146.4884 0.0000 0.0000 0.0000
# 4 0.0000 0.0000 0.0000 -17.7376 0.0000 0.0000
# 5 0.0000 0.0000 0.0000 0.0000 48.8573 0.0000
# 6 0.0000 0.0000 0.0000 0.0000 0.0000-1717.9950
#
#
#
# Elastic Compliance Matrix: (Units=1/GPa)
#
#
# Indices 1 2 3 4 5 6 
#
# 1 0.006518 -0.002303 -0.005116 0.000000 0.000000 0.000000
# 2 -0.002303 0.034667 0.005622 0.000000 0.000000 0.000000
# 3 -0.005116 0.005622 0.011271 0.000000 0.000000 0.000000
# 4 0.000000 0.000000 0.000000 -0.056378 0.000000 0.000000
# 5 0.000000 0.000000 0.000000 0.000000 0.020468 0.000000
# 6 0.000000 0.000000 0.000000 0.000000 0.000000 -0.000582
#
#
# Mechanical properties :
#
#
# Convention : Reuss Voigt Hill
#
# Bulk Modulus (GPa) = 20.46540 66.42502 43.44521
# Shear Modulus (GPa) = 139.48437 -315.67360 -88.09462
#
# Velocity S-wave (km/s) = 8.13259 -12.23448 -6.46310
# Velocity P-wave (km/s) = 9.89391 12.96457 5.92412
#
# Compressibility (1/GPa) = 0.04886297
#
# Stress axis : x y z
#
# Youngs Moduli (GPa) = 153.41044 28.84576 88.72217
#
# Poissons Ratio (x) = 0.06643 0.45388
# Poissons Ratio (y) = 0.35328 -0.49877
# Poissons Ratio (z) = 0.78481 -0.16216
#
# Static dielectric constant tensor:
#      x y z
#    x 1.731440 0.000000 0.000000 
#    y 0.000000 1.770770 0.000000 
#    z 0.000000 0.000000 1.724010 
# 
# From -- ./inp_files/29706.got.cif
#   From: 2010.05.17/outbox.cif.g08.bks.cpg/sg51_15_cif.got.tgz:29706.got - 2010.06.03 11:52:47.
