data_PCOD9401398
_publ_section_title
;
Structure prediction by ZEFSAII (Michael W. Deem and Ramdas Pophale) SiO2 
 PCOD9401398
Probable space group: P M M A
;
_chemical_formula_sum "Si O2"
_cell_formula_units_Z 40
_cell_length_a 14.453566
_cell_length_b 15.047479
_cell_length_c 8.070825
_cell_angle_alpha 90.000000
_cell_angle_beta 90.000000
_cell_angle_gamma 90.000000
_cell_volume 1755.321557
_symmetry_space_group_name_H-M "P M M A"
_symmetry_group_IT_number 51
_symmetry_cell_setting 'orthorhombic'
loop_
_space_group_symop_operation_xyz
x,y,z
1/2-x,-y,z
1/2+x,-y,-z
-x,y,-z
-x,-y,-z
1/2+x,y,-z
1/2-x,y,z
x,-y,z
loop_
_atom_site_type_symbol
_atom_site_label
_atom_site_fract_x
_atom_site_fract_y
_atom_site_fract_z
Si Si1 0.136028 0.286469 0.924229
Si Si2 0.354621 0.096723 0.822036
Si Si3 0.136667 0.397799 0.603826
Si Si4 0.639479 0.284974 0.710478
Si Si5 0.893834 0.902131 0.555498
O O1 0.250000 0.284621 0.921308
O O2 0.101982 0.186092 0.890868
O O3 0.108205 0.348928 0.772756
O O4 0.105773 0.312758 0.108150
O O5 0.250000 0.092592 0.889093
O O6 0.346523 0.109029 0.623522
O O7 0.399492 0.000000 0.850528
O O8 0.250000 0.396718 0.602233
O O9 0.107561 0.500000 0.598506
O O10 0.104459 0.342631 0.443610
O O11 0.750000 0.297178 0.712788
O O12 0.623496 0.180828 0.673117
O O13 0.000000 0.902441 0.500000
O O14 0.869789 0.000000 0.623892
#
# Coordination Sequence:
#
# PCOD9401398 Si02
#       5
#     8   8   8   8   8
#     4   9  17  29  48  76 103 129 165 206 249 297
#     4   9  16  29  50  72  98 132 166 203 248 298
#     4   9  17  30  49  75 106 133 161 207 260 300
#     4  10  19  32  53  78 102 133 173 209 248 301
#     4  10  20  33  50  74 104 137 172 209 252 301
#
# _framework density 22.787845999999998
#
# number of rings (size 3 to 8) (size 9 to 14) (size 15 to 20)
#    0.000    2.600    2.000    0.600    0.000    2.800 
#    0.000    7.000    0.000    4.200    0.000    1.400 
#    0.000    0.000    0.000    0.000    0.000    0.000 
#
# Total GULP energy -223416.955142 kJ/mol
# GULP energy per Si atom -5585.423879 kJ/mol
# Density = 2.273598 g / cm^3
# Si number density = 22.787846 Si / 1000 Ang^3
#
#
#
# Elastic Constant Matrix: (Units=GPa)
#
#
# Indices 1 2 3 4 5 6 
#
# 1 56.4624 5.0503 13.5832 0.0000 0.0000 0.0000
# 2 5.0503 175.0344 118.4805 0.0000 0.0000 0.0000
# 3 13.5832 118.4805 194.7123 0.0000 0.0000 0.0000
# 4 0.0000 0.0000 0.0000 -2.9714 0.0000 0.0000
# 5 0.0000 0.0000 0.0000 0.0000 3.5090 0.0000
# 6 0.0000 0.0000 0.0000 0.0000 0.0000 -33.6256
#
#
#
# Elastic Compliance Matrix: (Units=1/GPa)
#
#
# Indices 1 2 3 4 5 6 
#
# 1 0.018046 0.000564 -0.001602 0.000000 0.000000 0.000000
# 2 0.000564 0.009732 -0.005961 0.000000 0.000000 0.000000
# 3 -0.001602 -0.005961 0.008875 0.000000 0.000000 0.000000
# 4 0.000000 0.000000 0.000000 -0.336539 0.000000 0.000000
# 5 0.000000 0.000000 0.000000 0.000000 0.284983 0.000000
# 6 0.000000 0.000000 0.000000 0.000000 0.000000 -0.029739
#
#
# Mechanical properties :
#
#
# Convention : Reuss Voigt Hill
#
# Bulk Modulus (GPa) = 44.14251 77.82636 60.98443
# Shear Modulus (GPa) = -216.52754 12.65539 -101.93608
#
# Velocity S-wave (km/s) = -9.75834 2.35916 -6.69550
# Velocity P-wave (km/s) = 10.37081 6.45349 5.74048
#
# Compressibility (1/GPa) = 0.02265390
#
# Stress axis : x y z
#
# Youngs Moduli (GPa) = 55.41446 102.75400 112.67837
#
# Poissons Ratio (x) = -0.05791 0.18049
# Poissons Ratio (y) = -0.03123 0.67169
# Poissons Ratio (z) = 0.08876 0.61253
#
# Static dielectric constant tensor:
#      x y z
#    x 1.834150 0.000000 0.000000 
#    y 0.000000 1.817650 0.000000 
#    z 0.000000 0.000000 1.831370 
# 
# From -- ./inp_files/9405.got.cif
#   From: 2010.05.17/outbox.cif.g08.bks.cpg/sg51_5_cif.got.tgz:9405.got - 2010.06.03 11:52:47.
