data_PCOD9401244
_publ_section_title
;
Structure prediction by ZEFSAII (Michael W. Deem and Ramdas Pophale) SiO2 
 PCOD9401244
Probable space group: P M M A
;
_chemical_formula_sum "Si O2"
_cell_formula_units_Z 48
_cell_length_a 8.618395
_cell_length_b 32.104139
_cell_length_c 9.298119
_cell_angle_alpha 90.000000
_cell_angle_beta 90.000000
_cell_angle_gamma 90.000000
_cell_volume 2572.660758
_symmetry_space_group_name_H-M "P M M A"
_symmetry_group_IT_number 51
_symmetry_cell_setting 'orthorhombic'
loop_
_space_group_symop_operation_xyz
x,y,z
1/2-x,-y,z
1/2+x,-y,-z
-x,y,-z
-x,-y,-z
1/2+x,y,-z
1/2-x,y,z
x,-y,z
loop_
_atom_site_type_symbol
_atom_site_label
_atom_site_fract_x
_atom_site_fract_y
_atom_site_fract_z
Si Si1 0.436571 0.373120 0.839507
Si Si2 0.936100 0.131835 0.662631
Si Si3 0.937149 0.213242 0.839058
Si Si4 0.937185 0.547058 0.340346
Si Si5 0.436056 0.045365 0.663525
Si Si6 0.563386 0.704804 0.661271
O O1 0.250000 0.371657 0.841550
O O2 0.486665 0.417052 0.769050
O O3 0.499304 0.335651 0.742197
O O4 0.500000 0.369027 0.000000
O O5 0.750000 0.130912 0.655246
O O6 0.986790 0.171208 0.757090
O O7 0.000000 0.136072 0.500000
O O8 0.995041 0.087825 0.726218
O O9 0.750000 0.213041 0.844141
O O10 0.985072 0.253872 0.748695
O O11 0.000000 0.214959 0.000000
O O12 0.750000 0.547509 0.346270
O O13 0.986729 0.500000 0.300411
O O14 0.000000 0.555867 0.500000
O O15 0.500000 0.044630 0.500000
O O16 0.250000 0.048452 0.659325
O O17 0.477573 0.000000 0.728078
O O18 0.500000 0.706506 0.500000
O O19 0.750000 0.703165 0.658241
#
# Coordination Sequence:
#
# PCOD9401244 Si02
#       6
#     8   8   8   8   8   8
#     4  11  23  38  57  83 115 149 186 228 275 327
#     4  10  19  32  51  77 105 135 174 216 261 312
#     4  10  23  39  56  79 107 140 177 218 265 318
#     4   9  19  36  57  81 110 145 186 231 277 325
#     4   9  16  26  43  70 102 135 171 212 259 308
#     4  11  23  40  61  85 112 143 181 223 271 324
#
# _framework density 18.657724999999999
#
# number of rings (size 3 to 8) (size 9 to 14) (size 15 to 20)
#    0.000    2.000    0.000    4.500    0.000    8.000 
#    0.000    0.000    0.000    0.500    0.000    0.000 
#    0.000    0.000    0.000    0.000    0.000    0.000 
#
# Total GULP energy -267976.555506 kJ/mol
# GULP energy per Si atom -5582.844906 kJ/mol
# Density = 1.861526 g / cm^3
# Si number density = 18.657725 Si / 1000 Ang^3
#
#
#
# Elastic Constant Matrix: (Units=GPa)
#
#
# Indices 1 2 3 4 5 6 
#
# 1 45.8512 46.7537 31.7250 0.0000 0.0000 0.0000
# 2 46.7537 189.4280 104.3177 0.0000 0.0000 0.0000
# 3 31.7250 104.3177 131.8878 0.0000 0.0000 0.0000
# 4 0.0000 0.0000 0.0000 -99.6083 0.0000 0.0000
# 5 0.0000 0.0000 0.0000 0.0000 30.3439 0.0000
# 6 0.0000 0.0000 0.0000 0.0000 0.0000 30.3246
#
#
#
# Elastic Compliance Matrix: (Units=1/GPa)
#
#
# Indices 1 2 3 4 5 6 
#
# 1 0.029558 -0.005988 -0.002374 0.000000 0.000000 0.000000
# 2 -0.005988 0.010566 -0.006917 0.000000 0.000000 0.000000
# 3 -0.002374 -0.006917 0.013624 0.000000 0.000000 0.000000
# 4 0.000000 0.000000 0.000000 -0.010039 0.000000 0.000000
# 5 0.000000 0.000000 0.000000 0.000000 0.032956 0.000000
# 6 0.000000 0.000000 0.000000 0.000000 0.000000 0.032977
#
#
# Mechanical properties :
#
#
# Convention : Reuss Voigt Hill
#
# Bulk Modulus (GPa) = 43.12047 81.41774 62.26911
# Shear Modulus (GPa) = 33.79997 4.50343 19.15170
#
# Velocity S-wave (km/s) = 4.26088 1.55530 3.20734
# Velocity P-wave (km/s) = 6.88247 6.85256 6.86753
#
# Compressibility (1/GPa) = 0.02319084
#
# Stress axis : x y z
#
# Youngs Moduli (GPa) = 33.83170 94.64129 73.39878
#
# Poissons Ratio (x) = 0.56673 0.17422
# Poissons Ratio (y) = 0.20259 0.50770
# Poissons Ratio (z) = 0.08030 0.65463
#
# Static dielectric constant tensor:
#      x y z
#    x 1.633080 0.000000 0.000000 
#    y 0.000000 1.677630 0.000000 
#    z 0.000000 0.000000 1.607210 
# 
# From -- ./inp_files/6086.got.cif
#   From: 2010.05.17/outbox.cif.g08.bks.cpg/sg51_4_cif.got.tgz:6086.got - 2010.06.03 11:52:47.
