data_PCOD9401392
_publ_section_title
;
Structure prediction by ZEFSAII (Michael W. Deem and Ramdas Pophale) SiO2 
 PCOD9401392
Probable space group: P M M A
;
_chemical_formula_sum "Si O2"
_cell_formula_units_Z 40
_cell_length_a 29.732428
_cell_length_b 7.423069
_cell_length_c 8.120812
_cell_angle_alpha 90.000000
_cell_angle_beta 90.000000
_cell_angle_gamma 90.000000
_cell_volume 1792.310834
_symmetry_space_group_name_H-M "P M M A"
_symmetry_group_IT_number 51
_symmetry_cell_setting 'orthorhombic'
loop_
_space_group_symop_operation_xyz
x,y,z
1/2-x,-y,z
1/2+x,-y,-z
-x,y,-z
-x,-y,-z
1/2+x,y,-z
1/2-x,y,z
x,-y,z
loop_
_atom_site_type_symbol
_atom_site_label
_atom_site_fract_x
_atom_site_fract_y
_atom_site_fract_z
Si Si1 0.448218 0.720147 0.014524
Si Si2 0.700806 0.716562 0.805828
Si Si3 0.602830 0.706702 0.306956
Si Si4 0.393321 0.278747 0.334089
Si Si5 0.299720 0.212608 0.803439
O O1 0.446430 0.500000 0.016312
O O2 0.425083 0.777588 0.184305
O O3 0.500000 0.773025 0.000000
O O4 0.420059 0.784764 0.856090
O O5 0.750000 0.783710 0.752397
O O6 0.701234 0.500000 0.792942
O O7 0.657481 0.780623 0.707436
O O8 0.695565 0.758947 0.999744
O O9 0.587191 0.500000 0.312634
O O10 0.592416 0.785310 0.485604
O O11 0.656670 0.707271 0.282691
O O12 0.393028 0.500000 0.337025
O O13 0.250000 0.282450 0.756252
O O14 0.300449 0.000000 0.771848
#
# Coordination Sequence:
#
# PCOD9401392 Si02
#       5
#     8   8   8   8   8
#     4   9  17  30  49  76 108 134 162 209 261 301
#     4   9  16  29  50  73 100 132 166 206 248 295
#     4  10  19  32  53  77 102 135 171 208 251 298
#     4   9  17  29  48  77 105 130 167 207 248 301
#     4  10  20  33  50  74 104 136 170 207 249 300
#
# _framework density 22.317556
#
# number of rings (size 3 to 8) (size 9 to 14) (size 15 to 20)
#    0.000    2.600    2.000    0.600    0.000    2.800 
#    0.000    7.000    0.000    3.000    0.000    1.400 
#    0.000    0.000    0.000    0.000    0.000    0.000 
#
# Total GULP energy -223391.509060 kJ/mol
# GULP energy per Si atom -5584.787727 kJ/mol
# Density = 2.226676 g / cm^3
# Si number density = 22.317556 Si / 1000 Ang^3
#
#
#
# Elastic Constant Matrix: (Units=GPa)
#
#
# Indices 1 2 3 4 5 6 
#
# 1 128.8344 -1.2673 89.1633 0.0000 0.0000 0.0000
# 2 -1.2673 75.1929 1.0798 0.0000 0.0000 0.0000
# 3 89.1633 1.0798 181.0760 0.0000 0.0000 0.0000
# 4 0.0000 0.0000 0.0000 -56.9230 0.0000 0.0000
# 5 0.0000 0.0000 0.0000 0.0000 1.6916 0.0000
# 6 0.0000 0.0000 0.0000 0.0000 0.0000 3.7195
#
#
#
# Elastic Compliance Matrix: (Units=1/GPa)
#
#
# Indices 1 2 3 4 5 6 
#
# 1 0.011780 0.000282 -0.005802 0.000000 0.000000 0.000000
# 2 0.000282 0.013307 -0.000218 0.000000 0.000000 0.000000
# 3 -0.005802 -0.000218 0.008381 0.000000 0.000000 0.000000
# 4 0.000000 0.000000 0.000000 -0.017568 0.000000 0.000000
# 5 0.000000 0.000000 0.000000 0.000000 0.591157 0.000000
# 6 0.000000 0.000000 0.000000 0.000000 0.000000 0.268851
#
#
# Mechanical properties :
#
#
# Convention : Reuss Voigt Hill
#
# Bulk Modulus (GPa) = 45.47319 62.56167 54.01743
# Shear Modulus (GPa) = 5.58837 9.43945 7.51391
#
# Velocity S-wave (km/s) = 1.58413 2.05883 1.83688
# Velocity P-wave (km/s) = 4.87501 5.80905 5.36240
#
# Compressibility (1/GPa) = 0.02199098
#
# Stress axis : x y z
#
# Youngs Moduli (GPa) = 84.88663 75.14835 119.31725
#
# Poissons Ratio (x) = -0.02118 0.69233
# Poissons Ratio (y) = -0.02393 0.02603
# Poissons Ratio (z) = 0.49255 0.01639
#
# Static dielectric constant tensor:
#      x y z
#    x 1.789550 0.000000 0.000000 
#    y 0.000000 1.825300 0.000000 
#    z 0.000000 0.000000 1.800400 
# 
# From -- ./inp_files/12098.got.cif
#   From: 2010.05.17/outbox.cif.g08.bks.cpg/sg51_7_cif.got.tgz:12098.got - 2010.06.03 11:52:47.
