data_PCOD9401163
_publ_section_title
;
Structure prediction by ZEFSAII (Michael W. Deem and Ramdas Pophale) SiO2 
 PCOD9401163
Probable space group: P M M A
;
_chemical_formula_sum "Si O2"
_cell_formula_units_Z 64
_cell_length_a 19.906932
_cell_length_b 7.626980
_cell_length_c 21.810730
_cell_angle_alpha 90.000000
_cell_angle_beta 90.000000
_cell_angle_gamma 90.000000
_cell_volume 3311.518168
_symmetry_space_group_name_H-M "P M M A"
_symmetry_group_IT_number 51
_symmetry_cell_setting 'orthorhombic'
loop_
_space_group_symop_operation_xyz
x,y,z
1/2-x,-y,z
1/2+x,-y,-z
-x,y,-z
-x,-y,-z
1/2+x,y,-z
1/2-x,y,z
x,-y,z
loop_
_atom_site_type_symbol
_atom_site_label
_atom_site_fract_x
_atom_site_fract_y
_atom_site_fract_z
Si Si1 0.468302 0.704755 0.683517
Si Si2 0.465168 0.706895 0.438921
Si Si3 0.825190 0.788390 0.509354
Si Si4 0.041770 0.293298 0.815307
Si Si5 0.324922 0.711903 0.017045
Si Si6 0.032843 0.796976 0.062406
Si Si7 0.175821 0.285897 0.874551
Si Si8 0.825897 0.787831 0.366927
O O1 0.487955 0.500000 0.684738
O O2 0.505481 0.783041 0.624111
O O3 0.483410 0.780951 0.750685
O O4 0.388246 0.718361 0.671807
O O5 0.500000 0.783504 0.500000
O O6 0.482005 0.500000 0.438377
O O7 0.385755 0.725667 0.448551
O O8 0.750000 0.731025 0.527078
O O9 0.836272 0.734331 0.438276
O O10 0.825887 0.000000 0.509717
O O11 0.052361 0.500000 0.804559
O O12 0.114231 0.219448 0.834774
O O13 0.994382 0.279181 0.874352
O O14 0.250000 0.767167 0.036325
O O15 0.326864 0.500000 0.018724
O O16 0.387413 0.779930 0.055284
O O17 0.333818 0.764763 0.945770
O O18 0.013038 0.000000 0.063949
O O19 0.000000 0.718789 0.000000
O O20 0.250000 0.229921 0.854512
O O21 0.175083 0.500000 0.874127
O O22 0.750000 0.733475 0.348837
O O23 0.827767 0.000000 0.364888
#
# Coordination Sequence:
#
# PCOD9401163 Si02
#       8
#     8   8   8   8   8   8   8   8
#     4  10  21  34  49  75 104 134 174 216 256 301
#     4  10  19  32  50  74 105 135 166 209 259 306
#     4   9  18  32  51  76 101 128 171 217 252 298
#     4  10  20  34  53  73 100 137 175 214 251 296
#     4   9  17  31  54  80 101 126 166 210 249 295
#     4  11  22  34  51  77 107 136 168 208 254 304
#     4   8  14  26  46  72  98 126 163 203 242 287
#     4   9  18  32  49  71 102 138 172 207 250 303
#
# _framework density 19.326484000000001
#
# number of rings (size 3 to 8) (size 9 to 14) (size 15 to 20)
#    0.000    2.500    2.500    1.875    0.000    3.000 
#    0.000    2.500    0.000    1.125    0.000    1.750 
#    0.000    0.000    0.000    0.000    0.000    0.000 
#
# Total GULP energy -357009.349313 kJ/mol
# GULP energy per Si atom -5578.271083 kJ/mol
# Density = 1.928250 g / cm^3
# Si number density = 19.326484 Si / 1000 Ang^3
#
#
#
# Elastic Constant Matrix: (Units=GPa)
#
#
# Indices 1 2 3 4 5 6 
#
# 1 98.8110 -10.2083 70.8973 0.0000 0.0000 0.0000
# 2 -10.2083 34.3390 4.9971 0.0000 0.0000 0.0000
# 3 70.8973 4.9971 141.3799 0.0000 0.0000 0.0000
# 4 0.0000 0.0000 0.0000 1.0127 0.0000 0.0000
# 5 0.0000 0.0000 0.0000 0.0000 19.8737 0.0000
# 6 0.0000 0.0000 0.0000 0.0000 0.0000 16.1635
#
#
#
# Elastic Compliance Matrix: (Units=1/GPa)
#
#
# Indices 1 2 3 4 5 6 
#
# 1 0.017086 0.006359 -0.008793 0.000000 0.000000 0.000000
# 2 0.006359 0.031639 -0.004307 0.000000 0.000000 0.000000
# 3 -0.008793 -0.004307 0.011635 0.000000 0.000000 0.000000
# 4 0.000000 0.000000 0.000000 0.987470 0.000000 0.000000
# 5 0.000000 0.000000 0.000000 0.000000 0.050318 0.000000
# 6 0.000000 0.000000 0.000000 0.000000 0.000000 0.061868
#
#
# Mechanical properties :
#
#
# Convention : Reuss Voigt Hill
#
# Bulk Modulus (GPa) = 21.33222 45.10025 33.21624
# Shear Modulus (GPa) = 4.20478 21.33291 12.76885
#
# Velocity S-wave (km/s) = 1.47661 3.32598 2.57318
# Velocity P-wave (km/s) = 3.73751 6.17545 5.10417
#
# Compressibility (1/GPa) = 0.04687744
#
# Stress axis : x y z
#
# Youngs Moduli (GPa) = 58.52655 31.60701 85.94946
#
# Poissons Ratio (x) = -0.20099 0.75575
# Poissons Ratio (y) = -0.37217 0.37019
# Poissons Ratio (z) = 0.51462 0.13613
#
# Static dielectric constant tensor:
#      x y z
#    x 1.673060 0.000000 0.000000 
#    y 0.000000 1.712920 0.000000 
#    z 0.000000 0.000000 1.692950 
# 
# From -- ./inp_files/33769.got.cif
#   From: 2010.05.17/outbox.cif.g08.bks.cpg/sg51_17_cif.got.tgz:33769.got - 2010.06.03 11:52:47.
