data_PCOD9401557
_publ_section_title
;
Structure prediction by ZEFSAII (Michael W. Deem and Ramdas Pophale) SiO2 
 PCOD9401557
Probable space group: P M M A
;
_chemical_formula_sum "Si O2"
_cell_formula_units_Z 52
_cell_length_a 11.506857
_cell_length_b 7.499736
_cell_length_c 29.971045
_cell_angle_alpha 90.000000
_cell_angle_beta 90.000000
_cell_angle_gamma 90.000000
_cell_volume 2586.452921
_symmetry_space_group_name_H-M "P M M A"
_symmetry_group_IT_number 51
_symmetry_cell_setting 'orthorhombic'
loop_
_space_group_symop_operation_xyz
x,y,z
1/2-x,-y,z
1/2+x,-y,-z
-x,y,-z
-x,-y,-z
1/2+x,y,-z
1/2-x,y,z
x,-y,z
loop_
_atom_site_type_symbol
_atom_site_label
_atom_site_fract_x
_atom_site_fract_y
_atom_site_fract_z
Si Si1 0.750000 0.216309 0.286214
Si Si2 0.250000 0.784524 0.817731
Si Si3 0.613021 0.282384 0.030420
Si Si4 0.892546 0.500000 0.535127
Si Si5 0.619975 0.286309 0.793688
Si Si6 0.972377 0.703337 0.126572
Si Si7 0.612081 0.201602 0.608249
Si Si8 0.501066 0.214426 0.699170
O O1 0.750000 0.259217 0.234010
O O2 0.630031 0.280900 0.306003
O O3 0.750000 0.000000 0.289344
O O4 0.138623 0.705605 0.841504
O O5 0.250000 0.000000 0.822383
O O6 0.750000 0.227082 0.021049
O O7 0.617921 0.500000 0.029579
O O8 0.573456 0.220658 0.079871
O O9 0.500000 0.232248 0.000000
O O10 0.750000 0.500000 0.522249
O O11 0.912484 0.670899 0.566928
O O12 0.000000 0.500000 0.500000
O O13 0.750000 0.220017 0.786252
O O14 0.622563 0.500000 0.799093
O O15 0.568376 0.214262 0.840404
O O16 0.547388 0.255153 0.748686
O O17 0.008851 0.500000 0.115919
O O18 0.750000 0.189176 0.611157
O O19 0.571809 0.275661 0.656218
O O20 0.564834 0.000000 0.601957
O O21 0.502261 0.000000 0.697428
#
# Coordination Sequence:
#
# PCOD9401557 Si02
#       8
#     4   4   8   4   8   8   8   8
#     4   9  18  31  49  75 109 141 177 223 265 308
#     4  11  19  31  51  73  97 133 175 209 251 309
#     4   9  17  29  48  73  96 122 161 212 265 318
#     4  10  22  42  66  90 122 156 196 250 299 346
#     4  10  21  32  46  72 105 139 173 214 263 313
#     4  10  19  33  51  71  99 131 169 211 259 317
#     4   9  19  36  60  87 115 154 197 235 286 346
#     4  10  19  34  53  77 109 144 184 224 265 321
#
# _framework density 20.104755000000001
#
# number of rings (size 3 to 8) (size 9 to 14) (size 15 to 20)
#    0.000    2.308    2.308    0.692    1.077    1.846 
#    1.385    3.462    0.000    0.462    0.000    0.000 
#    0.000    0.000    0.000    0.000    0.000    0.000 
#
# Total GULP energy -289565.026467 kJ/mol
# GULP energy per Si atom -5568.558201 kJ/mol
# Density = 2.005900 g / cm^3
# Si number density = 20.104755 Si / 1000 Ang^3
#
#
#
# Elastic Constant Matrix: (Units=GPa)
#
#
# Indices 1 2 3 4 5 6 
#
# 1 121.6572 15.0047 65.8270 0.0000 0.0000 0.0000
# 2 15.0047 66.2008 26.2291 0.0000 0.0000 0.0000
# 3 65.8270 26.2291 112.5929 0.0000 0.0000 0.0000
# 4 0.0000 0.0000 0.0000 20.6308 0.0000 0.0000
# 5 0.0000 0.0000 0.0000 0.0000 32.4065 0.0000
# 6 0.0000 0.0000 0.0000 0.0000 0.0000 6.7229
#
#
#
# Elastic Compliance Matrix: (Units=1/GPa)
#
#
# Indices 1 2 3 4 5 6 
#
# 1 0.012024 0.000066 -0.007045 0.000000 0.000000 0.000000
# 2 0.000066 0.016642 -0.003915 0.000000 0.000000 0.000000
# 3 -0.007045 -0.003915 0.013912 0.000000 0.000000 0.000000
# 4 0.000000 0.000000 0.000000 0.048471 0.000000 0.000000
# 5 0.000000 0.000000 0.000000 0.000000 0.030858 0.000000
# 6 0.000000 0.000000 0.000000 0.000000 0.000000 0.148746
#
#
# Mechanical properties :
#
#
# Convention : Reuss Voigt Hill
#
# Bulk Modulus (GPa) = 48.10162 57.17473 52.63817
# Shear Modulus (GPa) = 16.70163 24.84472 20.77317
#
# Velocity S-wave (km/s) = 2.88537 3.51916 3.21790
# Velocity P-wave (km/s) = 5.92266 6.70915 6.32814
#
# Compressibility (1/GPa) = 0.02078932
#
# Stress axis : x y z
#
# Youngs Moduli (GPa) = 83.16987 60.08927 71.87793
#
# Poissons Ratio (x) = -0.00397 0.50638
# Poissons Ratio (y) = -0.00549 0.28143
# Poissons Ratio (z) = 0.58593 0.23528
#
# Static dielectric constant tensor:
#      x y z
#    x 1.721750 0.000000 0.000000 
#    y 0.000000 1.758940 0.000000 
#    z 0.000000 0.000000 1.678940 
# 
# From -- ./inp_files/36605.got.cif
#   From: 2010.05.17/outbox.cif.g08.bks.cpg/sg51_19_cif.got.tgz:36605.got - 2010.06.03 11:52:47.
