data_PCOD9401815
_publ_section_title
;
Structure prediction by ZEFSAII (Michael W. Deem and Ramdas Pophale) SiO2 
 PCOD9401815
Probable space group: P M M A
;
_chemical_formula_sum "Si O2"
_cell_formula_units_Z 48
_cell_length_a 8.663973
_cell_length_b 20.986514
_cell_length_c 14.764305
_cell_angle_alpha 90.000000
_cell_angle_beta 90.000000
_cell_angle_gamma 90.000000
_cell_volume 2684.543242
_symmetry_space_group_name_H-M "P M M A"
_symmetry_group_IT_number 51
_symmetry_cell_setting 'orthorhombic'
loop_
_space_group_symop_operation_xyz
x,y,z
1/2-x,-y,z
1/2+x,-y,-z
-x,y,-z
-x,-y,-z
1/2+x,y,-z
1/2-x,y,z
x,-y,z
loop_
_atom_site_type_symbol
_atom_site_label
_atom_site_fract_x
_atom_site_fract_y
_atom_site_fract_z
Si Si1 0.934119 0.738511 0.404536
Si Si2 0.063952 0.572450 0.099382
Si Si3 0.064324 0.308610 0.219787
Si Si4 0.435743 0.928369 0.207038
Si Si5 0.565362 0.118099 0.594514
Si Si6 0.434099 0.807979 0.898622
O O1 0.750000 0.740191 0.406821
O O2 0.000000 0.714337 0.500000
O O3 0.994287 0.699319 0.319160
O O4 0.997013 0.810833 0.394480
O O5 0.250000 0.573177 0.094824
O O6 0.014795 0.500000 0.121501
O O7 0.016858 0.625781 0.171159
O O8 0.000000 0.588356 0.000000
O O9 0.250000 0.305852 0.224988
O O10 0.005595 0.249727 0.159292
O O11 0.250000 0.920519 0.197873
O O12 0.471944 0.919389 0.313723
O O13 0.517773 0.873787 0.149742
O O14 0.476656 0.000000 0.178509
O O15 0.500000 0.091532 0.500000
O O16 0.750000 0.122638 0.586927
O O17 0.250000 0.801848 0.900248
O O18 0.500000 0.806317 0.000000
#
# Coordination Sequence:
#
# PCOD9401815 Si02
#       6
#     8   8   8   8   8   8
#     4  11  21  34  55  83 114 147 185 229 278 331
#     4   9  19  35  56  84 118 154 189 226 273 327
#     4  11  21  36  59  86 117 149 185 231 277 327
#     4  10  22  40  59  79 108 146 186 231 283 337
#     4  10  19  33  55  80 111 144 180 225 277 331
#     4  12  25  40  59  82 109 143 186 234 282 334
#
# _framework density 17.880137000000001
#
# number of rings (size 3 to 8) (size 9 to 14) (size 15 to 20)
#    0.000    1.500    1.667    5.500    0.000    4.333 
#    0.000    0.000    0.000    0.500    0.000    0.000 
#    0.000    0.000    0.000    0.000    0.000    0.000 
#
# Total GULP energy -268223.149967 kJ/mol
# GULP energy per Si atom -5587.982291 kJ/mol
# Density = 1.783944 g / cm^3
# Si number density = 17.880137 Si / 1000 Ang^3
#
#
#
# Elastic Constant Matrix: (Units=GPa)
#
#
# Indices 1 2 3 4 5 6 
#
# 1 76.6807 32.6237 47.7791 0.0000 0.0000 0.0000
# 2 32.6237 91.4310 66.7059 0.0000 0.0000 0.0000
# 3 47.7791 66.7059 140.2432 0.0000 0.0000 0.0000
# 4 0.0000 0.0000 0.0000 54.7026 0.0000 0.0000
# 5 0.0000 0.0000 0.0000 0.0000 35.1698 0.0000
# 6 0.0000 0.0000 0.0000 0.0000 0.0000 -9.3164
#
#
#
# Elastic Compliance Matrix: (Units=1/GPa)
#
#
# Indices 1 2 3 4 5 6 
#
# 1 0.017018 -0.002821 -0.004456 0.000000 0.000000 0.000000
# 2 -0.002821 0.017217 -0.007228 0.000000 0.000000 0.000000
# 3 -0.004456 -0.007228 0.012087 0.000000 0.000000 0.000000
# 4 0.000000 0.000000 0.000000 0.018281 0.000000 0.000000
# 5 0.000000 0.000000 0.000000 0.000000 0.028433 0.000000
# 6 0.000000 0.000000 0.000000 0.000000 0.000000 -0.107338
#
#
# Mechanical properties :
#
#
# Convention : Reuss Voigt Hill
#
# Bulk Modulus (GPa) = 57.76620 66.95248 62.35934
# Shear Modulus (GPa) = 244.15525 26.86096 135.50810
#
# Velocity S-wave (km/s) = 11.69819 3.88013 8.71501
# Velocity P-wave (km/s) = 14.65746 7.58949 11.67136
#
# Compressibility (1/GPa) = 0.01731116
#
# Stress axis : x y z
#
# Youngs Moduli (GPa) = 58.76206 58.08086 82.73659
#
# Poissons Ratio (x) = 0.16386 0.36866
# Poissons Ratio (y) = 0.16578 0.59803
# Poissons Ratio (z) = 0.26183 0.41982
#
# Static dielectric constant tensor:
#      x y z
#    x 1.597730 0.000000 0.000000 
#    y 0.000000 1.601520 0.000000 
#    z 0.000000 0.000000 1.603770 
# 
# From -- ./inp_files/21111.got.cif
#   From: 2010.05.17/outbox.cif.g08.bks.cpg/sg51_11_cif.got.tgz:21111.got - 2010.06.03 11:52:47.
