data_PCOD9401411
_publ_section_title
;
Structure prediction by ZEFSAII (Michael W. Deem and Ramdas Pophale) SiO2 
 PCOD9401411
Probable space group: P M M A
;
_chemical_formula_sum "Si O2"
_cell_formula_units_Z 56
_cell_length_a 17.939941
_cell_length_b 7.540831
_cell_length_c 18.035713
_cell_angle_alpha 90.000000
_cell_angle_beta 90.000000
_cell_angle_gamma 90.000000
_cell_volume 2439.908466
_symmetry_space_group_name_H-M "P M M A"
_symmetry_group_IT_number 51
_symmetry_cell_setting 'orthorhombic'
loop_
_space_group_symop_operation_xyz
x,y,z
1/2-x,-y,z
1/2+x,-y,-z
-x,y,-z
-x,-y,-z
1/2+x,y,-z
1/2-x,y,z
x,-y,z
loop_
_atom_site_type_symbol
_atom_site_label
_atom_site_fract_x
_atom_site_fract_y
_atom_site_fract_z
Si Si1 0.333841 0.785147 0.738750
Si Si2 0.331798 0.214402 0.487621
Si Si3 0.049932 0.301910 0.612119
Si Si4 0.418301 0.217281 0.173013
Si Si5 0.919591 0.784233 0.116011
Si Si6 0.665746 0.216510 0.972396
Si Si7 0.393087 0.800011 0.337531
O O1 0.250000 0.726485 0.722975
O O2 0.393313 0.715534 0.680465
O O3 0.359419 0.737232 0.821361
O O4 0.335620 0.000000 0.733326
O O5 0.250000 0.271668 0.515405
O O6 0.400341 0.262673 0.540384
O O7 0.345498 0.281066 0.404148
O O8 0.331423 0.000000 0.485759
O O9 0.020682 0.500000 0.606153
O O10 0.977101 0.189566 0.630015
O O11 0.499845 0.275130 0.144770
O O12 0.360313 0.268707 0.109453
O O13 0.399179 0.280927 0.255657
O O14 0.420878 0.000000 0.176486
O O15 0.923032 0.000000 0.112981
O O16 0.891954 0.724075 0.035673
O O17 0.750000 0.272839 0.988810
O O18 0.665019 0.000000 0.973823
O O19 0.363785 0.000000 0.326760
#
# Coordination Sequence:
#
# PCOD9401411 Si02
#       7
#     8   8   8   8   8   8   8
#     4  10  19  32  53  78 106 142 180 218 264 321
#     4  10  22  39  59  82 108 140 178 220 269 325
#     4  12  24  37  55  80 110 141 178 223 272 322
#     4   9  16  27  46  70 100 139 177 213 258 313
#     4   9  15  26  44  69 103 139 175 212 259 318
#     4   9  16  24  38  69 110 142 169 212 268 317
#     4  10  20  37  59  81 107 143 183 222 265 318
#
# _framework density 22.951681000000001
#
# number of rings (size 3 to 8) (size 9 to 14) (size 15 to 20)
#    0.000    2.143    1.429    3.000    0.000    8.571 
#    0.000    2.857    0.000    0.000    0.000    2.000 
#    0.000    1.143    0.000    0.000    0.000    0.000 
#
# Total GULP energy -312942.242324 kJ/mol
# GULP energy per Si atom -5588.254327 kJ/mol
# Density = 2.289944 g / cm^3
# Si number density = 22.951681 Si / 1000 Ang^3
#
#
#
# Elastic Constant Matrix: (Units=GPa)
#
#
# Indices 1 2 3 4 5 6 
#
# 1 17.1133 -3.5619 -1.2293 0.0000 0.0000 0.0000
# 2 -3.5619 64.0083 2.2739 0.0000 0.0000 0.0000
# 3 -1.2293 2.2739 146.1907 0.0000 0.0000 0.0000
# 4 0.0000 0.0000 0.0000 -220.1673 0.0000 0.0000
# 5 0.0000 0.0000 0.0000 0.0000 17.1318 0.0000
# 6 0.0000 0.0000 0.0000 0.0000 0.0000 -28.7477
#
#
#
# Elastic Compliance Matrix: (Units=1/GPa)
#
#
# Indices 1 2 3 4 5 6 
#
# 1 0.059148 0.003276 0.000446 0.000000 0.000000 0.000000
# 2 0.003276 0.015813 -0.000218 0.000000 0.000000 0.000000
# 3 0.000446 -0.000218 0.006848 0.000000 0.000000 0.000000
# 4 0.000000 0.000000 0.000000 -0.004542 0.000000 0.000000
# 5 0.000000 0.000000 0.000000 0.000000 0.058371 0.000000
# 6 0.000000 0.000000 0.000000 0.000000 0.000000 -0.034785
#
#
# Mechanical properties :
#
#
# Convention : Reuss Voigt Hill
#
# Bulk Modulus (GPa) = 11.25926 24.69750 17.97838
# Shear Modulus (GPa) = 40.50215 -31.03468 4.73374
#
# Velocity S-wave (km/s) = 4.20536 -3.68118 1.43769
# Velocity P-wave (km/s) = 5.33819 2.69891 3.25670
#
# Compressibility (1/GPa) = 0.08881577
#
# Stress axis : x y z
#
# Youngs Moduli (GPa) = 16.90675 63.23901 146.03803
#
# Poissons Ratio (x) = -0.20715 -0.06520
# Poissons Ratio (y) = -0.05538 0.03190
# Poissons Ratio (z) = -0.00755 0.01381
#
# Static dielectric constant tensor:
#      x y z
#    x 1.804670 0.000000 0.000000 
#    y 0.000000 1.930610 0.000000 
#    z 0.000000 0.000000 1.835140 
# 
# From -- ./inp_files/25719.got.cif
#   From: 2010.05.17/outbox.cif.g08.bks.cpg/sg51_13_cif.got.tgz:25719.got - 2010.06.03 11:52:47.
