data_PCOD9401677
_publ_section_title
;
Structure prediction by ZEFSAII (Michael W. Deem and Ramdas Pophale) SiO2 
 PCOD9401677
Probable space group: P M M A
;
_chemical_formula_sum "Si O2"
_cell_formula_units_Z 64
_cell_length_a 8.616816
_cell_length_b 15.080548
_cell_length_c 30.534322
_cell_angle_alpha 90.000000
_cell_angle_beta 90.000000
_cell_angle_gamma 90.000000
_cell_volume 3967.822390
_symmetry_space_group_name_H-M "P M M A"
_symmetry_group_IT_number 51
_symmetry_cell_setting 'orthorhombic'
loop_
_space_group_symop_operation_xyz
x,y,z
1/2-x,-y,z
1/2+x,-y,-z
-x,y,-z
-x,-y,-z
1/2+x,y,-z
1/2-x,y,z
x,-y,z
loop_
_atom_site_type_symbol
_atom_site_label
_atom_site_fract_x
_atom_site_fract_y
_atom_site_fract_z
Si Si1 0.565378 0.138662 0.545914
Si Si2 0.563510 0.598819 0.356072
Si Si3 0.569792 0.892183 0.953855
Si Si4 0.574159 0.107353 0.137367
Si Si5 0.429982 0.763094 0.303538
Si Si6 0.438126 0.338636 0.545723
Si Si7 0.935656 0.897663 0.769739
Si Si8 0.428116 0.901276 0.636074
O O1 0.500000 0.105491 0.500000
O O2 0.750000 0.126303 0.549411
O O3 0.520821 0.242909 0.547759
O O4 0.472224 0.096317 0.585552
O O5 0.750000 0.600764 0.354389
O O6 0.508842 0.500000 0.344366
O O7 0.504578 0.673818 0.322687
O O8 0.524196 0.616836 0.407436
O O9 0.750000 0.869895 0.951809
O O10 0.487565 0.860445 0.909507
O O11 0.557344 0.000000 0.954070
O O12 0.500000 0.861227 0.000000
O O13 0.750000 0.137091 0.144514
O O14 0.473500 0.127147 0.180181
O O15 0.574674 0.000000 0.134501
O O16 0.250000 0.745003 0.294921
O O17 0.496528 0.820250 0.262480
O O18 0.453360 0.834246 0.342129
O O19 0.500000 0.380580 0.500000
O O20 0.250000 0.329346 0.542975
O O21 0.750000 0.901196 0.763583
O O22 0.993547 0.000000 0.762245
O O23 0.250000 0.870335 0.641661
O O24 0.441653 0.000000 0.654824
#
# Coordination Sequence:
#
# PCOD9401677 Si02
#       8
#     8   8   8   8   8   8   8   8
#     4  11  21  34  53  73  96 123 151 182 219 262
#     4  10  22  39  57  76 100 128 154 184 226 277
#     4   9  15  22  33  50  76 112 153 198 245 286
#     4   9  16  25  38  58  83 113 154 199 239 281
#     4  11  22  36  55  76  97 122 154 195 237 278
#     4  10  19  33  54  76 100 124 149 179 217 266
#     4   9  18  32  48  67  93 123 155 194 241 286
#     4  11  23  37  53  73  97 125 155 187 224 269
#
# _framework density 16.129753999999998
#
# number of rings (size 3 to 8) (size 9 to 14) (size 15 to 20)
#    0.000    2.000    1.250    4.125    0.000    6.750 
#    0.000    1.250    0.000    0.000    0.000    0.000 
#    0.000    0.000    0.000    0.000    0.000    0.625 
#
# Total GULP energy -356673.142241 kJ/mol
# GULP energy per Si atom -5573.017848 kJ/mol
# Density = 1.609304 g / cm^3
# Si number density = 16.129754 Si / 1000 Ang^3
#
#
#
# Elastic Constant Matrix: (Units=GPa)
#
#
# Indices 1 2 3 4 5 6 
#
# 1 29.9185 12.6593 8.6037 0.0000 0.0000 0.0000
# 2 12.6593 68.9495 36.2426 0.0000 0.0000 0.0000
# 3 8.6037 36.2426 104.2962 0.0000 0.0000 0.0000
# 4 0.0000 0.0000 0.0000 3.0459 0.0000 0.0000
# 5 0.0000 0.0000 0.0000 0.0000 24.7638 0.0000
# 6 0.0000 0.0000 0.0000 0.0000 0.0000 -8.0311
#
#
#
# Elastic Compliance Matrix: (Units=1/GPa)
#
#
# Indices 1 2 3 4 5 6 
#
# 1 0.036298 -0.006228 -0.000830 0.000000 0.000000 0.000000
# 2 -0.006228 0.018813 -0.006024 0.000000 0.000000 0.000000
# 3 -0.000830 -0.006024 0.011750 0.000000 0.000000 0.000000
# 4 0.000000 0.000000 0.000000 0.328312 0.000000 0.000000
# 5 0.000000 0.000000 0.000000 0.000000 0.040382 0.000000
# 6 0.000000 0.000000 0.000000 0.000000 0.000000 -0.124517
#
#
# Mechanical properties :
#
#
# Convention : Reuss Voigt Hill
#
# Bulk Modulus (GPa) = 24.57174 35.35283 29.96228
# Shear Modulus (GPa) = 14.25444 13.66630 13.96037
#
# Velocity S-wave (km/s) = 2.97599 2.91395 2.94514
# Velocity P-wave (km/s) = 5.20342 5.76948 5.49374
#
# Compressibility (1/GPa) = 0.04069716
#
# Stress axis : x y z
#
# Youngs Moduli (GPa) = 27.54967 53.15419 85.10792
#
# Poissons Ratio (x) = 0.33105 0.07065
# Poissons Ratio (y) = 0.17158 0.51267
# Poissons Ratio (z) = 0.02287 0.32019
#
# Static dielectric constant tensor:
#      x y z
#    x 1.267200 0.000000 0.000000 
#    y 0.000000 1.560860 0.000000 
#    z 0.000000 0.000000 1.573330 
# 
# From -- ./inp_files/37584.got.cif
#   From: 2010.05.17/outbox.cif.g08.bks.cpg/sg51_19_cif.got.tgz:37584.got - 2010.06.03 11:52:47.
