data_PCOD9401608
_publ_section_title
;
Structure prediction by ZEFSAII (Michael W. Deem and Ramdas Pophale) SiO2 
 PCOD9401608
Probable space group: P M M A
;
_chemical_formula_sum "Si O2"
_cell_formula_units_Z 64
_cell_length_a 14.189967
_cell_length_b 18.390148
_cell_length_c 12.918876
_cell_angle_alpha 90.000000
_cell_angle_beta 90.000000
_cell_angle_gamma 90.000000
_cell_volume 3371.252951
_symmetry_space_group_name_H-M "P M M A"
_symmetry_group_IT_number 51
_symmetry_cell_setting 'orthorhombic'
loop_
_space_group_symop_operation_xyz
x,y,z
1/2-x,-y,z
1/2+x,-y,-z
-x,y,-z
-x,-y,-z
1/2+x,y,-z
1/2-x,y,z
x,-y,z
loop_
_atom_site_type_symbol
_atom_site_label
_atom_site_fract_x
_atom_site_fract_y
_atom_site_fract_z
Si Si1 0.453487 0.639978 0.257306
Si Si2 0.139803 0.314066 0.657939
Si Si3 0.512813 0.915307 0.874907
Si Si4 0.861706 0.417146 0.535296
Si Si5 0.863951 0.581206 0.949711
Si Si6 0.140866 0.783628 0.181081
Si Si7 0.137845 0.173699 0.774069
Si Si8 0.358825 0.280793 0.949638
O O1 0.565708 0.647405 0.266371
O O2 0.416642 0.601235 0.360554
O O3 0.412802 0.597885 0.158952
O O4 0.410625 0.721948 0.248924
O O5 0.250000 0.326966 0.682449
O O6 0.121271 0.353341 0.548494
O O7 0.124929 0.226664 0.674091
O O8 0.590596 0.861122 0.827375
O O9 0.421013 0.897500 0.803608
O O10 0.537706 0.000000 0.866574
O O11 0.500000 0.901327 0.000000
O O12 0.750000 0.415939 0.557650
O O13 0.883821 0.500000 0.498616
O O14 0.750000 0.591266 0.935461
O O15 0.880992 0.500000 0.984065
O O16 0.897468 0.639378 0.033599
O O17 0.250000 0.789005 0.212054
O O18 0.137669 0.753525 0.063386
O O19 0.250000 0.159930 0.783271
O O20 0.100098 0.226403 0.866809
O O21 0.250000 0.287553 0.918188
#
# Coordination Sequence:
#
# PCOD9401608 Si02
#       8
#     8   8   8   8   8   8   8   8
#     4  11  19  32  56  79 104 141 182 220 273 332
#     4  10  22  36  52  74 103 144 185 220 265 320
#     4  11  22  34  54  84 113 145 180 218 273 329
#     4  10  21  37  56  83 115 141 177 234 287 325
#     4   9  17  29  47  75 103 130 176 231 272 312
#     4  10  19  33  52  80 112 143 178 219 268 327
#     4  10  19  36  55  73 102 144 186 219 258 314
#     4   8  15  28  49  71  98 137 177 218 263 307
#
# _framework density 18.98404
#
# number of rings (size 3 to 8) (size 9 to 14) (size 15 to 20)
#    0.000    2.125    2.500    2.625    0.000    3.000 
#    0.000    1.875    0.000    4.500    0.000    1.750 
#    0.000    3.000    0.000    0.000    0.000    0.000 
#
# Total GULP energy -356777.489443 kJ/mol
# GULP energy per Si atom -5574.648273 kJ/mol
# Density = 1.894083 g / cm^3
# Si number density = 18.984040 Si / 1000 Ang^3
#
#
#
# Elastic Constant Matrix: (Units=GPa)
#
#
# Indices 1 2 3 4 5 6 
#
# 1 74.9333 15.2135 5.6984 0.0000 0.0000 0.0000
# 2 15.2135 102.1830 10.3113 0.0000 0.0000 0.0000
# 3 5.6984 10.3113 50.6112 0.0000 0.0000 0.0000
# 4 0.0000 0.0000 0.0000 24.6185 0.0000 0.0000
# 5 0.0000 0.0000 0.0000 0.0000 22.5610 0.0000
# 6 0.0000 0.0000 0.0000 0.0000 0.0000 25.8592
#
#
#
# Elastic Compliance Matrix: (Units=1/GPa)
#
#
# Indices 1 2 3 4 5 6 
#
# 1 0.013828 -0.001942 -0.001161 0.000000 0.000000 0.000000
# 2 -0.001942 0.010264 -0.001873 0.000000 0.000000 0.000000
# 3 -0.001161 -0.001873 0.020271 0.000000 0.000000 0.000000
# 4 0.000000 0.000000 0.000000 0.040620 0.000000 0.000000
# 5 0.000000 0.000000 0.000000 0.000000 0.044324 0.000000
# 6 0.000000 0.000000 0.000000 0.000000 0.000000 0.038671
#
#
# Mechanical properties :
#
#
# Convention : Reuss Voigt Hill
#
# Bulk Modulus (GPa) = 29.05974 32.24155 30.65064
# Shear Modulus (GPa) = 26.39920 27.70801 27.05360
#
# Velocity S-wave (km/s) = 3.73312 3.82454 3.77911
# Velocity P-wave (km/s) = 5.82428 6.04344 5.93487
#
# Compressibility (1/GPa) = 0.03441187
#
# Stress axis : x y z
#
# Youngs Moduli (GPa) = 72.31859 97.42417 49.33214
#
# Poissons Ratio (x) = 0.18915 0.05729
# Poissons Ratio (y) = 0.14041 0.09238
# Poissons Ratio (z) = 0.08399 0.18244
#
# Static dielectric constant tensor:
#      x y z
#    x 1.717830 0.000000 0.000000 
#    y 0.000000 1.675970 0.000000 
#    z 0.000000 0.000000 1.659530 
# 
# From -- ./inp_files/24470.got.cif
#   From: 2010.05.17/outbox.cif.g08.bks.cpg/sg51_13_cif.got.tgz:24470.got - 2010.06.03 11:52:47.
