data_PCOD9401680
_publ_section_title
;
Structure prediction by ZEFSAII (Michael W. Deem and Ramdas Pophale) SiO2 
 PCOD9401680
Probable space group: P M M A
;
_chemical_formula_sum "Si O2"
_cell_formula_units_Z 64
_cell_length_a 14.950346
_cell_length_b 17.946845
_cell_length_c 11.338601
_cell_angle_alpha 90.000000
_cell_angle_beta 90.000000
_cell_angle_gamma 90.000000
_cell_volume 3042.277522
_symmetry_space_group_name_H-M "P M M A"
_symmetry_group_IT_number 51
_symmetry_cell_setting 'orthorhombic'
loop_
_space_group_symop_operation_xyz
x,y,z
1/2-x,-y,z
1/2+x,-y,-z
-x,y,-z
-x,-y,-z
1/2+x,y,-z
1/2-x,y,z
x,-y,z
loop_
_atom_site_type_symbol
_atom_site_label
_atom_site_fract_x
_atom_site_fract_y
_atom_site_fract_z
Si Si1 0.854312 0.910749 0.941403
Si Si2 0.350803 0.415140 0.001234
Si Si3 0.042668 0.304301 0.165818
Si Si4 0.035155 0.848009 0.841815
Si Si5 0.351058 0.737997 0.385857
Si Si6 0.852959 0.202082 0.365922
Si Si7 0.892413 0.420119 0.510879
Si Si8 0.622082 0.367083 0.263630
O O1 0.750000 0.884829 0.922364
O O2 0.936988 0.885140 0.856636
O O3 0.851945 0.000000 0.938953
O O4 0.893578 0.883650 0.067672
O O5 0.250000 0.413021 0.049001
O O6 0.385366 0.500000 0.014428
O O7 0.345983 0.395291 0.862583
O O8 0.406987 0.352732 0.069256
O O9 0.101993 0.260175 0.260643
O O10 0.977910 0.238732 0.121800
O O11 0.984166 0.361329 0.242573
O O12 0.079678 0.846267 0.712651
O O13 0.250000 0.762759 0.371553
O O14 0.386332 0.782118 0.500723
O O15 0.354861 0.651311 0.423395
O O16 0.750000 0.174643 0.367854
O O17 0.849966 0.283738 0.302893
O O18 0.870815 0.500000 0.565316
O O19 0.857582 0.416355 0.376490
O O20 0.000000 0.412987 0.500000
#
# Coordination Sequence:
#
# PCOD9401680 Si02
#       8
#     8   8   8   8   8   8   8   8
#     4  10  22  41  65  99 141 173 201 240 287 353
#     4  11  25  40  52  72 108 156 209 268 333 391
#     4  11  23  37  56  82 114 155 207 261 312 377
#     4  10  21  35  61  93 126 167 208 242 299 361
#     4  10  21  38  55  79 114 150 198 267 328 371
#     4   9  19  34  58  89 119 157 207 259 307 362
#     4  10  19  33  54  76  99 138 196 263 329 394
#     4  10  20  34  55  75 104 145 197 256 324 381
#
# _framework density 21.036871999999999
#
# number of rings (size 3 to 8) (size 9 to 14) (size 15 to 20)
#    0.000    1.875    1.250    2.625    7.000    3.750 
#    0.000    0.000    0.000    0.000    0.000    7.000 
#    0.000   12.000    0.000    0.000    0.000    0.000 
#
# Total GULP energy -356896.570527 kJ/mol
# GULP energy per Si atom -5576.508914 kJ/mol
# Density = 2.098899 g / cm^3
# Si number density = 21.036872 Si / 1000 Ang^3
#
#
#
# Elastic Constant Matrix: (Units=GPa)
#
#
# Indices 1 2 3 4 5 6 
#
# 1 122.0621 19.7495 32.1354 0.0000 0.0000 0.0000
# 2 19.7495 59.7877 19.2767 0.0000 0.0000 0.0000
# 3 32.1354 19.2767 84.7993 0.0000 0.0000 0.0000
# 4 0.0000 0.0000 0.0000 10.2521 0.0000 0.0000
# 5 0.0000 0.0000 0.0000 0.0000 26.7933 0.0000
# 6 0.0000 0.0000 0.0000 0.0000 0.0000 21.5952
#
#
#
# Elastic Compliance Matrix: (Units=1/GPa)
#
#
# Indices 1 2 3 4 5 6 
#
# 1 0.009338 -0.002097 -0.003062 0.000000 0.000000 0.000000
# 2 -0.002097 0.018520 -0.003415 0.000000 0.000000 0.000000
# 3 -0.003062 -0.003415 0.013729 0.000000 0.000000 0.000000
# 4 0.000000 0.000000 0.000000 0.097541 0.000000 0.000000
# 5 0.000000 0.000000 0.000000 0.000000 0.037323 0.000000
# 6 0.000000 0.000000 0.000000 0.000000 0.000000 0.046306
#
#
# Mechanical properties :
#
#
# Convention : Reuss Voigt Hill
#
# Bulk Modulus (GPa) = 40.91963 45.44137 43.18050
# Shear Modulus (GPa) = 20.15706 24.76063 22.45885
#
# Velocity S-wave (km/s) = 3.09880 3.43448 3.27095
# Velocity P-wave (km/s) = 5.68305 6.11353 5.90222
#
# Compressibility (1/GPa) = 0.02443815
#
# Stress axis : x y z
#
# Youngs Moduli (GPa) = 107.08905 53.99636 72.83730
#
# Poissons Ratio (x) = 0.11325 0.22302
# Poissons Ratio (y) = 0.22461 0.24875
# Poissons Ratio (z) = 0.32790 0.18440
#
# Static dielectric constant tensor:
#      x y z
#    x 1.827390 0.000000 0.000000 
#    y 0.000000 1.727140 0.000000 
#    z 0.000000 0.000000 1.810470 
# 
# From -- ./inp_files/16863.got.cif
#   From: 2010.05.17/outbox.cif.g08.bks.cpg/sg51_9_cif.got.tgz:16863.got - 2010.06.03 11:52:47.
