data_PCOD9401547
_publ_section_title
;
Structure prediction by ZEFSAII (Michael W. Deem and Ramdas Pophale) SiO2 
 PCOD9401547
Probable space group: P M M A
;
_chemical_formula_sum "Si O2"
_cell_formula_units_Z 64
_cell_length_a 7.501275
_cell_length_b 26.461025
_cell_length_c 15.026698
_cell_angle_alpha 90.000000
_cell_angle_beta 90.000000
_cell_angle_gamma 90.000000
_cell_volume 2982.670704
_symmetry_space_group_name_H-M "P M M A"
_symmetry_group_IT_number 51
_symmetry_cell_setting 'orthorhombic'
loop_
_space_group_symop_operation_xyz
x,y,z
1/2-x,-y,z
1/2+x,-y,-z
-x,y,-z
-x,-y,-z
1/2+x,y,-z
1/2-x,y,z
x,-y,z
loop_
_atom_site_type_symbol
_atom_site_label
_atom_site_fract_x
_atom_site_fract_y
_atom_site_fract_z
Si Si1 0.968228 0.943856 0.785717
Si Si2 0.536884 0.099137 0.598413
Si Si3 0.962676 0.442155 0.594992
Si Si4 0.036839 0.152871 0.104555
Si Si5 0.467738 0.441835 0.209588
Si Si6 0.468691 0.251515 0.213417
Si Si7 0.963370 0.347581 0.897026
Si Si8 0.963093 0.215047 0.598228
O O1 0.750000 0.943781 0.786683
O O2 0.025538 0.931215 0.684593
O O3 0.029048 0.898813 0.850105
O O4 0.025859 0.000000 0.811845
O O5 0.500000 0.078165 0.500000
O O6 0.750000 0.101820 0.606518
O O7 0.467867 0.157069 0.601595
O O8 0.750000 0.444937 0.600181
O O9 0.033127 0.500000 0.590155
O O10 0.021719 0.422820 0.691353
O O11 0.000000 0.416764 0.500000
O O12 0.250000 0.152655 0.115579
O O13 0.973064 0.202118 0.158060
O O14 0.000000 0.155774 0.000000
O O15 0.250000 0.443107 0.207412
O O16 0.525678 0.500000 0.197800
O O17 0.530217 0.401849 0.136982
O O18 0.250000 0.252142 0.212457
O O19 0.530337 0.301952 0.164264
O O20 0.526459 0.245403 0.315706
O O21 0.750000 0.348436 0.886457
O O22 0.000000 0.338413 0.000000
O O23 0.750000 0.211890 0.606353
O O24 0.000000 0.235932 0.500000
#
# Coordination Sequence:
#
# PCOD9401547 Si02
#       8
#     8   8   8   8   8   8   8   8
#     4   9  17  30  48  68  92 125 160 190 228 283
#     4   9  16  28  47  69  93 122 155 189 226 273
#     4   8  13  23  41  64  89 118 152 187 222 264
#     4  10  19  33  51  70  91 119 157 198 237 279
#     4   8  15  29  48  69  95 128 161 190 229 285
#     4   9  17  32  53  72  94 125 158 189 229 284
#     4  10  20  34  52  72  94 123 159 199 239 279
#     4   9  16  29  49  72  96 124 155 187 226 275
#
# _framework density 21.457279
#
# number of rings (size 3 to 8) (size 9 to 14) (size 15 to 20)
#    0.000    3.000    1.250    1.125    0.000    0.750 
#    0.000    3.125    0.000    1.500    0.000    0.000 
#    0.000    0.000    0.000    0.000    0.000    0.000 
#
# Total GULP energy -356928.548408 kJ/mol
# GULP energy per Si atom -5577.008569 kJ/mol
# Density = 2.140844 g / cm^3
# Si number density = 21.457279 Si / 1000 Ang^3
#
#
#
# Elastic Constant Matrix: (Units=GPa)
#
#
# Indices 1 2 3 4 5 6 
#
# 1 54.3929 7.0651 -2.5897 0.0000 0.0000 0.0000
# 2 7.0651 124.9703 85.5616 0.0000 0.0000 0.0000
# 3 -2.5897 85.5616 159.4358 0.0000 0.0000 0.0000
# 4 0.0000 0.0000 0.0000 21.9289 0.0000 0.0000
# 5 0.0000 0.0000 0.0000 0.0000 24.1272 0.0000
# 6 0.0000 0.0000 0.0000 0.0000 0.0000 -2.6428
#
#
#
# Elastic Compliance Matrix: (Units=1/GPa)
#
#
# Indices 1 2 3 4 5 6 
#
# 1 0.018710 -0.002001 0.001378 0.000000 0.000000 0.000000
# 2 -0.002001 0.012864 -0.006936 0.000000 0.000000 0.000000
# 3 0.001378 -0.006936 0.010017 0.000000 0.000000 0.000000
# 4 0.000000 0.000000 0.000000 0.045602 0.000000 0.000000
# 5 0.000000 0.000000 0.000000 0.000000 0.041447 0.000000
# 6 0.000000 0.000000 0.000000 0.000000 0.000000 -0.378390
#
#
# Mechanical properties :
#
#
# Convention : Reuss Voigt Hill
#
# Bulk Modulus (GPa) = 37.77528 57.65256 47.71392
# Shear Modulus (GPa) = -22.14273 25.26679 1.56203
#
# Velocity S-wave (km/s) = -3.21588 3.43525 0.85414
# Velocity P-wave (km/s) = 1.96315 6.53157 4.82263
#
# Compressibility (1/GPa) = 0.02647234
#
# Stress axis : x y z
#
# Youngs Moduli (GPa) = 53.44657 77.73823 99.83400
#
# Poissons Ratio (x) = 0.15556 -0.13755
# Poissons Ratio (y) = 0.10695 0.69243
# Poissons Ratio (z) = -0.07364 0.53918
#
# Static dielectric constant tensor:
#      x y z
#    x 1.818670 0.000000 0.000000 
#    y 0.000000 1.762220 0.000000 
#    z 0.000000 0.000000 1.778320 
# 
# From -- ./inp_files/15689.got.cif
#   From: 2010.05.17/outbox.cif.g08.bks.cpg/sg51_8_cif.got.tgz:15689.got - 2010.06.03 11:52:47.
