data_PCOD9401935
_publ_section_title
;
Structure prediction by ZEFSAII (Michael W. Deem and Ramdas Pophale) SiO2 
 PCOD9401935
Probable space group: P M M A
;
_chemical_formula_sum "Si O2"
_cell_formula_units_Z 44
_cell_length_a 8.550743
_cell_length_b 17.003922
_cell_length_c 16.367855
_cell_angle_alpha 90.000000
_cell_angle_beta 90.000000
_cell_angle_gamma 90.000000
_cell_volume 2379.823379
_symmetry_space_group_name_H-M "P M M A"
_symmetry_group_IT_number 51
_symmetry_cell_setting 'orthorhombic'
loop_
_space_group_symop_operation_xyz
x,y,z
1/2-x,-y,z
1/2+x,-y,-z
-x,y,-z
-x,-y,-z
1/2+x,y,-z
1/2-x,y,z
x,-y,z
loop_
_atom_site_type_symbol
_atom_site_label
_atom_site_fract_x
_atom_site_fract_y
_atom_site_fract_z
Si Si1 0.068716 0.364196 0.700100
Si Si2 0.066808 0.585265 0.885411
Si Si3 0.061216 0.908262 0.411763
Si Si4 0.562045 0.761297 0.085128
Si Si5 0.935730 0.500000 0.590211
Si Si6 0.064936 0.197254 0.259287
O O1 0.250000 0.344940 0.683903
O O2 0.063300 0.407687 0.787498
O O3 0.000838 0.423162 0.634782
O O4 0.972357 0.284434 0.708053
O O5 0.250000 0.584274 0.910371
O O6 0.996632 0.500000 0.908575
O O7 0.000210 0.670070 0.911753
O O8 0.250000 0.903862 0.413853
O O9 0.008107 0.861740 0.330601
O O10 0.000000 0.878649 0.500000
O O11 0.015230 0.000000 0.405123
O O12 0.750000 0.758391 0.085172
O O13 0.509906 0.804227 0.168554
O O14 0.500000 0.795876 0.000000
O O15 0.750000 0.500000 0.592861
O O16 0.000000 0.500000 0.500000
O O17 0.250000 0.185853 0.249575
#
# Coordination Sequence:
#
# PCOD9401935 Si02
#       6
#     8   8   8   8   4   8
#     4  10  19  34  53  72 100 137 178 223 271 323
#     4   8  14  27  48  69  92 127 169 214 266 317
#     4   9  19  36  59  87 117 146 175 216 271 329
#     4  10  20  33  51  75 106 144 186 232 280 332
#     4  12  24  36  50  70  97 134 181 230 280 328
#     4  10  20  35  56  82 112 145 184 226 270 329
#
# _framework density 18.488765999999998
#
# number of rings (size 3 to 8) (size 9 to 14) (size 15 to 20)
#    0.000    2.364    0.909    3.545    0.000    2.545 
#    0.000    1.818    0.000    0.545    0.000    0.000 
#    0.000    0.000    0.000    0.000    0.000    0.000 
#
# Total GULP energy -245240.743917 kJ/mol
# GULP energy per Si atom -5573.653271 kJ/mol
# Density = 1.844668 g / cm^3
# Si number density = 18.488766 Si / 1000 Ang^3
#
#
#
# Elastic Constant Matrix: (Units=GPa)
#
#
# Indices 1 2 3 4 5 6 
#
# 1 32.1925 6.0129 35.1637 0.0000 0.0000 0.0000
# 2 6.0129 57.6444 53.2442 0.0000 0.0000 0.0000
# 3 35.1637 53.2442 172.4191 0.0000 0.0000 0.0000
# 4 0.0000 0.0000 0.0000 91.6765 0.0000 0.0000
# 5 0.0000 0.0000 0.0000 0.0000 28.0484 0.0000
# 6 0.0000 0.0000 0.0000 0.0000 0.0000 16.8452
#
#
#
# Elastic Compliance Matrix: (Units=1/GPa)
#
#
# Indices 1 2 3 4 5 6 
#
# 1 0.040898 0.004810 -0.009826 0.000000 0.000000 0.000000
# 2 0.004810 0.024836 -0.008651 0.000000 0.000000 0.000000
# 3 -0.009826 -0.008651 0.010475 0.000000 0.000000 0.000000
# 4 0.000000 0.000000 0.000000 0.010908 0.000000 0.000000
# 5 0.000000 0.000000 0.000000 0.000000 0.035653 0.000000
# 6 0.000000 0.000000 0.000000 0.000000 0.000000 0.059364
#
#
# Mechanical properties :
#
#
# Convention : Reuss Voigt Hill
#
# Bulk Modulus (GPa) = 20.46002 50.12195 35.29098
# Shear Modulus (GPa) = 22.14747 38.50303 30.32525
#
# Velocity S-wave (km/s) = 3.46481 4.56840 4.05433
# Velocity P-wave (km/s) = 5.20545 7.41588 6.40672
#
# Compressibility (1/GPa) = 0.04887582
#
# Stress axis : x y z
#
# Youngs Moduli (GPa) = 24.45117 40.26367 95.46379
#
# Poissons Ratio (x) = -0.19367 0.93805
# Poissons Ratio (y) = -0.11761 0.82582
# Poissons Ratio (z) = 0.24026 0.34830
#
# Static dielectric constant tensor:
#      x y z
#    x 1.649980 0.000000 0.000000 
#    y 0.000000 1.647190 0.000000 
#    z 0.000000 0.000000 1.648480 
# 
# From -- ./inp_files/20889.got.cif
#   From: 2010.05.17/outbox.cif.g08.bks.cpg/sg51_11_cif.got.tgz:20889.got - 2010.06.03 11:52:47.
