data_PCOD9401616
_publ_section_title
;
Structure prediction by ZEFSAII (Michael W. Deem and Ramdas Pophale) SiO2 
 PCOD9401616
Probable space group: P M M A
;
_chemical_formula_sum "Si O2"
_cell_formula_units_Z 64
_cell_length_a 32.433227
_cell_length_b 7.575852
_cell_length_c 12.428126
_cell_angle_alpha 90.000000
_cell_angle_beta 90.000000
_cell_angle_gamma 90.000000
_cell_volume 3053.706483
_symmetry_space_group_name_H-M "P M M A"
_symmetry_group_IT_number 51
_symmetry_cell_setting 'orthorhombic'
loop_
_space_group_symop_operation_xyz
x,y,z
1/2-x,-y,z
1/2+x,-y,-z
-x,y,-z
-x,-y,-z
1/2+x,y,-z
1/2-x,y,z
x,-y,z
loop_
_atom_site_type_symbol
_atom_site_label
_atom_site_fract_x
_atom_site_fract_y
_atom_site_fract_z
Si Si1 0.296979 0.286668 0.727644
Si Si2 0.126638 0.201845 0.587834
Si Si3 0.013689 0.285479 0.379970
Si Si4 0.562919 0.794782 0.237645
Si Si5 0.127540 0.716698 0.121690
Si Si6 0.953761 0.702285 0.999316
Si Si7 0.297098 0.284658 0.973500
Si Si8 0.893884 0.292599 0.648672
O O1 0.250000 0.235066 0.704634
O O2 0.299219 0.500000 0.723968
O O3 0.329333 0.213633 0.643697
O O4 0.306574 0.232355 0.850341
O O5 0.094358 0.282732 0.673498
O O6 0.126310 0.275978 0.468093
O O7 0.113332 0.000000 0.574991
O O8 0.012751 0.500000 0.376661
O O9 0.059769 0.220580 0.358916
O O10 0.000000 0.232793 0.500000
O O11 0.981773 0.218976 0.291840
O O12 0.573599 0.000000 0.218784
O O13 0.562209 0.704651 0.121968
O O14 0.127943 0.500000 0.114543
O O15 0.083470 0.776262 0.072716
O O16 0.166821 0.776057 0.052441
O O17 0.129540 0.774030 0.246026
O O18 0.959334 0.500000 0.961010
O O19 0.000000 0.782833 0.000000
O O20 0.250000 0.229168 0.999231
O O21 0.296705 0.500000 0.974916
O O22 0.898962 0.500000 0.668559
#
# Coordination Sequence:
#
# PCOD9401616 Si02
#       8
#     8   8   8   8   8   8   8   8
#     4   9  18  34  58  84 106 132 170 216 264 316
#     4  11  23  36  51  76 109 143 176 212 262 318
#     4  10  19  33  53  74  98 137 185 229 271 309
#     4  11  23  35  51  77 109 141 177 220 268 325
#     4   9  17  30  50  75 102 134 170 217 269 312
#     4  10  20  35  55  77 103 135 176 223 271 324
#     4   8  14  27  50  80 107 128 157 203 260 315
#     4  10  20  35  54  76 103 137 182 227 264 312
#
# _framework density 20.958138000000002
#
# number of rings (size 3 to 8) (size 9 to 14) (size 15 to 20)
#    0.000    2.250    1.250    3.000    0.000    5.750 
#    0.000    1.250    0.000    3.000    0.000    0.000 
#    0.000    0.000    0.000    0.000    0.000    0.000 
#
# Total GULP energy -357365.315086 kJ/mol
# GULP energy per Si atom -5583.833048 kJ/mol
# Density = 2.091044 g / cm^3
# Si number density = 20.958138 Si / 1000 Ang^3
#
#
#
# Elastic Constant Matrix: (Units=GPa)
#
#
# Indices 1 2 3 4 5 6 
#
# 1 125.1165 -4.5083 80.2487 0.0000 0.0000 0.0000
# 2 -4.5083 43.2096 -7.8403 0.0000 0.0000 0.0000
# 3 80.2487 -7.8403 139.1385 0.0000 0.0000 0.0000
# 4 0.0000 0.0000 0.0000 57.4856 0.0000 0.0000
# 5 0.0000 0.0000 0.0000 0.0000 38.6877 0.0000
# 6 0.0000 0.0000 0.0000 0.0000 0.0000 25.9396
#
#
#
# Elastic Compliance Matrix: (Units=1/GPa)
#
#
# Indices 1 2 3 4 5 6 
#
# 1 0.012685 -0.000004 -0.007316 0.000000 0.000000 0.000000
# 2 -0.000004 0.023382 0.001320 0.000000 0.000000 0.000000
# 3 -0.007316 0.001320 0.011481 0.000000 0.000000 0.000000
# 4 0.000000 0.000000 0.000000 0.017396 0.000000 0.000000
# 5 0.000000 0.000000 0.000000 0.000000 0.025848 0.000000
# 6 0.000000 0.000000 0.000000 0.000000 0.000000 0.038551
#
#
# Mechanical properties :
#
#
# Convention : Reuss Voigt Hill
#
# Bulk Modulus (GPa) = 28.13159 49.25166 38.69163
# Shear Modulus (GPa) = 32.63852 40.39357 36.51605
#
# Velocity S-wave (km/s) = 3.95057 4.39492 4.17865
# Velocity P-wave (km/s) = 5.85331 7.02173 6.46398
#
# Compressibility (1/GPa) = 0.03554723
#
# Stress axis : x y z
#
# Youngs Moduli (GPa) = 78.83282 42.76784 87.09884
#
# Poissons Ratio (x) = 0.00017 0.63725
# Poissons Ratio (y) = 0.00032 -0.11496
# Poissons Ratio (z) = 0.57677 -0.05645
#
# Static dielectric constant tensor:
#      x y z
#    x 1.736270 0.000000 0.000000 
#    y 0.000000 1.817160 0.000000 
#    z 0.000000 0.000000 1.735450 
# 
# From -- ./inp_files/19485.got.cif
#   From: 2010.05.17/outbox.cif.g08.bks.cpg/sg51_10_cif.got.tgz:19485.got - 2010.06.03 11:52:47.
