data_PCOD9401275
_publ_section_title
;
Structure prediction by ZEFSAII (Michael W. Deem and Ramdas Pophale) SiO2 
 PCOD9401275
Probable space group: P M M A
;
_chemical_formula_sum "Si O2"
_cell_formula_units_Z 48
_cell_length_a 16.054907
_cell_length_b 18.441293
_cell_length_c 9.355853
_cell_angle_alpha 90.000000
_cell_angle_beta 90.000000
_cell_angle_gamma 90.000000
_cell_volume 2770.017749
_symmetry_space_group_name_H-M "P M M A"
_symmetry_group_IT_number 51
_symmetry_cell_setting 'orthorhombic'
loop_
_space_group_symop_operation_xyz
x,y,z
1/2-x,-y,z
1/2+x,-y,-z
-x,y,-z
-x,-y,-z
1/2+x,y,-z
1/2-x,y,z
x,-y,z
loop_
_atom_site_type_symbol
_atom_site_label
_atom_site_fract_x
_atom_site_fract_y
_atom_site_fract_z
Si Si1 0.343575 0.587381 0.153533
Si Si2 0.656797 0.916929 0.857775
Si Si3 0.002678 0.085465 0.666886
Si Si4 0.916832 0.184197 0.094502
Si Si5 0.846259 0.659029 0.158391
Si Si6 0.505658 0.587415 0.333635
O O1 0.250000 0.606558 0.206483
O O2 0.346672 0.500000 0.141837
O O3 0.420728 0.610214 0.252508
O O4 0.353492 0.621316 0.996976
O O5 0.750000 0.906999 0.803520
O O6 0.589125 0.906791 0.734598
O O7 0.647362 0.000000 0.909262
O O8 0.638543 0.863751 0.988021
O O9 0.000000 0.104709 0.500000
O O10 0.058607 0.136336 0.767561
O O11 0.026635 0.000000 0.679056
O O12 0.871464 0.257434 0.138981
O O13 0.000000 0.200650 0.000000
O O14 0.750000 0.651363 0.205253
O O15 0.913421 0.622119 0.261564
O O16 0.500000 0.606544 0.500000
O O17 0.511841 0.500000 0.322193
#
# Coordination Sequence:
#
# PCOD9401275 Si02
#       6
#     8   8   8   8   8   8
#     4   9  18  34  56  79 102 132 172 216 260 307
#     4   9  17  31  51  74 100 130 168 214 259 304
#     4   9  18  33  53  76 102 134 170 208 255 309
#     4  10  19  32  52  75 101 135 172 211 254 304
#     4  11  22  35  53  77 105 137 175 216 257 304
#     4  10  21  36  55  79 107 138 171 210 258 310
#
# _framework density 17.328406999999999
#
# number of rings (size 3 to 8) (size 9 to 14) (size 15 to 20)
#    0.000    2.333    0.000    3.000    0.000    5.667 
#    0.000    3.333    0.000    4.000    0.000    0.000 
#    0.000    0.000    0.000    0.000    0.000    0.000 
#
# Total GULP energy -267724.820293 kJ/mol
# GULP energy per Si atom -5577.600423 kJ/mol
# Density = 1.728897 g / cm^3
# Si number density = 17.328407 Si / 1000 Ang^3
#
#
#
# Elastic Constant Matrix: (Units=GPa)
#
#
# Indices 1 2 3 4 5 6 
#
# 1 142.5577 54.3008 77.5812 0.0000 0.0000 0.0000
# 2 54.3008 39.5897 46.6927 0.0000 0.0000 0.0000
# 3 77.5812 46.6927 117.9919 0.0000 0.0000 0.0000
# 4 0.0000 0.0000 0.0000 -33.2763 0.0000 0.0000
# 5 0.0000 0.0000 0.0000 0.0000 10.2570 0.0000
# 6 0.0000 0.0000 0.0000 0.0000 0.0000 22.8705
#
#
#
# Elastic Compliance Matrix: (Units=1/GPa)
#
#
# Indices 1 2 3 4 5 6 
#
# 1 0.015345 -0.017154 -0.003302 0.000000 0.000000 0.000000
# 2 -0.017154 0.066541 -0.015054 0.000000 0.000000 0.000000
# 3 -0.003302 -0.015054 0.016603 0.000000 0.000000 0.000000
# 4 0.000000 0.000000 0.000000 -0.030051 0.000000 0.000000
# 5 0.000000 0.000000 0.000000 0.000000 0.097494 0.000000
# 6 0.000000 0.000000 0.000000 0.000000 0.000000 0.043724
#
#
# Mechanical properties :
#
#
# Convention : Reuss Voigt Hill
#
# Bulk Modulus (GPa) = 36.40039 73.03208 54.71624
# Shear Modulus (GPa) = 17.25140 8.07456 12.66298
#
# Velocity S-wave (km/s) = 3.15867 2.16098 2.70620
# Velocity P-wave (km/s) = 5.86129 6.96160 6.43500
#
# Compressibility (1/GPa) = 0.02747223
#
# Stress axis : x y z
#
# Youngs Moduli (GPa) = 65.16648 15.02827 60.22960
#
# Poissons Ratio (x) = 0.25779 0.19885
# Poissons Ratio (y) = 1.11784 0.90667
# Poissons Ratio (z) = 0.21515 0.22623
#
# Static dielectric constant tensor:
#      x y z
#    x 1.597550 0.000000 0.000000 
#    y 0.000000 1.584750 0.000000 
#    z 0.000000 0.000000 1.547000 
# 
# From -- ./inp_files/8205.got.cif
#   From: 2010.05.17/outbox.cif.g08.bks.cpg/sg51_5_cif.got.tgz:8205.got - 2010.06.03 11:52:47.
