data_PCOD9401872
_publ_section_title
;
Structure prediction by ZEFSAII (Michael W. Deem and Ramdas Pophale) SiO2 
 PCOD9401872
Probable space group: P M M A
;
_chemical_formula_sum "Si O2"
_cell_formula_units_Z 64
_cell_length_a 19.578458
_cell_length_b 7.669803
_cell_length_c 20.353582
_cell_angle_alpha 90.000000
_cell_angle_beta 90.000000
_cell_angle_gamma 90.000000
_cell_volume 3056.353222
_symmetry_space_group_name_H-M "P M M A"
_symmetry_group_IT_number 51
_symmetry_cell_setting 'orthorhombic'
loop_
_space_group_symop_operation_xyz
x,y,z
1/2-x,-y,z
1/2+x,-y,-z
-x,y,-z
-x,-y,-z
1/2+x,y,-z
1/2-x,y,z
x,-y,z
loop_
_atom_site_type_symbol
_atom_site_label
_atom_site_fract_x
_atom_site_fract_y
_atom_site_fract_z
Si Si1 0.582325 0.289407 0.156089
Si Si2 0.939640 0.210204 0.636402
Si Si3 0.826513 0.206633 0.892919
Si Si4 0.423071 0.207826 0.992196
Si Si5 0.937312 0.706490 0.790110
Si Si6 0.414016 0.793636 0.591703
Si Si7 0.671496 0.786258 0.533678
Si Si8 0.828144 0.711284 0.278879
O O1 0.581086 0.500000 0.158361
O O2 0.600067 0.237101 0.082313
O O3 0.506526 0.224013 0.175607
O O4 0.635038 0.230254 0.211953
O O5 0.938825 0.256032 0.712908
O O6 0.872909 0.268149 0.596652
O O7 0.009616 0.277082 0.602832
O O8 0.941307 0.000000 0.632470
O O9 0.750000 0.279321 0.888774
O O10 0.870454 0.226991 0.826987
O O11 0.820208 0.000000 0.904575
O O12 0.871619 0.279829 0.953085
O O13 0.427478 0.000000 0.003150
O O14 0.500000 0.279688 0.000000
O O15 0.938038 0.500000 0.798886
O O16 0.369863 0.725561 0.530779
O O17 0.372065 0.768967 0.658687
O O18 0.421867 0.000000 0.579391
O O19 0.750000 0.727975 0.534020
O O20 0.673068 0.000000 0.532540
O O21 0.750000 0.771268 0.283396
O O22 0.827938 0.500000 0.278898
#
# Coordination Sequence:
#
# PCOD9401872 Si02
#       8
#     8   8   8   8   8   8   8   8
#     4  10  21  36  55  80 110 146 184 222 270 327
#     4  10  20  34  56  83 110 145 188 231 281 337
#     4  10  22  40  60  84 115 149 186 230 283 337
#     4  10  20  35  58  84 109 140 180 225 272 323
#     4  11  22  37  58  83 113 148 189 234 276 325
#     4  10  19  33  56  83 110 141 183 233 277 327
#     4   9  18  33  53  79 111 144 182 230 283 335
#     4  10  21  37  55  78 112 149 181 217 270 332
#
# _framework density 20.939986999999999
#
# number of rings (size 3 to 8) (size 9 to 14) (size 15 to 20)
#    0.000    2.000    2.500    1.125    0.000    5.250 
#    0.000    1.875    0.000    2.250    0.000    0.000 
#    0.000    0.000    0.000    0.000    0.000    0.000 
#
# Total GULP energy -357544.780609 kJ/mol
# GULP energy per Si atom -5586.637197 kJ/mol
# Density = 2.089233 g / cm^3
# Si number density = 20.939987 Si / 1000 Ang^3
#
#
#
# Elastic Constant Matrix: (Units=GPa)
#
#
# Indices 1 2 3 4 5 6 
#
# 1 169.2852 7.3009 63.5398 0.0000 0.0000 0.0000
# 2 7.3009 35.8461 -10.3658 0.0000 0.0000 0.0000
# 3 63.5398 -10.3658 93.2321 0.0000 0.0000 0.0000
# 4 0.0000 0.0000 0.0000 49.4261 0.0000 0.0000
# 5 0.0000 0.0000 0.0000 0.0000 14.3857 0.0000
# 6 0.0000 0.0000 0.0000 0.0000 0.0000 8.0008
#
#
#
# Elastic Compliance Matrix: (Units=1/GPa)
#
#
# Indices 1 2 3 4 5 6 
#
# 1 0.008331 -0.003450 -0.006061 0.000000 0.000000 0.000000
# 2 -0.003450 0.030252 0.005714 0.000000 0.000000 0.000000
# 3 -0.006061 0.005714 0.015492 0.000000 0.000000 0.000000
# 4 0.000000 0.000000 0.000000 0.020232 0.000000 0.000000
# 5 0.000000 0.000000 0.000000 0.000000 0.069513 0.000000
# 6 0.000000 0.000000 0.000000 0.000000 0.000000 0.124987
#
#
# Mechanical properties :
#
#
# Convention : Reuss Voigt Hill
#
# Bulk Modulus (GPa) = 21.51350 46.59038 34.05194
# Shear Modulus (GPa) = 17.12943 30.22176 23.67559
#
# Velocity S-wave (km/s) = 2.86322 3.80314 3.36615
# Velocity P-wave (km/s) = 4.60726 6.44849 5.60401
#
# Compressibility (1/GPa) = 0.04648244
#
# Stress axis : x y z
#
# Youngs Moduli (GPa) = 120.03310 33.05558 64.54856
#
# Poissons Ratio (x) = 0.11403 0.39125
# Poissons Ratio (y) = 0.41407 -0.36886
# Poissons Ratio (z) = 0.72756 -0.18890
#
# Static dielectric constant tensor:
#      x y z
#    x 1.750440 0.000000 0.000000 
#    y 0.000000 1.774620 0.000000 
#    z 0.000000 0.000000 1.706540 
# 
# From -- ./inp_files/30641.got.cif
#   From: 2010.05.17/outbox.cif.g08.bks.cpg/sg51_16_cif.got.tgz:30641.got - 2010.06.03 11:52:47.
