data_PCOD9401727
_publ_section_title
;
Structure prediction by ZEFSAII (Michael W. Deem and Ramdas Pophale) SiO2 
 PCOD9401727
Probable space group: P M M A
;
_chemical_formula_sum "Si O2"
_cell_formula_units_Z 56
_cell_length_a 8.882520
_cell_length_b 20.456132
_cell_length_c 15.706633
_cell_angle_alpha 90.000000
_cell_angle_beta 90.000000
_cell_angle_gamma 90.000000
_cell_volume 2853.926655
_symmetry_space_group_name_H-M "P M M A"
_symmetry_group_IT_number 51
_symmetry_cell_setting 'orthorhombic'
loop_
_space_group_symop_operation_xyz
x,y,z
1/2-x,-y,z
1/2+x,-y,-z
-x,y,-z
-x,-y,-z
1/2+x,y,-z
1/2-x,y,z
x,-y,z
loop_
_atom_site_type_symbol
_atom_site_label
_atom_site_fract_x
_atom_site_fract_y
_atom_site_fract_z
Si Si1 0.928661 0.665376 0.909781
Si Si2 0.928572 0.382362 0.587761
Si Si3 0.575129 0.899811 0.413718
Si Si4 0.068279 0.072935 0.778082
Si Si5 0.570944 0.206339 0.813254
Si Si6 0.425964 0.248927 0.635814
Si Si7 0.072080 0.575323 0.764577
O O1 0.750000 0.654863 0.911405
O O2 0.955956 0.741786 0.887997
O O3 0.998463 0.622881 0.833656
O O4 0.000000 0.648037 0.000000
O O5 0.750000 0.389864 0.586311
O O6 0.000000 0.407615 0.500000
O O7 0.974163 0.305923 0.596284
O O8 0.997741 0.414259 0.672314
O O9 0.500000 0.923492 0.500000
O O10 0.750000 0.917401 0.416843
O O11 0.518019 0.923240 0.321462
O O12 0.562307 0.820989 0.409789
O O13 0.250000 0.082721 0.778516
O O14 0.990529 0.133180 0.825596
O O15 0.036164 0.000000 0.810312
O O16 0.750000 0.204775 0.795710
O O17 0.483894 0.234970 0.731167
O O18 0.250000 0.268519 0.635671
O O19 0.250000 0.588869 0.758228
O O20 0.051562 0.500000 0.790596
#
# Coordination Sequence:
#
# PCOD9401727 Si02
#       7
#     8   8   8   8   8   8   8
#     4  11  24  42  68 100 130 162 201 250 308 375
#     4  12  24  38  59  88 123 166 213 261 311 366
#     4   9  18  29  43  68 102 143 191 244 298 352
#     4   9  19  35  53  75 108 154 202 246 302 370
#     4  10  20  35  58  89 120 152 195 249 305 361
#     4  10  19  33  54  79 112 155 200 251 307 362
#     4  11  25  45  68  94 127 167 209 256 311 369
#
# _framework density 19.622087000000001
#
# number of rings (size 3 to 8) (size 9 to 14) (size 15 to 20)
#    0.000    1.714    1.429    4.286    0.000    8.000 
#    0.000    0.000    0.000    0.429    0.000    0.000 
#    0.000    0.000    0.000    0.000    0.000    0.000 
#
# Total GULP energy -312864.935445 kJ/mol
# GULP energy per Si atom -5586.873847 kJ/mol
# Density = 1.957743 g / cm^3
# Si number density = 19.622087 Si / 1000 Ang^3
#
#
#
# Elastic Constant Matrix: (Units=GPa)
#
#
# Indices 1 2 3 4 5 6 
#
# 1 104.2963 48.3861 53.5143 0.0000 0.0000 0.0000
# 2 48.3861 103.4531 40.5030 0.0000 0.0000 0.0000
# 3 53.5143 40.5030 98.0061 0.0000 0.0000 0.0000
# 4 0.0000 0.0000 0.0000 -13.5478 0.0000 0.0000
# 5 0.0000 0.0000 0.0000 0.0000 28.6816 0.0000
# 6 0.0000 0.0000 0.0000 0.0000 0.0000 22.3940
#
#
#
# Elastic Compliance Matrix: (Units=1/GPa)
#
#
# Indices 1 2 3 4 5 6 
#
# 1 0.014899 -0.004514 -0.006270 0.000000 0.000000 0.000000
# 2 -0.004514 0.012900 -0.002866 0.000000 0.000000 0.000000
# 3 -0.006270 -0.002866 0.014812 0.000000 0.000000 0.000000
# 4 0.000000 0.000000 0.000000 -0.073813 0.000000 0.000000
# 5 0.000000 0.000000 0.000000 0.000000 0.034866 0.000000
# 6 0.000000 0.000000 0.000000 0.000000 0.000000 0.044655
#
#
# Mechanical properties :
#
#
# Convention : Reuss Voigt Hill
#
# Bulk Modulus (GPa) = 65.31606 65.61803 65.46705
# Shear Modulus (GPa) = 61.94099 18.39569 40.16834
#
# Velocity S-wave (km/s) = 5.62454 3.06518 4.52940
# Velocity P-wave (km/s) = 8.69137 6.78532 7.79681
#
# Compressibility (1/GPa) = 0.01531017
#
# Stress axis : x y z
#
# Youngs Moduli (GPa) = 67.11723 77.52199 67.51433
#
# Poissons Ratio (x) = 0.34992 0.42332
# Poissons Ratio (y) = 0.30295 0.19352
# Poissons Ratio (z) = 0.42083 0.22221
#
# Static dielectric constant tensor:
#      x y z
#    x 1.658800 0.000000 0.000000 
#    y 0.000000 1.718110 0.000000 
#    z 0.000000 0.000000 1.668330 
# 
# From -- ./inp_files/21830.got.cif
#   From: 2010.05.17/outbox.cif.g08.bks.cpg/sg51_11_cif.got.tgz:21830.got - 2010.06.03 11:52:47.
