data_PCOD9401460
_publ_section_title
;
Structure prediction by ZEFSAII (Michael W. Deem and Ramdas Pophale) SiO2 
 PCOD9401460
Probable space group: P M M A
;
_chemical_formula_sum "Si O2"
_cell_formula_units_Z 48
_cell_length_a 14.965938
_cell_length_b 8.297885
_cell_length_c 21.086060
_cell_angle_alpha 90.000000
_cell_angle_beta 90.000000
_cell_angle_gamma 90.000000
_cell_volume 2618.585697
_symmetry_space_group_name_H-M "P M M A"
_symmetry_group_IT_number 51
_symmetry_cell_setting 'orthorhombic'
loop_
_space_group_symop_operation_xyz
x,y,z
1/2-x,-y,z
1/2+x,-y,-z
-x,y,-z
-x,-y,-z
1/2+x,y,-z
1/2-x,y,z
x,-y,z
loop_
_atom_site_type_symbol
_atom_site_label
_atom_site_fract_x
_atom_site_fract_y
_atom_site_fract_z
Si Si1 0.559744 0.194645 0.179152
Si Si2 0.443606 0.305360 0.061688
Si Si3 0.558982 0.805087 0.321797
Si Si4 0.557301 0.692557 0.560773
Si Si5 0.250000 0.805202 0.875084
Si Si6 0.750000 0.305141 0.979407
Si Si7 0.750000 0.803474 0.375402
Si Si8 0.250000 0.192700 0.478096
O O1 0.490908 0.249246 0.125601
O O2 0.538161 0.249636 0.250392
O O3 0.659232 0.249751 0.158997
O O4 0.561019 0.000000 0.179571
O O5 0.444227 0.500000 0.061093
O O6 0.341533 0.249838 0.053413
O O7 0.500000 0.250688 0.000000
O O8 0.490258 0.748694 0.375085
O O9 0.658910 0.751401 0.341502
O O10 0.559219 0.000000 0.322104
O O11 0.500000 0.753799 0.500000
O O12 0.556082 0.500000 0.558784
O O13 0.658960 0.749715 0.554253
O O14 0.250000 0.000000 0.874093
O O15 0.250000 0.748794 0.947608
O O16 0.750000 0.500000 0.978789
O O17 0.750000 0.749924 0.448572
O O18 0.750000 0.000000 0.374925
O O19 0.250000 0.000000 0.479037
#
# Coordination Sequence:
#
# PCOD9401460 Si02
#       8
#     8   8   8   8   4   4   4   4
#     4  10  21  35  55  83 115 146 181 229 280 328
#     4  10  20  35  56  78 106 144 186 228 272 332
#     4  10  20  37  58  83 114 150 191 231 278 340
#     4  11  23  38  57  84 119 152 186 234 284 333
#     4  10  19  32  53  83 115 143 172 223 286 329
#     4  10  20  35  54  80 107 139 183 228 271 323
#     4   9  17  31  57  86 112 142 183 233 278 332
#     4  11  21  36  62  89 110 146 194 236 279 334
#
# _framework density 18.330506
#
# number of rings (size 3 to 8) (size 9 to 14) (size 15 to 20)
#    0.000    1.833    3.333    1.250    0.000    4.333 
#    0.000    1.250    0.000    6.000    0.000    0.000 
#    0.000    0.000    0.000    0.000    0.000    0.000 
#
# Total GULP energy -268045.650246 kJ/mol
# GULP energy per Si atom -5584.284380 kJ/mol
# Density = 1.828878 g / cm^3
# Si number density = 18.330506 Si / 1000 Ang^3
#
#
#
# Elastic Constant Matrix: (Units=GPa)
#
#
# Indices 1 2 3 4 5 6 
#
# 1 180.4116 24.9207 114.1352 0.0000 0.0000 0.0000
# 2 24.9207 13.2938 22.3451 0.0000 0.0000 0.0000
# 3 114.1352 22.3451 192.8962 0.0000 0.0000 0.0000
# 4 0.0000 0.0000 0.0000 14.6798 0.0000 0.0000
# 5 0.0000 0.0000 0.0000 0.0000 11.7566 0.0000
# 6 0.0000 0.0000 0.0000 0.0000 0.0000 6.0005
#
#
#
# Elastic Compliance Matrix: (Units=1/GPa)
#
#
# Indices 1 2 3 4 5 6 
#
# 1 0.009991 -0.010918 -0.004647 0.000000 0.000000 0.000000
# 2 -0.010918 0.105343 -0.005743 0.000000 0.000000 0.000000
# 3 -0.004647 -0.005743 0.008599 0.000000 0.000000 0.000000
# 4 0.000000 0.000000 0.000000 0.068121 0.000000 0.000000
# 5 0.000000 0.000000 0.000000 0.000000 0.085059 0.000000
# 6 0.000000 0.000000 0.000000 0.000000 0.000000 0.166654
#
#
# Mechanical properties :
#
#
# Convention : Reuss Voigt Hill
#
# Bulk Modulus (GPa) = 12.29749 78.82262 45.56005
# Shear Modulus (GPa) = 9.73735 21.50076 15.61906
#
# Velocity S-wave (km/s) = 2.30730 3.42855 2.92221
# Velocity P-wave (km/s) = 3.71773 7.66599 6.02449
#
# Compressibility (1/GPa) = 0.08131742
#
# Stress axis : x y z
#
# Youngs Moduli (GPa) = 100.09319 9.49278 116.29604
#
# Poissons Ratio (x) = 0.10364 0.54039
# Poissons Ratio (y) = 1.09285 0.66785
# Poissons Ratio (z) = 0.46510 0.05451
#
# Static dielectric constant tensor:
#      x y z
#    x 1.616840 0.000000 0.000000 
#    y 0.000000 1.641450 0.000000 
#    z 0.000000 0.000000 1.606650 
# 
# From -- ./inp_files/29702.got.cif
#   From: 2010.05.17/outbox.cif.g08.bks.cpg/sg51_15_cif.got.tgz:29702.got - 2010.06.03 11:52:47.
