data_PCOD9401205
_publ_section_title
;
Structure prediction by ZEFSAII (Michael W. Deem and Ramdas Pophale) SiO2 
 PCOD9401205
Probable space group: P M M A
;
_chemical_formula_sum "Si O2"
_cell_formula_units_Z 64
_cell_length_a 15.991632
_cell_length_b 20.988431
_cell_length_c 9.403349
_cell_angle_alpha 90.000000
_cell_angle_beta 90.000000
_cell_angle_gamma 90.000000
_cell_volume 3156.133145
_symmetry_space_group_name_H-M "P M M A"
_symmetry_group_IT_number 51
_symmetry_cell_setting 'orthorhombic'
loop_
_space_group_symop_operation_xyz
x,y,z
1/2-x,-y,z
1/2+x,-y,-z
-x,y,-z
-x,-y,-z
1/2+x,y,-z
1/2-x,y,z
x,-y,z
loop_
_atom_site_type_symbol
_atom_site_label
_atom_site_fract_x
_atom_site_fract_y
_atom_site_fract_z
Si Si1 0.006820 0.577145 0.667360
Si Si2 0.842625 0.425654 0.828756
Si Si3 0.343749 0.870036 0.158286
Si Si4 0.847007 0.844355 0.302579
Si Si5 0.845104 0.623501 0.136141
Si Si6 0.406204 0.075001 0.441250
Si Si7 0.593319 0.239868 0.056581
Si Si8 0.579551 0.931540 0.075242
O O1 0.013175 0.500000 0.683452
O O2 0.086650 0.607658 0.744822
O O3 0.000000 0.591053 0.500000
O O4 0.922241 0.600904 0.745219
O O5 0.750000 0.397559 0.799305
O O6 0.838825 0.500000 0.789345
O O7 0.857158 0.420648 0.997533
O O8 0.250000 0.862928 0.213254
O O9 0.402755 0.892285 0.286353
O O10 0.351792 0.927663 0.046741
O O11 0.365826 0.808851 0.058754
O O12 0.750000 0.827335 0.282563
O O13 0.860818 0.871998 0.459553
O O14 0.900559 0.791094 0.215930
O O15 0.875828 0.904299 0.210392
O O16 0.750000 0.616027 0.188304
O O17 0.858715 0.693996 0.073179
O O18 0.500000 0.072024 0.500000
O O19 0.375241 0.000000 0.439133
O O20 0.500000 0.252107 0.000000
O O21 0.546780 0.000000 0.116494
O O22 0.500000 0.897080 0.000000
#
# Coordination Sequence:
#
# PCOD9401205 Si02
#       8
#     8   8   8   8   8   8   8   8
#     4  10  21  37  59  91 131 170 207 251 307 366
#     4   9  18  34  58  88 122 161 208 262 312 358
#     4  11  22  36  55  80 108 137 178 233 291 346
#     4  11  22  36  54  78 109 142 181 231 290 353
#     4  11  22  38  62  91 122 160 211 261 305 359
#     4  11  23  39  58  81 111 147 187 233 292 365
#     4  11  22  40  63  83 110 151 196 242 294 353
#     4  10  19  32  51  74 100 133 173 217 271 341
#
# _framework density 20.277978999999998
#
# number of rings (size 3 to 8) (size 9 to 14) (size 15 to 20)
#    0.000    1.500    0.000    7.875    0.000    7.250 
#    0.000    4.375    0.000    1.500    0.000    0.000 
#    0.000    0.000    0.000    0.000    0.000    0.000 
#
# Total GULP energy -356465.922497 kJ/mol
# GULP energy per Si atom -5569.780039 kJ/mol
# Density = 2.023183 g / cm^3
# Si number density = 20.277979 Si / 1000 Ang^3
#
#
#
# Elastic Constant Matrix: (Units=GPa)
#
#
# Indices 1 2 3 4 5 6 
#
# 1 135.8442 18.8816 50.6674 0.0000 0.0000 0.0000
# 2 18.8816 48.2398 20.4365 0.0000 0.0000 0.0000
# 3 50.6674 20.4365 99.5446 0.0000 0.0000 0.0000
# 4 0.0000 0.0000 0.0000 13.3427 0.0000 0.0000
# 5 0.0000 0.0000 0.0000 0.0000 23.0948 0.0000
# 6 0.0000 0.0000 0.0000 0.0000 0.0000 51.7025
#
#
#
# Elastic Compliance Matrix: (Units=1/GPa)
#
#
# Indices 1 2 3 4 5 6 
#
# 1 0.009223 -0.001776 -0.004330 0.000000 0.000000 0.000000
# 2 -0.001776 0.023046 -0.003828 0.000000 0.000000 0.000000
# 3 -0.004330 -0.003828 0.013035 0.000000 0.000000 0.000000
# 4 0.000000 0.000000 0.000000 0.074947 0.000000 0.000000
# 5 0.000000 0.000000 0.000000 0.000000 0.043300 0.000000
# 6 0.000000 0.000000 0.000000 0.000000 0.000000 0.019341
#
#
# Mechanical properties :
#
#
# Convention : Reuss Voigt Hill
#
# Bulk Modulus (GPa) = 39.31057 51.51107 45.41082
# Shear Modulus (GPa) = 23.66983 30.53754 27.10369
#
# Velocity S-wave (km/s) = 3.42024 3.88486 3.65993
# Velocity P-wave (km/s) = 5.91822 6.75133 6.34846
#
# Compressibility (1/GPa) = 0.02543845
#
# Stress axis : x y z
#
# Youngs Moduli (GPa) = 108.42232 43.39090 76.71372
#
# Poissons Ratio (x) = 0.07705 0.33217
# Poissons Ratio (y) = 0.19252 0.29363
# Poissons Ratio (z) = 0.46947 0.16608
#
# Static dielectric constant tensor:
#      x y z
#    x 1.774000 0.000000 0.000000 
#    y 0.000000 1.790610 0.000000 
#    z 0.000000 0.000000 1.717080 
# 
# From -- ./inp_files/8730.got.cif
#   From: 2010.05.17/outbox.cif.g08.bks.cpg/sg51_5_cif.got.tgz:8730.got - 2010.06.03 11:52:47.
