data_PCOD9401439
_publ_section_title
;
Structure prediction by ZEFSAII (Michael W. Deem and Ramdas Pophale) SiO2 
 PCOD9401439
Probable space group: P M M A
;
_chemical_formula_sum "Si O2"
_cell_formula_units_Z 64
_cell_length_a 19.491543
_cell_length_b 7.714486
_cell_length_c 20.230634
_cell_angle_alpha 90.000000
_cell_angle_beta 90.000000
_cell_angle_gamma 90.000000
_cell_volume 3042.024509
_symmetry_space_group_name_H-M "P M M A"
_symmetry_group_IT_number 51
_symmetry_cell_setting 'orthorhombic'
loop_
_space_group_symop_operation_xyz
x,y,z
1/2-x,-y,z
1/2+x,-y,-z
-x,y,-z
-x,-y,-z
1/2+x,y,-z
1/2-x,y,z
x,-y,z
loop_
_atom_site_type_symbol
_atom_site_label
_atom_site_fract_x
_atom_site_fract_y
_atom_site_fract_z
Si Si1 0.548683 0.794712 0.363367
Si Si2 0.170996 0.287926 0.284494
Si Si3 0.592845 0.290896 0.846664
Si Si4 0.550991 0.207847 0.214312
Si Si5 0.593849 0.294706 0.584864
Si Si6 0.672448 0.792334 0.124273
Si Si7 0.328599 0.709365 0.545581
Si Si8 0.828813 0.709120 0.975407
O O1 0.541045 0.723447 0.288811
O O2 0.487707 0.728203 0.410289
O O3 0.623084 0.755704 0.393044
O O4 0.539675 0.000000 0.360934
O O5 0.250000 0.236309 0.290796
O O6 0.169229 0.500000 0.284159
O O7 0.138373 0.229784 0.215468
O O8 0.127041 0.226247 0.347176
O O9 0.597056 0.500000 0.847693
O O10 0.515154 0.243524 0.830240
O O11 0.623175 0.227406 0.916110
O O12 0.618595 0.275927 0.177560
O O13 0.558055 0.000000 0.220033
O O14 0.607032 0.500000 0.584429
O O15 0.631958 0.224718 0.520105
O O16 0.750000 0.723230 0.131217
O O17 0.675749 0.000000 0.132107
O O18 0.649023 0.758205 0.049183
O O19 0.250000 0.771314 0.549283
O O20 0.326205 0.500000 0.542338
O O21 0.750000 0.769713 0.966293
O O22 0.827630 0.500000 0.972523
#
# Coordination Sequence:
#
# PCOD9401439 Si02
#       8
#     8   8   8   8   8   8   8   8
#     4  11  23  38  57  81 112 149 185 225 276 330
#     4   9  16  28  51  81 108 139 180 219 258 310
#     4  10  19  32  53  80 110 143 178 218 265 323
#     4  10  22  38  55  77 107 142 182 228 269 316
#     4  10  19  35  59  84 110 144 182 224 269 321
#     4   9  19  37  58  76  97 135 185 228 268 318
#     4  10  22  39  59  85 113 141 181 231 276 323
#     4   9  18  33  53  80 112 141 173 219 272 321
#
# _framework density 21.038620999999999
#
# number of rings (size 3 to 8) (size 9 to 14) (size 15 to 20)
#    0.000    2.250    1.250    1.500    0.000    7.750 
#    0.000    3.750    0.000    4.500    0.000    0.000 
#    0.000    0.000    0.000    0.000    0.000    0.000 
#
# Total GULP energy -357419.613325 kJ/mol
# GULP energy per Si atom -5584.681458 kJ/mol
# Density = 2.099074 g / cm^3
# Si number density = 21.038621 Si / 1000 Ang^3
#
#
#
# Elastic Constant Matrix: (Units=GPa)
#
#
# Indices 1 2 3 4 5 6 
#
# 1 102.6749 -15.0980 41.6552 0.0000 0.0000 0.0000
# 2 -15.0980 28.0984 -6.0521 0.0000 0.0000 0.0000
# 3 41.6552 -6.0521 64.0305 0.0000 0.0000 0.0000
# 4 0.0000 0.0000 0.0000 113.3200 0.0000 0.0000
# 5 0.0000 0.0000 0.0000 0.0000 39.5069 0.0000
# 6 0.0000 0.0000 0.0000 0.0000 0.0000 -54.2293
#
#
#
# Elastic Compliance Matrix: (Units=1/GPa)
#
#
# Indices 1 2 3 4 5 6 
#
# 1 0.014074 0.005707 -0.008617 0.000000 0.000000 0.000000
# 2 0.005707 0.038643 -0.000060 0.000000 0.000000 0.000000
# 3 -0.008617 -0.000060 0.021218 0.000000 0.000000 0.000000
# 4 0.000000 0.000000 0.000000 0.008825 0.000000 0.000000
# 5 0.000000 0.000000 0.000000 0.000000 0.025312 0.000000
# 6 0.000000 0.000000 0.000000 0.000000 0.000000 -0.018440
#
#
# Mechanical properties :
#
#
# Convention : Reuss Voigt Hill
#
# Bulk Modulus (GPa) = 14.70715 26.20156 20.45435
# Shear Modulus (GPa) = 42.28829 31.33942 36.81386
#
# Velocity S-wave (km/s) = 4.48820 3.86374 4.18763
# Velocity P-wave (km/s) = 5.81931 5.69084 5.75543
#
# Compressibility (1/GPa) = 0.06799416
#
# Stress axis : x y z
#
# Youngs Moduli (GPa) = 71.05080 25.87822 47.13076
#
# Poissons Ratio (x) = -0.14768 0.40612
# Poissons Ratio (y) = -0.40546 0.00283
# Poissons Ratio (z) = 0.61223 0.00155
#
# Static dielectric constant tensor:
#      x y z
#    x 1.735200 0.000000 0.000000 
#    y 0.000000 1.794640 0.000000 
#    z 0.000000 0.000000 1.748900 
# 
# From -- ./inp_files/33975.got.cif
#   From: 2010.05.17/outbox.cif.g08.bks.cpg/sg51_17_cif.got.tgz:33975.got - 2010.06.03 11:52:47.
