data_PCOD9401467
_publ_section_title
;
Structure prediction by ZEFSAII (Michael W. Deem and Ramdas Pophale) SiO2 
 PCOD9401467
Probable space group: P M M A
;
_chemical_formula_sum "Si O2"
_cell_formula_units_Z 64
_cell_length_a 15.308431
_cell_length_b 7.717799
_cell_length_c 24.604256
_cell_angle_alpha 90.000000
_cell_angle_beta 90.000000
_cell_angle_gamma 90.000000
_cell_volume 2906.928715
_symmetry_space_group_name_H-M "P M M A"
_symmetry_group_IT_number 51
_symmetry_cell_setting 'orthorhombic'
loop_
_space_group_symop_operation_xyz
x,y,z
1/2-x,-y,z
1/2+x,-y,-z
-x,y,-z
-x,-y,-z
1/2+x,y,-z
1/2-x,y,z
x,-y,z
loop_
_atom_site_type_symbol
_atom_site_label
_atom_site_fract_x
_atom_site_fract_y
_atom_site_fract_z
Si Si1 0.348463 0.204010 0.775623
Si Si2 0.347810 0.792047 0.975831
Si Si3 0.346512 0.705255 0.102423
Si Si4 0.472757 0.213036 0.679926
Si Si5 0.535844 0.295995 0.123941
Si Si6 0.153815 0.796696 0.357551
Si Si7 0.589512 0.700866 0.524755
Si Si8 0.656292 0.791697 0.413034
O O1 0.250000 0.276831 0.775782
O O2 0.414518 0.274804 0.730129
O O3 0.396264 0.219279 0.833237
O O4 0.340234 0.000000 0.763266
O O5 0.250000 0.740439 0.956269
O O6 0.422911 0.729683 0.935646
O O7 0.351073 0.000000 0.977264
O O8 0.356129 0.726656 0.037346
O O9 0.250000 0.777194 0.117225
O O10 0.344317 0.500000 0.114058
O O11 0.436866 0.776292 0.127256
O O12 0.572330 0.275059 0.676584
O O13 0.422682 0.265985 0.624920
O O14 0.474445 0.000000 0.680420
O O15 0.531311 0.500000 0.134750
O O16 0.250000 0.718892 0.349858
O O17 0.126771 0.784715 0.421035
O O18 0.159433 0.000000 0.344274
O O19 0.500000 0.778389 0.500000
O O20 0.573767 0.500000 0.538199
O O21 0.651956 0.715425 0.473016
O O22 0.750000 0.750171 0.386951
O O23 0.651101 0.000000 0.417954
#
# Coordination Sequence:
#
# PCOD9401467 Si02
#       8
#     8   8   8   8   8   8   8   8
#     4  10  21  38  59  81 106 138 175 217 270 325
#     4  10  20  33  52  81 115 148 182 222 269 321
#     4   9  19  36  55  76 107 147 186 222 263 315
#     4   9  18  35  57  78 102 131 169 219 264 308
#     4  11  22  35  54  80 109 144 184 225 269 317
#     4  10  20  35  57  81 104 136 177 217 261 315
#     4  11  22  34  49  74 109 145 174 206 254 311
#     4  10  19  32  54  79 100 130 172 212 256 311
#
# _framework density 22.016365
#
# number of rings (size 3 to 8) (size 9 to 14) (size 15 to 20)
#    0.000    2.000    1.250    2.625    0.000    9.000 
#    0.000    1.875    0.000    2.250    0.000    0.000 
#    0.000    0.000    0.000    0.000    0.000    0.000 
#
# Total GULP energy -357329.500795 kJ/mol
# GULP energy per Si atom -5583.273450 kJ/mol
# Density = 2.196625 g / cm^3
# Si number density = 22.016365 Si / 1000 Ang^3
#
#
#
# Elastic Constant Matrix: (Units=GPa)
#
#
# Indices 1 2 3 4 5 6 
#
# 1 215.5791 11.8644 36.8533 0.0000 0.0000 0.0000
# 2 11.8644 37.9520 -6.5108 0.0000 0.0000 0.0000
# 3 36.8533 -6.5108 33.4036 0.0000 0.0000 0.0000
# 4 0.0000 0.0000 0.0000 40.1774 0.0000 0.0000
# 5 0.0000 0.0000 0.0000 0.0000 29.5150 0.0000
# 6 0.0000 0.0000 0.0000 0.0000 0.0000 10.7159
#
#
#
# Elastic Compliance Matrix: (Units=1/GPa)
#
#
# Indices 1 2 3 4 5 6 
#
# 1 0.006060 -0.003146 -0.007299 0.000000 0.000000 0.000000
# 2 -0.003146 0.028894 0.009103 0.000000 0.000000 0.000000
# 3 -0.007299 0.009103 0.039763 0.000000 0.000000 0.000000
# 4 0.000000 0.000000 0.000000 0.024890 0.000000 0.000000
# 5 0.000000 0.000000 0.000000 0.000000 0.033881 0.000000
# 6 0.000000 0.000000 0.000000 0.000000 0.000000 0.093319
#
#
# Mechanical properties :
#
#
# Convention : Reuss Voigt Hill
#
# Bulk Modulus (GPa) = 13.88237 41.26093 27.57165
# Shear Modulus (GPa) = 19.72373 32.39686 26.06030
#
# Velocity S-wave (km/s) = 2.99635 3.84016 3.44420
# Velocity P-wave (km/s) = 4.27668 6.20034 5.32608
#
# Compressibility (1/GPa) = 0.07203379
#
# Stress axis : x y z
#
# Youngs Moduli (GPa) = 165.02961 34.60887 25.14870
#
# Poissons Ratio (x) = 0.10889 0.18355
# Poissons Ratio (y) = 0.51925 -0.22893
# Poissons Ratio (z) = 1.20448 -0.31505
#
# Static dielectric constant tensor:
#      x y z
#    x 1.886320 0.000000 0.000000 
#    y 0.000000 1.825830 0.000000 
#    z 0.000000 0.000000 1.764610 
# 
# From -- ./inp_files/35601.got.cif
#   From: 2010.05.17/outbox.cif.g08.bks.cpg/sg51_18_cif.got.tgz:35601.got - 2010.06.03 11:52:47.
