data_PCOD9401014
_publ_section_title
;
Structure prediction by ZEFSAII (Michael W. Deem and Ramdas Pophale) SiO2 
 PCOD9401014
Probable space group: P M M A
;
_chemical_formula_sum "Si O2"
_cell_formula_units_Z 40
_cell_length_a 17.678869
_cell_length_b 13.975505
_cell_length_c 8.963862
_cell_angle_alpha 90.000000
_cell_angle_beta 90.000000
_cell_angle_gamma 90.000000
_cell_volume 2214.711443
_symmetry_space_group_name_H-M "P M M A"
_symmetry_group_IT_number 51
_symmetry_cell_setting 'orthorhombic'
loop_
_space_group_symop_operation_xyz
x,y,z
1/2-x,-y,z
1/2+x,-y,-z
-x,y,-z
-x,-y,-z
1/2+x,y,-z
1/2-x,y,z
x,-y,z
loop_
_atom_site_type_symbol
_atom_site_label
_atom_site_fract_x
_atom_site_fract_y
_atom_site_fract_z
Si Si1 0.161003 0.390118 0.715210
Si Si2 0.962907 0.188042 0.663228
Si Si3 0.078916 0.394810 0.411388
Si Si4 0.071071 0.236336 0.906656
Si Si5 0.162053 0.888775 0.145231
O O1 0.250000 0.378177 0.737311
O O2 0.139860 0.500000 0.749560
O O3 0.140300 0.376275 0.540890
O O4 0.115363 0.317392 0.817299
O O5 0.933190 0.298362 0.681119
O O6 0.029383 0.171063 0.782727
O O7 0.890624 0.125954 0.709019
O O8 0.000000 0.177553 0.500000
O O9 0.093260 0.500000 0.341031
O O10 0.000000 0.402886 0.500000
O O11 0.124943 0.176902 0.016602
O O12 0.000000 0.276438 0.000000
O O13 0.250000 0.863580 0.170566
O O14 0.158509 0.000000 0.101209
#
# Coordination Sequence:
#
# PCOD9401014 Si02
#       5
#     8   8   8   8   8
#     4  10  19  31  51  81 114 147 185 227 269 318
#     4  10  19  35  59  89 110 139 185 233 274 321
#     4   9  16  30  53  80 113 148 177 213 267 328
#     4  10  20  35  58  80 110 148 186 221 272 333
#     4  10  23  42  59  77 108 148 184 228 288 342
#
# _framework density 18.061045
#
# number of rings (size 3 to 8) (size 9 to 14) (size 15 to 20)
#    0.000    2.200    4.000    0.600    0.000    5.200 
#    0.000    3.000    0.000    3.600    0.000    0.000 
#    0.000    0.000    0.000    0.000    0.000    0.000 
#
# Total GULP energy -222753.619775 kJ/mol
# GULP energy per Si atom -5568.840494 kJ/mol
# Density = 1.801994 g / cm^3
# Si number density = 18.061045 Si / 1000 Ang^3
#
#
#
# Elastic Constant Matrix: (Units=GPa)
#
#
# Indices 1 2 3 4 5 6 
#
# 1 117.6817 39.4314 41.8324 0.0000 0.0000 0.0000
# 2 39.4314 56.6553 9.4808 0.0000 0.0000 0.0000
# 3 41.8324 9.4808 68.9134 0.0000 0.0000 0.0000
# 4 0.0000 0.0000 0.0000 22.5560 0.0000 0.0000
# 5 0.0000 0.0000 0.0000 0.0000 30.7410 0.0000
# 6 0.0000 0.0000 0.0000 0.0000 0.0000 25.5756
#
#
#
# Elastic Compliance Matrix: (Units=1/GPa)
#
#
# Indices 1 2 3 4 5 6 
#
# 1 0.013928 -0.008474 -0.007289 0.000000 0.000000 0.000000
# 2 -0.008474 0.023222 0.001949 0.000000 0.000000 0.000000
# 3 -0.007289 0.001949 0.018667 0.000000 0.000000 0.000000
# 4 0.000000 0.000000 0.000000 0.044334 0.000000 0.000000
# 5 0.000000 0.000000 0.000000 0.000000 0.032530 0.000000
# 6 0.000000 0.000000 0.000000 0.000000 0.000000 0.039100
#
#
# Mechanical properties :
#
#
# Convention : Reuss Voigt Hill
#
# Bulk Modulus (GPa) = 35.47341 47.19327 41.33334
# Shear Modulus (GPa) = 23.94583 25.94157 24.94370
#
# Velocity S-wave (km/s) = 3.64514 3.79400 3.72032
# Velocity P-wave (km/s) = 6.11552 6.73641 6.43346
#
# Compressibility (1/GPa) = 0.02819013
#
# Stress axis : x y z
#
# Youngs Moduli (GPa) = 71.79923 43.06243 53.56963
#
# Poissons Ratio (x) = 0.36490 0.39045
# Poissons Ratio (y) = 0.60841 -0.10441
# Poissons Ratio (z) = 0.52333 -0.08393
#
# Static dielectric constant tensor:
#      x y z
#    x 1.632300 0.000000 0.000000 
#    y 0.000000 1.641500 0.000000 
#    z 0.000000 0.000000 1.636990 
# 
# From -- ./inp_files/9782.got.cif
#   From: 2010.05.17/outbox.cif.g08.bks.cpg/sg51_5_cif.got.tgz:9782.got - 2010.06.03 11:52:47.
