data_PCOD9401940
_publ_section_title
;
Structure prediction by ZEFSAII (Michael W. Deem and Ramdas Pophale) SiO2 
 PCOD9401940
Probable space group: P M M A
;
_chemical_formula_sum "Si O2"
_cell_formula_units_Z 64
_cell_length_a 30.108533
_cell_length_b 8.539488
_cell_length_c 13.565216
_cell_angle_alpha 90.000000
_cell_angle_beta 90.000000
_cell_angle_gamma 90.000000
_cell_volume 3487.772440
_symmetry_space_group_name_H-M "P M M A"
_symmetry_group_IT_number 51
_symmetry_cell_setting 'orthorhombic'
loop_
_space_group_symop_operation_xyz
x,y,z
1/2-x,-y,z
1/2+x,-y,-z
-x,y,-z
-x,-y,-z
1/2+x,y,-z
1/2-x,y,z
x,-y,z
loop_
_atom_site_type_symbol
_atom_site_label
_atom_site_fract_x
_atom_site_fract_y
_atom_site_fract_z
Si Si1 0.301780 0.189323 0.586693
Si Si2 0.119493 0.187696 0.187746
Si Si3 0.137072 0.187411 0.409057
Si Si4 0.301643 0.689074 0.800051
Si Si5 0.041142 0.184696 0.930781
Si Si6 0.137159 0.313716 0.981563
Si Si7 0.521543 0.320053 0.786437
Si Si8 0.464190 0.820227 0.414883
O O1 0.250000 0.234019 0.576728
O O2 0.329346 0.248198 0.492009
O O3 0.317584 0.249820 0.693475
O O4 0.304331 0.000000 0.588488
O O5 0.138057 0.243229 0.294659
O O6 0.068876 0.250147 0.178666
O O7 0.117810 0.000000 0.189270
O O8 0.144999 0.242365 0.090070
O O9 0.086528 0.210780 0.445475
O O10 0.144719 0.000000 0.403242
O O11 0.250000 0.736972 0.811360
O O12 0.303193 0.500000 0.797787
O O13 0.330627 0.742436 0.893594
O O14 0.086823 0.271035 0.951523
O O15 0.020361 0.223084 0.825154
O O16 0.048201 0.000000 0.945696
O O17 0.000000 0.235790 0.000000
O O18 0.141615 0.500000 0.989454
O O19 0.517889 0.500000 0.816993
O O20 0.523502 0.299950 0.669754
O O21 0.500000 0.813850 0.500000
O O22 0.464048 0.000000 0.374169
#
# Coordination Sequence:
#
# PCOD9401940 Si02
#       8
#     8   8   8   8   8   8   8   8
#     4   9  17  32  56  82 105 133 174 222 267 313
#     4  10  19  34  53  74 104 143 180 215 265 324
#     4   8  16  31  51  74 101 132 168 213 262 311
#     4   9  20  39  58  78 109 145 176 214 272 331
#     4  11  22  35  53  76 105 142 180 219 265 320
#     4  11  22  35  55  81 108 142 184 229 274 318
#     4  11  21  33  51  74 105 140 176 221 265 311
#     4   9  18  33  51  70  98 139 180 215 260 318
#
# _framework density 18.349820999999999
#
# number of rings (size 3 to 8) (size 9 to 14) (size 15 to 20)
#    0.000    2.250    1.250    3.000    0.000    2.750 
#    0.000    5.000    0.000    0.750    0.000    0.000 
#    0.000    0.000    0.000    0.000    0.000    0.000 
#
# Total GULP energy -356783.611465 kJ/mol
# GULP energy per Si atom -5574.743929 kJ/mol
# Density = 1.830806 g / cm^3
# Si number density = 18.349821 Si / 1000 Ang^3
#
#
#
# Elastic Constant Matrix: (Units=GPa)
#
#
# Indices 1 2 3 4 5 6 
#
# 1 67.2721 10.7241 73.0155 0.0000 0.0000 0.0000
# 2 10.7241 18.2471 16.7407 0.0000 0.0000 0.0000
# 3 73.0155 16.7407 143.1830 0.0000 0.0000 0.0000
# 4 0.0000 0.0000 0.0000 22.6588 0.0000 0.0000
# 5 0.0000 0.0000 0.0000 0.0000 37.4889 0.0000
# 6 0.0000 0.0000 0.0000 0.0000 0.0000 16.6193
#
#
#
# Elastic Compliance Matrix: (Units=1/GPa)
#
#
# Indices 1 2 3 4 5 6 
#
# 1 0.033620 -0.004514 -0.016616 0.000000 0.000000 0.000000
# 2 -0.004514 0.061994 -0.004946 0.000000 0.000000 0.000000
# 3 -0.016616 -0.004946 0.016036 0.000000 0.000000 0.000000
# 4 0.000000 0.000000 0.000000 0.044133 0.000000 0.000000
# 5 0.000000 0.000000 0.000000 0.000000 0.026675 0.000000
# 6 0.000000 0.000000 0.000000 0.000000 0.000000 0.060171
#
#
# Mechanical properties :
#
#
# Convention : Reuss Voigt Hill
#
# Bulk Modulus (GPa) = 16.80785 47.74030 32.27408
# Shear Modulus (GPa) = 15.89248 23.90152 19.89700
#
# Velocity S-wave (km/s) = 2.94612 3.61300 3.29647
# Velocity P-wave (km/s) = 4.55548 6.59380 5.66704
#
# Compressibility (1/GPa) = 0.05949600
#
# Stress axis : x y z
#
# Youngs Moduli (GPa) = 29.74447 16.13053 62.36034
#
# Poissons Ratio (x) = 0.07282 1.03620
# Poissons Ratio (y) = 0.13427 0.30845
# Poissons Ratio (z) = 0.49425 0.07979
#
# Static dielectric constant tensor:
#      x y z
#    x 1.615900 0.000000 0.000000 
#    y 0.000000 1.638440 0.000000 
#    z 0.000000 0.000000 1.684050 
# 
# From -- ./inp_files/19473.got.cif
#   From: 2010.05.17/outbox.cif.g08.bks.cpg/sg51_10_cif.got.tgz:19473.got - 2010.06.03 11:52:47.
