data_PCOD9401206
_publ_section_title
;
Structure prediction by ZEFSAII (Michael W. Deem and Ramdas Pophale) SiO2 
 PCOD9401206
Probable space group: P M M A
;
_chemical_formula_sum "Si O2"
_cell_formula_units_Z 64
_cell_length_a 8.787307
_cell_length_b 28.928895
_cell_length_c 14.441029
_cell_angle_alpha 90.000000
_cell_angle_beta 90.000000
_cell_angle_gamma 90.000000
_cell_volume 3671.011836
_symmetry_space_group_name_H-M "P M M A"
_symmetry_group_IT_number 51
_symmetry_cell_setting 'orthorhombic'
loop_
_space_group_symop_operation_xyz
x,y,z
1/2-x,-y,z
1/2+x,-y,-z
-x,y,-z
-x,-y,-z
1/2+x,y,-z
1/2-x,y,z
x,-y,z
loop_
_atom_site_type_symbol
_atom_site_label
_atom_site_fract_x
_atom_site_fract_y
_atom_site_fract_z
Si Si1 0.932624 0.948047 0.897224
Si Si2 0.072690 0.284966 0.899712
Si Si3 0.932836 0.876858 0.246094
Si Si4 0.431744 0.775300 0.257975
Si Si5 0.427876 0.370348 0.758950
Si Si6 0.433549 0.554159 0.900665
Si Si7 0.932584 0.307197 0.603578
Si Si8 0.567203 0.949001 0.398928
O O1 0.750000 0.944806 0.899028
O O2 0.001003 0.905661 0.839828
O O3 0.972868 0.000000 0.860948
O O4 0.000000 0.945820 0.000000
O O5 0.250000 0.272019 0.907996
O O6 0.064247 0.331706 0.839613
O O7 0.983558 0.247840 0.838159
O O8 0.000000 0.290726 0.000000
O O9 0.750000 0.875835 0.239494
O O10 0.981518 0.908177 0.332792
O O11 0.994271 0.825546 0.260622
O O12 0.250000 0.779105 0.261287
O O13 0.478999 0.739738 0.340378
O O14 0.250000 0.376635 0.734015
O O15 0.485409 0.416164 0.811818
O O16 0.512684 0.349355 0.669829
O O17 0.250000 0.558610 0.905377
O O18 0.471997 0.500000 0.890211
O O19 0.500000 0.569962 0.000000
O O20 0.750000 0.307800 0.598122
O O21 0.000000 0.308790 0.500000
O O22 0.500000 0.943133 0.500000
O O23 0.750000 0.948417 0.403756
O O24 0.520395 0.000000 0.364677
#
# Coordination Sequence:
#
# PCOD9401206 Si02
#       8
#     8   8   8   8   8   8   8   8
#     4  10  21  37  57  80 105 135 172 212 252 298
#     4  10  19  32  51  74 101 134 170 209 253 298
#     4  11  22  36  55  78 105 135 166 204 251 300
#     4  10  22  38  53  74 102 131 167 207 251 306
#     4   9  18  32  51  76 106 139 177 219 260 306
#     4   9  17  29  47  75 112 151 185 218 260 309
#     4  10  21  37  58  79 101 132 171 219 269 317
#     4   9  19  35  54  76 101 128 158 193 234 283
#
# _framework density 17.433886000000001
#
# number of rings (size 3 to 8) (size 9 to 14) (size 15 to 20)
#    0.000    2.250    0.000    2.625    0.000    5.750 
#    0.000    6.250    0.000    0.375    0.000    0.000 
#    0.000    0.000    0.000    0.000    0.000    0.000 
#
# Total GULP energy -356945.531708 kJ/mol
# GULP energy per Si atom -5577.273933 kJ/mol
# Density = 1.739421 g / cm^3
# Si number density = 17.433886 Si / 1000 Ang^3
#
#
#
# Elastic Constant Matrix: (Units=GPa)
#
#
# Indices 1 2 3 4 5 6 
#
# 1 47.7246 34.0897 39.8485 0.0000 0.0000 0.0000
# 2 34.0897 97.0720 51.8206 0.0000 0.0000 0.0000
# 3 39.8485 51.8206 127.9167 0.0000 0.0000 0.0000
# 4 0.0000 0.0000 0.0000 35.0672 0.0000 0.0000
# 5 0.0000 0.0000 0.0000 0.0000 29.7880 0.0000
# 6 0.0000 0.0000 0.0000 0.0000 0.0000 24.7681
#
#
#
# Elastic Compliance Matrix: (Units=1/GPa)
#
#
# Indices 1 2 3 4 5 6 
#
# 1 0.032178 -0.007591 -0.006949 0.000000 0.000000 0.000000
# 2 -0.007591 0.014935 -0.003686 0.000000 0.000000 0.000000
# 3 -0.006949 -0.003686 0.011475 0.000000 0.000000 0.000000
# 4 0.000000 0.000000 0.000000 0.028517 0.000000 0.000000
# 5 0.000000 0.000000 0.000000 0.000000 0.033571 0.000000
# 6 0.000000 0.000000 0.000000 0.000000 0.000000 0.040374
#
#
# Mechanical properties :
#
#
# Convention : Reuss Voigt Hill
#
# Bulk Modulus (GPa) = 45.17206 58.24788 51.70997
# Shear Modulus (GPa) = 24.40466 27.72164 26.06315
#
# Velocity S-wave (km/s) = 3.74550 3.99193 3.87068
# Velocity P-wave (km/s) = 6.68370 7.39802 7.04991
#
# Compressibility (1/GPa) = 0.02213758
#
# Stress axis : x y z
#
# Youngs Moduli (GPa) = 31.07757 66.95760 87.14275
#
# Poissons Ratio (x) = 0.50824 0.60555
# Poissons Ratio (y) = 0.23589 0.32118
# Poissons Ratio (z) = 0.21595 0.24679
#
# Static dielectric constant tensor:
#      x y z
#    x 1.586980 0.000000 0.000000 
#    y 0.000000 1.607130 0.000000 
#    z 0.000000 0.000000 1.572490 
# 
# From -- ./inp_files/14823.got.cif
#   From: 2010.05.17/outbox.cif.g08.bks.cpg/sg51_8_cif.got.tgz:14823.got - 2010.06.03 11:52:47.
