data_PCOD9401221
_publ_section_title
;
Structure prediction by ZEFSAII (Michael W. Deem and Ramdas Pophale) SiO2 
 PCOD9401221
Probable space group: P M M A
;
_chemical_formula_sum "Si O2"
_cell_formula_units_Z 44
_cell_length_a 8.464682
_cell_length_b 29.672186
_cell_length_c 9.518361
_cell_angle_alpha 90.000000
_cell_angle_beta 90.000000
_cell_angle_gamma 90.000000
_cell_volume 2390.685030
_symmetry_space_group_name_H-M "P M M A"
_symmetry_group_IT_number 51
_symmetry_cell_setting 'orthorhombic'
loop_
_space_group_symop_operation_xyz
x,y,z
1/2-x,-y,z
1/2+x,-y,-z
-x,y,-z
-x,-y,-z
1/2+x,y,-z
1/2-x,y,z
x,-y,z
loop_
_atom_site_type_symbol
_atom_site_label
_atom_site_fract_x
_atom_site_fract_y
_atom_site_fract_z
Si Si1 0.939186 0.684603 0.339411
Si Si2 0.059174 0.414456 0.659967
Si Si3 0.438886 0.779130 0.340030
Si Si4 0.440841 0.949047 0.342713
Si Si5 0.441304 0.500000 0.841239
Si Si6 0.441103 0.864837 0.158317
O O1 0.750000 0.687346 0.338596
O O2 0.987798 0.635289 0.283763
O O3 0.000000 0.684258 0.500000
O O4 0.006213 0.730950 0.278377
O O5 0.250000 0.415239 0.655177
O O6 0.005050 0.455485 0.757016
O O7 0.000000 0.419693 0.500000
O O8 0.500000 0.783380 0.500000
O O9 0.250000 0.779213 0.345589
O O10 0.493708 0.821259 0.247289
O O11 0.500000 0.939409 0.500000
O O12 0.250000 0.948591 0.344740
O O13 0.494985 0.910434 0.236451
O O14 0.492178 0.000000 0.305207
O O15 0.250000 0.500000 0.841533
O O16 0.500000 0.500000 0.000000
O O17 0.250000 0.864820 0.158189
O O18 0.500000 0.862953 0.000000
#
# Coordination Sequence:
#
# PCOD9401221 Si02
#       6
#     8   8   8   8   4   8
#     4   9  16  28  48  74 100 126 158 200 246 289
#     4   9  18  32  52  76 100 125 160 203 244 290
#     4  10  19  32  51  75 100 128 164 204 244 289
#     4   9  18  34  55  78 102 128 162 204 247 293
#     4  10  21  36  50  70 100 132 165 200 240 290
#     4  10  22  36  50  72 102 134 168 204 243 290
#
# _framework density 18.404767
#
# number of rings (size 3 to 8) (size 9 to 14) (size 15 to 20)
#    0.000    2.545    0.000    3.000    0.000    4.000 
#    0.000    0.909    0.000    4.364    0.000    0.000 
#    0.000    0.000    0.000    0.000    0.000    0.000 
#
# Total GULP energy -245326.195617 kJ/mol
# GULP energy per Si atom -5575.595355 kJ/mol
# Density = 1.836288 g / cm^3
# Si number density = 18.404767 Si / 1000 Ang^3
#
#
#
# Elastic Constant Matrix: (Units=GPa)
#
#
# Indices 1 2 3 4 5 6 
#
# 1 17.0364 30.5593 14.2793 0.0000 0.0000 0.0000
# 2 30.5593 211.7485 107.1718 0.0000 0.0000 0.0000
# 3 14.2793 107.1718 100.1565 0.0000 0.0000 0.0000
# 4 0.0000 0.0000 0.0000 -1.2560 0.0000 0.0000
# 5 0.0000 0.0000 0.0000 0.0000 27.2927 0.0000
# 6 0.0000 0.0000 0.0000 0.0000 0.0000 5.8515
#
#
#
# Elastic Compliance Matrix: (Units=1/GPa)
#
#
# Indices 1 2 3 4 5 6 
#
# 1 0.079394 -0.012497 0.002054 0.000000 0.000000 0.000000
# 2 -0.012497 0.012269 -0.011347 0.000000 0.000000 0.000000
# 3 0.002054 -0.011347 0.021833 0.000000 0.000000 0.000000
# 4 0.000000 0.000000 0.000000 -0.796192 0.000000 0.000000
# 5 0.000000 0.000000 0.000000 0.000000 0.036640 0.000000
# 6 0.000000 0.000000 0.000000 0.000000 0.000000 0.170895
#
#
# Mechanical properties :
#
#
# Convention : Reuss Voigt Hill
#
# Bulk Modulus (GPa) = 14.30303 70.32912 42.31608
# Shear Modulus (GPa) = -12.24666 18.17306 2.96320
#
# Velocity S-wave (km/s) = -2.58235 3.14572 1.27024
# Velocity P-wave (km/s) = 1.05029 7.17562 5.01928
#
# Compressibility (1/GPa) = 0.06991524
#
# Stress axis : x y z
#
# Youngs Moduli (GPa) = 12.59539 81.50579 45.80220
#
# Poissons Ratio (x) = 1.01862 -0.09406
# Poissons Ratio (y) = 0.15741 0.51970
# Poissons Ratio (z) = -0.02587 0.92482
#
# Static dielectric constant tensor:
#      x y z
#    x 1.641240 0.000000 0.000000 
#    y 0.000000 1.688950 0.000000 
#    z 0.000000 0.000000 1.573620 
# 
# From -- ./inp_files/5742.got.cif
#   From: 2010.05.17/outbox.cif.g08.bks.cpg/sg51_3_cif.got.tgz:5742.got - 2010.06.03 11:52:47.
