data_PCOD9401124
_publ_section_title
;
Structure prediction by ZEFSAII (Michael W. Deem and Ramdas Pophale) SiO2 
 PCOD9401124
Probable space group: P M M A
;
_chemical_formula_sum "Si O2"
_cell_formula_units_Z 56
_cell_length_a 8.937552
_cell_length_b 15.476319
_cell_length_c 21.606653
_cell_angle_alpha 90.000000
_cell_angle_beta 90.000000
_cell_angle_gamma 90.000000
_cell_volume 2988.641012
_symmetry_space_group_name_H-M "P M M A"
_symmetry_group_IT_number 51
_symmetry_cell_setting 'orthorhombic'
loop_
_space_group_symop_operation_xyz
x,y,z
1/2-x,-y,z
1/2+x,-y,-z
-x,y,-z
-x,-y,-z
1/2+x,y,-z
1/2-x,y,z
x,-y,z
loop_
_atom_site_type_symbol
_atom_site_label
_atom_site_fract_x
_atom_site_fract_y
_atom_site_fract_z
Si Si1 0.584056 0.600071 0.556665
Si Si2 0.079630 0.895860 0.563896
Si Si3 0.930307 0.215424 0.824847
Si Si4 0.078836 0.351590 0.674373
Si Si5 0.428457 0.101808 0.933015
Si Si6 0.574910 0.174034 0.687641
Si Si7 0.574501 0.595873 0.187481
O O1 0.500000 0.645270 0.500000
O O2 0.750000 0.636452 0.569190
O O3 0.606698 0.500000 0.540526
O O4 0.472208 0.599690 0.613948
O O5 0.250000 0.863616 0.564057
O O6 0.000000 0.866544 0.500000
O O7 0.004045 0.871548 0.629454
O O8 0.081444 0.000000 0.561336
O O9 0.750000 0.217645 0.825602
O O10 0.976325 0.167745 0.759867
O O11 0.996115 0.160787 0.881151
O O12 0.990375 0.314662 0.829010
O O13 0.250000 0.319712 0.669600
O O14 0.068721 0.403753 0.737786
O O15 0.960939 0.274294 0.677412
O O16 0.250000 0.115999 0.934780
O O17 0.454777 0.000000 0.919742
O O18 0.500000 0.120095 0.000000
O O19 0.750000 0.153296 0.685349
O O20 0.750000 0.604272 0.169832
O O21 0.521455 0.500000 0.166032
#
# Coordination Sequence:
#
# PCOD9401124 Si02
#       7
#     8   8   8   8   8   8   8
#     4  10  20  32  45  62  86 117 155 201 254 313
#     4  10  21  37  56  76  99 131 174 224 279 341
#     4  10  21  36  56  85 120 155 192 237 285 335
#     4  10  19  32  50  71  96 126 165 213 265 321
#     4  10  21  38  62  91 123 159 196 233 276 331
#     4  10  21  36  53  76 106 138 175 220 271 324
#     4   9  18  33  54  79 108 145 187 231 280 333
#
# _framework density 18.737611999999999
#
# number of rings (size 3 to 8) (size 9 to 14) (size 15 to 20)
#    0.000    2.143    0.000    3.000    0.000    6.857 
#    0.000    5.714    0.000    0.429    0.000    0.000 
#    0.000    0.000    0.000    0.000    0.000    0.000 
#
# Total GULP energy -311874.795467 kJ/mol
# GULP energy per Si atom -5569.192776 kJ/mol
# Density = 1.869496 g / cm^3
# Si number density = 18.737612 Si / 1000 Ang^3
#
#
#
# Elastic Constant Matrix: (Units=GPa)
#
#
# Indices 1 2 3 4 5 6 
#
# 1 72.5866 33.7879 66.3446 0.0000 0.0000 0.0000
# 2 33.7879 62.8954 65.4057 0.0000 0.0000 0.0000
# 3 66.3446 65.4057 133.7359 0.0000 0.0000 0.0000
# 4 0.0000 0.0000 0.0000 -3.8365 0.0000 0.0000
# 5 0.0000 0.0000 0.0000 0.0000 28.2886 0.0000
# 6 0.0000 0.0000 0.0000 0.0000 0.0000 24.2011
#
#
#
# Elastic Compliance Matrix: (Units=1/GPa)
#
#
# Indices 1 2 3 4 5 6 
#
# 1 0.025242 -0.001095 -0.011987 0.000000 0.000000 0.000000
# 2 -0.001095 0.032402 -0.015303 0.000000 0.000000 0.000000
# 3 -0.011987 -0.015303 0.020908 0.000000 0.000000 0.000000
# 4 0.000000 0.000000 0.000000 -0.260655 0.000000 0.000000
# 5 0.000000 0.000000 0.000000 0.000000 0.035350 0.000000
# 6 0.000000 0.000000 0.000000 0.000000 0.000000 0.041320
#
#
# Mechanical properties :
#
#
# Convention : Reuss Voigt Hill
#
# Bulk Modulus (GPa) = 45.90974 66.69937 56.30456
# Shear Modulus (GPa) = -120.76985 16.64263 -52.06361
#
# Velocity S-wave (km/s) = -8.03698 2.98349 -5.27692
# Velocity P-wave (km/s) = 7.84663 6.89508 2.64835
#
# Compressibility (1/GPa) = 0.02178187
#
# Stress axis : x y z
#
# Youngs Moduli (GPa) = 39.61575 30.86240 47.82798
#
# Poissons Ratio (x) = 0.03380 0.57331
# Poissons Ratio (y) = 0.04339 0.73193
# Poissons Ratio (z) = 0.47487 0.47230
#
# Static dielectric constant tensor:
#      x y z
#    x 1.689180 0.000000 0.000000 
#    y 0.000000 1.675190 0.000000 
#    z 0.000000 0.000000 1.663750 
# 
# From -- ./inp_files/31955.got.cif
#   From: 2010.05.17/outbox.cif.g08.bks.cpg/sg51_16_cif.got.tgz:31955.got - 2010.06.03 11:52:47.
