data_PCOD9401413
_publ_section_title
;
Structure prediction by ZEFSAII (Michael W. Deem and Ramdas Pophale) SiO2 
 PCOD9401413
Probable space group: P M M A
;
_chemical_formula_sum "Si O2"
_cell_formula_units_Z 56
_cell_length_a 18.929768
_cell_length_b 9.816454
_cell_length_c 16.149272
_cell_angle_alpha 90.000000
_cell_angle_beta 90.000000
_cell_angle_gamma 90.000000
_cell_volume 3000.909349
_symmetry_space_group_name_H-M "P M M A"
_symmetry_group_IT_number 51
_symmetry_cell_setting 'orthorhombic'
loop_
_space_group_symop_operation_xyz
x,y,z
1/2-x,-y,z
1/2+x,-y,-z
-x,y,-z
-x,-y,-z
1/2+x,y,-z
1/2-x,y,z
x,-y,z
loop_
_atom_site_type_symbol
_atom_site_label
_atom_site_fract_x
_atom_site_fract_y
_atom_site_fract_z
Si Si1 0.168075 0.335756 0.087975
Si Si2 0.165728 0.153609 0.773061
Si Si3 0.899040 0.339194 0.090641
Si Si4 0.167540 0.349709 0.627871
Si Si5 0.038701 0.337513 0.195872
Si Si6 0.110898 0.154644 0.509627
Si Si7 0.516775 0.844196 0.643557
O O1 0.250000 0.285753 0.087156
O O2 0.172387 0.500000 0.093813
O O3 0.115356 0.291618 0.161481
O O4 0.124567 0.309764 0.003109
O O5 0.250000 0.142937 0.766717
O O6 0.146193 0.237466 0.853753
O O7 0.139975 0.246529 0.697448
O O8 0.136823 0.000000 0.771071
O O9 0.882714 0.500000 0.106118
O O10 0.979416 0.319127 0.123243
O O11 0.250000 0.364521 0.646410
O O12 0.134368 0.500000 0.630196
O O13 0.160530 0.274463 0.540662
O O14 0.040541 0.500000 0.212407
O O15 0.018302 0.256759 0.278934
O O16 0.084780 0.172938 0.416254
O O17 0.045326 0.167248 0.574525
O O18 0.138848 0.000000 0.519872
O O19 0.515289 0.000000 0.674066
#
# Coordination Sequence:
#
# PCOD9401413 Si02
#       7
#     8   8   8   8   8   8   8
#     4   9  18  34  55  76 102 139 177 212 255 306
#     4  10  20  32  47  71 105 142 176 211 257 315
#     4  10  19  32  53  79 104 131 169 217 263 306
#     4  10  20  32  47  71 103 136 171 211 254 302
#     4  10  20  33  52  80 107 132 169 216 260 306
#     4   9  18  34  54  74  99 133 172 211 253 306
#     4   9  19  35  54  76 102 133 168 208 257 309
#
# _framework density 18.661010999999998
#
# number of rings (size 3 to 8) (size 9 to 14) (size 15 to 20)
#    0.000    2.429    0.000    3.429    0.000    8.000 
#    0.000    2.857    0.000    5.571    0.000    0.000 
#    0.000    0.000    0.000    0.000    0.000    0.000 
#
# Total GULP energy -311837.862093 kJ/mol
# GULP energy per Si atom -5568.533252 kJ/mol
# Density = 1.861854 g / cm^3
# Si number density = 18.661011 Si / 1000 Ang^3
#
#
#
# Elastic Constant Matrix: (Units=GPa)
#
#
# Indices 1 2 3 4 5 6 
#
# 1 61.8876 41.2754 52.9099 0.0000 0.0000 0.0000
# 2 41.2754 84.0290 43.6528 0.0000 0.0000 0.0000
# 3 52.9099 43.6528 83.0592 0.0000 0.0000 0.0000
# 4 0.0000 0.0000 0.0000 21.7796 0.0000 0.0000
# 5 0.0000 0.0000 0.0000 0.0000 28.8123 0.0000
# 6 0.0000 0.0000 0.0000 0.0000 0.0000 7.0030
#
#
#
# Elastic Compliance Matrix: (Units=1/GPa)
#
#
# Indices 1 2 3 4 5 6 
#
# 1 0.039660 -0.008744 -0.020669 0.000000 0.000000 0.000000
# 2 -0.008744 0.018298 -0.004047 0.000000 0.000000 0.000000
# 3 -0.020669 -0.004047 0.027333 0.000000 0.000000 0.000000
# 4 0.000000 0.000000 0.000000 0.045915 0.000000 0.000000
# 5 0.000000 0.000000 0.000000 0.000000 0.034707 0.000000
# 6 0.000000 0.000000 0.000000 0.000000 0.000000 0.142796
#
#
# Mechanical properties :
#
#
# Convention : Reuss Voigt Hill
#
# Bulk Modulus (GPa) = 54.42993 56.07243 55.25118
# Shear Modulus (GPa) = 13.09752 17.59484 15.34618
#
# Velocity S-wave (km/s) = 2.65215 3.07394 2.87080
# Velocity P-wave (km/s) = 6.21366 6.53544 6.37658
#
# Compressibility (1/GPa) = 0.01837224
#
# Stress axis : x y z
#
# Youngs Moduli (GPa) = 25.21402 54.65086 36.58632
#
# Poissons Ratio (x) = 0.47787 0.75619
# Poissons Ratio (y) = 0.22047 0.14805
# Poissons Ratio (z) = 0.52114 0.22115
#
# Static dielectric constant tensor:
#      x y z
#    x 1.743070 0.000000 0.000000 
#    y 0.000000 1.652500 0.000000 
#    z 0.000000 0.000000 1.657510 
# 
# From -- ./inp_files/25644.got.cif
#   From: 2010.05.17/outbox.cif.g08.bks.cpg/sg51_13_cif.got.tgz:25644.got - 2010.06.03 11:52:47.
