data_PCOD9401067
_publ_section_title
;
Structure prediction by ZEFSAII (Michael W. Deem and Ramdas Pophale) SiO2 
 PCOD9401067
Probable space group: P M M A
;
_chemical_formula_sum "Si O2"
_cell_formula_units_Z 64
_cell_length_a 20.091618
_cell_length_b 9.020013
_cell_length_c 21.107166
_cell_angle_alpha 90.000000
_cell_angle_beta 90.000000
_cell_angle_gamma 90.000000
_cell_volume 3825.181102
_symmetry_space_group_name_H-M "P M M A"
_symmetry_group_IT_number 51
_symmetry_cell_setting 'orthorhombic'
loop_
_space_group_symop_operation_xyz
x,y,z
1/2-x,-y,z
1/2+x,-y,-z
-x,y,-z
-x,-y,-z
1/2+x,y,-z
1/2-x,y,z
x,-y,z
loop_
_atom_site_type_symbol
_atom_site_label
_atom_site_fract_x
_atom_site_fract_y
_atom_site_fract_z
Si Si1 0.673435 0.326950 0.944116
Si Si2 0.569665 0.175219 0.037643
Si Si3 0.431325 0.325045 0.580107
Si Si4 0.120170 0.820239 0.178135
Si Si5 0.091141 0.673209 0.442934
Si Si6 0.473925 0.322765 0.834845
Si Si7 0.048582 0.828700 0.707007
Si Si8 0.111759 0.829486 0.317135
O O1 0.750000 0.320242 0.964333
O O2 0.653832 0.500000 0.938220
O O3 0.665436 0.246612 0.876518
O O4 0.626291 0.244272 0.993591
O O5 0.563642 0.261530 0.103702
O O6 0.580223 0.000000 0.048231
O O7 0.500000 0.191892 0.000000
O O8 0.416628 0.500000 0.588183
O O9 0.398175 0.269607 0.514597
O O10 0.511318 0.315108 0.568846
O O11 0.417465 0.235844 0.643988
O O12 0.140236 0.775304 0.249818
O O13 0.046646 0.754733 0.164986
O O14 0.117474 0.000000 0.175574
O O15 0.107384 0.500000 0.443398
O O16 0.125584 0.747063 0.382622
O O17 0.480550 0.500000 0.836306
O O18 0.440357 0.269014 0.769403
O O19 0.968526 0.823998 0.694033
O O20 0.065922 0.000000 0.718093
O O21 0.130932 0.000000 0.324776
#
# Coordination Sequence:
#
# PCOD9401067 Si02
#       8
#     8   8   8   8   8   8   8   8
#     4  11  24  39  55  77 102 129 163 202 247 300
#     4  11  22  36  56  78 100 128 163 204 246 298
#     4   8  13  21  31  46  71 105 145 185 227 275
#     4  10  19  32  48  68  93 123 159 198 241 289
#     4   8  13  20  31  47  70 103 144 186 226 273
#     4  11  20  30  48  70  94 122 156 201 247 288
#     4   9  16  25  36  54  81 112 149 190 233 282
#     4   8  15  24  35  53  78 107 145 190 229 271
#
# _framework density 16.731235000000002
#
# number of rings (size 3 to 8) (size 9 to 14) (size 15 to 20)
#    0.000    2.500    1.250    4.125    0.000    5.500 
#    0.000    2.500    0.000    0.000    0.000    0.000 
#    0.000    0.000    0.000    1.125    0.000   19.250 
#
# Total GULP energy -356533.877384 kJ/mol
# GULP energy per Si atom -5570.841834 kJ/mol
# Density = 1.669315 g / cm^3
# Si number density = 16.731235 Si / 1000 Ang^3
#
#
#
# Elastic Constant Matrix: (Units=GPa)
#
#
# Indices 1 2 3 4 5 6 
#
# 1 23.0791 18.3886 20.0166 0.0000 0.0000 0.0000
# 2 18.3886 92.5825 58.1768 0.0000 0.0000 0.0000
# 3 20.0166 58.1768 128.4537 0.0000 0.0000 0.0000
# 4 0.0000 0.0000 0.0000 35.0549 0.0000 0.0000
# 5 0.0000 0.0000 0.0000 0.0000 7.7870 0.0000
# 6 0.0000 0.0000 0.0000 0.0000 0.0000 8.0075
#
#
#
# Elastic Compliance Matrix: (Units=1/GPa)
#
#
# Indices 1 2 3 4 5 6 
#
# 1 0.053626 -0.007548 -0.004938 0.000000 0.000000 0.000000
# 2 -0.007548 0.016160 -0.006143 0.000000 0.000000 0.000000
# 3 -0.004938 -0.006143 0.011336 0.000000 0.000000 0.000000
# 4 0.000000 0.000000 0.000000 0.028527 0.000000 0.000000
# 5 0.000000 0.000000 0.000000 0.000000 0.128419 0.000000
# 6 0.000000 0.000000 0.000000 0.000000 0.000000 0.124883
#
#
# Mechanical properties :
#
#
# Convention : Reuss Voigt Hill
#
# Bulk Modulus (GPa) = 22.79723 48.58658 35.69191
# Shear Modulus (GPa) = 12.05311 20.00543 16.02927
#
# Velocity S-wave (km/s) = 2.68693 3.46163 3.09859
# Velocity P-wave (km/s) = 4.82507 6.71414 5.84641
#
# Compressibility (1/GPa) = 0.04386497
#
# Stress axis : x y z
#
# Youngs Moduli (GPa) = 18.64770 61.87952 88.21111
#
# Poissons Ratio (x) = 0.46709 0.43557
# Poissons Ratio (y) = 0.14076 0.54187
# Poissons Ratio (z) = 0.09208 0.38012
#
# Static dielectric constant tensor:
#      x y z
#    x 1.529020 0.000000 0.000000 
#    y 0.000000 1.561260 0.000000 
#    z 0.000000 0.000000 1.599730 
# 
# From -- ./inp_files/34139.got.cif
#   From: 2010.05.17/outbox.cif.g08.bks.cpg/sg51_18_cif.got.tgz:34139.got - 2010.06.03 11:52:47.
