data_PCOD9401830
_publ_section_title
;
Structure prediction by ZEFSAII (Michael W. Deem and Ramdas Pophale) SiO2 
 PCOD9401830
Probable space group: P M M A
;
_chemical_formula_sum "Si O2"
_cell_formula_units_Z 48
_cell_length_a 14.279041
_cell_length_b 18.028139
_cell_length_c 9.224662
_cell_angle_alpha 90.000000
_cell_angle_beta 90.000000
_cell_angle_gamma 90.000000
_cell_volume 2374.654335
_symmetry_space_group_name_H-M "P M M A"
_symmetry_group_IT_number 51
_symmetry_cell_setting 'orthorhombic'
loop_
_space_group_symop_operation_xyz
x,y,z
1/2-x,-y,z
1/2+x,-y,-z
-x,y,-z
-x,-y,-z
1/2+x,y,-z
1/2-x,y,z
x,-y,z
loop_
_atom_site_type_symbol
_atom_site_label
_atom_site_fract_x
_atom_site_fract_y
_atom_site_fract_z
Si Si1 0.640965 0.081240 0.585177
Si Si2 0.647339 0.418717 0.094731
Si Si3 0.910598 0.291052 0.892829
Si Si4 0.471779 0.137371 0.153528
Si Si5 0.861257 0.204406 0.339439
Si Si6 0.028038 0.645040 0.653593
O O1 0.750000 0.085170 0.630224
O O2 0.573140 0.088330 0.721843
O O3 0.625315 0.148665 0.474390
O O4 0.627143 0.000000 0.514770
O O5 0.750000 0.418723 0.163040
O O6 0.630602 0.500000 0.027248
O O7 0.573940 0.405363 0.222743
O O8 0.647822 0.352764 0.977267
O O9 0.895063 0.203487 0.874613
O O10 0.938043 0.320273 0.734631
O O11 0.000000 0.290482 0.000000
O O12 0.567332 0.174361 0.216923
O O13 0.500000 0.102777 0.000000
O O14 0.750000 0.205484 0.301899
O O15 0.899827 0.286619 0.372600
O O16 0.000000 0.611499 0.500000
#
# Coordination Sequence:
#
# PCOD9401830 Si02
#       6
#     8   8   8   8   8   8
#     4  10  22  39  58  82 114 153 194 234 278 330
#     4  10  21  37  56  79 110 148 187 228 278 338
#     4   8  17  33  53  77 105 140 181 218 262 330
#     4  10  20  34  56  86 115 145 185 233 286 338
#     4  10  20  36  58  82 111 149 190 230 277 340
#     4  10  19  33  55  82 109 139 181 231 281 331
#
# _framework density 20.213469
#
# number of rings (size 3 to 8) (size 9 to 14) (size 15 to 20)
#    0.000    2.333    0.000    4.000    0.000    6.333 
#    0.000    1.667    0.000    4.000    0.000    0.000 
#    0.000    0.000    0.000    0.000    0.000    0.000 
#
# Total GULP energy -267296.971639 kJ/mol
# GULP energy per Si atom -5568.686909 kJ/mol
# Density = 2.016746 g / cm^3
# Si number density = 20.213469 Si / 1000 Ang^3
#
#
#
# Elastic Constant Matrix: (Units=GPa)
#
#
# Indices 1 2 3 4 5 6 
#
# 1 61.7416 20.0698 22.1145 0.0000 0.0000 0.0000
# 2 20.0698 81.9691 7.5477 0.0000 0.0000 0.0000
# 3 22.1145 7.5477 89.4946 0.0000 0.0000 0.0000
# 4 0.0000 0.0000 0.0000 20.9547 0.0000 0.0000
# 5 0.0000 0.0000 0.0000 0.0000 17.9811 0.0000
# 6 0.0000 0.0000 0.0000 0.0000 0.0000 26.6606
#
#
#
# Elastic Compliance Matrix: (Units=1/GPa)
#
#
# Indices 1 2 3 4 5 6 
#
# 1 0.019156 -0.004288 -0.004372 0.000000 0.000000 0.000000
# 2 -0.004288 0.013255 -0.000058 0.000000 0.000000 0.000000
# 3 -0.004372 -0.000058 0.012259 0.000000 0.000000 0.000000
# 4 0.000000 0.000000 0.000000 0.047722 0.000000 0.000000
# 5 0.000000 0.000000 0.000000 0.000000 0.055614 0.000000
# 6 0.000000 0.000000 0.000000 0.000000 0.000000 0.037509
#
#
# Mechanical properties :
#
#
# Convention : Reuss Voigt Hill
#
# Bulk Modulus (GPa) = 36.71863 36.96324 36.84093
# Shear Modulus (GPa) = 23.58168 25.35084 24.46626
#
# Velocity S-wave (km/s) = 3.41931 3.54525 3.48285
# Velocity P-wave (km/s) = 5.81324 5.92322 5.86849
#
# Compressibility (1/GPa) = 0.02723413
#
# Stress axis : x y z
#
# Youngs Moduli (GPa) = 52.20225 75.44365 81.57194
#
# Poissons Ratio (x) = 0.32348 0.35663
# Poissons Ratio (y) = 0.22383 0.00476
# Poissons Ratio (z) = 0.22823 0.00440
#
# Static dielectric constant tensor:
#      x y z
#    x 1.749980 0.000000 0.000000 
#    y 0.000000 1.799570 0.000000 
#    z 0.000000 0.000000 1.702150 
# 
# From -- ./inp_files/8426.got.cif
#   From: 2010.05.17/outbox.cif.g08.bks.cpg/sg51_5_cif.got.tgz:8426.got - 2010.06.03 11:52:47.
