data_PCOD9401126
_publ_section_title
;
Structure prediction by ZEFSAII (Michael W. Deem and Ramdas Pophale) SiO2 
 PCOD9401126
Probable space group: P M M A
;
_chemical_formula_sum "Si O2"
_cell_formula_units_Z 40
_cell_length_a 8.100977
_cell_length_b 27.619800
_cell_length_c 9.469045
_cell_angle_alpha 90.000000
_cell_angle_beta 90.000000
_cell_angle_gamma 90.000000
_cell_volume 2118.673864
_symmetry_space_group_name_H-M "P M M A"
_symmetry_group_IT_number 51
_symmetry_cell_setting 'orthorhombic'
loop_
_space_group_symop_operation_xyz
x,y,z
1/2-x,-y,z
1/2+x,-y,-z
-x,y,-z
-x,-y,-z
1/2+x,y,-z
1/2-x,y,z
x,-y,z
loop_
_atom_site_type_symbol
_atom_site_label
_atom_site_fract_x
_atom_site_fract_y
_atom_site_fract_z
Si Si1 0.449617 0.947913 0.834561
Si Si2 0.949570 0.554291 0.838246
Si Si3 0.446207 0.354727 0.338786
Si Si4 0.550671 0.156128 0.164886
Si Si5 0.947404 0.261541 0.163405
O O1 0.250000 0.947937 0.827688
O O2 0.508145 0.895854 0.775110
O O3 0.507998 0.000000 0.775361
O O4 0.500000 0.947897 0.000000
O O5 0.750000 0.554042 0.832616
O O6 0.007013 0.500000 0.799232
O O7 0.013464 0.597278 0.739422
O O8 0.000000 0.563358 0.000000
O O9 0.500000 0.352330 0.500000
O O10 0.250000 0.358260 0.335228
O O11 0.494157 0.306527 0.254675
O O12 0.750000 0.155939 0.173359
O O13 0.492080 0.208632 0.218208
O O14 0.500000 0.156012 0.000000
O O15 0.750000 0.260858 0.166508
O O16 0.000000 0.267031 0.000000
#
# Coordination Sequence:
#
# PCOD9401126 Si02
#       5
#     8   8   8   8   8
#     4   8  12  18  29  47  74 108 144 181 223 272
#     4   9  19  36  57  80 104 130 161 196 234 279
#     4  11  23  37  53  74 101 131 164 202 245 291
#     4   8  14  23  36  56  82 114 151 190 231 276
#     4  10  19  32  50  71  97 129 166 205 244 288
#
# _framework density 18.879735
#
# number of rings (size 3 to 8) (size 9 to 14) (size 15 to 20)
#    0.000    2.800    0.000    1.800    0.000    4.400 
#    0.000    0.000    0.000    0.000    0.000    0.000 
#    0.000    0.800    0.000    1.400    0.000   10.000 
#
# Total GULP energy -222676.984038 kJ/mol
# GULP energy per Si atom -5566.924601 kJ/mol
# Density = 1.883676 g / cm^3
# Si number density = 18.879735 Si / 1000 Ang^3
#
#
#
# Elastic Constant Matrix: (Units=GPa)
#
#
# Indices 1 2 3 4 5 6 
#
# 1 20.2305 19.8796 6.2869 0.0000 0.0000 0.0000
# 2 19.8796 249.6625 90.5641 0.0000 0.0000 0.0000
# 3 6.2869 90.5641 57.7013 0.0000 0.0000 0.0000
# 4 0.0000 0.0000 0.0000 -4.2857 0.0000 0.0000
# 5 0.0000 0.0000 0.0000 0.0000 19.7426 0.0000
# 6 0.0000 0.0000 0.0000 0.0000 0.0000 -1.2055
#
#
#
# Elastic Compliance Matrix: (Units=1/GPa)
#
#
# Indices 1 2 3 4 5 6 
#
# 1 0.053725 -0.005003 0.001998 0.000000 0.000000 0.000000
# 2 -0.005003 0.009767 -0.014784 0.000000 0.000000 0.000000
# 3 0.001998 -0.014784 0.040317 0.000000 0.000000 0.000000
# 4 0.000000 0.000000 0.000000 -0.233334 0.000000 0.000000
# 5 0.000000 0.000000 0.000000 0.000000 0.050652 0.000000
# 6 0.000000 0.000000 0.000000 0.000000 0.000000 -0.829560
#
#
# Mechanical properties :
#
#
# Convention : Reuss Voigt Hill
#
# Bulk Modulus (GPa) = 14.65589 62.33952 38.49771
# Shear Modulus (GPa) = -5.88156 16.90787 5.51315
#
# Velocity S-wave (km/s) = -1.76693 2.99583 1.71070
# Velocity P-wave (km/s) = 1.90181 6.71250 4.93328
#
# Compressibility (1/GPa) = 0.06823196
#
# Stress axis : x y z
#
# Youngs Moduli (GPa) = 18.61318 102.39046 24.80368
#
# Poissons Ratio (x) = 0.51224 -0.04957
# Poissons Ratio (y) = 0.09312 0.36669
# Poissons Ratio (z) = -0.03720 1.51372
#
# Static dielectric constant tensor:
#      x y z
#    x 1.689230 0.000000 0.000000 
#    y 0.000000 1.765840 0.000000 
#    z 0.000000 0.000000 1.584440 
# 
# From -- ./inp_files/5475.got.cif
#   From: 2010.05.17/outbox.cif.g08.bks.cpg/sg51_3_cif.got.tgz:5475.got - 2010.06.03 11:52:47.
