data_PCOD9401723
_publ_section_title
;
Structure prediction by ZEFSAII (Michael W. Deem and Ramdas Pophale) SiO2 
 PCOD9401723
Probable space group: P M M A
;
_chemical_formula_sum "Si O2"
_cell_formula_units_Z 64
_cell_length_a 18.353216
_cell_length_b 8.819380
_cell_length_c 22.127995
_cell_angle_alpha 90.000000
_cell_angle_beta 90.000000
_cell_angle_gamma 90.000000
_cell_volume 3581.725476
_symmetry_space_group_name_H-M "P M M A"
_symmetry_group_IT_number 51
_symmetry_cell_setting 'orthorhombic'
loop_
_space_group_symop_operation_xyz
x,y,z
1/2-x,-y,z
1/2+x,-y,-z
-x,y,-z
-x,-y,-z
1/2+x,y,-z
1/2-x,y,z
x,-y,z
loop_
_atom_site_type_symbol
_atom_site_label
_atom_site_fract_x
_atom_site_fract_y
_atom_site_fract_z
Si Si1 0.831673 0.817600 0.875584
Si Si2 0.426182 0.818230 0.610586
Si Si3 0.972863 0.317365 0.934670
Si Si4 0.334757 0.317395 0.501134
Si Si5 0.452996 0.318433 0.810528
Si Si6 0.087334 0.318655 0.376276
Si Si7 0.095508 0.181205 0.249981
Si Si8 0.665587 0.182609 0.269866
O O1 0.750000 0.767102 0.890139
O O2 0.894123 0.746529 0.916810
O O3 0.851567 0.780866 0.805893
O O4 0.835091 0.000000 0.880838
O O5 0.384138 0.761782 0.551366
O O6 0.505858 0.745072 0.614646
O O7 0.377908 0.775352 0.669126
O O8 0.433503 0.000000 0.609882
O O9 0.968670 0.500000 0.935810
O O10 0.026922 0.275915 0.879457
O O11 0.000000 0.264388 0.000000
O O12 0.250000 0.275594 0.507938
O O13 0.340817 0.500000 0.508135
O O14 0.364351 0.278943 0.434519
O O15 0.455509 0.500000 0.805254
O O16 0.516873 0.247053 0.769329
O O17 0.377098 0.256097 0.785908
O O18 0.084153 0.500000 0.371466
O O19 0.117215 0.250546 0.313909
O O20 0.090076 0.000000 0.255009
O O21 0.750000 0.227975 0.273461
O O22 0.662489 0.000000 0.264599
#
# Coordination Sequence:
#
# PCOD9401723 Si02
#       8
#     8   8   8   8   8   8   8   8
#     4   9  19  35  55  82 115 147 184 229 273 321
#     4  11  22  37  58  81 105 138 181 226 272 324
#     4   9  19  36  57  82 112 147 187 228 268 316
#     4  10  23  41  56  74 106 144 180 224 275 323
#     4  10  19  33  55  80 106 139 179 219 262 317
#     4  11  22  36  56  81 107 140 182 224 269 326
#     4  10  19  33  54  79 108 142 176 218 272 321
#     4  10  21  36  54  78 109 142 175 219 274 323
#
# _framework density 17.868483000000001
#
# number of rings (size 3 to 8) (size 9 to 14) (size 15 to 20)
#    0.000    2.000    1.250    2.250    0.000    6.000 
#    0.000    0.625    0.000    3.750    0.000    0.000 
#    0.000    0.000    0.000    0.000    0.000    0.000 
#
# Total GULP energy -357377.629569 kJ/mol
# GULP energy per Si atom -5584.025462 kJ/mol
# Density = 1.782781 g / cm^3
# Si number density = 17.868483 Si / 1000 Ang^3
#
#
#
# Elastic Constant Matrix: (Units=GPa)
#
#
# Indices 1 2 3 4 5 6 
#
# 1 55.8698 15.4012 32.8686 0.0000 0.0000 0.0000
# 2 15.4012 22.1793 29.7878 0.0000 0.0000 0.0000
# 3 32.8686 29.7878 125.8406 0.0000 0.0000 0.0000
# 4 0.0000 0.0000 0.0000 26.4974 0.0000 0.0000
# 5 0.0000 0.0000 0.0000 0.0000 17.7279 0.0000
# 6 0.0000 0.0000 0.0000 0.0000 0.0000 22.6086
#
#
#
# Elastic Compliance Matrix: (Units=1/GPa)
#
#
# Indices 1 2 3 4 5 6 
#
# 1 0.023017 -0.011595 -0.003267 0.000000 0.000000 0.000000
# 2 -0.011595 0.071943 -0.014001 0.000000 0.000000 0.000000
# 3 -0.003267 -0.014001 0.012114 0.000000 0.000000 0.000000
# 4 0.000000 0.000000 0.000000 0.037740 0.000000 0.000000
# 5 0.000000 0.000000 0.000000 0.000000 0.056408 0.000000
# 6 0.000000 0.000000 0.000000 0.000000 0.000000 0.044231
#
#
# Mechanical properties :
#
#
# Convention : Reuss Voigt Hill
#
# Bulk Modulus (GPa) = 20.26448 40.00054 30.13251
# Shear Modulus (GPa) = 15.64317 21.75560 18.69939
#
# Velocity S-wave (km/s) = 2.96203 3.49311 3.23848
# Velocity P-wave (km/s) = 4.80247 6.22124 5.55731
#
# Compressibility (1/GPa) = 0.04934743
#
# Stress axis : x y z
#
# Youngs Moduli (GPa) = 43.44584 13.89997 82.54809
#
# Poissons Ratio (x) = 0.16117 0.26971
# Poissons Ratio (y) = 0.50375 1.15576
# Poissons Ratio (z) = 0.14195 0.19461
#
# Static dielectric constant tensor:
#      x y z
#    x 1.588130 0.000000 0.000000 
#    y 0.000000 1.599870 0.000000 
#    z 0.000000 0.000000 1.606590 
# 
# From -- ./inp_files/33939.got.cif
#   From: 2010.05.17/outbox.cif.g08.bks.cpg/sg51_17_cif.got.tgz:33939.got - 2010.06.03 11:52:47.
