data_PCOD9401199
_publ_section_title
;
Structure prediction by ZEFSAII (Michael W. Deem and Ramdas Pophale) SiO2 
 PCOD9401199
Probable space group: P M M A
;
_chemical_formula_sum "Si O2"
_cell_formula_units_Z 64
_cell_length_a 8.205532
_cell_length_b 20.623891
_cell_length_c 20.848549
_cell_angle_alpha 90.000000
_cell_angle_beta 90.000000
_cell_angle_gamma 90.000000
_cell_volume 3528.199897
_symmetry_space_group_name_H-M "P M M A"
_symmetry_group_IT_number 51
_symmetry_cell_setting 'orthorhombic'
loop_
_space_group_symop_operation_xyz
x,y,z
1/2-x,-y,z
1/2+x,-y,-z
-x,y,-z
-x,-y,-z
1/2+x,y,-z
1/2-x,y,z
x,-y,z
loop_
_atom_site_type_symbol
_atom_site_label
_atom_site_fract_x
_atom_site_fract_y
_atom_site_fract_z
Si Si1 0.051067 0.425852 0.678375
Si Si2 0.946911 0.823675 0.428363
Si Si3 0.551079 0.074039 0.322810
Si Si4 0.053170 0.425886 0.824485
Si Si5 0.057564 0.322043 0.071656
Si Si6 0.553073 0.675331 0.428335
Si Si7 0.556154 0.176526 0.072291
Si Si8 0.449092 0.074117 0.823478
O O1 0.250000 0.425115 0.677802
O O2 0.001465 0.500000 0.664155
O O3 0.001273 0.410157 0.751432
O O4 0.994175 0.374511 0.625718
O O5 0.750000 0.823394 0.426519
O O6 0.005925 0.873927 0.374759
O O7 0.002500 0.749504 0.416783
O O8 0.000000 0.842321 0.500000
O O9 0.750000 0.074793 0.323516
O O10 0.501227 0.089262 0.249696
O O11 0.501408 0.000000 0.337556
O O12 0.250000 0.425083 0.825254
O O13 0.001198 0.500000 0.838471
O O14 0.992768 0.375004 0.876333
O O15 0.250000 0.316240 0.069819
O O16 0.988681 0.250785 0.087301
O O17 0.000000 0.339947 0.000000
O O18 0.500000 0.656580 0.500000
O O19 0.750000 0.675465 0.426591
O O20 0.750000 0.171839 0.072941
O O21 0.491115 0.125817 0.124652
O O22 0.500000 0.162189 0.000000
O O23 0.250000 0.075164 0.823982
O O24 0.497798 0.000000 0.838175
#
# Coordination Sequence:
#
# PCOD9401199 Si02
#       8
#     8   8   8   8   8   8   8   8
#     4   8  15  29  49  71  94 121 154 192 232 278
#     4   9  17  28  43  64  89 118 150 187 229 271
#     4   8  14  26  44  66  90 115 149 192 231 270
#     4   9  18  34  55  77 100 126 159 200 245 292
#     4  11  22  36  53  73 100 131 164 201 240 285
#     4   9  17  29  45  66  93 123 157 194 232 276
#     4  10  19  32  51  73  99 129 161 198 239 284
#     4   8  15  28  47  72  98 123 156 199 242 284
#
# _framework density 18.139562999999999
#
# number of rings (size 3 to 8) (size 9 to 14) (size 15 to 20)
#    0.000    3.000    0.000    3.750    0.000    2.250 
#    0.000    4.375    0.000    6.375    0.000    3.500 
#    0.000    0.000    0.000    0.000    0.000    0.000 
#
# Total GULP energy -356762.604435 kJ/mol
# GULP energy per Si atom -5574.415694 kJ/mol
# Density = 1.809828 g / cm^3
# Si number density = 18.139563 Si / 1000 Ang^3
#
#
#
# Elastic Constant Matrix: (Units=GPa)
#
#
# Indices 1 2 3 4 5 6 
#
# 1 16.8305 13.1068 13.9349 0.0000 0.0000 0.0000
# 2 13.1068 139.4075 141.6287 0.0000 0.0000 0.0000
# 3 13.9349 141.6287 169.4768 0.0000 0.0000 0.0000
# 4 0.0000 0.0000 0.0000 45.0727 0.0000 0.0000
# 5 0.0000 0.0000 0.0000 0.0000 24.2613 0.0000
# 6 0.0000 0.0000 0.0000 0.0000 0.0000 11.9329
#
#
#
# Elastic Compliance Matrix: (Units=1/GPa)
#
#
# Indices 1 2 3 4 5 6 
#
# 1 0.064171 -0.004456 -0.001553 0.000000 0.000000 0.000000
# 2 -0.004456 0.047813 -0.039590 0.000000 0.000000 0.000000
# 3 -0.001553 -0.039590 0.039113 0.000000 0.000000 0.000000
# 4 0.000000 0.000000 0.000000 0.022186 0.000000 0.000000
# 5 0.000000 0.000000 0.000000 0.000000 0.041218 0.000000
# 6 0.000000 0.000000 0.000000 0.000000 0.000000 0.083802
#
#
# Mechanical properties :
#
#
# Convention : Reuss Voigt Hill
#
# Bulk Modulus (GPa) = 16.69447 73.67283 45.18365
# Shear Modulus (GPa) = 12.21099 26.72302 19.46700
#
# Velocity S-wave (km/s) = 2.59736 3.84238 3.27950
# Velocity P-wave (km/s) = 4.26830 7.77096 6.26922
#
# Compressibility (1/GPa) = 0.05990007
#
# Stress axis : x y z
#
# Youngs Moduli (GPa) = 15.58328 20.91483 25.56700
#
# Poissons Ratio (x) = 0.09319 0.03971
# Poissons Ratio (y) = 0.06943 1.01220
# Poissons Ratio (z) = 0.02420 0.82802
#
# Static dielectric constant tensor:
#      x y z
#    x 1.644470 0.000000 0.000000 
#    y 0.000000 1.622210 0.000000 
#    z 0.000000 0.000000 1.610410 
# 
# From -- ./inp_files/32598.got.cif
#   From: 2010.05.17/outbox.cif.g08.bks.cpg/sg51_17_cif.got.tgz:32598.got - 2010.06.03 11:52:47.
