data_PCOD9401054
_publ_section_title
;
Structure prediction by ZEFSAII (Michael W. Deem and Ramdas Pophale) SiO2 
 PCOD9401054
Probable space group: P M M A
;
_chemical_formula_sum "Si O2"
_cell_formula_units_Z 56
_cell_length_a 7.460195
_cell_length_b 27.379130
_cell_length_c 14.851178
_cell_angle_alpha 90.000000
_cell_angle_beta 90.000000
_cell_angle_gamma 90.000000
_cell_volume 3033.407294
_symmetry_space_group_name_H-M "P M M A"
_symmetry_group_IT_number 51
_symmetry_cell_setting 'orthorhombic'
loop_
_space_group_symop_operation_xyz
x,y,z
1/2-x,-y,z
1/2+x,-y,-z
-x,y,-z
-x,-y,-z
1/2+x,y,-z
1/2-x,y,z
x,-y,z
loop_
_atom_site_type_symbol
_atom_site_label
_atom_site_fract_x
_atom_site_fract_y
_atom_site_fract_z
Si Si1 0.036001 0.149153 0.105606
Si Si2 0.535982 0.793735 0.600147
Si Si3 0.530660 0.946196 0.788928
Si Si4 0.535928 0.094362 0.599943
Si Si5 0.030230 0.754504 0.211789
Si Si6 0.034943 0.659189 0.106685
Si Si7 0.035409 0.447487 0.107287
O O1 0.250000 0.148921 0.118661
O O2 0.968839 0.099076 0.150403
O O3 0.970985 0.197710 0.156159
O O4 0.000000 0.151214 0.000000
O O5 0.500000 0.774586 0.500000
O O6 0.750000 0.797125 0.609450
O O7 0.466118 0.849692 0.604766
O O8 0.472729 0.762450 0.685002
O O9 0.750000 0.946202 0.790665
O O10 0.473437 0.935848 0.685964
O O11 0.472490 0.000000 0.818458
O O12 0.500000 0.074744 0.500000
O O13 0.750000 0.097090 0.608515
O O14 0.250000 0.753612 0.209824
O O15 0.968029 0.705049 0.163852
O O16 0.250000 0.658060 0.116276
O O17 0.966678 0.605636 0.137165
O O18 0.000000 0.665758 0.000000
O O19 0.250000 0.447610 0.120587
O O20 0.966630 0.500000 0.142393
O O21 0.000000 0.447708 0.000000
#
# Coordination Sequence:
#
# PCOD9401054 Si02
#       7
#     8   8   8   8   8   8   8
#     4  10  19  32  47  62  80 105 136 167 197 231
#     4   9  16  28  45  63  81 103 129 158 194 238
#     4   9  17  30  47  63  80 106 136 160 190 239
#     4   9  16  28  46  65  83 103 127 156 193 238
#     4   9  16  28  45  61  81 108 135 161 196 241
#     4   9  16  25  38  57  81 110 140 168 197 231
#     4   8  13  21  33  50  74 104 136 167 197 228
#
# _framework density 18.461088
#
# number of rings (size 3 to 8) (size 9 to 14) (size 15 to 20)
#    0.000    3.000    1.429    0.429    0.000    0.571 
#    0.000    2.143    0.000    0.857    0.000    0.000 
#    0.000    0.571    0.000    0.429    0.000    1.143 
#
# Total GULP energy -312126.840333 kJ/mol
# GULP energy per Si atom -5573.693577 kJ/mol
# Density = 1.841907 g / cm^3
# Si number density = 18.461088 Si / 1000 Ang^3
#
#
#
# Elastic Constant Matrix: (Units=GPa)
#
#
# Indices 1 2 3 4 5 6 
#
# 1 54.5076 8.5132 -2.7003 0.0000 0.0000 0.0000
# 2 8.5132 183.3416 82.5584 0.0000 0.0000 0.0000
# 3 -2.7003 82.5584 112.0047 0.0000 0.0000 0.0000
# 4 0.0000 0.0000 0.0000 7.7631 0.0000 0.0000
# 5 0.0000 0.0000 0.0000 0.0000 16.5209 0.0000
# 6 0.0000 0.0000 0.0000 0.0000 0.0000 1.1527
#
#
#
# Elastic Compliance Matrix: (Units=1/GPa)
#
#
# Indices 1 2 3 4 5 6 
#
# 1 0.018677 -0.001602 0.001631 0.000000 0.000000 0.000000
# 2 -0.001602 0.008301 -0.006158 0.000000 0.000000 0.000000
# 3 0.001631 -0.006158 0.013506 0.000000 0.000000 0.000000
# 4 0.000000 0.000000 0.000000 0.128814 0.000000 0.000000
# 5 0.000000 0.000000 0.000000 0.000000 0.060529 0.000000
# 6 0.000000 0.000000 0.000000 0.000000 0.000000 0.867562
#
#
# Mechanical properties :
#
#
# Convention : Reuss Voigt Hill
#
# Bulk Modulus (GPa) = 35.42585 58.51073 46.96829
# Shear Modulus (GPa) = 4.46805 22.51951 13.49378
#
# Velocity S-wave (km/s) = 1.55740 3.49640 2.70651
# Velocity P-wave (km/s) = 4.73974 6.93273 5.93834
#
# Compressibility (1/GPa) = 0.02822798
#
# Stress axis : x y z
#
# Youngs Moduli (GPa) = 53.54177 120.46150 74.03985
#
# Poissons Ratio (x) = 0.19293 -0.12075
# Poissons Ratio (y) = 0.08575 0.45591
# Poissons Ratio (z) = -0.08732 0.74175
#
# Static dielectric constant tensor:
#      x y z
#    x 1.703210 0.000000 0.000000 
#    y 0.000000 1.671420 0.000000 
#    z 0.000000 0.000000 1.579520 
# 
# From -- ./inp_files/15667.got.cif
#   From: 2010.05.17/outbox.cif.g08.bks.cpg/sg51_8_cif.got.tgz:15667.got - 2010.06.03 11:52:47.
