data_PCOD9401176
_publ_section_title
;
Structure prediction by ZEFSAII (Michael W. Deem and Ramdas Pophale) SiO2 
 PCOD9401176
Probable space group: P M M A
;
_chemical_formula_sum "Si O2"
_cell_formula_units_Z 56
_cell_length_a 19.263495
_cell_length_b 14.378093
_cell_length_c 12.602347
_cell_angle_alpha 90.000000
_cell_angle_beta 90.000000
_cell_angle_gamma 90.000000
_cell_volume 3490.501319
_symmetry_space_group_name_H-M "P M M A"
_symmetry_group_IT_number 51
_symmetry_cell_setting 'orthorhombic'
loop_
_space_group_symop_operation_xyz
x,y,z
1/2-x,-y,z
1/2+x,-y,-z
-x,y,-z
-x,-y,-z
1/2+x,y,-z
1/2-x,y,z
x,-y,z
loop_
_atom_site_type_symbol
_atom_site_label
_atom_site_fract_x
_atom_site_fract_y
_atom_site_fract_z
Si Si1 0.425287 0.272412 0.051561
Si Si2 0.450723 0.391727 0.263736
Si Si3 0.918859 0.276738 0.529777
Si Si4 0.670368 0.610273 0.104759
Si Si5 0.830751 0.108082 0.866652
Si Si6 0.112932 0.607187 0.671934
Si Si7 0.168939 0.107301 0.388667
O O1 0.434551 0.333347 0.158443
O O2 0.383080 0.179362 0.079475
O O3 0.500000 0.252768 0.000000
O O4 0.380942 0.332327 0.968450
O O5 0.430041 0.500000 0.253352
O O6 0.416958 0.342766 0.366394
O O7 0.533474 0.390050 0.285726
O O8 0.883682 0.328256 0.430449
O O9 0.880950 0.180904 0.556392
O O10 0.000000 0.262963 0.500000
O O11 0.750000 0.625145 0.073195
O O12 0.654643 0.500000 0.096454
O O13 0.659626 0.635137 0.228276
O O14 0.750000 0.129406 0.892394
O O15 0.837882 0.115903 0.738985
O O16 0.843559 0.000000 0.894589
O O17 0.128235 0.500000 0.643047
O O18 0.250000 0.125150 0.414114
O O19 0.153412 0.000000 0.416417
#
# Coordination Sequence:
#
# PCOD9401176 Si02
#       7
#     8   8   8   8   8   8   8
#     4  12  21  32  56  81 107 135 176 220 266 310
#     4  10  19  32  50  77 108 137 171 218 263 305
#     4  10  19  32  54  79 105 132 175 219 263 304
#     4  10  21  35  50  73 107 146 183 213 250 312
#     4   9  19  37  58  77 102 136 171 213 267 320
#     4   9  18  33  51  72 103 143 179 208 251 311
#     4   9  18  34  55  76 100 132 170 213 265 322
#
# _framework density 16.043541000000001
#
# number of rings (size 3 to 8) (size 9 to 14) (size 15 to 20)
#    0.000    2.143    2.857    2.143    0.000    3.429 
#    0.000    0.000    0.000    3.000    0.000    2.000 
#    0.000    0.000    0.000    0.000    0.000    0.000 
#
# Total GULP energy -312342.798059 kJ/mol
# GULP energy per Si atom -5577.549965 kJ/mol
# Density = 1.600702 g / cm^3
# Si number density = 16.043541 Si / 1000 Ang^3
#
#
#
# Elastic Constant Matrix: (Units=GPa)
#
#
# Indices 1 2 3 4 5 6 
#
# 1 76.3495 74.4614 54.5875 0.0000 0.0000 0.0000
# 2 74.4614 123.1622 71.3027 0.0000 0.0000 0.0000
# 3 54.5875 71.3027 96.3429 0.0000 0.0000 0.0000
# 4 0.0000 0.0000 0.0000 28.8071 0.0000 0.0000
# 5 0.0000 0.0000 0.0000 0.0000 11.5661 0.0000
# 6 0.0000 0.0000 0.0000 0.0000 0.0000 25.0272
#
#
#
# Elastic Compliance Matrix: (Units=1/GPa)
#
#
# Indices 1 2 3 4 5 6 
#
# 1 0.034556 -0.016721 -0.007204 0.000000 0.000000 0.000000
# 2 -0.016721 0.022297 -0.007028 0.000000 0.000000 0.000000
# 3 -0.007204 -0.007028 0.019663 0.000000 0.000000 0.000000
# 4 0.000000 0.000000 0.000000 0.034714 0.000000 0.000000
# 5 0.000000 0.000000 0.000000 0.000000 0.086460 0.000000
# 6 0.000000 0.000000 0.000000 0.000000 0.000000 0.039957
#
#
# Mechanical properties :
#
#
# Convention : Reuss Voigt Hill
#
# Bulk Modulus (GPa) = 68.44775 77.39531 72.92153
# Shear Modulus (GPa) = 16.42454 19.44695 17.93575
#
# Velocity S-wave (km/s) = 3.20308 3.48535 3.34719
# Velocity P-wave (km/s) = 7.51239 8.03383 7.77748
#
# Compressibility (1/GPa) = 0.01460968
#
# Stress axis : x y z
#
# Youngs Moduli (GPa) = 28.93847 44.84817 50.85770
#
# Poissons Ratio (x) = 0.74992 0.36638
# Poissons Ratio (y) = 0.48389 0.35743
# Poissons Ratio (z) = 0.20847 0.31519
#
# Static dielectric constant tensor:
#      x y z
#    x 1.531780 0.000000 0.000000 
#    y 0.000000 1.515070 0.000000 
#    z 0.000000 0.000000 1.523900 
# 
# From -- ./inp_files/18209.got.cif
#   From: 2010.05.17/outbox.cif.g08.bks.cpg/sg51_10_cif.got.tgz:18209.got - 2010.06.03 11:52:47.
