data_PCOD9401152
_publ_section_title
;
Structure prediction by ZEFSAII (Michael W. Deem and Ramdas Pophale) SiO2 
 PCOD9401152
Probable space group: P M M A
;
_chemical_formula_sum "Si O2"
_cell_formula_units_Z 64
_cell_length_a 23.160414
_cell_length_b 8.892479
_cell_length_c 18.015217
_cell_angle_alpha 90.000000
_cell_angle_beta 90.000000
_cell_angle_gamma 90.000000
_cell_volume 3710.296907
_symmetry_space_group_name_H-M "P M M A"
_symmetry_group_IT_number 51
_symmetry_cell_setting 'orthorhombic'
loop_
_space_group_symop_operation_xyz
x,y,z
1/2-x,-y,z
1/2+x,-y,-z
-x,y,-z
-x,-y,-z
1/2+x,y,-z
1/2-x,y,z
x,-y,z
loop_
_atom_site_type_symbol
_atom_site_label
_atom_site_fract_x
_atom_site_fract_y
_atom_site_fract_z
Si Si1 0.912037 0.818997 0.822761
Si Si2 0.950231 0.181172 0.662086
Si Si3 0.976216 0.177810 0.083088
Si Si4 0.084919 0.180051 0.645524
Si Si5 0.684690 0.681547 0.927630
Si Si6 0.430383 0.327715 0.490804
Si Si7 0.352303 0.319781 0.908690
Si Si8 0.314693 0.682024 0.746682
O O1 0.917288 0.774308 0.736978
O O2 0.972829 0.779721 0.861255
O O3 0.861215 0.747052 0.870357
O O4 0.906578 0.000000 0.826578
O O5 0.922021 0.252086 0.589015
O O6 0.018587 0.223416 0.666917
O O7 0.949138 0.000000 0.655596
O O8 0.918602 0.270450 0.095460
O O9 0.963556 0.000000 0.092383
O O10 0.000000 0.200033 0.000000
O O11 0.093549 0.237622 0.561280
O O12 0.133278 0.249816 0.698824
O O13 0.088216 0.000000 0.648582
O O14 0.750000 0.723081 0.907675
O O15 0.680244 0.500000 0.927329
O O16 0.671983 0.734478 0.012101
O O17 0.500000 0.327669 0.500000
O O18 0.410375 0.500000 0.492308
O O19 0.347545 0.500000 0.910188
O O20 0.321715 0.270022 0.832882
O O21 0.250000 0.723724 0.720895
O O22 0.319034 0.500000 0.743943
#
# Coordination Sequence:
#
# PCOD9401152 Si02
#       8
#     8   8   8   8   8   8   8   8
#     4  10  20  34  51  74 103 136 170 208 255 304
#     4   9  18  32  51  77 108 137 167 207 259 312
#     4  10  19  32  50  73 104 135 166 209 260 309
#     4  10  19  33  54  78 106 138 170 205 253 310
#     4  10  21  36  52  70  95 130 173 218 259 299
#     4   9  17  30  51  79 108 134 163 199 244 300
#     4  10  20  34  53  74  99 133 175 217 258 307
#     4  10  21  36  52  72 102 140 179 219 261 304
#
# _framework density 17.249293000000002
#
# number of rings (size 3 to 8) (size 9 to 14) (size 15 to 20)
#    0.000    2.250    1.250    1.875    0.000    6.750 
#    0.000    0.000    0.000    3.000    0.000    3.500 
#    0.000    0.000    0.000    0.000    0.000    0.000 
#
# Total GULP energy -356994.814151 kJ/mol
# GULP energy per Si atom -5578.043971 kJ/mol
# Density = 1.721003 g / cm^3
# Si number density = 17.249293 Si / 1000 Ang^3
#
#
#
# Elastic Constant Matrix: (Units=GPa)
#
#
# Indices 1 2 3 4 5 6 
#
# 1 72.4359 18.8888 45.8818 0.0000 0.0000 0.0000
# 2 18.8888 19.5236 31.5554 0.0000 0.0000 0.0000
# 3 45.8818 31.5554 131.7197 0.0000 0.0000 0.0000
# 4 0.0000 0.0000 0.0000 26.9564 0.0000 0.0000
# 5 0.0000 0.0000 0.0000 0.0000 7.9649 0.0000
# 6 0.0000 0.0000 0.0000 0.0000 0.0000 74.2063
#
#
#
# Elastic Compliance Matrix: (Units=1/GPa)
#
#
# Indices 1 2 3 4 5 6 
#
# 1 0.019516 -0.012882 -0.003712 0.000000 0.000000 0.000000
# 2 -0.012882 0.092086 -0.017574 0.000000 0.000000 0.000000
# 3 -0.003712 -0.017574 0.013095 0.000000 0.000000 0.000000
# 4 0.000000 0.000000 0.000000 0.037097 0.000000 0.000000
# 5 0.000000 0.000000 0.000000 0.000000 0.125551 0.000000
# 6 0.000000 0.000000 0.000000 0.000000 0.000000 0.013476
#
#
# Mechanical properties :
#
#
# Convention : Reuss Voigt Hill
#
# Bulk Modulus (GPa) = 17.74228 46.25904 32.00066
# Shear Modulus (GPa) = 12.88851 30.31573 21.60212
#
# Velocity S-wave (km/s) = 2.73644 4.19681 3.54269
# Velocity P-wave (km/s) = 4.50470 7.09651 5.94360
#
# Compressibility (1/GPa) = 0.05636253
#
# Stress axis : x y z
#
# Youngs Moduli (GPa) = 51.24116 10.85937 76.36610
#
# Poissons Ratio (x) = 0.13989 0.28346
# Poissons Ratio (y) = 0.66007 1.34202
# Poissons Ratio (z) = 0.19020 0.19084
#
# Static dielectric constant tensor:
#      x y z
#    x 1.553570 0.000000 0.000000 
#    y 0.000000 1.586280 0.000000 
#    z 0.000000 0.000000 1.590900 
# 
# From -- ./inp_files/30529.got.cif
#   From: 2010.05.17/outbox.cif.g08.bks.cpg/sg51_16_cif.got.tgz:30529.got - 2010.06.03 11:52:47.
