data_PCOD9401050
_publ_section_title
;
Structure prediction by ZEFSAII (Michael W. Deem and Ramdas Pophale) SiO2 
 PCOD9401050
Probable space group: P M M A
;
_chemical_formula_sum "Si O2"
_cell_formula_units_Z 40
_cell_length_a 8.989761
_cell_length_b 16.117096
_cell_length_c 20.173102
_cell_angle_alpha 90.000000
_cell_angle_beta 90.000000
_cell_angle_gamma 90.000000
_cell_volume 2922.857369
_symmetry_space_group_name_H-M "P M M A"
_symmetry_group_IT_number 51
_symmetry_cell_setting 'orthorhombic'
loop_
_space_group_symop_operation_xyz
x,y,z
1/2-x,-y,z
1/2+x,-y,-z
-x,y,-z
-x,-y,-z
1/2+x,y,-z
1/2-x,y,z
x,-y,z
loop_
_atom_site_type_symbol
_atom_site_label
_atom_site_fract_x
_atom_site_fract_y
_atom_site_fract_z
Si Si1 0.929934 0.346550 0.151516
Si Si2 0.071048 0.000000 0.927086
Si Si3 0.429116 0.181556 0.927035
Si Si4 0.422124 0.600917 0.432436
Si Si5 0.571271 0.500000 0.927016
Si Si6 0.927872 0.402561 0.296244
O O1 0.750000 0.358348 0.145759
O O2 0.969893 0.258209 0.119692
O O3 0.967936 0.354767 0.229127
O O4 0.011501 0.419389 0.111756
O O5 0.028860 0.090283 0.898652
O O6 0.250000 0.000000 0.932057
O O7 0.000000 0.000000 0.000000
O O8 0.250000 0.183378 0.934577
O O9 0.500000 0.191097 0.000000
O O10 0.500000 0.629756 0.500000
O O11 0.250000 0.623556 0.433290
O O12 0.432349 0.500000 0.432447
O O13 0.497552 0.627895 0.363887
O O14 0.750000 0.500000 0.930736
O O15 0.500000 0.500000 0.000000
O O16 0.750000 0.398995 0.304517
O O17 0.967493 0.500000 0.286301
#
# Coordination Sequence:
#
# PCOD9401050 Si02
#       6
#     8   4   8   8   4   8
#     4  10  19  32  45  59  79 107 138 170 205 243
#     4   8  14  26  42  62  80  98 123 160 205 250
#     4   9  17  28  44  61  80 102 131 167 207 248
#     4   9  16  25  38  56  76  98 129 164 196 230
#     4  12  24  34  44  56  75 104 139 178 210 240
#     4   9  16  27  41  54  74 103 132 163 198 233
#
# _framework density 13.685237000000001
#
# number of rings (size 3 to 8) (size 9 to 14) (size 15 to 20)
#    0.000    2.600    1.000    2.100    0.000    5.600 
#    0.000    0.000    0.000    0.000    0.000    0.000 
#    0.000    0.000    0.000    0.900    0.000    6.400 
#
# Total GULP energy -222733.149234 kJ/mol
# GULP energy per Si atom -5568.328731 kJ/mol
# Density = 1.365409 g / cm^3
# Si number density = 13.685237 Si / 1000 Ang^3
#
#
#
# Elastic Constant Matrix: (Units=GPa)
#
#
# Indices 1 2 3 4 5 6 
#
# 1 33.2523 31.4739 46.4311 0.0000 0.0000 0.0000
# 2 31.4739 101.3103 58.9936 0.0000 0.0000 0.0000
# 3 46.4311 58.9936 130.5069 0.0000 0.0000 0.0000
# 4 0.0000 0.0000 0.0000 3.9424 0.0000 0.0000
# 5 0.0000 0.0000 0.0000 0.0000 22.7114 0.0000
# 6 0.0000 0.0000 0.0000 0.0000 0.0000 6.9594
#
#
#
# Elastic Compliance Matrix: (Units=1/GPa)
#
#
# Indices 1 2 3 4 5 6 
#
# 1 0.065529 -0.009205 -0.019153 0.000000 0.000000 0.000000
# 2 -0.009205 0.014690 -0.003365 0.000000 0.000000 0.000000
# 3 -0.019153 -0.003365 0.015998 0.000000 0.000000 0.000000
# 4 0.000000 0.000000 0.000000 0.253653 0.000000 0.000000
# 5 0.000000 0.000000 0.000000 0.000000 0.044031 0.000000
# 6 0.000000 0.000000 0.000000 0.000000 0.000000 0.143690
#
#
# Mechanical properties :
#
#
# Convention : Reuss Voigt Hill
#
# Bulk Modulus (GPa) = 30.51509 59.87407 45.19458
# Shear Modulus (GPa) = 8.17044 15.26736 11.71890
#
# Velocity S-wave (km/s) = 2.44606 3.34369 2.92946
# Velocity P-wave (km/s) = 5.50671 7.66504 6.67371
#
# Compressibility (1/GPa) = 0.03277067
#
# Stress axis : x y z
#
# Youngs Moduli (GPa) = 15.26032 68.07268 62.50865
#
# Poissons Ratio (x) = 0.62662 1.19721
# Poissons Ratio (y) = 0.14047 0.21037
# Poissons Ratio (z) = 0.29228 0.22910
#
# Static dielectric constant tensor:
#      x y z
#    x 1.457060 0.000000 0.000000 
#    y 0.000000 1.455910 0.000000 
#    z 0.000000 0.000000 1.433150 
# 
# From -- ./inp_files/27777.got.cif
#   From: 2010.05.17/outbox.cif.g08.bks.cpg/sg51_14_cif.got.tgz:27777.got - 2010.06.03 11:52:47.
