data_PCOD9401569
_publ_section_title
;
Structure prediction by ZEFSAII (Michael W. Deem and Ramdas Pophale) SiO2 
 PCOD9401569
Probable space group: P M M A
;
_chemical_formula_sum "Si O2"
_cell_formula_units_Z 48
_cell_length_a 8.889396
_cell_length_b 18.306930
_cell_length_c 16.246545
_cell_angle_alpha 90.000000
_cell_angle_beta 90.000000
_cell_angle_gamma 90.000000
_cell_volume 2643.922934
_symmetry_space_group_name_H-M "P M M A"
_symmetry_group_IT_number 51
_symmetry_cell_setting 'orthorhombic'
loop_
_space_group_symop_operation_xyz
x,y,z
1/2-x,-y,z
1/2+x,-y,-z
-x,y,-z
-x,-y,-z
1/2+x,y,-z
1/2-x,y,z
x,-y,z
loop_
_atom_site_type_symbol
_atom_site_label
_atom_site_fract_x
_atom_site_fract_y
_atom_site_fract_z
Si Si1 0.423241 0.410901 0.916586
Si Si2 0.924145 0.089103 0.914465
Si Si3 0.078051 0.912029 0.744542
Si Si4 0.431542 0.684223 0.584423
Si Si5 0.429705 0.154065 0.415088
Si Si6 0.066524 0.416032 0.737684
O O1 0.250000 0.388717 0.919834
O O2 0.427698 0.500000 0.916197
O O3 0.487811 0.389514 0.827514
O O4 0.500000 0.385316 0.000000
O O5 0.750000 0.110881 0.911655
O O6 0.009669 0.113269 0.831817
O O7 0.928503 0.000000 0.914610
O O8 0.000000 0.113037 0.000000
O O9 0.250000 0.885866 0.735199
O O10 0.981034 0.888155 0.666330
O O11 0.080367 0.000000 0.747040
O O12 0.500000 0.652964 0.500000
O O13 0.250000 0.688881 0.578977
O O14 0.501726 0.764640 0.593009
O O15 0.474486 0.635334 0.662437
O O16 0.500000 0.122990 0.500000
O O17 0.250000 0.156571 0.422196
O O18 0.250000 0.416912 0.742002
O O19 0.018805 0.500000 0.724791
#
# Coordination Sequence:
#
# PCOD9401569 Si02
#       6
#     8   8   8   8   8   8
#     4   8  13  23  40  63  91 122 155 189 228 276
#     4   9  16  27  45  71 103 137 170 203 242 289
#     4  10  20  34  53  78 105 131 163 205 251 296
#     4  10  19  33  52  71  94 126 164 201 241 291
#     4  11  22  37  55  73  97 129 166 204 246 299
#     4   8  15  28  47  71  98 128 160 195 239 290
#
# _framework density 18.154841000000001
#
# number of rings (size 3 to 8) (size 9 to 14) (size 15 to 20)
#    0.000    2.667    0.000    5.000    0.000    3.667 
#    0.000    1.667    0.000    4.500    0.000    4.667 
#    0.000    0.000    0.000    0.000    0.000    0.000 
#
# Total GULP energy -267519.731712 kJ/mol
# GULP energy per Si atom -5573.327744 kJ/mol
# Density = 1.811352 g / cm^3
# Si number density = 18.154841 Si / 1000 Ang^3
#
#
#
# Elastic Constant Matrix: (Units=GPa)
#
#
# Indices 1 2 3 4 5 6 
#
# 1 106.8549 14.6500 67.5633 0.0000 0.0000 0.0000
# 2 14.6500 9.2402 29.3823 0.0000 0.0000 0.0000
# 3 67.5633 29.3823 185.8960 0.0000 0.0000 0.0000
# 4 0.0000 0.0000 0.0000 -55.0849 0.0000 0.0000
# 5 0.0000 0.0000 0.0000 0.0000 33.8437 0.0000
# 6 0.0000 0.0000 0.0000 0.0000 0.0000 13.8919
#
#
#
# Elastic Compliance Matrix: (Units=1/GPa)
#
#
# Indices 1 2 3 4 5 6 
#
# 1 0.012679 -0.010955 -0.002877 0.000000 0.000000 0.000000
# 2 -0.010955 0.227042 -0.031904 0.000000 0.000000 0.000000
# 3 -0.002877 -0.031904 0.011468 0.000000 0.000000 0.000000
# 4 0.000000 0.000000 0.000000 -0.018154 0.000000 0.000000
# 5 0.000000 0.000000 0.000000 0.000000 0.029548 0.000000
# 6 0.000000 0.000000 0.000000 0.000000 0.000000 0.071985
#
#
# Mechanical properties :
#
#
# Convention : Reuss Voigt Hill
#
# Bulk Modulus (GPa) = 6.26107 58.35359 32.30733
# Shear Modulus (GPa) = 10.43234 11.22318 10.82776
#
# Velocity S-wave (km/s) = 2.39975 2.48904 2.44480
# Velocity P-wave (km/s) = 3.33685 6.36179 5.07971
#
# Compressibility (1/GPa) = 0.15971702
#
# Stress axis : x y z
#
# Youngs Moduli (GPa) = 78.86805 4.40447 87.20249
#
# Poissons Ratio (x) = 0.04825 0.25086
# Poissons Ratio (y) = 0.86403 2.78211
# Poissons Ratio (z) = 0.22688 0.14052
#
# Static dielectric constant tensor:
#      x y z
#    x 1.620990 0.000000 0.000000 
#    y 0.000000 1.613490 0.000000 
#    z 0.000000 0.000000 1.646080 
# 
# From -- ./inp_files/21406.got.cif
#   From: 2010.05.17/outbox.cif.g08.bks.cpg/sg51_11_cif.got.tgz:21406.got - 2010.06.03 11:52:47.
