data_PCOD9401324
_publ_section_title
;
Structure prediction by ZEFSAII (Michael W. Deem and Ramdas Pophale) SiO2 
 PCOD9401324
Probable space group: P M M A
;
_chemical_formula_sum "Si O2"
_cell_formula_units_Z 32
_cell_length_a 8.384157
_cell_length_b 21.670666
_cell_length_c 9.559759
_cell_angle_alpha 90.000000
_cell_angle_beta 90.000000
_cell_angle_gamma 90.000000
_cell_volume 1736.915156
_symmetry_space_group_name_H-M "P M M A"
_symmetry_group_IT_number 51
_symmetry_cell_setting 'orthorhombic'
loop_
_space_group_symop_operation_xyz
x,y,z
1/2-x,-y,z
1/2+x,-y,-z
-x,y,-z
-x,-y,-z
1/2+x,y,-z
1/2-x,y,z
x,-y,z
loop_
_atom_site_type_symbol
_atom_site_label
_atom_site_fract_x
_atom_site_fract_y
_atom_site_fract_z
Si Si1 0.059207 0.184133 0.341966
Si Si2 0.442627 0.566196 0.839046
Si Si3 0.057248 0.930117 0.156993
Si Si4 0.058400 0.701367 0.839734
O O1 0.250000 0.182595 0.342169
O O2 0.000546 0.122177 0.263500
O O3 0.000000 0.186864 0.500000
O O4 0.004715 0.243483 0.254464
O O5 0.250000 0.566112 0.837070
O O6 0.496527 0.500000 0.776733
O O7 0.494427 0.633324 0.784436
O O8 0.500000 0.565859 0.000000
O O9 0.250000 0.929791 0.156742
O O10 0.004342 0.000000 0.191873
O O11 0.000000 0.916003 0.000000
O O12 0.250000 0.703071 0.840636
O O13 0.000000 0.707963 0.000000
#
# Coordination Sequence:
#
# PCOD9401324 Si02
#       4
#     8   8   8   8
#     4  11  23  37  53  74 103 137 173 213 256 303
#     4   8  14  25  43  69  99 129 162 203 250 297
#     4   9  19  36  57  80 104 131 165 205 249 298
#     4  10  19  32  52  77 105 136 171 211 254 302
#
# _framework density 18.423469000000001
#
# number of rings (size 3 to 8) (size 9 to 14) (size 15 to 20)
#    0.000    2.500    0.000    2.250    0.000    5.500 
#    0.000    0.000    0.000    0.750    0.000    0.000 
#    0.000    0.000    0.000    0.000    0.000    0.000 
#
# Total GULP energy -178337.395260 kJ/mol
# GULP energy per Si atom -5573.043602 kJ/mol
# Density = 1.838154 g / cm^3
# Si number density = 18.423469 Si / 1000 Ang^3
#
#
#
# Elastic Constant Matrix: (Units=GPa)
#
#
# Indices 1 2 3 4 5 6 
#
# 1 25.3170 31.1793 17.8507 0.0000 0.0000 0.0000
# 2 31.1793 205.3779 108.1464 0.0000 0.0000 0.0000
# 3 17.8507 108.1464 95.5363 0.0000 0.0000 0.0000
# 4 0.0000 0.0000 0.0000 -3.0366 0.0000 0.0000
# 5 0.0000 0.0000 0.0000 0.0000 25.8423 0.0000
# 6 0.0000 0.0000 0.0000 0.0000 0.0000 21.2639
#
#
#
# Elastic Compliance Matrix: (Units=1/GPa)
#
#
# Indices 1 2 3 4 5 6 
#
# 1 0.048708 -0.006442 -0.001808 0.000000 0.000000 0.000000
# 2 -0.006442 0.012907 -0.013406 0.000000 0.000000 0.000000
# 3 -0.001808 -0.013406 0.025981 0.000000 0.000000 0.000000
# 4 0.000000 0.000000 0.000000 -0.329318 0.000000 0.000000
# 5 0.000000 0.000000 0.000000 0.000000 0.038696 0.000000
# 6 0.000000 0.000000 0.000000 0.000000 0.000000 0.047028
#
#
# Mechanical properties :
#
#
# Convention : Reuss Voigt Hill
#
# Bulk Modulus (GPa) = 22.58261 71.17601 46.87931
# Shear Modulus (GPa) = -51.06048 20.08424 -15.48812
#
# Velocity S-wave (km/s) = -5.27021 3.30532 -2.90258
# Velocity P-wave (km/s) = 4.97487 7.29959 3.77722
#
# Compressibility (1/GPa) = 0.04428186
#
# Stress axis : x y z
#
# Youngs Moduli (GPa) = 20.53034 77.47995 38.48965
#
# Poissons Ratio (x) = 0.49916 0.06960
# Poissons Ratio (y) = 0.13227 0.51601
# Poissons Ratio (z) = 0.03712 1.03873
#
# Static dielectric constant tensor:
#      x y z
#    x 1.640640 0.000000 0.000000 
#    y 0.000000 1.703590 0.000000 
#    z 0.000000 0.000000 1.570810 
# 
# From -- ./inp_files/4835.got.cif
#   From: 2010.05.17/outbox.cif.g08.bks.cpg/sg51_3_cif.got.tgz:4835.got - 2010.06.03 11:52:47.
