data_PCOD9401192
_publ_section_title
;
Structure prediction by ZEFSAII (Michael W. Deem and Ramdas Pophale) SiO2 
 PCOD9401192
Probable space group: P M M A
;
_chemical_formula_sum "Si O2"
_cell_formula_units_Z 64
_cell_length_a 21.928913
_cell_length_b 9.128488
_cell_length_c 19.465095
_cell_angle_alpha 90.000000
_cell_angle_beta 90.000000
_cell_angle_gamma 90.000000
_cell_volume 3896.480267
_symmetry_space_group_name_H-M "P M M A"
_symmetry_group_IT_number 51
_symmetry_cell_setting 'orthorhombic'
loop_
_space_group_symop_operation_xyz
x,y,z
1/2-x,-y,z
1/2+x,-y,-z
-x,y,-z
-x,-y,-z
1/2+x,y,-z
1/2-x,y,z
x,-y,z
loop_
_atom_site_type_symbol
_atom_site_label
_atom_site_fract_x
_atom_site_fract_y
_atom_site_fract_z
Si Si1 0.493384 0.324065 0.170411
Si Si2 0.486579 0.827841 0.317275
Si Si3 0.108412 0.826859 0.905699
Si Si4 0.629980 0.171071 0.330287
Si Si5 0.180451 0.675447 0.536178
Si Si6 0.941669 0.676044 0.548573
Si Si7 0.179144 0.333226 0.801537
Si Si8 0.931778 0.334343 0.967179
O O1 0.501857 0.500000 0.174858
O O2 0.480388 0.255205 0.244560
O O3 0.553196 0.248416 0.137401
O O4 0.441190 0.297979 0.112724
O O5 0.557409 0.815912 0.340376
O O6 0.448632 0.755267 0.378562
O O7 0.472832 0.000000 0.308701
O O8 0.167339 0.760927 0.869252
O O9 0.103956 0.000000 0.898893
O O10 0.103790 0.776793 0.984473
O O11 0.666355 0.241365 0.393141
O O12 0.645114 0.257836 0.261346
O O13 0.645192 0.000000 0.322353
O O14 0.250000 0.708515 0.512667
O O15 0.177445 0.500000 0.548204
O O16 0.123533 0.711626 0.486328
O O17 0.944553 0.500000 0.557834
O O18 0.000000 0.715739 0.500000
O O19 0.250000 0.335814 0.784262
O O20 0.157903 0.500000 0.811806
O O21 0.907644 0.500000 0.974102
O O22 0.000000 0.336470 0.000000
#
# Coordination Sequence:
#
# PCOD9401192 Si02
#       8
#     8   8   8   8   8   8   8   8
#     4  10  19  32  51  72  99 133 169 206 247 301
#     4  11  22  33  50  77 107 138 171 212 264 313
#     4  11  20  30  47  71  99 132 166 208 258 303
#     4  11  22  34  50  74 104 137 172 214 262 311
#     4  10  21  37  56  77 101 133 176 221 262 309
#     4  10  20  35  55  76 100 135 175 214 260 316
#     4  11  23  36  50  68  95 137 183 221 255 300
#     4   8  16  30  47  69  95 127 163 199 240 290
#
# _framework density 16.425079
#
# number of rings (size 3 to 8) (size 9 to 14) (size 15 to 20)
#    0.000    1.750    2.500    3.750    0.000    7.250 
#    0.000    0.000    0.000    0.000    0.000    0.875 
#    0.000    3.000    0.000    0.000    0.000    0.000 
#
# Total GULP energy -356973.918506 kJ/mol
# GULP energy per Si atom -5577.717477 kJ/mol
# Density = 1.638769 g / cm^3
# Si number density = 16.425079 Si / 1000 Ang^3
#
#
#
# Elastic Constant Matrix: (Units=GPa)
#
#
# Indices 1 2 3 4 5 6 
#
# 1 60.0829 38.9430 36.7110 0.0000 0.0000 0.0000
# 2 38.9430 86.7550 53.3138 0.0000 0.0000 0.0000
# 3 36.7110 53.3138 103.0651 0.0000 0.0000 0.0000
# 4 0.0000 0.0000 0.0000 84.4128 0.0000 0.0000
# 5 0.0000 0.0000 0.0000 0.0000 18.9730 0.0000
# 6 0.0000 0.0000 0.0000 0.0000 0.0000 9.9587
#
#
#
# Elastic Compliance Matrix: (Units=1/GPa)
#
#
# Indices 1 2 3 4 5 6 
#
# 1 0.024827 -0.008371 -0.004513 0.000000 0.000000 0.000000
# 2 -0.008371 0.019721 -0.007220 0.000000 0.000000 0.000000
# 3 -0.004513 -0.007220 0.015045 0.000000 0.000000 0.000000
# 4 0.000000 0.000000 0.000000 0.011847 0.000000 0.000000
# 5 0.000000 0.000000 0.000000 0.000000 0.052707 0.000000
# 6 0.000000 0.000000 0.000000 0.000000 0.000000 0.100415
#
#
# Mechanical properties :
#
#
# Convention : Reuss Voigt Hill
#
# Bulk Modulus (GPa) = 51.58547 56.42652 54.00600
# Shear Modulus (GPa) = 18.43459 30.73124 24.58291
#
# Velocity S-wave (km/s) = 3.35377 4.33019 3.87288
# Velocity P-wave (km/s) = 6.81702 7.70903 7.27671
#
# Compressibility (1/GPa) = 0.01938530
#
# Stress axis : x y z
#
# Youngs Moduli (GPa) = 40.27901 50.70721 66.46861
#
# Poissons Ratio (x) = 0.42447 0.29997
# Poissons Ratio (y) = 0.33718 0.47988
# Poissons Ratio (z) = 0.18178 0.36609
#
# Static dielectric constant tensor:
#      x y z
#    x 1.563660 0.000000 0.000000 
#    y 0.000000 1.549260 0.000000 
#    z 0.000000 0.000000 1.551260 
# 
# From -- ./inp_files/30866.got.cif
#   From: 2010.05.17/outbox.cif.g08.bks.cpg/sg51_16_cif.got.tgz:30866.got - 2010.06.03 11:52:47.
