data_PCOD9401523
_publ_section_title
;
Structure prediction by ZEFSAII (Michael W. Deem and Ramdas Pophale) SiO2 
 PCOD9401523
Probable space group: P M M A
;
_chemical_formula_sum "Si O2"
_cell_formula_units_Z 64
_cell_length_a 7.838286
_cell_length_b 32.346936
_cell_length_c 14.879157
_cell_angle_alpha 90.000000
_cell_angle_beta 90.000000
_cell_angle_gamma 90.000000
_cell_volume 3772.528952
_symmetry_space_group_name_H-M "P M M A"
_symmetry_group_IT_number 51
_symmetry_cell_setting 'orthorhombic'
loop_
_space_group_symop_operation_xyz
x,y,z
1/2-x,-y,z
1/2+x,-y,-z
-x,y,-z
-x,-y,-z
1/2+x,y,-z
1/2-x,y,z
x,-y,z
loop_
_atom_site_type_symbol
_atom_site_label
_atom_site_fract_x
_atom_site_fract_y
_atom_site_fract_z
Si Si1 0.456149 0.865328 0.605267
Si Si2 0.955495 0.044419 0.394104
Si Si3 0.955969 0.453328 0.396955
Si Si4 0.548257 0.377390 0.281897
Si Si5 0.455496 0.214477 0.711604
Si Si6 0.544804 0.245321 0.098876
Si Si7 0.548238 0.297647 0.604736
Si Si8 0.044491 0.659593 0.901199
O O1 0.500000 0.860444 0.500000
O O2 0.250000 0.865539 0.610816
O O3 0.517648 0.910655 0.638199
O O4 0.521417 0.826514 0.662129
O O5 0.750000 0.044309 0.385439
O O6 0.000000 0.044314 0.500000
O O7 0.018624 0.000000 0.357305
O O8 0.750000 0.453922 0.390969
O O9 0.017800 0.500000 0.377983
O O10 0.023409 0.417758 0.331309
O O11 0.000000 0.443239 0.500000
O O12 0.750000 0.384883 0.270245
O O13 0.529838 0.337199 0.344942
O O14 0.477812 0.365991 0.183684
O O15 0.250000 0.211030 0.715232
O O16 0.518127 0.221009 0.813604
O O17 0.494562 0.255483 0.654283
O O18 0.750000 0.246698 0.104180
O O19 0.481455 0.292872 0.104748
O O20 0.500000 0.229051 0.000000
O O21 0.500000 0.296453 0.500000
O O22 0.750000 0.301670 0.611847
O O23 0.250000 0.661258 0.894587
O O24 0.000000 0.643472 0.000000
#
# Coordination Sequence:
#
# PCOD9401523 Si02
#       8
#     8   8   8   8   8   8   8   8
#     4   9  17  27  41  59  83 117 150 179 215 259
#     4   8  13  22  36  55  78 105 140 180 217 253
#     4   9  18  32  51  73  95 120 149 181 219 262
#     4  10  19  34  52  70  94 120 150 186 223 261
#     4  10  19  33  47  62  88 119 150 183 222 264
#     4   9  17  30  47  64  85 111 143 183 224 264
#     4  12  24  34  46  65  91 122 155 185 217 257
#     4   9  17  30  48  68  90 116 145 182 224 263
#
# _framework density 16.964746999999999
#
# number of rings (size 3 to 8) (size 9 to 14) (size 15 to 20)
#    0.000    2.500    1.250    1.875    0.000    4.000 
#    0.000    0.000    0.000    0.375    0.000    0.000 
#    0.000    0.500    0.000    0.375    0.000    1.000 
#
# Total GULP energy -356676.838126 kJ/mol
# GULP energy per Si atom -5573.075596 kJ/mol
# Density = 1.692613 g / cm^3
# Si number density = 16.964747 Si / 1000 Ang^3
#
#
#
# Elastic Constant Matrix: (Units=GPa)
#
#
# Indices 1 2 3 4 5 6 
#
# 1 19.0956 -3.0346 -1.9070 0.0000 0.0000 0.0000
# 2 -3.0346 122.3687 78.1470 0.0000 0.0000 0.0000
# 3 -1.9070 78.1470 135.7033 0.0000 0.0000 0.0000
# 4 0.0000 0.0000 0.0000 5.4321 0.0000 0.0000
# 5 0.0000 0.0000 0.0000 0.0000 18.6529 0.0000
# 6 0.0000 0.0000 0.0000 0.0000 0.0000 0.0167
#
#
#
# Elastic Compliance Matrix: (Units=1/GPa)
#
#
# Indices 1 2 3 4 5 6 
#
# 1 0.052575 0.001316 -0.000019 0.000000 0.000000 0.000000
# 2 0.001316 0.012958 -0.007444 0.000000 0.000000 0.000000
# 3 -0.000019 -0.007444 0.011655 0.000000 0.000000 0.000000
# 4 0.000000 0.000000 0.000000 0.184090 0.000000 0.000000
# 5 0.000000 0.000000 0.000000 0.000000 0.053611 0.000000
# 6 0.000000 0.000000 0.000000 0.000000 0.000000 59.831652
#
#
# Mechanical properties :
#
#
# Convention : Reuss Voigt Hill
#
# Bulk Modulus (GPa) = 15.40943 47.06427 31.23685
# Shear Modulus (GPa) = 0.08308 18.41783 9.25046
#
# Velocity S-wave (km/s) = 0.22154 3.29850 2.33765
# Velocity P-wave (km/s) = 3.02793 6.50457 5.07335
#
# Compressibility (1/GPa) = 0.06489534
#
# Stress axis : x y z
#
# Youngs Moduli (GPa) = 19.02035 77.16978 85.79708
#
# Poissons Ratio (x) = -0.10155 0.00163
# Poissons Ratio (y) = -0.02503 0.63866
# Poissons Ratio (z) = 0.00036 0.57444
#
# Static dielectric constant tensor:
#      x y z
#    x 1.612740 0.000000 0.000000 
#    y 0.000000 1.613200 0.000000 
#    z 0.000000 0.000000 1.563400 
# 
# From -- ./inp_files/22620.got.cif
#   From: 2010.05.17/outbox.cif.g08.bks.cpg/sg51_12_cif.got.tgz:22620.got - 2010.06.03 11:52:47.
