data_PCOD9401713
_publ_section_title
;
Structure prediction by ZEFSAII (Michael W. Deem and Ramdas Pophale) SiO2 
 PCOD9401713
Probable space group: P M M A
;
_chemical_formula_sum "Si O2"
_cell_formula_units_Z 40
_cell_length_a 7.974137
_cell_length_b 15.170242
_cell_length_c 14.824887
_cell_angle_alpha 90.000000
_cell_angle_beta 90.000000
_cell_angle_gamma 90.000000
_cell_volume 1793.360473
_symmetry_space_group_name_H-M "P M M A"
_symmetry_group_IT_number 51
_symmetry_cell_setting 'orthorhombic'
loop_
_space_group_symop_operation_xyz
x,y,z
1/2-x,-y,z
1/2+x,-y,-z
-x,y,-z
-x,-y,-z
1/2+x,y,-z
1/2-x,y,z
x,-y,z
loop_
_atom_site_type_symbol
_atom_site_label
_atom_site_fract_x
_atom_site_fract_y
_atom_site_fract_z
Si Si1 0.068363 0.789201 0.854279
Si Si2 0.951553 0.593900 0.394939
Si Si3 0.250000 0.898486 0.362646
Si Si4 0.750000 0.897298 0.859343
Si Si5 0.951079 0.596435 0.894700
Si Si6 0.939225 0.211813 0.355406
O O1 0.250000 0.806279 0.896507
O O2 0.077564 0.813883 0.749061
O O3 0.913863 0.844564 0.891948
O O4 0.032857 0.684549 0.856500
O O5 0.750000 0.592526 0.385979
O O6 0.017446 0.500000 0.358386
O O7 0.005898 0.687446 0.356516
O O8 0.000000 0.595904 0.500000
O O9 0.250000 0.893657 0.251689
O O10 0.417587 0.849615 0.395513
O O11 0.250000 0.000000 0.388263
O O12 0.750000 0.000000 0.884376
O O13 0.750000 0.602598 0.885577
O O14 0.005760 0.500000 0.858685
O O15 0.000000 0.596752 0.000000
O O16 0.750000 0.208626 0.394897
#
# Coordination Sequence:
#
# PCOD9401713 Si02
#       6
#     8   8   4   4   8   8
#     4  10  19  33  54  79 105 137 173 211 261 307
#     4   9  18  32  49  73 102 135 173 208 250 305
#     4   9  18  32  53  77 101 131 169 214 260 306
#     4   9  18  34  53  77 107 133 169 218 260 308
#     4  10  20  34  52  77 107 140 177 211 251 307
#     4   9  19  33  51  77 105 134 170 211 256 305
#
# _framework density 22.304496
#
# number of rings (size 3 to 8) (size 9 to 14) (size 15 to 20)
#    0.000    2.600    1.000    0.600    1.400    2.800 
#    0.000    6.000    0.000    1.200    0.000    0.000 
#    0.000    0.000    0.000    0.000    0.000    0.000 
#
# Total GULP energy -223173.316320 kJ/mol
# GULP energy per Si atom -5579.332908 kJ/mol
# Density = 2.225373 g / cm^3
# Si number density = 22.304496 Si / 1000 Ang^3
#
#
#
# Elastic Constant Matrix: (Units=GPa)
#
#
# Indices 1 2 3 4 5 6 
#
# 1 154.4070 107.8115 4.5433 0.0000 0.0000 0.0000
# 2 107.8115 175.3965 -4.7568 0.0000 0.0000 0.0000
# 3 4.5433 -4.7568 39.4484 0.0000 0.0000 0.0000
# 4 0.0000 0.0000 0.0000 40.5887 0.0000 0.0000
# 5 0.0000 0.0000 0.0000 0.0000 15.6599 0.0000
# 6 0.0000 0.0000 0.0000 0.0000 0.0000 16.2316
#
#
#
# Elastic Compliance Matrix: (Units=1/GPa)
#
#
# Indices 1 2 3 4 5 6 
#
# 1 0.011531 -0.007147 -0.002190 0.000000 0.000000 0.000000
# 2 -0.007147 0.010150 0.002047 0.000000 0.000000 0.000000
# 3 -0.002190 0.002047 0.025849 0.000000 0.000000 0.000000
# 4 0.000000 0.000000 0.000000 0.024637 0.000000 0.000000
# 5 0.000000 0.000000 0.000000 0.000000 0.063857 0.000000
# 6 0.000000 0.000000 0.000000 0.000000 0.000000 0.061608
#
#
# Mechanical properties :
#
#
# Convention : Reuss Voigt Hill
#
# Bulk Modulus (GPa) = 30.34923 64.93864 47.64394
# Shear Modulus (GPa) = 22.40172 31.93963 27.17068
#
# Velocity S-wave (km/s) = 3.17260 3.78826 3.49402
# Velocity P-wave (km/s) = 5.20162 6.95071 6.13878
#
# Compressibility (1/GPa) = 0.03294977
#
# Stress axis : x y z
#
# Youngs Moduli (GPa) = 86.72008 98.52016 38.68677
#
# Poissons Ratio (x) = 0.70416 0.08472
# Poissons Ratio (y) = 0.61982 -0.07920
# Poissons Ratio (z) = 0.18991 -0.20168
#
# Static dielectric constant tensor:
#      x y z
#    x 1.841660 0.000000 0.000000 
#    y 0.000000 1.809020 0.000000 
#    z 0.000000 0.000000 1.851810 
# 
# From -- ./inp_files/31450.got.cif
#   From: 2010.05.17/outbox.cif.g08.bks.cpg/sg51_16_cif.got.tgz:31450.got - 2010.06.03 11:52:47.
