data_PCOD9401554
_publ_section_title
;
Structure prediction by ZEFSAII (Michael W. Deem and Ramdas Pophale) SiO2 
 PCOD9401554
Probable space group: P M M A
;
_chemical_formula_sum "Si O2"
_cell_formula_units_Z 64
_cell_length_a 9.029661
_cell_length_b 14.853492
_cell_length_c 30.724383
_cell_angle_alpha 90.000000
_cell_angle_beta 90.000000
_cell_angle_gamma 90.000000
_cell_volume 4120.815618
_symmetry_space_group_name_H-M "P M M A"
_symmetry_group_IT_number 51
_symmetry_cell_setting 'orthorhombic'
loop_
_space_group_symop_operation_xyz
x,y,z
1/2-x,-y,z
1/2+x,-y,-z
-x,y,-z
-x,-y,-z
1/2+x,y,-z
1/2-x,y,z
x,-y,z
loop_
_atom_site_type_symbol
_atom_site_label
_atom_site_fract_x
_atom_site_fract_y
_atom_site_fract_z
Si Si1 0.925262 0.771962 0.697407
Si Si2 0.579920 0.890286 0.955844
Si Si3 0.580573 0.109139 0.131530
Si Si4 0.077997 0.134736 0.455652
Si Si5 0.569909 0.601773 0.642400
Si Si6 0.929548 0.105254 0.229631
Si Si7 0.580182 0.898411 0.367591
Si Si8 0.420761 0.352610 0.455168
O O1 0.750000 0.767583 0.705865
O O2 0.977602 0.675444 0.678219
O O3 0.006110 0.820990 0.737517
O O4 0.963707 0.838275 0.657793
O O5 0.750000 0.864161 0.957522
O O6 0.508167 0.859235 0.910583
O O7 0.572661 0.000000 0.955583
O O8 0.500000 0.860428 0.000000
O O9 0.750000 0.140168 0.128071
O O10 0.524432 0.129180 0.180080
O O11 0.583003 0.000000 0.129826
O O12 0.250000 0.106890 0.452211
O O13 0.077099 0.243836 0.454506
O O14 0.000000 0.106532 0.500000
O O15 0.975874 0.101646 0.416675
O O16 0.750000 0.609660 0.640392
O O17 0.531637 0.500000 0.654766
O O18 0.518161 0.618749 0.592384
O O19 0.750000 0.106482 0.231437
O O20 0.973471 0.000000 0.238522
O O21 0.750000 0.864947 0.363949
O O22 0.578815 0.000000 0.350149
O O23 0.500000 0.381660 0.500000
O O24 0.250000 0.382719 0.457462
#
# Coordination Sequence:
#
# PCOD9401554 Si02
#       8
#     8   8   8   8   8   8   8   8
#     4  11  21  34  51  71  90 113 146 183 221 259
#     4   9  15  21  31  49  75 108 147 190 233 270
#     4   8  14  25  39  54  76 108 147 187 225 267
#     4  10  19  33  51  71  92 115 143 172 206 247
#     4   9  18  34  53  71  93 118 141 169 211 262
#     4   9  18  32  48  66  90 121 152 185 231 278
#     4  11  23  36  50  68  90 118 147 175 212 254
#     4   9  17  31  50  72  93 113 136 163 200 247
#
# _framework density 15.530905000000001
#
# number of rings (size 3 to 8) (size 9 to 14) (size 15 to 20)
#    0.000    2.500    1.250    2.625    0.000    5.750 
#    0.000    1.250    0.000    3.000    0.000    0.000 
#    0.000    0.000    0.000    0.000    0.000    0.625 
#
# Total GULP energy -356497.109180 kJ/mol
# GULP energy per Si atom -5570.267331 kJ/mol
# Density = 1.549556 g / cm^3
# Si number density = 15.530905 Si / 1000 Ang^3
#
#
#
# Elastic Constant Matrix: (Units=GPa)
#
#
# Indices 1 2 3 4 5 6 
#
# 1 33.6546 15.3096 33.0995 0.0000 0.0000 0.0000
# 2 15.3096 66.1640 40.3350 0.0000 0.0000 0.0000
# 3 33.0995 40.3350 135.1534 0.0000 0.0000 0.0000
# 4 0.0000 0.0000 0.0000 -9.6564 0.0000 0.0000
# 5 0.0000 0.0000 0.0000 0.0000 29.0640 0.0000
# 6 0.0000 0.0000 0.0000 0.0000 0.0000 4.7308
#
#
#
# Elastic Compliance Matrix: (Units=1/GPa)
#
#
# Indices 1 2 3 4 5 6 
#
# 1 0.039995 -0.004013 -0.008597 0.000000 0.000000 0.000000
# 2 -0.004013 0.018878 -0.004651 0.000000 0.000000 0.000000
# 3 -0.008597 -0.004651 0.010893 0.000000 0.000000 0.000000
# 4 0.000000 0.000000 0.000000 -0.103559 0.000000 0.000000
# 5 0.000000 0.000000 0.000000 0.000000 0.034407 0.000000
# 6 0.000000 0.000000 0.000000 0.000000 0.000000 0.211381
#
#
# Mechanical properties :
#
#
# Convention : Reuss Voigt Hill
#
# Bulk Modulus (GPa) = 28.37508 45.82891 37.10200
# Shear Modulus (GPa) = 19.35999 14.57620 16.96809
#
# Velocity S-wave (km/s) = 3.53448 3.06686 3.30894
# Velocity P-wave (km/s) = 5.91324 6.48946 6.20804
#
# Compressibility (1/GPa) = 0.03524219
#
# Stress axis : x y z
#
# Youngs Moduli (GPa) = 25.00333 52.97181 91.80623
#
# Poissons Ratio (x) = 0.21259 0.78927
# Poissons Ratio (y) = 0.10035 0.42699
# Poissons Ratio (z) = 0.21496 0.24637
#
# Static dielectric constant tensor:
#      x y z
#    x 1.526330 0.000000 0.000000 
#    y 0.000000 1.524410 0.000000 
#    z 0.000000 0.000000 1.543630 
# 
# From -- ./inp_files/37674.got.cif
#   From: 2010.05.17/outbox.cif.g08.bks.cpg/sg51_19_cif.got.tgz:37674.got - 2010.06.03 11:52:47.
