data_PCOD9401489
_publ_section_title
;
Structure prediction by ZEFSAII (Michael W. Deem and Ramdas Pophale) SiO2 
 PCOD9401489
Probable space group: P M M A
;
_chemical_formula_sum "Si O2"
_cell_formula_units_Z 56
_cell_length_a 15.662568
_cell_length_b 17.299482
_cell_length_c 10.382669
_cell_angle_alpha 90.000000
_cell_angle_beta 90.000000
_cell_angle_gamma 90.000000
_cell_volume 2813.228948
_symmetry_space_group_name_H-M "P M M A"
_symmetry_group_IT_number 51
_symmetry_cell_setting 'orthorhombic'
loop_
_space_group_symop_operation_xyz
x,y,z
1/2-x,-y,z
1/2+x,-y,-z
-x,y,-z
-x,-y,-z
1/2+x,y,-z
1/2-x,y,z
x,-y,z
loop_
_atom_site_type_symbol
_atom_site_label
_atom_site_fract_x
_atom_site_fract_y
_atom_site_fract_z
Si Si1 0.378762 0.833854 0.729735
Si Si2 0.416384 0.165454 0.232619
Si Si3 0.354179 0.587494 0.878617
Si Si4 0.907290 0.000000 0.666404
Si Si5 0.647086 0.414111 0.419649
Si Si6 0.847185 0.253262 0.008360
Si Si7 0.114442 0.000000 0.632852
Si Si8 0.100504 0.744084 0.480195
O O1 0.481523 0.834344 0.747613
O O2 0.345137 0.792820 0.856964
O O3 0.353661 0.921997 0.700223
O O4 0.356263 0.784304 0.603145
O O5 0.375845 0.217296 0.345994
O O6 0.385744 0.077836 0.256505
O O7 0.396742 0.203257 0.096197
O O8 0.250000 0.589011 0.880045
O O9 0.379768 0.500000 0.916992
O O10 0.379961 0.599765 0.729079
O O11 0.383007 0.660753 0.962315
O O12 0.869595 0.000000 0.521270
O O13 0.010622 0.000000 0.646791
O O14 0.750000 0.412995 0.419601
O O15 0.618943 0.500000 0.457233
O O16 0.615631 0.346664 0.510953
O O17 0.750000 0.262223 0.961648
O O18 0.000000 0.758680 0.500000
#
# Coordination Sequence:
#
# PCOD9401489 Si02
#       8
#     8   8   8   4   8   8   4   8
#     4  10  19  35  58  81 104 136 183 228 258 306
#     4  10  21  35  55  81 110 140 173 218 275 322
#     4   8  15  30  53  76  96 130 181 223 253 297
#     4   9  16  33  57  80 106 138 177 220 263 318
#     4   9  17  31  53  78 104 139 183 223 257 308
#     4  11  22  36  54  79 110 144 177 218 268 319
#     4   9  16  31  59  84 100 132 189 228 251 302
#     4  10  19  32  54  83 108 136 172 222 277 316
#
# _framework density 19.905951999999999
#
# number of rings (size 3 to 8) (size 9 to 14) (size 15 to 20)
#    0.000    2.429    2.857    1.286    0.000    1.429 
#    0.000    4.286    0.000    5.143    0.000    0.000 
#    0.000    0.000    0.000    0.000    0.000    0.000 
#
# Total GULP energy -312443.641310 kJ/mol
# GULP energy per Si atom -5579.350738 kJ/mol
# Density = 1.986064 g / cm^3
# Si number density = 19.905952 Si / 1000 Ang^3
#
#
#
# Elastic Constant Matrix: (Units=GPa)
#
#
# Indices 1 2 3 4 5 6 
#
# 1 25.9624 12.4460 13.2980 0.0000 0.0000 0.0000
# 2 12.4460 183.3933 74.2924 0.0000 0.0000 0.0000
# 3 13.2980 74.2924 101.1268 0.0000 0.0000 0.0000
# 4 0.0000 0.0000 0.0000 31.8491 0.0000 0.0000
# 5 0.0000 0.0000 0.0000 0.0000 -6.7117 0.0000
# 6 0.0000 0.0000 0.0000 0.0000 0.0000 18.4624
#
#
#
# Elastic Compliance Matrix: (Units=1/GPa)
#
#
# Indices 1 2 3 4 5 6 
#
# 1 0.041394 -0.000860 -0.004811 0.000000 0.000000 0.000000
# 2 -0.000860 0.007781 -0.005603 0.000000 0.000000 0.000000
# 3 -0.004811 -0.005603 0.014638 0.000000 0.000000 0.000000
# 4 0.000000 0.000000 0.000000 0.031398 0.000000 0.000000
# 5 0.000000 0.000000 0.000000 0.000000 -0.148993 0.000000
# 6 0.000000 0.000000 0.000000 0.000000 0.000000 0.054164
#
#
# Mechanical properties :
#
#
# Convention : Reuss Voigt Hill
#
# Bulk Modulus (GPa) = 24.23460 56.72837 40.48149
# Shear Modulus (GPa) = 136.29380 22.74970 79.52175
#
# Velocity S-wave (km/s) = 8.28357 3.38429 6.32736
# Velocity P-wave (km/s) = 10.18288 6.62052 8.58843
#
# Compressibility (1/GPa) = 0.04126331
#
# Stress axis : x y z
#
# Youngs Moduli (GPa) = 24.15809 128.51877 68.31730
#
# Poissons Ratio (x) = 0.11054 0.32870
# Poissons Ratio (y) = 0.02078 0.38279
# Poissons Ratio (z) = 0.11623 0.72011
#
# Static dielectric constant tensor:
#      x y z
#    x 1.744730 0.000000 0.000000 
#    y 0.000000 1.712520 0.000000 
#    z 0.000000 0.000000 1.662330 
# 
# From -- ./inp_files/11057.got.cif
#   From: 2010.05.17/outbox.cif.g08.bks.cpg/sg51_6_cif.got.tgz:11057.got - 2010.06.03 11:52:47.
