data_PCOD9401250
_publ_section_title
;
Structure prediction by ZEFSAII (Michael W. Deem and Ramdas Pophale) SiO2 
 PCOD9401250
Probable space group: P M M A
;
_chemical_formula_sum "Si O2"
_cell_formula_units_Z 56
_cell_length_a 15.841652
_cell_length_b 13.415238
_cell_length_c 15.542556
_cell_angle_alpha 90.000000
_cell_angle_beta 90.000000
_cell_angle_gamma 90.000000
_cell_volume 3303.096726
_symmetry_space_group_name_H-M "P M M A"
_symmetry_group_IT_number 51
_symmetry_cell_setting 'orthorhombic'
loop_
_space_group_symop_operation_xyz
x,y,z
1/2-x,-y,z
1/2+x,-y,-z
-x,y,-z
-x,-y,-z
1/2+x,y,-z
1/2-x,y,z
x,-y,z
loop_
_atom_site_type_symbol
_atom_site_label
_atom_site_fract_x
_atom_site_fract_y
_atom_site_fract_z
Si Si1 0.152925 0.120368 0.502821
Si Si2 0.395803 0.115973 0.694474
Si Si3 0.405883 0.115709 0.317213
Si Si4 0.154510 0.240081 0.161497
Si Si5 0.004194 0.617772 0.103528
Si Si6 0.102003 0.885010 0.001077
Si Si7 0.844360 0.742430 0.152957
O O1 0.250000 0.150928 0.492323
O O2 0.120543 0.150628 0.596590
O O3 0.102692 0.147814 0.416833
O O4 0.149490 0.000000 0.505331
O O5 0.496220 0.116572 0.709369
O O6 0.354202 0.189588 0.762394
O O7 0.367010 0.000000 0.703523
O O8 0.357352 0.189380 0.254216
O O9 0.375942 0.000000 0.310451
O O10 0.250000 0.276964 0.150597
O O11 0.135809 0.153714 0.091855
O O12 0.084255 0.323366 0.141766
O O13 0.011138 0.500000 0.117765
O O14 0.919079 0.662223 0.145160
O O15 0.000000 0.634948 0.000000
O O16 0.123350 0.000000 0.986602
O O17 0.140413 0.816383 0.927221
O O18 0.000000 0.876030 0.000000
O O19 0.750000 0.699909 0.148613
#
# Coordination Sequence:
#
# PCOD9401250 Si02
#       7
#     8   8   8   8   8   8   8
#     4   9  17  29  45  73 111 150 191 227 259 303
#     4  10  19  32  51  77 114 155 189 221 262 315
#     4  10  19  32  51  77 114 155 189 221 262 315
#     4  12  22  36  57  82 109 143 184 222 272 327
#     4  11  24  44  62  79 106 137 179 236 289 331
#     4  11  21  35  53  77 115 152 181 214 258 318
#     4  12  22  36  57  82 109 143 184 222 272 327
#
# _framework density 16.953786999999998
#
# number of rings (size 3 to 8) (size 9 to 14) (size 15 to 20)
#    0.000    1.286    4.286    2.571    0.000    8.571 
#    0.000    1.429    0.000    0.000    0.000    2.000 
#    0.000    3.429    0.000    0.000    0.000    0.000 
#
# Total GULP energy -312687.352827 kJ/mol
# GULP energy per Si atom -5583.702729 kJ/mol
# Density = 1.691520 g / cm^3
# Si number density = 16.953787 Si / 1000 Ang^3
#
#
#
# Elastic Constant Matrix: (Units=GPa)
#
#
# Indices 1 2 3 4 5 6 
#
# 1 101.0480 16.1604 7.4874 0.0000 0.0000 0.0000
# 2 16.1604 51.7728 6.0130 0.0000 0.0000 0.0000
# 3 7.4874 6.0130 73.6576 0.0000 0.0000 0.0000
# 4 0.0000 0.0000 0.0000 0.7806 0.0000 0.0000
# 5 0.0000 0.0000 0.0000 0.0000 13.2061 0.0000
# 6 0.0000 0.0000 0.0000 0.0000 0.0000 2.4211
#
#
#
# Elastic Compliance Matrix: (Units=1/GPa)
#
#
# Indices 1 2 3 4 5 6 
#
# 1 0.010463 -0.003173 -0.000805 0.000000 0.000000 0.000000
# 2 -0.003173 0.020462 -0.001348 0.000000 0.000000 0.000000
# 3 -0.000805 -0.001348 0.013768 0.000000 0.000000 0.000000
# 4 0.000000 0.000000 0.000000 1.281103 0.000000 0.000000
# 5 0.000000 0.000000 0.000000 0.000000 0.075722 0.000000
# 6 0.000000 0.000000 0.000000 0.000000 0.000000 0.413030
#
#
# Mechanical properties :
#
#
# Convention : Reuss Voigt Hill
#
# Bulk Modulus (GPa) = 29.37438 31.75554 30.56496
# Shear Modulus (GPa) = 2.72250 16.40274 9.56262
#
# Velocity S-wave (km/s) = 1.26859 3.11384 2.37753
# Velocity P-wave (km/s) = 4.41696 5.63021 5.06008
#
# Compressibility (1/GPa) = 0.03404327
#
# Stress axis : x y z
#
# Youngs Moduli (GPa) = 95.57223 48.87110 72.63132
#
# Poissons Ratio (x) = 0.15505 0.05844
# Poissons Ratio (y) = 0.30321 0.09790
# Poissons Ratio (z) = 0.07690 0.06587
#
# Static dielectric constant tensor:
#      x y z
#    x 1.606750 0.000000 0.000000 
#    y 0.000000 1.537150 0.000000 
#    z 0.000000 0.000000 1.577790 
# 
# From -- ./inp_files/24273.got.cif
#   From: 2010.05.17/outbox.cif.g08.bks.cpg/sg51_13_cif.got.tgz:24273.got - 2010.06.03 11:52:47.
