data_PCOD9401798
_publ_section_title
;
Structure prediction by ZEFSAII (Michael W. Deem and Ramdas Pophale) SiO2 
 PCOD9401798
Probable space group: P M M A
;
_chemical_formula_sum "Si O2"
_cell_formula_units_Z 56
_cell_length_a 15.957717
_cell_length_b 9.326937
_cell_length_c 19.985111
_cell_angle_alpha 90.000000
_cell_angle_beta 90.000000
_cell_angle_gamma 90.000000
_cell_volume 2974.516394
_symmetry_space_group_name_H-M "P M M A"
_symmetry_group_IT_number 51
_symmetry_cell_setting 'orthorhombic'
loop_
_space_group_symop_operation_xyz
x,y,z
1/2-x,-y,z
1/2+x,-y,-z
-x,y,-z
-x,-y,-z
1/2+x,y,-z
1/2-x,y,z
x,-y,z
loop_
_atom_site_type_symbol
_atom_site_label
_atom_site_fract_x
_atom_site_fract_y
_atom_site_fract_z
Si Si1 0.508077 0.170837 0.920663
Si Si2 0.597040 0.833758 0.300119
Si Si3 0.351605 0.665799 0.568313
Si Si4 0.899007 0.832867 0.711244
Si Si5 0.658503 0.825500 0.157302
Si Si6 0.345625 0.329268 0.157681
Si Si7 0.148827 0.164651 0.437155
O O1 0.421690 0.219715 0.885470
O O2 0.586302 0.254282 0.889652
O O3 0.518743 0.000000 0.907077
O O4 0.500000 0.189898 0.000000
O O5 0.614253 0.744236 0.366233
O O6 0.499205 0.829453 0.280940
O O7 0.646528 0.782409 0.234625
O O8 0.619685 0.000000 0.313262
O O9 0.250000 0.674368 0.570454
O O10 0.375785 0.500000 0.567905
O O11 0.379973 0.742842 0.500095
O O12 0.857934 0.738408 0.768660
O O13 0.878780 0.783543 0.635937
O O14 0.871651 0.000000 0.716918
O O15 0.750000 0.778924 0.132486
O O16 0.657353 0.000000 0.156735
O O17 0.250000 0.301945 0.135620
O O18 0.358933 0.500000 0.159991
O O19 0.250000 0.164031 0.437679
O O20 0.119562 0.000000 0.444484
#
# Coordination Sequence:
#
# PCOD9401798 Si02
#       7
#     8   8   8   8   8   8   8
#     4  10  21  39  64  93 123 155 196 245 292 341
#     4  10  19  33  55  79 107 145 188 239 296 346
#     4  10  21  35  50  72 106 146 189 237 287 347
#     4  10  20  36  59  85 111 144 194 250 294 341
#     4   9  17  32  56  86 117 148 188 238 292 347
#     4  11  24  40  60  88 124 165 202 238 290 354
#     4   9  18  33  53  76 103 139 185 238 294 346
#
# _framework density 18.826591000000001
#
# number of rings (size 3 to 8) (size 9 to 14) (size 15 to 20)
#    0.000    2.143    1.429    1.714    0.000    5.714 
#    0.000    5.714    0.000    0.429    0.000    0.000 
#    0.000    0.000    0.000    0.000    0.000    0.000 
#
# Total GULP energy -312658.389887 kJ/mol
# GULP energy per Si atom -5583.185534 kJ/mol
# Density = 1.878374 g / cm^3
# Si number density = 18.826591 Si / 1000 Ang^3
#
#
#
# Elastic Constant Matrix: (Units=GPa)
#
#
# Indices 1 2 3 4 5 6 
#
# 1 105.3882 51.1593 67.8945 0.0000 0.0000 0.0000
# 2 51.1593 68.1547 59.6514 0.0000 0.0000 0.0000
# 3 67.8945 59.6514 115.3713 0.0000 0.0000 0.0000
# 4 0.0000 0.0000 0.0000 2.8273 0.0000 0.0000
# 5 0.0000 0.0000 0.0000 0.0000 -16.9677 0.0000
# 6 0.0000 0.0000 0.0000 0.0000 0.0000 21.4670
#
#
#
# Elastic Compliance Matrix: (Units=1/GPa)
#
#
# Indices 1 2 3 4 5 6 
#
# 1 0.017087 -0.007352 -0.006254 0.000000 0.000000 0.000000
# 2 -0.007352 0.029964 -0.011166 0.000000 0.000000 0.000000
# 3 -0.006254 -0.011166 0.018121 0.000000 0.000000 0.000000
# 4 0.000000 0.000000 0.000000 0.353693 0.000000 0.000000
# 5 0.000000 0.000000 0.000000 0.000000 -0.058935 0.000000
# 6 0.000000 0.000000 0.000000 0.000000 0.000000 0.046583
#
#
# Mechanical properties :
#
#
# Convention : Reuss Voigt Hill
#
# Bulk Modulus (GPa) = 63.98795 71.81385 67.90090
# Shear Modulus (GPa) = 10.83973 8.81259 9.82616
#
# Velocity S-wave (km/s) = 2.40212 2.16589 2.28706
# Velocity P-wave (km/s) = 6.46184 6.66952 6.56650
#
# Compressibility (1/GPa) = 0.01562794
#
# Stress axis : x y z
#
# Youngs Moduli (GPa) = 58.52479 33.37314 55.18379
#
# Poissons Ratio (x) = 0.24537 0.34512
# Poissons Ratio (y) = 0.43029 0.61618
# Poissons Ratio (z) = 0.36601 0.37264
#
# Static dielectric constant tensor:
#      x y z
#    x 1.667810 0.000000 0.000000 
#    y 0.000000 1.629000 0.000000 
#    z 0.000000 0.000000 1.628940 
# 
# From -- ./inp_files/33486.got.cif
#   From: 2010.05.17/outbox.cif.g08.bks.cpg/sg51_17_cif.got.tgz:33486.got - 2010.06.03 11:52:47.
