data_PCOD9401604
_publ_section_title
;
Structure prediction by ZEFSAII (Michael W. Deem and Ramdas Pophale) SiO2 
 PCOD9401604
Probable space group: P M M A
;
_chemical_formula_sum "Si O2"
_cell_formula_units_Z 56
_cell_length_a 23.593743
_cell_length_b 14.163727
_cell_length_c 9.266377
_cell_angle_alpha 90.000000
_cell_angle_beta 90.000000
_cell_angle_gamma 90.000000
_cell_volume 3096.594636
_symmetry_space_group_name_H-M "P M M A"
_symmetry_group_IT_number 51
_symmetry_cell_setting 'orthorhombic'
loop_
_space_group_symop_operation_xyz
x,y,z
1/2-x,-y,z
1/2+x,-y,-z
-x,y,-z
-x,-y,-z
1/2+x,y,-z
1/2-x,y,z
x,-y,z
loop_
_atom_site_type_symbol
_atom_site_label
_atom_site_fract_x
_atom_site_fract_y
_atom_site_fract_z
Si Si1 0.011795 0.109941 0.669369
Si Si2 0.682450 0.105567 0.372975
Si Si3 0.183076 0.602113 0.219833
Si Si4 0.096959 0.891661 0.125001
Si Si5 0.318482 0.800878 0.331721
Si Si6 0.184191 0.390533 0.871905
Si Si7 0.390206 0.212487 0.831515
O O1 0.955220 0.120284 0.764850
O O2 0.000000 0.123088 0.500000
O O3 0.057618 0.183600 0.729607
O O4 0.030817 0.000000 0.689319
O O5 0.750000 0.104967 0.370507
O O6 0.664708 0.170119 0.507185
O O7 0.659475 0.143621 0.223454
O O8 0.661980 0.000000 0.402080
O O9 0.250000 0.599146 0.255949
O O10 0.158146 0.500000 0.259859
O O11 0.160439 0.695768 0.294132
O O12 0.180545 0.612145 0.046624
O O13 0.153284 0.870671 0.216918
O O14 0.095765 0.000000 0.071496
O O15 0.093926 0.818440 0.993236
O O16 0.250000 0.804477 0.320214
O O17 0.250000 0.365140 0.833363
O O18 0.175296 0.500000 0.828048
O O19 0.137295 0.316313 0.819002
#
# Coordination Sequence:
#
# PCOD9401604 Si02
#       7
#     8   8   8   8   8   8   8
#     4  10  22  40  59  78 107 151 195 235 287 347
#     4  10  21  34  48  73 114 155 183 217 274 339
#     4   8  14  28  51  77 105 138 178 223 270 323
#     4  11  22  34  53  82 111 141 186 240 283 331
#     4  10  19  33  52  77 109 147 185 223 278 342
#     4   9  18  34  57  86 118 148 180 226 286 344
#     4  12  21  35  58  81 108 143 190 237 279 330
#
# _framework density 18.084382999999999
#
# number of rings (size 3 to 8) (size 9 to 14) (size 15 to 20)
#    0.000    2.000    1.429    4.286    0.000    3.714 
#    0.000    0.714    0.000    5.571    0.000    0.000 
#    0.000    0.000    0.000    0.000    0.000    0.000 
#
# Total GULP energy -312246.434703 kJ/mol
# GULP energy per Si atom -5575.829191 kJ/mol
# Density = 1.804322 g / cm^3
# Si number density = 18.084383 Si / 1000 Ang^3
#
#
#
# Elastic Constant Matrix: (Units=GPa)
#
#
# Indices 1 2 3 4 5 6 
#
# 1 63.8871 49.6344 33.6567 0.0000 0.0000 0.0000
# 2 49.6344 113.9480 29.4636 0.0000 0.0000 0.0000
# 3 33.6567 29.4636 68.0925 0.0000 0.0000 0.0000
# 4 0.0000 0.0000 0.0000 19.6490 0.0000 0.0000
# 5 0.0000 0.0000 0.0000 0.0000 27.2450 0.0000
# 6 0.0000 0.0000 0.0000 0.0000 0.0000 22.6885
#
#
#
# Elastic Compliance Matrix: (Units=1/GPa)
#
#
# Indices 1 2 3 4 5 6 
#
# 1 0.028492 -0.009874 -0.009811 0.000000 0.000000 0.000000
# 2 -0.009874 0.013303 -0.000876 0.000000 0.000000 0.000000
# 3 -0.009811 -0.000876 0.019914 0.000000 0.000000 0.000000
# 4 0.000000 0.000000 0.000000 0.050893 0.000000 0.000000
# 5 0.000000 0.000000 0.000000 0.000000 0.036704 0.000000
# 6 0.000000 0.000000 0.000000 0.000000 0.000000 0.044075
#
#
# Mechanical properties :
#
#
# Convention : Reuss Voigt Hill
#
# Bulk Modulus (GPa) = 48.57045 52.38189 50.47617
# Shear Modulus (GPa) = 20.71540 22.79469 21.75505
#
# Velocity S-wave (km/s) = 3.38817 3.55415 3.47215
# Velocity P-wave (km/s) = 6.49787 6.77280 6.63676
#
# Compressibility (1/GPa) = 0.02058865
#
# Stress axis : x y z
#
# Youngs Moduli (GPa) = 35.09716 75.16837 50.21578
#
# Poissons Ratio (x) = 0.74223 0.49265
# Poissons Ratio (y) = 0.34656 0.04398
# Poissons Ratio (z) = 0.34432 0.06583
#
# Static dielectric constant tensor:
#      x y z
#    x 1.632450 0.000000 0.000000 
#    y 0.000000 1.649910 0.000000 
#    z 0.000000 0.000000 1.612200 
# 
# From -- ./inp_files/11006.got.cif
#   From: 2010.05.17/outbox.cif.g08.bks.cpg/sg51_6_cif.got.tgz:11006.got - 2010.06.03 11:52:47.
