data_PCOD9401409
_publ_section_title
;
Structure prediction by ZEFSAII (Michael W. Deem and Ramdas Pophale) SiO2 
 PCOD9401409
Probable space group: P M M A
;
_chemical_formula_sum "Si O2"
_cell_formula_units_Z 40
_cell_length_a 11.249329
_cell_length_b 20.664903
_cell_length_c 7.542387
_cell_angle_alpha 90.000000
_cell_angle_beta 90.000000
_cell_angle_gamma 90.000000
_cell_volume 1753.350743
_symmetry_space_group_name_H-M "P M M A"
_symmetry_group_IT_number 51
_symmetry_cell_setting 'orthorhombic'
loop_
_space_group_symop_operation_xyz
x,y,z
1/2-x,-y,z
1/2+x,-y,-z
-x,y,-z
-x,-y,-z
1/2+x,y,-z
1/2-x,y,z
x,-y,z
loop_
_atom_site_type_symbol
_atom_site_label
_atom_site_fract_x
_atom_site_fract_y
_atom_site_fract_z
Si Si1 0.615475 0.572774 0.125819
Si Si2 0.875540 0.099346 0.489251
Si Si3 0.621101 0.235418 0.687745
Si Si4 0.380215 0.708856 0.704639
Si Si5 0.377111 0.921559 0.908526
O O1 0.750000 0.577626 0.042302
O O2 0.609489 0.500000 0.202875
O O3 0.608725 0.632728 0.258890
O O4 0.500000 0.578924 0.000000
O O5 0.750000 0.067953 0.534887
O O6 0.885151 0.162574 0.611238
O O7 0.869887 0.113440 0.280081
O O8 0.000000 0.064046 0.500000
O O9 0.750000 0.244305 0.777867
O O10 0.623469 0.276665 0.505094
O O11 0.498307 0.255997 0.778875
O O12 0.250000 0.730251 0.774630
O O13 0.250000 0.909478 0.003217
O O14 0.381944 0.000000 0.877896
O O15 0.500000 0.903451 0.000000
#
# Coordination Sequence:
#
# PCOD9401409 Si02
#       5
#     8   8   8   8   8
#     4   9  18  32  49  69  95 127 162 201 245 294
#     4  10  19  32  53  78 106 138 173 215 262 311
#     4   9  17  30  48  69  95 125 157 197 244 291
#     4   9  16  29  49  69  92 125 159 194 241 292
#     4   9  19  36  55  76 105 140 176 216 262 311
#
# _framework density 22.813461
#
# number of rings (size 3 to 8) (size 9 to 14) (size 15 to 20)
#    0.000    2.800    2.000    0.000    0.000    2.000 
#    0.000    3.000    0.000    1.200    0.000    0.000 
#    0.000    0.000    0.000    0.000    0.000    0.000 
#
# Total GULP energy -222710.970070 kJ/mol
# GULP energy per Si atom -5567.774252 kJ/mol
# Density = 2.276154 g / cm^3
# Si number density = 22.813461 Si / 1000 Ang^3
#
#
#
# Elastic Constant Matrix: (Units=GPa)
#
#
# Indices 1 2 3 4 5 6 
#
# 1 297.9544 58.9234 25.5294 0.0000 0.0000 0.0000
# 2 58.9234 125.9770 19.8729 0.0000 0.0000 0.0000
# 3 25.5294 19.8729 36.8694 0.0000 0.0000 0.0000
# 4 0.0000 0.0000 0.0000 17.7770 0.0000 0.0000
# 5 0.0000 0.0000 0.0000 0.0000 15.4388 0.0000
# 6 0.0000 0.0000 0.0000 0.0000 0.0000 61.4003
#
#
#
# Elastic Compliance Matrix: (Units=1/GPa)
#
#
# Indices 1 2 3 4 5 6 
#
# 1 0.003808 -0.001492 -0.001833 0.000000 0.000000 0.000000
# 2 -0.001492 0.009260 -0.003958 0.000000 0.000000 0.000000
# 3 -0.001833 -0.003958 0.030525 0.000000 0.000000 0.000000
# 4 0.000000 0.000000 0.000000 0.056252 0.000000 0.000000
# 5 0.000000 0.000000 0.000000 0.000000 0.064772 0.000000
# 6 0.000000 0.000000 0.000000 0.000000 0.000000 0.016287
#
#
# Mechanical properties :
#
#
# Convention : Reuss Voigt Hill
#
# Bulk Modulus (GPa) = 34.44967 74.38356 54.41661
# Shear Modulus (GPa) = 24.37280 42.68824 33.53052
#
# Velocity S-wave (km/s) = 3.27211 4.33041 3.83792
# Velocity P-wave (km/s) = 5.42301 7.59468 6.59880
#
# Compressibility (1/GPa) = 0.02902785
#
# Stress axis : x y z
#
# Youngs Moduli (GPa) = 262.58166 107.98796 32.75974
#
# Poissons Ratio (x) = 0.16114 0.06004
# Poissons Ratio (y) = 0.39182 0.12967
# Poissons Ratio (z) = 0.48124 0.42743
#
# Static dielectric constant tensor:
#      x y z
#    x 2.008210 0.000000 0.000000 
#    y 0.000000 1.818360 0.000000 
#    z 0.000000 0.000000 1.826500 
# 
# From -- ./inp_files/6865.got.cif
#   From: 2010.05.17/outbox.cif.g08.bks.cpg/sg51_4_cif.got.tgz:6865.got - 2010.06.03 11:52:47.
