data_PCOD9401751
_publ_section_title
;
Structure prediction by ZEFSAII (Michael W. Deem and Ramdas Pophale) SiO2 
 PCOD9401751
Probable space group: P M M A
;
_chemical_formula_sum "Si O2"
_cell_formula_units_Z 48
_cell_length_a 8.693742
_cell_length_b 31.817783
_cell_length_c 9.633055
_cell_angle_alpha 90.000000
_cell_angle_beta 90.000000
_cell_angle_gamma 90.000000
_cell_volume 2664.653254
_symmetry_space_group_name_H-M "P M M A"
_symmetry_group_IT_number 51
_symmetry_cell_setting 'orthorhombic'
loop_
_space_group_symop_operation_xyz
x,y,z
1/2-x,-y,z
1/2+x,-y,-z
-x,y,-z
-x,-y,-z
1/2+x,y,-z
1/2-x,y,z
x,-y,z
loop_
_atom_site_type_symbol
_atom_site_label
_atom_site_fract_x
_atom_site_fract_y
_atom_site_fract_z
Si Si1 0.934897 0.121072 0.343814
Si Si2 0.933491 0.549572 0.348692
Si Si3 0.065798 0.047600 0.154554
Si Si4 0.433512 0.620135 0.154688
Si Si5 0.565201 0.787207 0.344300
Si Si6 0.564463 0.694675 0.342913
O O1 0.750000 0.118905 0.348506
O O2 0.980586 0.167374 0.283900
O O3 0.000000 0.118353 0.500000
O O4 0.999221 0.083184 0.253545
O O5 0.750000 0.556017 0.348734
O O6 0.964240 0.500000 0.327264
O O7 0.000000 0.561188 0.500000
O O8 0.010125 0.578054 0.232055
O O9 0.250000 0.050572 0.150572
O O10 0.024649 0.000000 0.200504
O O11 0.000000 0.053062 0.000000
O O12 0.250000 0.621345 0.150587
O O13 0.496582 0.658780 0.246001
O O14 0.500000 0.622036 0.000000
O O15 0.500000 0.787406 0.500000
O O16 0.750000 0.787224 0.350568
O O17 0.520663 0.741462 0.286803
O O18 0.500000 0.690664 0.500000
O O19 0.750000 0.691392 0.347606
#
# Coordination Sequence:
#
# PCOD9401751 Si02
#       6
#     8   8   8   8   8   8
#     4  10  19  33  54  81 110 139 174 217 266 316
#     4  10  21  39  63  89 115 145 183 225 268 317
#     4  10  21  37  55  75 101 136 177 219 265 318
#     4  12  25  40  57  80 112 148 185 226 274 323
#     4   8  16  30  51  78 107 138 173 216 263 313
#     4  10  19  35  58  83 110 142 182 223 265 315
#
# _framework density 18.013601999999999
#
# number of rings (size 3 to 8) (size 9 to 14) (size 15 to 20)
#    0.000    2.000    0.000    4.000    0.000    4.000 
#    0.000    0.833    0.000    0.000    0.000    0.000 
#    0.000    0.000    0.000    0.000    0.000    0.000 
#
# Total GULP energy -267816.422283 kJ/mol
# GULP energy per Si atom -5579.508798 kJ/mol
# Density = 1.797260 g / cm^3
# Si number density = 18.013602 Si / 1000 Ang^3
#
#
#
# Elastic Constant Matrix: (Units=GPa)
#
#
# Indices 1 2 3 4 5 6 
#
# 1 88.2093 71.8060 50.1615 0.0000 0.0000 0.0000
# 2 71.8060 146.8781 89.2992 0.0000 0.0000 0.0000
# 3 50.1615 89.2992 99.5797 0.0000 0.0000 0.0000
# 4 0.0000 0.0000 0.0000 -18.3942 0.0000 0.0000
# 5 0.0000 0.0000 0.0000 0.0000 32.8113 0.0000
# 6 0.0000 0.0000 0.0000 0.0000 0.0000 -20.9043
#
#
#
# Elastic Compliance Matrix: (Units=1/GPa)
#
#
# Indices 1 2 3 4 5 6 
#
# 1 0.019168 -0.007697 -0.002753 0.000000 0.000000 0.000000
# 2 -0.007697 0.018061 -0.012319 0.000000 0.000000 0.000000
# 3 -0.002753 -0.012319 0.022477 0.000000 0.000000 0.000000
# 4 0.000000 0.000000 0.000000 -0.054365 0.000000 0.000000
# 5 0.000000 0.000000 0.000000 0.000000 0.030477 0.000000
# 6 0.000000 0.000000 0.000000 0.000000 0.000000 -0.047837
#
#
# Mechanical properties :
#
#
# Convention : Reuss Voigt Hill
#
# Bulk Modulus (GPa) = 70.58793 84.13339 77.36066
# Shear Modulus (GPa) = 130.74477 6.92925 68.83701
#
# Velocity S-wave (km/s) = 8.52870 1.96342 6.18845
# Velocity P-wave (km/s) = 11.67287 7.20742 9.70059
#
# Compressibility (1/GPa) = 0.01416673
#
# Stress axis : x y z
#
# Youngs Moduli (GPa) = 52.17036 55.36719 44.49072
#
# Poissons Ratio (x) = 0.42616 0.12249
# Poissons Ratio (y) = 0.40155 0.54810
# Poissons Ratio (z) = 0.14363 0.68209
#
# Static dielectric constant tensor:
#      x y z
#    x 1.600300 0.000000 0.000000 
#    y 0.000000 1.657850 0.000000 
#    z 0.000000 0.000000 1.563800 
# 
# From -- ./inp_files/6060.got.cif
#   From: 2010.05.17/outbox.cif.g08.bks.cpg/sg51_4_cif.got.tgz:6060.got - 2010.06.03 11:52:47.
