data_PCOD9401381
_publ_section_title
;
Structure prediction by ZEFSAII (Michael W. Deem and Ramdas Pophale) SiO2 
 PCOD9401381
Probable space group: P M M A
;
_chemical_formula_sum "Si O2"
_cell_formula_units_Z 56
_cell_length_a 14.903619
_cell_length_b 7.547752
_cell_length_c 23.185567
_cell_angle_alpha 90.000000
_cell_angle_beta 90.000000
_cell_angle_gamma 90.000000
_cell_volume 2608.117076
_symmetry_space_group_name_H-M "P M M A"
_symmetry_group_IT_number 51
_symmetry_cell_setting 'orthorhombic'
loop_
_space_group_symop_operation_xyz
x,y,z
1/2-x,-y,z
1/2+x,-y,-z
-x,y,-z
-x,-y,-z
1/2+x,y,-z
1/2-x,y,z
x,-y,z
loop_
_atom_site_type_symbol
_atom_site_label
_atom_site_fract_x
_atom_site_fract_y
_atom_site_fract_z
Si Si1 0.039199 0.212425 0.083563
Si Si2 0.145969 0.216206 0.968945
Si Si3 0.466258 0.717787 0.308020
Si Si4 0.152063 0.706661 0.655143
Si Si5 0.588338 0.203183 0.470518
Si Si6 0.647893 0.288472 0.800823
Si Si7 0.345356 0.712338 0.411077
O O1 0.086852 0.257680 0.143198
O O2 0.935477 0.272323 0.074199
O O3 0.035770 0.000000 0.079086
O O4 0.104367 0.271057 0.031048
O O5 0.250000 0.275211 0.960468
O O6 0.149226 0.000000 0.967766
O O7 0.466035 0.500000 0.307919
O O8 0.568771 0.780016 0.308733
O O9 0.405092 0.778639 0.255353
O O10 0.423340 0.773072 0.368934
O O11 0.250000 0.788236 0.663103
O O12 0.157886 0.500000 0.670461
O O13 0.126193 0.713367 0.587310
O O14 0.500000 0.287016 0.500000
O O15 0.652832 0.209618 0.525329
O O16 0.568134 0.000000 0.455570
O O17 0.750000 0.219650 0.806859
O O18 0.655075 0.500000 0.793554
O O19 0.250000 0.751664 0.382327
O O20 0.352005 0.500000 0.417178
#
# Coordination Sequence:
#
# PCOD9401381 Si02
#       7
#     8   8   8   8   8   8   8
#     4   9  17  30  51  78 104 134 174 215 250 289
#     4   8  14  27  49  76 106 139 173 209 250 295
#     4   9  18  34  53  71  95 125 161 204 241 284
#     4  10  20  35  56  76  92 121 166 207 244 291
#     4  11  22  34  49  72 102 131 154 187 245 306
#     4  10  20  34  52  74 102 136 168 202 253 307
#     4  10  19  32  53  75  92 119 160 200 239 287
#
# _framework density 21.471429000000001
#
# number of rings (size 3 to 8) (size 9 to 14) (size 15 to 20)
#    0.000    2.429    1.429    2.571    0.000    5.429 
#    0.000    3.571    0.000    3.857    0.000    0.000 
#    0.000    0.000    0.000    0.000    0.000    0.000 
#
# Total GULP energy -312310.317762 kJ/mol
# GULP energy per Si atom -5576.969960 kJ/mol
# Density = 2.142256 g / cm^3
# Si number density = 21.471429 Si / 1000 Ang^3
#
#
#
# Elastic Constant Matrix: (Units=GPa)
#
#
# Indices 1 2 3 4 5 6 
#
# 1 223.8968 12.1871 69.2774 0.0000 0.0000 0.0000
# 2 12.1871 51.0810 -3.0599 0.0000 0.0000 0.0000
# 3 69.2774 -3.0599 101.5520 0.0000 0.0000 0.0000
# 4 0.0000 0.0000 0.0000 30.3456 0.0000 0.0000
# 5 0.0000 0.0000 0.0000 0.0000 26.0864 0.0000
# 6 0.0000 0.0000 0.0000 0.0000 0.0000 1.4220
#
#
#
# Elastic Compliance Matrix: (Units=1/GPa)
#
#
# Indices 1 2 3 4 5 6 
#
# 1 0.005792 -0.001622 -0.004000 0.000000 0.000000 0.000000
# 2 -0.001622 0.020066 0.001711 0.000000 0.000000 0.000000
# 3 -0.004000 0.001711 0.012628 0.000000 0.000000 0.000000
# 4 0.000000 0.000000 0.000000 0.032954 0.000000 0.000000
# 5 0.000000 0.000000 0.000000 0.000000 0.038334 0.000000
# 6 0.000000 0.000000 0.000000 0.000000 0.000000 0.703242
#
#
# Mechanical properties :
#
#
# Convention : Reuss Voigt Hill
#
# Bulk Modulus (GPa) = 32.61151 59.25988 45.93569
# Shear Modulus (GPa) = 6.01641 31.44581 18.73111
#
# Velocity S-wave (km/s) = 1.67575 3.83109 2.95680
# Velocity P-wave (km/s) = 4.35494 6.87233 5.75302
#
# Compressibility (1/GPa) = 0.03066402
#
# Stress axis : x y z
#
# Youngs Moduli (GPa) = 172.64049 49.83528 79.19092
#
# Poissons Ratio (x) = 0.08081 0.31679
# Poissons Ratio (y) = 0.27995 -0.13548
# Poissons Ratio (z) = 0.69062 -0.08526
#
# Static dielectric constant tensor:
#      x y z
#    x 1.878160 0.000000 0.000000 
#    y 0.000000 1.821020 0.000000 
#    z 0.000000 0.000000 1.736290 
# 
# From -- ./inp_files/33299.got.cif
#   From: 2010.05.17/outbox.cif.g08.bks.cpg/sg51_17_cif.got.tgz:33299.got - 2010.06.03 11:52:47.
