data_PCOD9401646
_publ_section_title
;
Structure prediction by ZEFSAII (Michael W. Deem and Ramdas Pophale) SiO2 
 PCOD9401646
Probable space group: P M M A
;
_chemical_formula_sum "Si O2"
_cell_formula_units_Z 48
_cell_length_a 12.379248
_cell_length_b 7.441696
_cell_length_c 22.853743
_cell_angle_alpha 90.000000
_cell_angle_beta 90.000000
_cell_angle_gamma 90.000000
_cell_volume 2105.346232
_symmetry_space_group_name_H-M "P M M A"
_symmetry_group_IT_number 51
_symmetry_cell_setting 'orthorhombic'
loop_
_space_group_symop_operation_xyz
x,y,z
1/2-x,-y,z
1/2+x,-y,-z
-x,y,-z
-x,-y,-z
1/2+x,y,-z
1/2-x,y,z
x,-y,z
loop_
_atom_site_type_symbol
_atom_site_label
_atom_site_fract_x
_atom_site_fract_y
_atom_site_fract_z
Si Si1 0.528213 0.719784 0.434712
Si Si2 0.922906 0.786900 0.143773
Si Si3 0.750000 0.286851 0.241626
Si Si4 0.127467 0.283553 0.331935
Si Si5 0.372622 0.781595 0.983872
Si Si6 0.250000 0.280244 0.624589
Si Si7 0.129281 0.212960 0.200774
O O1 0.500000 0.779387 0.500000
O O2 0.526556 0.500000 0.435570
O O3 0.443147 0.779793 0.385862
O O4 0.644525 0.775023 0.410953
O O5 0.851701 0.762842 0.201563
O O6 0.870211 0.723051 0.084167
O O7 0.041675 0.711711 0.156440
O O8 0.933662 0.000000 0.135069
O O9 0.750000 0.500000 0.247066
O O10 0.750000 0.216528 0.308001
O O11 0.250000 0.217686 0.336418
O O12 0.128768 0.500000 0.334332
O O13 0.087833 0.235286 0.267238
O O14 0.250000 0.727894 0.008164
O O15 0.372302 0.000000 0.990535
O O16 0.500000 0.730324 0.000000
O O17 0.250000 0.500000 0.626249
O O18 0.250000 0.288991 0.197451
O O19 0.137184 0.000000 0.190293
#
# Coordination Sequence:
#
# PCOD9401646 Si02
#       7
#     8   8   4   8   8   4   8
#     4   9  17  27  42  62  89 120 153 197 249 300
#     4  10  19  33  53  77 106 136 170 211 255 306
#     4  11  21  33  53  77 105 137 172 213 258 306
#     4   9  17  29  46  68  93 123 160 201 245 297
#     4   9  17  30  50  77 106 134 168 212 259 303
#     4   9  18  29  41  65  95 123 158 203 248 294
#     4   9  18  31  48  72 101 133 165 201 249 304
#
# _framework density 22.799102000000001
#
# number of rings (size 3 to 8) (size 9 to 14) (size 15 to 20)
#    0.000    2.667    0.833    1.250    1.167    2.667 
#    0.000    3.333    0.000    1.000    0.000    0.000 
#    0.000    0.000    0.000    0.000    0.000    0.000 
#
# Total GULP energy -267605.755886 kJ/mol
# GULP energy per Si atom -5575.119914 kJ/mol
# Density = 2.274721 g / cm^3
# Si number density = 22.799102 Si / 1000 Ang^3
#
#
#
# Elastic Constant Matrix: (Units=GPa)
#
#
# Indices 1 2 3 4 5 6 
#
# 1 161.3618 0.2628 72.1713 0.0000 0.0000 0.0000
# 2 0.2628 68.5557 -2.2895 0.0000 0.0000 0.0000
# 3 72.1713 -2.2895 73.5739 0.0000 0.0000 0.0000
# 4 0.0000 0.0000 0.0000 14.3035 0.0000 0.0000
# 5 0.0000 0.0000 0.0000 0.0000 4.0735 0.0000
# 6 0.0000 0.0000 0.0000 0.0000 0.0000 6.9070
#
#
#
# Elastic Compliance Matrix: (Units=1/GPa)
#
#
# Indices 1 2 3 4 5 6 
#
# 1 0.011053 -0.000405 -0.010855 0.000000 0.000000 0.000000
# 2 -0.000405 0.014617 0.000852 0.000000 0.000000 0.000000
# 3 -0.010855 0.000852 0.024266 0.000000 0.000000 0.000000
# 4 0.000000 0.000000 0.000000 0.069913 0.000000 0.000000
# 5 0.000000 0.000000 0.000000 0.000000 0.245491 0.000000
# 6 0.000000 0.000000 0.000000 0.000000 0.000000 0.144782
#
#
# Mechanical properties :
#
#
# Convention : Reuss Voigt Hill
#
# Bulk Modulus (GPa) = 34.34020 49.30896 41.82458
# Shear Modulus (GPa) = 9.24824 20.61324 14.93074
#
# Velocity S-wave (km/s) = 2.01624 3.01013 2.56184
# Velocity P-wave (km/s) = 4.52936 5.80997 5.20916
#
# Compressibility (1/GPa) = 0.02912039
#
# Stress axis : x y z
#
# Youngs Moduli (GPa) = 90.47450 68.41500 41.20976
#
# Poissons Ratio (x) = 0.02770 0.44732
# Poissons Ratio (y) = 0.03663 -0.03511
# Poissons Ratio (z) = 0.98208 -0.05829
#
# Static dielectric constant tensor:
#      x y z
#    x 1.860330 0.000000 0.000000 
#    y 0.000000 1.902750 0.000000 
#    z 0.000000 0.000000 1.814650 
# 
# From -- ./inp_files/32944.got.cif
#   From: 2010.05.17/outbox.cif.g08.bks.cpg/sg51_17_cif.got.tgz:32944.got - 2010.06.03 11:52:47.
