data_PCOD9401517
_publ_section_title
;
Structure prediction by ZEFSAII (Michael W. Deem and Ramdas Pophale) SiO2 
 PCOD9401517
Probable space group: P M M A
;
_chemical_formula_sum "Si O2"
_cell_formula_units_Z 64
_cell_length_a 9.151320
_cell_length_b 14.715142
_cell_length_c 25.118053
_cell_angle_alpha 90.000000
_cell_angle_beta 90.000000
_cell_angle_gamma 90.000000
_cell_volume 3382.471700
_symmetry_space_group_name_H-M "P M M A"
_symmetry_group_IT_number 51
_symmetry_cell_setting 'orthorhombic'
loop_
_space_group_symop_operation_xyz
x,y,z
1/2-x,-y,z
1/2+x,-y,-z
-x,y,-z
-x,-y,-z
1/2+x,y,-z
1/2-x,y,z
x,-y,z
loop_
_atom_site_type_symbol
_atom_site_label
_atom_site_fract_x
_atom_site_fract_y
_atom_site_fract_z
Si Si1 0.924477 0.109240 0.778491
Si Si2 0.426434 0.396706 0.942277
Si Si3 0.081592 0.890888 0.666456
Si Si4 0.927435 0.602410 0.234699
Si Si5 0.087371 0.608019 0.653324
Si Si6 0.410633 0.356898 0.450798
Si Si7 0.583221 0.859687 0.553451
Si Si8 0.573742 0.251855 0.145914
O O1 0.750000 0.126058 0.775732
O O2 0.999783 0.136242 0.721599
O O3 0.994703 0.163862 0.828569
O O4 0.946051 0.000000 0.784787
O O5 0.250000 0.394794 0.946069
O O6 0.461525 0.500000 0.920295
O O7 0.467547 0.306555 0.908186
O O8 0.500000 0.391927 0.000000
O O9 0.250000 0.857160 0.666114
O O10 0.001154 0.870431 0.609990
O O11 0.086773 0.000000 0.668556
O O12 0.750000 0.598202 0.238504
O O13 0.980594 0.500000 0.225581
O O14 0.977051 0.641601 0.291266
O O15 0.961952 0.670018 0.188473
O O16 0.250000 0.644322 0.643466
O O17 0.099434 0.500000 0.661329
O O18 0.988603 0.624508 0.603846
O O19 0.500000 0.393718 0.500000
O O20 0.250000 0.394571 0.451194
O O21 0.404271 0.248187 0.455466
O O22 0.500000 0.894681 0.500000
O O23 0.750000 0.895050 0.557283
O O24 0.750000 0.235958 0.144850
#
# Coordination Sequence:
#
# PCOD9401517 Si02
#       8
#     8   8   8   8   8   8   8   8
#     4  10  22  39  56  78 112 150 187 233 287 340
#     4   9  18  33  55  86 126 166 201 237 277 325
#     4  10  21  37  57  79 102 132 172 218 270 331
#     4   8  15  29  49  76 108 138 171 212 262 322
#     4   9  18  32  49  69  94 125 160 201 253 312
#     4  10  21  35  50  68  90 120 160 206 254 308
#     4  10  21  36  53  75 101 131 167 212 268 331
#     4  10  19  32  56  87 112 147 193 235 277 324
#
# _framework density 18.921074999999998
#
# number of rings (size 3 to 8) (size 9 to 14) (size 15 to 20)
#    0.000    2.500    0.000    2.625    1.750    5.750 
#    0.000    0.000    0.000    2.250    0.000    0.000 
#    0.000    0.000    0.000    0.000    0.000    0.000 
#
# Total GULP energy -356495.760064 kJ/mol
# GULP energy per Si atom -5570.246251 kJ/mol
# Density = 1.887801 g / cm^3
# Si number density = 18.921075 Si / 1000 Ang^3
#
#
#
# Elastic Constant Matrix: (Units=GPa)
#
#
# Indices 1 2 3 4 5 6 
#
# 1 90.1729 34.7765 53.8098 0.0000 0.0000 0.0000
# 2 34.7765 89.5870 37.5899 0.0000 0.0000 0.0000
# 3 53.8098 37.5899 115.7148 0.0000 0.0000 0.0000
# 4 0.0000 0.0000 0.0000 33.3135 0.0000 0.0000
# 5 0.0000 0.0000 0.0000 0.0000 31.6604 0.0000
# 6 0.0000 0.0000 0.0000 0.0000 0.0000 -41.8795
#
#
#
# Elastic Compliance Matrix: (Units=1/GPa)
#
#
# Indices 1 2 3 4 5 6 
#
# 1 0.016318 -0.003648 -0.006403 0.000000 0.000000 0.000000
# 2 -0.003648 0.013739 -0.002767 0.000000 0.000000 0.000000
# 3 -0.006403 -0.002767 0.012518 0.000000 0.000000 0.000000
# 4 0.000000 0.000000 0.000000 0.030018 0.000000 0.000000
# 5 0.000000 0.000000 0.000000 0.000000 0.031585 0.000000
# 6 0.000000 0.000000 0.000000 0.000000 0.000000 -0.023878
#
#
# Mechanical properties :
#
#
# Convention : Reuss Voigt Hill
#
# Bulk Modulus (GPa) = 59.03236 60.86968 59.95102
# Shear Modulus (GPa) = 44.81005 15.90545 30.35775
#
# Velocity S-wave (km/s) = 4.87176 2.90249 4.00989
# Velocity P-wave (km/s) = 7.93173 6.59339 7.29332
#
# Compressibility (1/GPa) = 0.01693986
#
# Stress axis : x y z
#
# Youngs Moduli (GPa) = 61.28379 72.78404 79.88273
#
# Poissons Ratio (x) = 0.26549 0.51149
# Poissons Ratio (y) = 0.22354 0.22104
# Poissons Ratio (z) = 0.39240 0.20139
#
# Static dielectric constant tensor:
#      x y z
#    x 1.696470 0.000000 0.000000 
#    y 0.000000 1.708900 0.000000 
#    z 0.000000 0.000000 1.668900 
# 
# From -- ./inp_files/34989.got.cif
#   From: 2010.05.17/outbox.cif.g08.bks.cpg/sg51_18_cif.got.tgz:34989.got - 2010.06.03 11:52:47.
