data_PCOD9401254
_publ_section_title
;
Structure prediction by ZEFSAII (Michael W. Deem and Ramdas Pophale) SiO2 
 PCOD9401254
Probable space group: P M M A
;
_chemical_formula_sum "Si O2"
_cell_formula_units_Z 56
_cell_length_a 14.235049
_cell_length_b 15.500116
_cell_length_c 12.293145
_cell_angle_alpha 90.000000
_cell_angle_beta 90.000000
_cell_angle_gamma 90.000000
_cell_volume 2712.419882
_symmetry_space_group_name_H-M "P M M A"
_symmetry_group_IT_number 51
_symmetry_cell_setting 'orthorhombic'
loop_
_space_group_symop_operation_xyz
x,y,z
1/2-x,-y,z
1/2+x,-y,-z
-x,y,-z
-x,-y,-z
1/2+x,y,-z
1/2-x,y,z
x,-y,z
loop_
_atom_site_type_symbol
_atom_site_label
_atom_site_fract_x
_atom_site_fract_y
_atom_site_fract_z
Si Si1 0.549741 0.903741 0.766290
Si Si2 0.144906 0.095606 0.010552
Si Si3 0.359393 0.368461 0.780671
Si Si4 0.024992 0.596758 0.380601
Si Si5 0.638613 0.280358 0.769002
Si Si6 0.145673 0.833794 0.782492
Si Si7 0.863951 0.598347 0.966533
O O1 0.567932 0.902433 0.896707
O O2 0.602148 0.815005 0.738449
O O3 0.440911 0.888790 0.739415
O O4 0.580845 0.000000 0.730360
O O5 0.250000 0.104823 0.061334
O O6 0.142233 0.000000 0.959404
O O7 0.138563 0.162165 0.913912
O O8 0.250000 0.395825 0.768921
O O9 0.433143 0.406511 0.696246
O O10 0.363156 0.266316 0.756033
O O11 0.387576 0.386043 0.906552
O O12 0.062151 0.500000 0.393938
O O13 0.000000 0.630545 0.500000
O O14 0.100328 0.655552 0.321509
O O15 0.750000 0.277558 0.773552
O O16 0.605516 0.325158 0.883789
O O17 0.250000 0.865116 0.753349
O O18 0.750000 0.598698 0.962085
O O19 0.894105 0.500000 0.934933
#
# Coordination Sequence:
#
# PCOD9401254 Si02
#       7
#     8   8   8   8   8   8   8
#     4  11  21  34  55  83 118 162 207 253 306 365
#     4   9  17  28  44  74 117 161 205 249 293 352
#     4  10  20  37  61  91 127 163 201 250 307 371
#     4  11  25  44  66  93 123 159 209 260 309 367
#     4  11  23  41  63  91 128 166 207 255 307 368
#     4  10  19  32  51  78 115 160 203 247 302 363
#     4   9  18  33  57  90 127 165 202 243 300 372
#
# _framework density 20.645771
#
# number of rings (size 3 to 8) (size 9 to 14) (size 15 to 20)
#    0.000    1.857    1.429    3.000    0.000    8.000 
#    0.000    2.857    0.000    0.429    0.000    0.000 
#    0.000    0.000    0.000    0.000    0.000    0.000 
#
# Total GULP energy -312481.292463 kJ/mol
# GULP energy per Si atom -5580.023080 kJ/mol
# Density = 2.059878 g / cm^3
# Si number density = 20.645771 Si / 1000 Ang^3
#
#
#
# Elastic Constant Matrix: (Units=GPa)
#
#
# Indices 1 2 3 4 5 6 
#
# 1 96.3372 38.1237 12.2380 0.0000 0.0000 0.0000
# 2 38.1237 86.4429 17.3563 0.0000 0.0000 0.0000
# 3 12.2380 17.3563 55.3835 0.0000 0.0000 0.0000
# 4 0.0000 0.0000 0.0000 -230.3669 0.0000 0.0000
# 5 0.0000 0.0000 0.0000 0.0000 13.5539 0.0000
# 6 0.0000 0.0000 0.0000 0.0000 0.0000 14.3717
#
#
#
# Elastic Compliance Matrix: (Units=1/GPa)
#
#
# Indices 1 2 3 4 5 6 
#
# 1 0.012639 -0.005350 -0.001116 0.000000 0.000000 0.000000
# 2 -0.005350 0.014610 -0.003396 0.000000 0.000000 0.000000
# 3 -0.001116 -0.003396 0.019367 0.000000 0.000000 0.000000
# 4 0.000000 0.000000 0.000000 -0.004341 0.000000 0.000000
# 5 0.000000 0.000000 0.000000 0.000000 0.073779 0.000000
# 6 0.000000 0.000000 0.000000 0.000000 0.000000 0.069581
#
#
# Mechanical properties :
#
#
# Convention : Reuss Voigt Hill
#
# Bulk Modulus (GPa) = 37.18761 41.51108 39.34934
# Shear Modulus (GPa) = 23.32910 -29.12522 -2.89806
#
# Velocity S-wave (km/s) = 3.36515 -3.76002 -1.18607
# Velocity P-wave (km/s) = 5.75763 1.14003 4.15030
#
# Compressibility (1/GPa) = 0.02689068
#
# Stress axis : x y z
#
# Youngs Moduli (GPa) = 79.11880 68.44714 51.63451
#
# Poissons Ratio (x) = 0.36620 0.05763
# Poissons Ratio (y) = 0.42330 0.17537
# Poissons Ratio (z) = 0.08831 0.23247
#
# Static dielectric constant tensor:
#      x y z
#    x 1.802080 0.000000 0.000000 
#    y 0.000000 1.802640 0.000000 
#    z 0.000000 0.000000 1.695470 
# 
# From -- ./inp_files/16576.got.cif
#   From: 2010.05.17/outbox.cif.g08.bks.cpg/sg51_9_cif.got.tgz:16576.got - 2010.06.03 11:52:47.
