data_PCOD9401956
_publ_section_title
;
Structure prediction by ZEFSAII (Michael W. Deem and Ramdas Pophale) SiO2 
 PCOD9401956
Probable space group: P M M A
;
_chemical_formula_sum "Si O2"
_cell_formula_units_Z 64
_cell_length_a 9.226082
_cell_length_b 20.699323
_cell_length_c 18.195946
_cell_angle_alpha 90.000000
_cell_angle_beta 90.000000
_cell_angle_gamma 90.000000
_cell_volume 3474.946247
_symmetry_space_group_name_H-M "P M M A"
_symmetry_group_IT_number 51
_symmetry_cell_setting 'orthorhombic'
loop_
_space_group_symop_operation_xyz
x,y,z
1/2-x,-y,z
1/2+x,-y,-z
-x,y,-z
-x,-y,-z
1/2+x,y,-z
1/2-x,y,z
x,-y,z
loop_
_atom_site_type_symbol
_atom_site_label
_atom_site_fract_x
_atom_site_fract_y
_atom_site_fract_z
Si Si1 0.409483 0.926643 0.563018
Si Si2 0.076239 0.573773 0.267072
Si Si3 0.924045 0.361832 0.575087
Si Si4 0.084144 0.751644 0.649999
Si Si5 0.074871 0.797836 0.923403
Si Si6 0.079166 0.117275 0.307246
Si Si7 0.586070 0.315311 0.191032
Si Si8 0.922612 0.924619 0.861407
O O1 0.500000 0.890818 0.500000
O O2 0.250000 0.899088 0.575958
O O3 0.505618 0.929615 0.635025
O O4 0.387055 0.000000 0.538189
O O5 0.250000 0.576937 0.261254
O O6 0.028190 0.500000 0.257182
O O7 0.042429 0.596495 0.351088
O O8 0.009831 0.621532 0.205902
O O9 0.750000 0.359562 0.566400
O O10 0.000000 0.385325 0.500000
O O11 0.990946 0.291671 0.594487
O O12 0.250000 0.759438 0.624201
O O13 0.091777 0.714989 0.727790
O O14 0.002975 0.816988 0.672023
O O15 0.250000 0.800876 0.928036
O O16 0.036335 0.742232 0.863469
O O17 0.012677 0.868659 0.901958
O O18 0.000000 0.779968 0.000000
O O19 0.250000 0.124262 0.319075
O O20 0.057578 0.091896 0.224858
O O21 0.750000 0.333069 0.168520
O O22 0.750000 0.918012 0.877904
O O23 0.962560 0.000000 0.875669
#
# Coordination Sequence:
#
# PCOD9401956 Si02
#       8
#     8   8   8   8   8   8   8   8
#     4  10  21  36  52  70  95 129 171 221 277 333
#     4   9  19  35  57  86 118 154 196 238 284 339
#     4  10  20  34  51  76 112 153 196 240 289 338
#     4  10  19  34  54  76 104 139 184 234 282 332
#     4  11  23  40  62  90 119 151 190 232 282 341
#     4  11  21  34  55  80 107 139 181 231 285 340
#     4   9  19  36  58  84 115 147 186 233 278 330
#     4  10  22  39  59  85 117 153 192 234 284 344
#
# _framework density 18.417549999999999
#
# number of rings (size 3 to 8) (size 9 to 14) (size 15 to 20)
#    0.000    2.000    1.250    2.250    0.000    5.250 
#    0.000    2.500    0.000    0.375    0.000    0.000 
#    0.000    0.000    0.000    0.000    0.000    0.000 
#
# Total GULP energy -356580.957331 kJ/mol
# GULP energy per Si atom -5571.577458 kJ/mol
# Density = 1.837563 g / cm^3
# Si number density = 18.417550 Si / 1000 Ang^3
#
#
#
# Elastic Constant Matrix: (Units=GPa)
#
#
# Indices 1 2 3 4 5 6 
#
# 1 77.1649 47.2363 40.7921 0.0000 0.0000 0.0000
# 2 47.2363 126.9347 27.6654 0.0000 0.0000 0.0000
# 3 40.7921 27.6654 68.2337 0.0000 0.0000 0.0000
# 4 0.0000 0.0000 0.0000 20.8440 0.0000 0.0000
# 5 0.0000 0.0000 0.0000 0.0000 25.9046 0.0000
# 6 0.0000 0.0000 0.0000 0.0000 0.0000 39.0619
#
#
#
# Elastic Compliance Matrix: (Units=1/GPa)
#
#
# Indices 1 2 3 4 5 6 
#
# 1 0.022404 -0.005943 -0.010984 0.000000 0.000000 0.000000
# 2 -0.005943 0.010218 -0.000590 0.000000 0.000000 0.000000
# 3 -0.010984 -0.000590 0.021461 0.000000 0.000000 0.000000
# 4 0.000000 0.000000 0.000000 0.047975 0.000000 0.000000
# 5 0.000000 0.000000 0.000000 0.000000 0.038603 0.000000
# 6 0.000000 0.000000 0.000000 0.000000 0.000000 0.025600
#
#
# Mechanical properties :
#
#
# Convention : Reuss Voigt Hill
#
# Bulk Modulus (GPa) = 52.49607 55.96900 54.23253
# Shear Modulus (GPa) = 24.07936 27.60474 25.84205
#
# Velocity S-wave (km/s) = 3.61974 3.87567 3.74989
# Velocity P-wave (km/s) = 6.78492 7.10512 6.94687
#
# Compressibility (1/GPa) = 0.01904905
#
# Stress axis : x y z
#
# Youngs Moduli (GPa) = 44.63496 97.86353 46.59549
#
# Poissons Ratio (x) = 0.58163 0.51181
# Poissons Ratio (y) = 0.26528 0.02749
# Poissons Ratio (z) = 0.49027 0.05774
#
# Static dielectric constant tensor:
#      x y z
#    x 1.675000 0.000000 0.000000 
#    y 0.000000 1.694120 0.000000 
#    z 0.000000 0.000000 1.788040 
# 
# From -- ./inp_files/28444.got.cif
#   From: 2010.05.17/outbox.cif.g08.bks.cpg/sg51_15_cif.got.tgz:28444.got - 2010.06.03 11:52:47.
