data_PCOD9401445
_publ_section_title
;
Structure prediction by ZEFSAII (Michael W. Deem and Ramdas Pophale) SiO2 
 PCOD9401445
Probable space group: P M M A
;
_chemical_formula_sum "Si O2"
_cell_formula_units_Z 64
_cell_length_a 8.894865
_cell_length_b 24.921855
_cell_length_c 15.770359
_cell_angle_alpha 90.000000
_cell_angle_beta 90.000000
_cell_angle_gamma 90.000000
_cell_volume 3495.918551
_symmetry_space_group_name_H-M "P M M A"
_symmetry_group_IT_number 51
_symmetry_cell_setting 'orthorhombic'
loop_
_space_group_symop_operation_xyz
x,y,z
1/2-x,-y,z
1/2+x,-y,-z
-x,y,-z
-x,-y,-z
1/2+x,y,-z
1/2-x,y,z
x,-y,z
loop_
_atom_site_type_symbol
_atom_site_label
_atom_site_fract_x
_atom_site_fract_y
_atom_site_fract_z
Si Si1 0.070262 0.854453 0.233604
Si Si2 0.425864 0.562636 0.762582
Si Si3 0.072456 0.732249 0.197777
Si Si4 0.072322 0.596199 0.413784
Si Si5 0.568755 0.062442 0.909528
Si Si6 0.926598 0.294103 0.371514
Si Si7 0.572327 0.633489 0.910020
Si Si8 0.071401 0.170260 0.587801
O O1 0.250000 0.859572 0.245282
O O2 0.042558 0.795580 0.192883
O O3 0.019247 0.899956 0.168030
O O4 0.995006 0.854941 0.326160
O O5 0.250000 0.576922 0.755801
O O6 0.437986 0.500000 0.784916
O O7 0.502396 0.571936 0.671543
O O8 0.503081 0.598148 0.834714
O O9 0.250000 0.725862 0.221741
O O10 0.047464 0.695825 0.115788
O O11 0.968641 0.709322 0.272393
O O12 0.250000 0.589187 0.414785
O O13 0.000000 0.574022 0.500000
O O14 0.028749 0.659262 0.409299
O O15 0.750000 0.065999 0.915120
O O16 0.528708 0.000000 0.894948
O O17 0.500000 0.078801 0.000000
O O18 0.750000 0.306067 0.384319
O O19 0.959446 0.234421 0.405339
O O20 0.750000 0.624094 0.913327
O O21 0.500000 0.621067 0.000000
O O22 0.250000 0.163215 0.586236
O O23 0.000000 0.150447 0.500000
#
# Coordination Sequence:
#
# PCOD9401445 Si02
#       8
#     8   8   8   8   8   8   8   8
#     4   9  18  33  53  78 112 150 188 231 278 330
#     4  11  25  45  66  86 110 141 181 232 284 335
#     4   9  18  33  53  79 111 148 184 221 273 329
#     4  12  24  38  59  86 115 148 184 224 272 330
#     4   9  18  33  54  80 110 147 190 236 284 331
#     4  10  19  32  53  80 111 146 183 223 269 322
#     4  11  23  39  61  87 114 147 184 226 277 335
#     4  10  20  32  49  77 111 149 189 229 275 326
#
# _framework density 18.307061999999998
#
# number of rings (size 3 to 8) (size 9 to 14) (size 15 to 20)
#    0.000    1.875    1.250    3.000    0.000    5.500 
#    0.000    0.000    0.000    0.375    0.000    0.000 
#    0.000    0.000    0.000    0.000    0.000    0.000 
#
# Total GULP energy -357364.300824 kJ/mol
# GULP energy per Si atom -5583.817200 kJ/mol
# Density = 1.826539 g / cm^3
# Si number density = 18.307062 Si / 1000 Ang^3
#
#
#
# Elastic Constant Matrix: (Units=GPa)
#
#
# Indices 1 2 3 4 5 6 
#
# 1 75.8098 35.3214 64.1305 0.0000 0.0000 0.0000
# 2 35.3214 64.3320 62.3690 0.0000 0.0000 0.0000
# 3 64.1305 62.3690 159.2327 0.0000 0.0000 0.0000
# 4 0.0000 0.0000 0.0000 -7.6699 0.0000 0.0000
# 5 0.0000 0.0000 0.0000 0.0000 33.7162 0.0000
# 6 0.0000 0.0000 0.0000 0.0000 0.0000 17.7528
#
#
#
# Elastic Compliance Matrix: (Units=1/GPa)
#
#
# Indices 1 2 3 4 5 6 
#
# 1 0.021109 -0.005397 -0.006388 0.000000 0.000000 0.000000
# 2 -0.005397 0.026441 -0.008183 0.000000 0.000000 0.000000
# 3 -0.006388 -0.008183 0.012058 0.000000 0.000000 0.000000
# 4 0.000000 0.000000 0.000000 -0.130381 0.000000 0.000000
# 5 0.000000 0.000000 0.000000 0.000000 0.029659 0.000000
# 6 0.000000 0.000000 0.000000 0.000000 0.000000 0.056329
#
#
# Mechanical properties :
#
#
# Convention : Reuss Voigt Hill
#
# Bulk Modulus (GPa) = 50.83240 69.22404 60.02822
# Shear Modulus (GPa) = 81.02675 17.93007 49.47841
#
# Velocity S-wave (km/s) = 6.66002 3.13294 5.20439
# Velocity P-wave (km/s) = 9.32567 7.14017 8.30512
#
# Compressibility (1/GPa) = 0.01967249
#
# Stress axis : x y z
#
# Youngs Moduli (GPa) = 47.37285 37.82043 82.93414
#
# Poissons Ratio (x) = 0.20413 0.52975
# Poissons Ratio (y) = 0.25568 0.67863
# Poissons Ratio (z) = 0.30260 0.30947
#
# Static dielectric constant tensor:
#      x y z
#    x 1.611260 0.000000 0.000000 
#    y 0.000000 1.637470 0.000000 
#    z 0.000000 0.000000 1.622400 
# 
# From -- ./inp_files/22354.got.cif
#   From: 2010.05.17/outbox.cif.g08.bks.cpg/sg51_12_cif.got.tgz:22354.got - 2010.06.03 11:52:47.
