data_PCOD9401338
_publ_section_title
;
Structure prediction by ZEFSAII (Michael W. Deem and Ramdas Pophale) SiO2 
 PCOD9401338
Probable space group: P M M A
;
_chemical_formula_sum "Si O2"
_cell_formula_units_Z 40
_cell_length_a 14.064167
_cell_length_b 13.263816
_cell_length_c 9.291939
_cell_angle_alpha 90.000000
_cell_angle_beta 90.000000
_cell_angle_gamma 90.000000
_cell_volume 1733.360331
_symmetry_space_group_name_H-M "P M M A"
_symmetry_group_IT_number 51
_symmetry_cell_setting 'orthorhombic'
loop_
_space_group_symop_operation_xyz
x,y,z
1/2-x,-y,z
1/2+x,-y,-z
-x,y,-z
-x,-y,-z
1/2+x,y,-z
1/2-x,y,z
x,-y,z
loop_
_atom_site_type_symbol
_atom_site_label
_atom_site_fract_x
_atom_site_fract_y
_atom_site_fract_z
Si Si1 0.866076 0.204497 0.126510
Si Si2 0.403605 0.611710 0.408067
Si Si3 0.635315 0.614071 0.919490
Si Si4 0.142525 0.184826 0.553455
Si Si5 0.133463 0.000000 0.362844
Si Si6 0.634329 0.000000 0.964688
O O1 0.750000 0.209279 0.130565
O O2 0.902669 0.201602 0.290151
O O3 0.893782 0.301895 0.033902
O O4 0.893040 0.101508 0.047116
O O5 0.500000 0.609343 0.500000
O O6 0.359258 0.500000 0.426931
O O7 0.412550 0.625568 0.236603
O O8 0.353180 0.709502 0.471172
O O9 0.750000 0.623850 0.894782
O O10 0.618167 0.500000 0.972455
O O11 0.250000 0.149297 0.583715
O O12 0.102588 0.099007 0.449707
O O13 0.250000 0.000000 0.354032
O O14 0.099543 0.000000 0.199096
O O15 0.750000 0.000000 0.961490
#
# Coordination Sequence:
#
# PCOD9401338 Si02
#       6
#     8   8   8   8   4   4
#     4   9  17  28  46  74 104 130 159 201 249 295
#     4  10  21  36  52  72 100 134 172 212 253 298
#     4   9  17  31  51  73  97 127 164 204 247 298
#     4  10  19  32  52  78 105 131 165 209 253 296
#     4   9  17  29  50  79 106 133 166 204 246 295
#     4   9  15  25  43  69 102 133 159 192 241 297
#
# _framework density 23.076563
#
# number of rings (size 3 to 8) (size 9 to 14) (size 15 to 20)
#    0.000    2.600    0.000    2.400    0.000    7.600 
#    0.000    3.500    0.000    3.600    0.000    4.200 
#    0.000    0.000    0.000    0.000    0.000    0.000 
#
# Total GULP energy -223542.992970 kJ/mol
# GULP energy per Si atom -5588.574824 kJ/mol
# Density = 2.302404 g / cm^3
# Si number density = 23.076563 Si / 1000 Ang^3
#
#
#
# Elastic Constant Matrix: (Units=GPa)
#
#
# Indices 1 2 3 4 5 6 
#
# 1 56.3601 -2.9407 -12.9611 0.0000 0.0000 0.0000
# 2 -2.9407 217.4154 136.6401 0.0000 0.0000 0.0000
# 3 -12.9611 136.6401 177.7986 0.0000 0.0000 0.0000
# 4 0.0000 0.0000 0.0000 58.0097 0.0000 0.0000
# 5 0.0000 0.0000 0.0000 0.0000 18.9874 0.0000
# 6 0.0000 0.0000 0.0000 0.0000 0.0000 -8.1671
#
#
#
# Elastic Compliance Matrix: (Units=1/GPa)
#
#
# Indices 1 2 3 4 5 6 
#
# 1 0.018189 -0.001136 0.002199 0.000000 0.000000 0.000000
# 2 -0.001136 0.008967 -0.006974 0.000000 0.000000 0.000000
# 3 0.002199 -0.006974 0.011144 0.000000 0.000000 0.000000
# 4 0.000000 0.000000 0.000000 0.017238 0.000000 0.000000
# 5 0.000000 0.000000 0.000000 0.000000 0.052667 0.000000
# 6 0.000000 0.000000 0.000000 0.000000 0.000000 -0.122443
#
#
# Mechanical properties :
#
#
# Convention : Reuss Voigt Hill
#
# Bulk Modulus (GPa) = 37.76624 77.00564 57.38594
# Shear Modulus (GPa) = 779.76615 35.82173 407.79394
#
# Velocity S-wave (km/s) = 18.40211 3.94420 13.30778
# Velocity P-wave (km/s) = 21.63141 7.36100 16.15707
#
# Compressibility (1/GPa) = 0.02647867
#
# Stress axis : x y z
#
# Youngs Moduli (GPa) = 54.97684 111.51674 89.73100
#
# Poissons Ratio (x) = 0.12668 -0.19732
# Poissons Ratio (y) = 0.06245 0.62581
# Poissons Ratio (z) = -0.12089 0.77775
#
# Static dielectric constant tensor:
#      x y z
#    x 1.941740 0.000000 0.000000 
#    y 0.000000 1.819020 0.000000 
#    z 0.000000 0.000000 1.801310 
# 
# From -- ./inp_files/10672.got.cif
#   From: 2010.05.17/outbox.cif.g08.bks.cpg/sg51_6_cif.got.tgz:10672.got - 2010.06.03 11:52:47.
