data_PCOD9401139
_publ_section_title
;
Structure prediction by ZEFSAII (Michael W. Deem and Ramdas Pophale) SiO2 
 PCOD9401139
Probable space group: P M M A
;
_chemical_formula_sum "Si O2"
_cell_formula_units_Z 64
_cell_length_a 19.238969
_cell_length_b 7.386248
_cell_length_c 20.549717
_cell_angle_alpha 90.000000
_cell_angle_beta 90.000000
_cell_angle_gamma 90.000000
_cell_volume 2920.192799
_symmetry_space_group_name_H-M "P M M A"
_symmetry_group_IT_number 51
_symmetry_cell_setting 'orthorhombic'
loop_
_space_group_symop_operation_xyz
x,y,z
1/2-x,-y,z
1/2+x,-y,-z
-x,y,-z
-x,-y,-z
1/2+x,y,-z
1/2-x,y,z
x,-y,z
loop_
_atom_site_type_symbol
_atom_site_label
_atom_site_fract_x
_atom_site_fract_y
_atom_site_fract_z
Si Si1 0.411378 0.220310 0.059047
Si Si2 0.925864 0.720454 0.469547
Si Si3 0.426783 0.712658 0.297162
Si Si4 0.673262 0.218049 0.821266
Si Si5 0.328207 0.786972 0.801751
Si Si6 0.080476 0.281474 0.679443
Si Si7 0.329297 0.278730 0.413789
Si Si8 0.932632 0.220715 0.087417
O O1 0.351432 0.279704 0.107767
O O2 0.486485 0.276731 0.087704
O O3 0.411695 0.000000 0.058447
O O4 0.405220 0.275473 0.984024
O O5 0.927785 0.500000 0.468596
O O6 0.914334 0.779436 0.395442
O O7 0.864695 0.774270 0.518392
O O8 0.000000 0.777641 0.500000
O O9 0.434521 0.500000 0.311384
O O10 0.384495 0.732644 0.231156
O O11 0.505105 0.784047 0.295009
O O12 0.379179 0.785416 0.355624
O O13 0.750000 0.284653 0.803485
O O14 0.675752 0.000000 0.822367
O O15 0.250000 0.711966 0.806367
O O16 0.359833 0.771443 0.729647
O O17 0.384210 0.713789 0.853935
O O18 0.323134 0.000000 0.816352
O O19 0.081273 0.500000 0.678846
O O20 0.250000 0.218595 0.406412
O O21 0.328348 0.500000 0.411964
O O22 0.933606 0.000000 0.089387
#
# Coordination Sequence:
#
# PCOD9401139 Si02
#       8
#     8   8   8   8   8   8   8   8
#     4   8  14  26  46  71  96 123 162 210 251 289
#     4   9  15  28  48  71  99 125 156 204 252 294
#     4  10  19  32  50  72  98 130 165 202 245 296
#     4  10  20  31  45  70 103 134 162 198 246 294
#     4  10  21  35  51  74 105 139 171 204 247 300
#     4  10  20  33  54  78 100 129 165 208 255 298
#     4   9  16  26  44  70  96 124 159 199 244 290
#     4   8  14  27  48  71  94 125 166 208 248 291
#
# _framework density 21.916361999999999
#
# number of rings (size 3 to 8) (size 9 to 14) (size 15 to 20)
#    0.000    2.750    1.250    1.875    0.000    3.500 
#    0.000    3.750    0.000    1.875    0.000    7.000 
#    0.000    0.000    0.000    0.000    0.000    0.000 
#
# Total GULP energy -357390.847740 kJ/mol
# GULP energy per Si atom -5584.231996 kJ/mol
# Density = 2.186648 g / cm^3
# Si number density = 21.916362 Si / 1000 Ang^3
#
#
#
# Elastic Constant Matrix: (Units=GPa)
#
#
# Indices 1 2 3 4 5 6 
#
# 1 76.0973 1.0525 28.6082 0.0000 0.0000 0.0000
# 2 1.0525 73.4855 -8.9851 0.0000 0.0000 0.0000
# 3 28.6082 -8.9851 100.5020 0.0000 0.0000 0.0000
# 4 0.0000 0.0000 0.0000 -14.2811 0.0000 0.0000
# 5 0.0000 0.0000 0.0000 0.0000 19.0777 0.0000
# 6 0.0000 0.0000 0.0000 0.0000 0.0000 2.3983
#
#
#
# Elastic Compliance Matrix: (Units=1/GPa)
#
#
# Indices 1 2 3 4 5 6 
#
# 1 0.014755 -0.000733 -0.004266 0.000000 0.000000 0.000000
# 2 -0.000733 0.013795 0.001442 0.000000 0.000000 0.000000
# 3 -0.004266 0.001442 0.011293 0.000000 0.000000 0.000000
# 4 0.000000 0.000000 0.000000 -0.070022 0.000000 0.000000
# 5 0.000000 0.000000 0.000000 0.000000 0.052417 0.000000
# 6 0.000000 0.000000 0.000000 0.000000 0.000000 0.416968
#
#
# Mechanical properties :
#
#
# Convention : Reuss Voigt Hill
#
# Bulk Modulus (GPa) = 30.55310 32.38179 31.46744
# Shear Modulus (GPa) = 10.93545 16.73291 13.83418
#
# Velocity S-wave (km/s) = 2.23617 2.76613 2.51515
# Velocity P-wave (km/s) = 4.54294 5.00092 4.77742
#
# Compressibility (1/GPa) = 0.03272991
#
# Stress axis : x y z
#
# Youngs Moduli (GPa) = 67.77454 72.49045 88.54922
#
# Poissons Ratio (x) = 0.05313 0.37771
# Poissons Ratio (y) = 0.04967 -0.12768
# Poissons Ratio (z) = 0.28909 -0.10452
#
# Static dielectric constant tensor:
#      x y z
#    x 1.797260 0.000000 0.000000 
#    y 0.000000 1.892060 0.000000 
#    z 0.000000 0.000000 1.765470 
# 
# From -- ./inp_files/33883.got.cif
#   From: 2010.05.17/outbox.cif.g08.bks.cpg/sg51_17_cif.got.tgz:33883.got - 2010.06.03 11:52:47.
