data_PCOD9401577
_publ_section_title
;
Structure prediction by ZEFSAII (Michael W. Deem and Ramdas Pophale) SiO2 
 PCOD9401577
Probable space group: P M M A
;
_chemical_formula_sum "Si O2"
_cell_formula_units_Z 64
_cell_length_a 8.700345
_cell_length_b 20.629732
_cell_length_c 20.533162
_cell_angle_alpha 90.000000
_cell_angle_beta 90.000000
_cell_angle_gamma 90.000000
_cell_volume 3685.410714
_symmetry_space_group_name_H-M "P M M A"
_symmetry_group_IT_number 51
_symmetry_cell_setting 'orthorhombic'
loop_
_space_group_symop_operation_xyz
x,y,z
1/2-x,-y,z
1/2+x,-y,-z
-x,y,-z
-x,-y,-z
1/2+x,y,-z
1/2-x,y,z
x,-y,z
loop_
_atom_site_type_symbol
_atom_site_label
_atom_site_fract_x
_atom_site_fract_y
_atom_site_fract_z
Si Si1 0.932102 0.428816 0.102017
Si Si2 0.064542 0.924862 0.570423
Si Si3 0.932192 0.752751 0.792144
Si Si4 0.934895 0.183350 0.328201
Si Si5 0.064721 0.290624 0.567483
Si Si6 0.563499 0.430034 0.388617
Si Si7 0.433398 0.290304 0.067714
Si Si8 0.930734 0.383158 0.246593
O O1 0.750000 0.423621 0.087072
O O2 0.987336 0.500000 0.080764
O O3 0.947470 0.423586 0.180454
O O4 0.015895 0.365564 0.075007
O O5 0.250000 0.921468 0.567034
O O6 0.014573 0.878913 0.629795
O O7 0.000000 0.904229 0.500000
O O8 0.020093 0.000000 0.580561
O O9 0.750000 0.760374 0.793327
O O10 0.988207 0.747135 0.867121
O O11 0.002164 0.806132 0.744127
O O12 0.975352 0.682663 0.762187
O O13 0.750000 0.182346 0.324593
O O14 0.980274 0.245462 0.372234
O O15 0.250000 0.290870 0.565154
O O16 0.008445 0.364413 0.577376
O O17 0.000000 0.264540 0.500000
O O18 0.750000 0.430526 0.394277
O O19 0.505638 0.500000 0.411893
O O20 0.528460 0.420979 0.311990
O O21 0.250000 0.287926 0.066178
O O22 0.500000 0.265038 0.000000
O O23 0.750000 0.364919 0.252537
#
# Coordination Sequence:
#
# PCOD9401577 Si02
#       8
#     8   8   8   8   8   8   8   8
#     4   9  17  28  45  68  89 114 151 193 241 300
#     4   9  18  32  51  77 110 144 175 205 238 281
#     4  10  20  32  49  73  97 119 153 199 245 283
#     4  10  19  33  52  73  97 129 167 199 235 282
#     4  10  20  32  45  64  87 117 155 196 239 284
#     4   9  16  27  44  62  81 109 148 194 241 289
#     4  10  21  35  49  67  92 124 156 194 244 298
#     4   9  15  28  47  65  86 113 149 192 241 295
#
# _framework density 17.365772
#
# number of rings (size 3 to 8) (size 9 to 14) (size 15 to 20)
#    0.000    2.500    1.250    1.500    0.000    4.750 
#    0.000    0.000    0.000    1.875    0.000    0.000 
#    0.000    0.500    0.000    1.125    0.000    1.750 
#
# Total GULP energy -356877.238842 kJ/mol
# GULP energy per Si atom -5576.206857 kJ/mol
# Density = 1.732625 g / cm^3
# Si number density = 17.365772 Si / 1000 Ang^3
#
#
#
# Elastic Constant Matrix: (Units=GPa)
#
#
# Indices 1 2 3 4 5 6 
#
# 1 10.4552 17.3514 25.7772 0.0000 0.0000 0.0000
# 2 17.3514 77.5511 48.4141 0.0000 0.0000 0.0000
# 3 25.7772 48.4141 127.0527 0.0000 0.0000 0.0000
# 4 0.0000 0.0000 0.0000 -2.5412 0.0000 0.0000
# 5 0.0000 0.0000 0.0000 0.0000 23.6404 0.0000
# 6 0.0000 0.0000 0.0000 0.0000 0.0000 9.0703
#
#
#
# Elastic Compliance Matrix: (Units=1/GPa)
#
#
# Indices 1 2 3 4 5 6 
#
# 1 0.234396 -0.029859 -0.036178 0.000000 0.000000 0.000000
# 2 -0.029859 0.020723 -0.001839 0.000000 0.000000 0.000000
# 3 -0.036178 -0.001839 0.015911 0.000000 0.000000 0.000000
# 4 0.000000 0.000000 0.000000 -0.393520 0.000000 0.000000
# 5 0.000000 0.000000 0.000000 0.000000 0.042300 0.000000
# 6 0.000000 0.000000 0.000000 0.000000 0.000000 0.110251
#
#
# Mechanical properties :
#
#
# Convention : Reuss Voigt Hill
#
# Bulk Modulus (GPa) = 7.39208 44.23828 25.81518
# Shear Modulus (GPa) = 23.70731 14.26832 18.98782
#
# Velocity S-wave (km/s) = 3.69884 2.86953 3.31025
# Velocity P-wave (km/s) = 4.74424 6.04224 5.43215
#
# Compressibility (1/GPa) = 0.13527989
#
# Stress axis : x y z
#
# Youngs Moduli (GPa) = 4.26629 48.25494 62.84791
#
# Poissons Ratio (x) = 1.44082 2.27370
# Poissons Ratio (y) = 0.12739 0.11557
# Poissons Ratio (z) = 0.15435 0.08873
#
# Static dielectric constant tensor:
#      x y z
#    x 1.583590 0.000000 0.000000 
#    y 0.000000 1.595200 0.000000 
#    z 0.000000 0.000000 1.612890 
# 
# From -- ./inp_files/32608.got.cif
#   From: 2010.05.17/outbox.cif.g08.bks.cpg/sg51_17_cif.got.tgz:32608.got - 2010.06.03 11:52:47.
