data_PCOD9401696
_publ_section_title
;
Structure prediction by ZEFSAII (Michael W. Deem and Ramdas Pophale) SiO2 
 PCOD9401696
Probable space group: P M M A
;
_chemical_formula_sum "Si O2"
_cell_formula_units_Z 40
_cell_length_a 8.346706
_cell_length_b 13.464836
_cell_length_c 20.057956
_cell_angle_alpha 90.000000
_cell_angle_beta 90.000000
_cell_angle_gamma 90.000000
_cell_volume 2254.254051
_symmetry_space_group_name_H-M "P M M A"
_symmetry_group_IT_number 51
_symmetry_cell_setting 'orthorhombic'
loop_
_space_group_symop_operation_xyz
x,y,z
1/2-x,-y,z
1/2+x,-y,-z
-x,y,-z
-x,-y,-z
1/2+x,y,-z
1/2-x,y,z
x,-y,z
loop_
_atom_site_type_symbol
_atom_site_label
_atom_site_fract_x
_atom_site_fract_y
_atom_site_fract_z
Si Si1 0.441603 0.612824 0.325286
Si Si2 0.944117 0.216967 0.076363
Si Si3 0.942087 0.217101 0.423677
Si Si4 0.556922 0.000000 0.076531
Si Si5 0.556459 0.612615 0.176071
Si Si6 0.943222 0.000000 0.423430
O O1 0.250000 0.612374 0.324012
O O2 0.496791 0.500000 0.341491
O O3 0.498308 0.693645 0.378124
O O4 0.503863 0.636496 0.251186
O O5 0.750000 0.218347 0.076075
O O6 0.996276 0.107679 0.102945
O O7 0.001436 0.306004 0.123274
O O8 0.000000 0.228013 0.000000
O O9 0.750000 0.217973 0.424036
O O10 0.000000 0.227467 0.500000
O O11 0.996616 0.107817 0.396986
O O12 0.750000 0.000000 0.078713
O O13 0.500000 0.000000 0.000000
O O14 0.750000 0.612754 0.174343
O O15 0.501715 0.500000 0.160776
O O16 0.000000 0.000000 0.500000
O O17 0.750000 0.000000 0.421215
#
# Coordination Sequence:
#
# PCOD9401696 Si02
#       6
#     8   8   8   4   8   4
#     4  10  21  36  52  71  97 130 167 205 246 291
#     4   9  17  29  47  70  94 121 154 192 233 280
#     4  10  19  33  54  78 103 130 162 200 241 287
#     4   8  14  26  43  64  91 121 151 185 229 278
#     4   9  18  33  50  67  91 125 161 196 239 289
#     4   8  16  30  49  74 101 129 159 193 237 286
#
# _framework density 17.744228
#
# number of rings (size 3 to 8) (size 9 to 14) (size 15 to 20)
#    0.000    2.800    0.000    1.200    0.000    3.600 
#    0.000    1.000    0.000    3.600    0.000    0.000 
#    0.000    0.000    0.000    0.000    0.000    0.000 
#
# Total GULP energy -222750.980973 kJ/mol
# GULP energy per Si atom -5568.774524 kJ/mol
# Density = 1.770384 g / cm^3
# Si number density = 17.744228 Si / 1000 Ang^3
#
#
#
# Elastic Constant Matrix: (Units=GPa)
#
#
# Indices 1 2 3 4 5 6 
#
# 1 10.1692 20.7986 11.3364 0.0000 0.0000 0.0000
# 2 20.7986 188.8525 105.5333 0.0000 0.0000 0.0000
# 3 11.3364 105.5333 83.3714 0.0000 0.0000 0.0000
# 4 0.0000 0.0000 0.0000 -1.4740 0.0000 0.0000
# 5 0.0000 0.0000 0.0000 0.0000 25.2173 0.0000
# 6 0.0000 0.0000 0.0000 0.0000 0.0000 16.9125
#
#
#
# Elastic Compliance Matrix: (Units=1/GPa)
#
#
# Indices 1 2 3 4 5 6 
#
# 1 0.126979 -0.014817 0.001489 0.000000 0.000000 0.000000
# 2 -0.014817 0.019823 -0.023078 0.000000 0.000000 0.000000
# 3 0.001489 -0.023078 0.041005 0.000000 0.000000 0.000000
# 4 0.000000 0.000000 0.000000 -0.678416 0.000000 0.000000
# 5 0.000000 0.000000 0.000000 0.000000 0.039655 0.000000
# 6 0.000000 0.000000 0.000000 0.000000 0.000000 0.059128
#
#
# Mechanical properties :
#
#
# Convention : Reuss Voigt Hill
#
# Bulk Modulus (GPa) = 8.69593 61.96997 35.33295
# Shear Modulus (GPa) = -17.81370 17.77948 -0.01711
#
# Velocity S-wave (km/s) = -3.17190 3.16885 -0.09830
# Velocity P-wave (km/s) = 2.91603 6.95620 4.46573
#
# Compressibility (1/GPa) = 0.11499632
#
# Stress axis : x y z
#
# Youngs Moduli (GPa) = 7.87530 50.44609 24.38756
#
# Poissons Ratio (x) = 0.74744 -0.03632
# Poissons Ratio (y) = 0.11669 0.56281
# Poissons Ratio (z) = -0.01173 1.16419
#
# Static dielectric constant tensor:
#      x y z
#    x 1.609210 0.000000 0.000000 
#    y 0.000000 1.669000 0.000000 
#    z 0.000000 0.000000 1.547730 
# 
# From -- ./inp_files/31389.got.cif
#   From: 2010.05.17/outbox.cif.g08.bks.cpg/sg51_16_cif.got.tgz:31389.got - 2010.06.03 11:52:47.
