data_PCOD9401006
_publ_section_title
;
Structure prediction by ZEFSAII (Michael W. Deem and Ramdas Pophale) SiO2 
 PCOD9401006
Probable space group: P M M A
;
_chemical_formula_sum "Si O2"
_cell_formula_units_Z 64
_cell_length_a 18.587552
_cell_length_b 13.245198
_cell_length_c 14.888675
_cell_angle_alpha 90.000000
_cell_angle_beta 90.000000
_cell_angle_gamma 90.000000
_cell_volume 3665.529350
_symmetry_space_group_name_H-M "P M M A"
_symmetry_group_IT_number 51
_symmetry_cell_setting 'orthorhombic'
loop_
_space_group_symop_operation_xyz
x,y,z
1/2-x,-y,z
1/2+x,-y,-z
-x,y,-z
-x,-y,-z
1/2+x,y,-z
1/2-x,y,z
x,-y,z
loop_
_atom_site_type_symbol
_atom_site_label
_atom_site_fract_x
_atom_site_fract_y
_atom_site_fract_z
Si Si1 0.162764 0.385499 0.117556
Si Si2 0.902643 0.618442 0.566711
Si Si3 0.951319 0.296865 0.378502
Si Si4 0.833729 0.277446 0.064807
Si Si5 0.169545 0.618959 0.748171
Si Si6 0.166970 0.748673 0.289649
Si Si7 0.528867 0.119477 0.714034
Si Si8 0.043200 0.880595 0.907879
O O1 0.250000 0.391180 0.114612
O O2 0.135390 0.500000 0.125140
O O3 0.145146 0.317411 0.202887
O O4 0.140341 0.331241 0.026003
O O5 0.889377 0.500000 0.549606
O O6 0.915977 0.680565 0.475125
O O7 0.843009 0.673710 0.625979
O O8 0.977695 0.632227 0.621145
O O9 0.893044 0.326264 0.305010
O O10 0.980919 0.185809 0.354759
O O11 0.750000 0.246947 0.053021
O O12 0.836276 0.355923 0.146785
O O13 0.884658 0.184825 0.089569
O O14 0.250000 0.651745 0.719236
O O15 0.163712 0.500000 0.732849
O O16 0.250000 0.780232 0.280947
O O17 0.110061 0.839201 0.296305
O O18 0.501192 0.140191 0.816183
O O19 0.524055 0.000000 0.698385
O O20 0.059210 0.000000 0.908001
O O21 0.000000 0.858581 0.000000
#
# Coordination Sequence:
#
# PCOD9401006 Si02
#       8
#     8   8   8   8   8   8   8   8
#     4   9  17  31  51  75 109 148 179 212 264 328
#     4  10  20  34  56  83 112 146 183 225 274 327
#     4  10  19  36  55  78 110 145 186 227 270 328
#     4  10  19  32  52  79 110 144 182 224 270 328
#     4  10  19  31  51  79 110 144 178 217 269 323
#     4  10  21  36  56  83 111 144 186 233 279 330
#     4  10  21  38  59  80 107 148 188 231 284 331
#     4  10  20  35  55  78 107 145 189 235 281 325
#
# _framework density 17.459961
#
# number of rings (size 3 to 8) (size 9 to 14) (size 15 to 20)
#    0.000    2.125    1.250    3.000    0.000    3.250 
#    0.000    5.000    0.000    6.375    0.000    0.000 
#    0.000    0.000    0.000    0.000    0.000    0.000 
#
# Total GULP energy -356849.473525 kJ/mol
# GULP energy per Si atom -5575.773024 kJ/mol
# Density = 1.742022 g / cm^3
# Si number density = 17.459961 Si / 1000 Ang^3
#
#
#
# Elastic Constant Matrix: (Units=GPa)
#
#
# Indices 1 2 3 4 5 6 
#
# 1 64.7027 46.9324 29.5756 0.0000 0.0000 0.0000
# 2 46.9324 105.8395 43.2445 0.0000 0.0000 0.0000
# 3 29.5756 43.2445 81.1573 0.0000 0.0000 0.0000
# 4 0.0000 0.0000 0.0000 23.3909 0.0000 0.0000
# 5 0.0000 0.0000 0.0000 0.0000 28.4769 0.0000
# 6 0.0000 0.0000 0.0000 0.0000 0.0000 19.1340
#
#
#
# Elastic Compliance Matrix: (Units=1/GPa)
#
#
# Indices 1 2 3 4 5 6 
#
# 1 0.023703 -0.008924 -0.003883 0.000000 0.000000 0.000000
# 2 -0.008924 0.015438 -0.004974 0.000000 0.000000 0.000000
# 3 -0.003883 -0.004974 0.016387 0.000000 0.000000 0.000000
# 4 0.000000 0.000000 0.000000 0.042752 0.000000 0.000000
# 5 0.000000 0.000000 0.000000 0.000000 0.035116 0.000000
# 6 0.000000 0.000000 0.000000 0.000000 0.000000 0.052263
#
#
# Mechanical properties :
#
#
# Convention : Reuss Voigt Hill
#
# Bulk Modulus (GPa) = 50.08400 54.57830 52.33115
# Shear Modulus (GPa) = 21.94172 22.99683 22.46927
#
# Velocity S-wave (km/s) = 3.54883 3.63315 3.59123
# Velocity P-wave (km/s) = 6.74830 6.99476 6.87263
#
# Compressibility (1/GPa) = 0.01996646
#
# Stress axis : x y z
#
# Youngs Moduli (GPa) = 42.18794 64.77602 61.02417
#
# Poissons Ratio (x) = 0.57809 0.23694
# Poissons Ratio (y) = 0.37650 0.30352
# Poissons Ratio (z) = 0.16380 0.32218
#
# Static dielectric constant tensor:
#      x y z
#    x 1.592040 0.000000 0.000000 
#    y 0.000000 1.564340 0.000000 
#    z 0.000000 0.000000 1.612490 
# 
# From -- ./inp_files/25214.got.cif
#   From: 2010.05.17/outbox.cif.g08.bks.cpg/sg51_13_cif.got.tgz:25214.got - 2010.06.03 11:52:47.
