data_PCOD9401493
_publ_section_title
;
Structure prediction by ZEFSAII (Michael W. Deem and Ramdas Pophale) SiO2 
 PCOD9401493
Probable space group: P M M A
;
_chemical_formula_sum "Si O2"
_cell_formula_units_Z 48
_cell_length_a 8.761172
_cell_length_b 21.006309
_cell_length_c 14.485818
_cell_angle_alpha 90.000000
_cell_angle_beta 90.000000
_cell_angle_gamma 90.000000
_cell_volume 2665.968297
_symmetry_space_group_name_H-M "P M M A"
_symmetry_group_IT_number 51
_symmetry_cell_setting 'orthorhombic'
loop_
_space_group_symop_operation_xyz
x,y,z
1/2-x,-y,z
1/2+x,-y,-z
-x,y,-z
-x,-y,-z
1/2+x,y,-z
1/2-x,y,z
x,-y,z
loop_
_atom_site_type_symbol
_atom_site_label
_atom_site_fract_x
_atom_site_fract_y
_atom_site_fract_z
Si Si1 0.432520 0.249650 0.101978
Si Si2 0.066650 0.620350 0.208782
Si Si3 0.431283 0.500000 0.896970
Si Si4 0.566534 0.323261 0.598179
Si Si5 0.934849 0.000000 0.103368
Si Si6 0.066800 0.181564 0.598034
Si Si7 0.933960 0.128543 0.207712
O O1 0.250000 0.245180 0.097956
O O2 0.472291 0.313996 0.156683
O O3 0.497277 0.188344 0.153953
O O4 0.500000 0.252609 0.000000
O O5 0.250000 0.611588 0.202989
O O6 0.026458 0.631549 0.316034
O O7 0.986956 0.561827 0.158934
O O8 0.250000 0.500000 0.904522
O O9 0.500000 0.500000 0.000000
O O10 0.500000 0.344780 0.500000
O O11 0.750000 0.318347 0.593189
O O12 0.500034 0.252402 0.615309
O O13 0.982534 0.936940 0.159412
O O14 0.750000 0.000000 0.097938
O O15 0.000000 0.000000 0.000000
O O16 0.250000 0.186241 0.591691
O O17 0.025800 0.137067 0.684527
O O18 0.000000 0.159879 0.500000
O O19 0.750000 0.131920 0.201686
#
# Coordination Sequence:
#
# PCOD9401493 Si02
#       7
#     8   8   4   8   4   8   8
#     4  11  22  36  56  83 113 144 186 237 286 337
#     4  10  22  40  60  84 116 152 190 234 284 337
#     4  12  26  42  63  86 115 154 195 236 284 342
#     4  10  19  34  57  87 118 150 186 231 283 336
#     4  10  22  40  57  78 110 150 193 234 287 344
#     4  10  19  32  54  83 114 148 185 231 284 338
#     4  10  21  37  57  81 111 149 190 235 285 339
#
# _framework density 18.004715999999998
#
# number of rings (size 3 to 8) (size 9 to 14) (size 15 to 20)
#    0.000    1.667    1.667    4.250    0.000    6.667 
#    0.000    0.833    0.000    0.000    0.000    0.000 
#    0.000    0.000    0.000    0.000    0.000    0.000 
#
# Total GULP energy -268127.929164 kJ/mol
# GULP energy per Si atom -5585.998524 kJ/mol
# Density = 1.796374 g / cm^3
# Si number density = 18.004716 Si / 1000 Ang^3
#
#
#
# Elastic Constant Matrix: (Units=GPa)
#
#
# Indices 1 2 3 4 5 6 
#
# 1 50.4926 55.1092 65.6403 0.0000 0.0000 0.0000
# 2 55.1092 148.1673 104.8297 0.0000 0.0000 0.0000
# 3 65.6403 104.8297 206.4728 0.0000 0.0000 0.0000
# 4 0.0000 0.0000 0.0000 44.5476 0.0000 0.0000
# 5 0.0000 0.0000 0.0000 0.0000 31.7020 0.0000
# 6 0.0000 0.0000 0.0000 0.0000 0.0000 19.8927
#
#
#
# Elastic Compliance Matrix: (Units=1/GPa)
#
#
# Indices 1 2 3 4 5 6 
#
# 1 0.040605 -0.009316 -0.008179 0.000000 0.000000 0.000000
# 2 -0.009316 0.012670 -0.003471 0.000000 0.000000 0.000000
# 3 -0.008179 -0.003471 0.009206 0.000000 0.000000 0.000000
# 4 0.000000 0.000000 0.000000 0.022448 0.000000 0.000000
# 5 0.000000 0.000000 0.000000 0.000000 0.031544 0.000000
# 6 0.000000 0.000000 0.000000 0.000000 0.000000 0.050270
#
#
# Mechanical properties :
#
#
# Convention : Reuss Voigt Hill
#
# Bulk Modulus (GPa) = 48.66441 95.14347 71.90394
# Shear Modulus (GPa) = 23.19923 31.19870 27.19896
#
# Velocity S-wave (km/s) = 3.59347 4.16722 3.89093
# Velocity P-wave (km/s) = 6.65618 8.72425 7.75943
#
# Compressibility (1/GPa) = 0.02054890
#
# Stress axis : x y z
#
# Youngs Moduli (GPa) = 24.62722 78.92729 108.62700
#
# Poissons Ratio (x) = 0.73528 0.88848
# Poissons Ratio (y) = 0.22943 0.37705
# Poissons Ratio (z) = 0.20143 0.27396
#
# Static dielectric constant tensor:
#      x y z
#    x 1.607900 0.000000 0.000000 
#    y 0.000000 1.585730 0.000000 
#    z 0.000000 0.000000 1.619050 
# 
# From -- ./inp_files/21239.got.cif
#   From: 2010.05.17/outbox.cif.g08.bks.cpg/sg51_11_cif.got.tgz:21239.got - 2010.06.03 11:52:47.
