data_PCOD9401335
_publ_section_title
;
Structure prediction by ZEFSAII (Michael W. Deem and Ramdas Pophale) SiO2 
 PCOD9401335
Probable space group: P M M A
;
_chemical_formula_sum "Si O2"
_cell_formula_units_Z 64
_cell_length_a 8.819250
_cell_length_b 25.346524
_cell_length_c 15.659514
_cell_angle_alpha 90.000000
_cell_angle_beta 90.000000
_cell_angle_gamma 90.000000
_cell_volume 3500.485977
_symmetry_space_group_name_H-M "P M M A"
_symmetry_group_IT_number 51
_symmetry_cell_setting 'orthorhombic'
loop_
_space_group_symop_operation_xyz
x,y,z
1/2-x,-y,z
1/2+x,-y,-z
-x,y,-z
-x,-y,-z
1/2+x,y,-z
1/2-x,y,z
x,-y,z
loop_
_atom_site_type_symbol
_atom_site_label
_atom_site_fract_x
_atom_site_fract_y
_atom_site_fract_z
Si Si1 0.068622 0.828689 0.086939
Si Si2 0.565415 0.440994 0.730536
Si Si3 0.931776 0.144438 0.721812
Si Si4 0.931934 0.644775 0.590657
Si Si5 0.574305 0.255859 0.324549
Si Si6 0.425937 0.284186 0.873652
Si Si7 0.068931 0.937892 0.591848
Si Si8 0.431373 0.396525 0.087283
O O1 0.250000 0.827311 0.080922
O O2 0.026671 0.856059 0.177154
O O3 0.004693 0.769203 0.094694
O O4 0.000000 0.852212 0.000000
O O5 0.750000 0.440530 0.730059
O O6 0.515424 0.500000 0.707660
O O7 0.517067 0.396447 0.663645
O O8 0.519002 0.426417 0.826784
O O9 0.750000 0.144394 0.716395
O O10 0.995198 0.199174 0.683232
O O11 0.999767 0.096901 0.667324
O O12 0.750000 0.644944 0.587659
O O13 0.000000 0.628993 0.500000
O O14 0.990857 0.702829 0.614977
O O15 0.750000 0.249571 0.349342
O O16 0.569632 0.280367 0.229146
O O17 0.250000 0.285665 0.901059
O O18 0.511727 0.336386 0.902764
O O19 0.250000 0.931436 0.589414
O O20 0.000000 0.922107 0.500000
O O21 0.034501 0.000000 0.604154
O O22 0.250000 0.397460 0.082778
O O23 0.500000 0.418615 0.000000
#
# Coordination Sequence:
#
# PCOD9401335 Si02
#       8
#     8   8   8   8   8   8   8   8
#     4  10  20  33  51  78 114 153 193 233 278 328
#     4   9  20  39  60  79 104 140 179 223 276 333
#     4  10  21  36  57  86 119 155 194 236 283 335
#     4  11  22  38  60  84 110 141 179 223 275 335
#     4  10  20  35  56  82 114 147 183 226 275 330
#     4  10  19  32  52  77 108 143 181 224 270 323
#     4  10  21  38  61  88 118 153 194 240 288 337
#     4  11  21  34  54  79 107 140 178 220 270 327
#
# _framework density 18.283176000000001
#
# number of rings (size 3 to 8) (size 9 to 14) (size 15 to 20)
#    0.000    1.875    1.250    3.000    0.000    4.250 
#    0.000    2.500    0.000    5.625    0.000    0.000 
#    0.000    0.000    0.000    0.000    0.000    0.000 
#
# Total GULP energy -357426.717178 kJ/mol
# GULP energy per Si atom -5584.792456 kJ/mol
# Density = 1.824156 g / cm^3
# Si number density = 18.283176 Si / 1000 Ang^3
#
#
#
# Elastic Constant Matrix: (Units=GPa)
#
#
# Indices 1 2 3 4 5 6 
#
# 1 70.0565 33.2792 48.6768 0.0000 0.0000 0.0000
# 2 33.2792 77.5070 61.8022 0.0000 0.0000 0.0000
# 3 48.6768 61.8022 132.8684 0.0000 0.0000 0.0000
# 4 0.0000 0.0000 0.0000 4.8763 0.0000 0.0000
# 5 0.0000 0.0000 0.0000 0.0000 33.4092 0.0000
# 6 0.0000 0.0000 0.0000 0.0000 0.0000 14.0711
#
#
#
# Elastic Compliance Matrix: (Units=1/GPa)
#
#
# Indices 1 2 3 4 5 6 
#
# 1 0.020039 -0.004372 -0.005308 0.000000 0.000000 0.000000
# 2 -0.004372 0.021462 -0.008381 0.000000 0.000000 0.000000
# 3 -0.005308 -0.008381 0.013369 0.000000 0.000000 0.000000
# 4 0.000000 0.000000 0.000000 0.205073 0.000000 0.000000
# 5 0.000000 0.000000 0.000000 0.000000 0.029932 0.000000
# 6 0.000000 0.000000 0.000000 0.000000 0.000000 0.071068
#
#
# Mechanical properties :
#
#
# Convention : Reuss Voigt Hill
#
# Bulk Modulus (GPa) = 53.33741 63.10536 58.22139
# Shear Modulus (GPa) = 12.39726 19.58290 15.99008
#
# Velocity S-wave (km/s) = 2.60680 3.27630 2.96054
# Velocity P-wave (km/s) = 6.18844 6.99304 6.60301
#
# Compressibility (1/GPa) = 0.01874857
#
# Stress axis : x y z
#
# Youngs Moduli (GPa) = 49.90285 46.59358 74.79859
#
# Poissons Ratio (x) = 0.20370 0.39702
# Poissons Ratio (y) = 0.21816 0.62691
# Poissons Ratio (z) = 0.26488 0.39051
#
# Static dielectric constant tensor:
#      x y z
#    x 1.614640 0.000000 0.000000 
#    y 0.000000 1.595550 0.000000 
#    z 0.000000 0.000000 1.654010 
# 
# From -- ./inp_files/22373.got.cif
#   From: 2010.05.17/outbox.cif.g08.bks.cpg/sg51_12_cif.got.tgz:22373.got - 2010.06.03 11:52:47.
