data_PCOD9401689
_publ_section_title
;
Structure prediction by ZEFSAII (Michael W. Deem and Ramdas Pophale) SiO2 
 PCOD9401689
Probable space group: P M M A
;
_chemical_formula_sum "Si O2"
_cell_formula_units_Z 48
_cell_length_a 8.048090
_cell_length_b 21.160009
_cell_length_c 15.034157
_cell_angle_alpha 90.000000
_cell_angle_beta 90.000000
_cell_angle_gamma 90.000000
_cell_volume 2560.281710
_symmetry_space_group_name_H-M "P M M A"
_symmetry_group_IT_number 51
_symmetry_cell_setting 'orthorhombic'
loop_
_space_group_symop_operation_xyz
x,y,z
1/2-x,-y,z
1/2+x,-y,-z
-x,y,-z
-x,-y,-z
1/2+x,y,-z
1/2-x,y,z
x,-y,z
loop_
_atom_site_type_symbol
_atom_site_label
_atom_site_fract_x
_atom_site_fract_y
_atom_site_fract_z
Si Si1 0.953247 0.930359 0.212783
Si Si2 0.551952 0.428462 0.900635
Si Si3 0.049977 0.263442 0.596509
Si Si4 0.050161 0.882703 0.596566
Si Si5 0.549365 0.191583 0.102538
Si Si6 0.049946 0.312074 0.783616
O O1 0.750000 0.929436 0.212181
O O2 0.005974 0.918510 0.314947
O O3 0.009154 0.872258 0.151623
O O4 0.006423 0.000000 0.182845
O O5 0.750000 0.430982 0.898689
O O6 0.486458 0.500000 0.886592
O O7 0.495358 0.377896 0.828627
O O8 0.500000 0.408143 0.000000
O O9 0.250000 0.261573 0.599554
O O10 0.991219 0.190372 0.602566
O O11 0.990184 0.301375 0.682715
O O12 0.000000 0.288645 0.500000
O O13 0.250000 0.881875 0.599015
O O14 0.000000 0.908299 0.500000
O O15 0.750000 0.191699 0.107467
O O16 0.489648 0.253508 0.155735
O O17 0.500000 0.193460 0.000000
O O18 0.250000 0.308216 0.781856
#
# Coordination Sequence:
#
# PCOD9401689 Si02
#       6
#     8   8   8   8   8   8
#     4   9  17  31  50  68  92 131 170 202 247 305
#     4  10  21  36  54  79 110 140 170 205 247 297
#     4   9  17  30  49  74 102 132 165 206 252 298
#     4   9  16  29  48  70  96 126 161 202 249 299
#     4  10  20  34  50  71  97 126 166 212 252 295
#     4  10  19  33  54  77 104 135 169 209 252 298
#
# _framework density 18.747937
#
# number of rings (size 3 to 8) (size 9 to 14) (size 15 to 20)
#    0.000    2.500    1.667    1.000    0.000    4.333 
#    0.000    0.833    0.000    1.500    0.000    0.000 
#    0.000    0.000    0.000    0.000    0.000    0.000 
#
# Total GULP energy -267774.206143 kJ/mol
# GULP energy per Si atom -5578.629295 kJ/mol
# Density = 1.870527 g / cm^3
# Si number density = 18.747937 Si / 1000 Ang^3
#
#
#
# Elastic Constant Matrix: (Units=GPa)
#
#
# Indices 1 2 3 4 5 6 
#
# 1 10.8473 8.5161 10.1705 0.0000 0.0000 0.0000
# 2 8.5161 94.6598 71.6923 0.0000 0.0000 0.0000
# 3 10.1705 71.6923 151.6954 0.0000 0.0000 0.0000
# 4 0.0000 0.0000 0.0000 25.4811 0.0000 0.0000
# 5 0.0000 0.0000 0.0000 0.0000 28.3963 0.0000
# 6 0.0000 0.0000 0.0000 0.0000 0.0000 46.3633
#
#
#
# Elastic Compliance Matrix: (Units=1/GPa)
#
#
# Indices 1 2 3 4 5 6 
#
# 1 0.100614 -0.006141 -0.003844 0.000000 0.000000 0.000000
# 2 -0.006141 0.016828 -0.007541 0.000000 0.000000 0.000000
# 3 -0.003844 -0.007541 0.010414 0.000000 0.000000 0.000000
# 4 0.000000 0.000000 0.000000 0.039245 0.000000 0.000000
# 5 0.000000 0.000000 0.000000 0.000000 0.035216 0.000000
# 6 0.000000 0.000000 0.000000 0.000000 0.000000 0.021569
#
#
# Mechanical properties :
#
#
# Convention : Reuss Voigt Hill
#
# Bulk Modulus (GPa) = 10.77531 48.66225 29.71878
# Shear Modulus (GPa) = 17.24899 31.16971 24.20935
#
# Velocity S-wave (km/s) = 3.03652 4.08188 3.59738
# Velocity P-wave (km/s) = 4.24898 6.94465 5.75682
#
# Compressibility (1/GPa) = 0.09280472
#
# Stress axis : x y z
#
# Youngs Moduli (GPa) = 9.93897 59.42390 96.02469
#
# Poissons Ratio (x) = 0.36491 0.36907
# Poissons Ratio (y) = 0.06103 0.72416
# Poissons Ratio (z) = 0.03820 0.44814
#
# Static dielectric constant tensor:
#      x y z
#    x 1.673830 0.000000 0.000000 
#    y 0.000000 1.651850 0.000000 
#    z 0.000000 0.000000 1.643700 
# 
# From -- ./inp_files/21085.got.cif
#   From: 2010.05.17/outbox.cif.g08.bks.cpg/sg51_11_cif.got.tgz:21085.got - 2010.06.03 11:52:47.
