data_PCOD9401719
_publ_section_title
;
Structure prediction by ZEFSAII (Michael W. Deem and Ramdas Pophale) SiO2 
 PCOD9401719
Probable space group: P M M A
;
_chemical_formula_sum "Si O2"
_cell_formula_units_Z 40
_cell_length_a 29.497751
_cell_length_b 7.421124
_cell_length_c 8.166230
_cell_angle_alpha 90.000000
_cell_angle_beta 90.000000
_cell_angle_gamma 90.000000
_cell_volume 1787.640565
_symmetry_space_group_name_H-M "P M M A"
_symmetry_group_IT_number 51
_symmetry_cell_setting 'orthorhombic'
loop_
_space_group_symop_operation_xyz
x,y,z
1/2-x,-y,z
1/2+x,-y,-z
-x,y,-z
-x,-y,-z
1/2+x,y,-z
1/2-x,y,z
x,-y,z
loop_
_atom_site_type_symbol
_atom_site_label
_atom_site_fract_x
_atom_site_fract_y
_atom_site_fract_z
Si Si1 0.049308 0.791447 0.047093
Si Si2 0.197589 0.720195 0.260067
Si Si3 0.642118 0.720705 0.421281
Si Si4 0.952069 0.281886 0.571213
Si Si5 0.647535 0.293601 0.063080
O O1 0.054224 0.778011 0.242320
O O2 0.049653 0.000000 0.995975
O O3 0.093410 0.705782 0.965615
O O4 0.000000 0.714929 0.000000
O O5 0.250000 0.771850 0.254730
O O6 0.195335 0.500000 0.261072
O O7 0.173316 0.777846 0.427431
O O8 0.171002 0.785014 0.098493
O O9 0.642529 0.500000 0.417161
O O10 0.590668 0.774903 0.462900
O O11 0.656603 0.785592 0.242010
O O12 0.952468 0.500000 0.573488
O O13 0.000000 0.219864 0.500000
O O14 0.663644 0.500000 0.070266
#
# Coordination Sequence:
#
# PCOD9401719 Si02
#       5
#     8   8   8   8   8
#     4  11  23  36  51  76 111 146 183 225 273 326
#     4   9  17  30  51  82 115 140 171 222 275 322
#     4   9  17  30  50  79 109 137 173 219 267 317
#     4  10  19  33  54  79 107 140 183 226 266 319
#     4  10  19  34  57  80 108 144 182 222 268 320
#
# _framework density 22.375862999999999
#
# number of rings (size 3 to 8) (size 9 to 14) (size 15 to 20)
#    0.000    2.200    2.000    1.800    0.000    4.400 
#    0.000    5.000    0.000    0.600    0.000    0.000 
#    0.000    0.000    0.000    0.000    0.000    0.000 
#
# Total GULP energy -223560.189926 kJ/mol
# GULP energy per Si atom -5589.004748 kJ/mol
# Density = 2.232493 g / cm^3
# Si number density = 22.375863 Si / 1000 Ang^3
#
#
#
# Elastic Constant Matrix: (Units=GPa)
#
#
# Indices 1 2 3 4 5 6 
#
# 1 144.1771 2.0055 89.7532 0.0000 0.0000 0.0000
# 2 2.0055 72.8443 0.0211 0.0000 0.0000 0.0000
# 3 89.7532 0.0211 221.3671 0.0000 0.0000 0.0000
# 4 0.0000 0.0000 0.0000 -2.5435 0.0000 0.0000
# 5 0.0000 0.0000 0.0000 0.0000 30.4413 0.0000
# 6 0.0000 0.0000 0.0000 0.0000 0.0000 -20.2998
#
#
#
# Elastic Compliance Matrix: (Units=1/GPa)
#
#
# Indices 1 2 3 4 5 6 
#
# 1 0.009282 -0.000254 -0.003763 0.000000 0.000000 0.000000
# 2 -0.000254 0.013735 0.000102 0.000000 0.000000 0.000000
# 3 -0.003763 0.000102 0.006043 0.000000 0.000000 0.000000
# 4 0.000000 0.000000 0.000000 -0.393163 0.000000 0.000000
# 5 0.000000 0.000000 0.000000 0.000000 0.032850 0.000000
# 6 0.000000 0.000000 0.000000 0.000000 0.000000 -0.049261
#
#
# Mechanical properties :
#
#
# Convention : Reuss Voigt Hill
#
# Bulk Modulus (GPa) = 47.10694 69.10534 58.10614
# Shear Modulus (GPa) = -13.67593 24.62685 5.47546
#
# Velocity S-wave (km/s) = -2.47491 3.32113 1.56600
# Velocity P-wave (km/s) = 3.59602 6.75703 5.41243
#
# Compressibility (1/GPa) = 0.02122829
#
# Stress axis : x y z
#
# Youngs Moduli (GPa) = 107.73201 72.80733 165.47327
#
# Poissons Ratio (x) = 0.01853 0.62275
# Poissons Ratio (y) = 0.02741 -0.01686
# Poissons Ratio (z) = 0.40545 -0.00742
#
# Static dielectric constant tensor:
#      x y z
#    x 1.778260 0.000000 0.000000 
#    y 0.000000 1.840320 0.000000 
#    z 0.000000 0.000000 1.794680 
# 
# From -- ./inp_files/12084.got.cif
#   From: 2010.05.17/outbox.cif.g08.bks.cpg/sg51_7_cif.got.tgz:12084.got - 2010.06.03 11:52:47.
