data_PCOD9401514
_publ_section_title
;
Structure prediction by ZEFSAII (Michael W. Deem and Ramdas Pophale) SiO2 
 PCOD9401514
Probable space group: P M M A
;
_chemical_formula_sum "Si O2"
_cell_formula_units_Z 48
_cell_length_a 17.742469
_cell_length_b 15.962972
_cell_length_c 7.801148
_cell_angle_alpha 90.000000
_cell_angle_beta 90.000000
_cell_angle_gamma 90.000000
_cell_volume 2209.460919
_symmetry_space_group_name_H-M "P M M A"
_symmetry_group_IT_number 51
_symmetry_cell_setting 'orthorhombic'
loop_
_space_group_symop_operation_xyz
x,y,z
1/2-x,-y,z
1/2+x,-y,-z
-x,y,-z
-x,-y,-z
1/2+x,y,-z
1/2-x,y,z
x,-y,z
loop_
_atom_site_type_symbol
_atom_site_label
_atom_site_fract_x
_atom_site_fract_y
_atom_site_fract_z
Si Si1 0.158115 0.591176 0.313100
Si Si2 0.166717 0.862030 0.158109
Si Si3 0.166467 0.745993 0.484487
Si Si4 0.510353 0.908945 0.706416
Si Si5 0.899003 0.778902 0.178943
Si Si6 0.341322 0.402477 0.908189
O O1 0.250000 0.594921 0.322893
O O2 0.133832 0.500000 0.368819
O O3 0.124785 0.660636 0.437287
O O4 0.142149 0.601669 0.112265
O O5 0.250000 0.901135 0.148502
O O6 0.171593 0.790223 0.302405
O O7 0.096588 0.913198 0.231321
O O8 0.146252 0.820478 0.976512
O O9 0.250000 0.725551 0.547398
O O10 0.133001 0.800941 0.633489
O O11 0.500000 0.899912 0.500000
O O12 0.478322 0.827129 0.805051
O O13 0.474488 0.000000 0.752550
O O14 0.886791 0.677939 0.165830
O O15 0.250000 0.390882 0.885433
O O16 0.357593 0.500000 0.854142
#
# Coordination Sequence:
#
# PCOD9401514 Si02
#       6
#     8   8   8   8   8   8
#     4   8  14  27  49  82 130 180 224 273 326 384
#     4  11  23  42  69 101 134 172 220 281 341 404
#     4  10  19  32  55  92 132 172 220 273 327 390
#     4  11  26  50  74  99 135 181 228 280 349 422
#     4  12  22  38  69 100 137 179 228 277 342 411
#     4   9  17  31  56  95 139 181 228 279 332 396
#
# _framework density 21.724755999999999
#
# number of rings (size 3 to 8) (size 9 to 14) (size 15 to 20)
#    0.000    1.833    3.333    3.000    0.000    2.333 
#    0.000    1.667    0.000    7.500    0.000    0.000 
#    0.000    0.000    0.000    0.000    0.000    0.000 
#
# Total GULP energy -267203.462963 kJ/mol
# GULP energy per Si atom -5566.738812 kJ/mol
# Density = 2.167531 g / cm^3
# Si number density = 21.724756 Si / 1000 Ang^3
#
#
#
# Elastic Constant Matrix: (Units=GPa)
#
#
# Indices 1 2 3 4 5 6 
#
# 1 79.5417 50.7602 29.9090 0.0000 0.0000 0.0000
# 2 50.7602 126.8611 38.6521 0.0000 0.0000 0.0000
# 3 29.9090 38.6521 109.0079 0.0000 0.0000 0.0000
# 4 0.0000 0.0000 0.0000 41.7079 0.0000 0.0000
# 5 0.0000 0.0000 0.0000 0.0000 19.7043 0.0000
# 6 0.0000 0.0000 0.0000 0.0000 0.0000 45.9225
#
#
#
# Elastic Compliance Matrix: (Units=1/GPa)
#
#
# Indices 1 2 3 4 5 6 
#
# 1 0.017518 -0.006216 -0.002602 0.000000 0.000000 0.000000
# 2 -0.006216 0.011043 -0.002210 0.000000 0.000000 0.000000
# 3 -0.002602 -0.002210 0.010671 0.000000 0.000000 0.000000
# 4 0.000000 0.000000 0.000000 0.023976 0.000000 0.000000
# 5 0.000000 0.000000 0.000000 0.000000 0.050750 0.000000
# 6 0.000000 0.000000 0.000000 0.000000 0.000000 0.021776
#
#
# Mechanical properties :
#
#
# Convention : Reuss Voigt Hill
#
# Bulk Modulus (GPa) = 58.22480 61.56149 59.89315
# Shear Modulus (GPa) = 30.57789 34.53957 32.55873
#
# Velocity S-wave (km/s) = 3.75575 3.99164 3.87549
# Velocity P-wave (km/s) = 6.75773 7.04577 6.90325
#
# Compressibility (1/GPa) = 0.01717481
#
# Stress axis : x y z
#
# Youngs Moduli (GPa) = 57.08576 90.55234 93.70938
#
# Poissons Ratio (x) = 0.56291 0.24385
# Poissons Ratio (y) = 0.35487 0.20711
# Poissons Ratio (z) = 0.14855 0.20013
#
# Static dielectric constant tensor:
#      x y z
#    x 1.918140 0.000000 0.000000 
#    y 0.000000 1.866400 0.000000 
#    z 0.000000 0.000000 1.806780 
# 
# From -- ./inp_files/9605.got.cif
#   From: 2010.05.17/outbox.cif.g08.bks.cpg/sg51_5_cif.got.tgz:9605.got - 2010.06.03 11:52:47.
