data_PCOD9401036
_publ_section_title
;
Structure prediction by ZEFSAII (Michael W. Deem and Ramdas Pophale) SiO2 
 PCOD9401036
Probable space group: P M M A
;
_chemical_formula_sum "Si O2"
_cell_formula_units_Z 64
_cell_length_a 16.227003
_cell_length_b 21.694376
_cell_length_c 9.548187
_cell_angle_alpha 90.000000
_cell_angle_beta 90.000000
_cell_angle_gamma 90.000000
_cell_volume 3361.293188
_symmetry_space_group_name_H-M "P M M A"
_symmetry_group_IT_number 51
_symmetry_cell_setting 'orthorhombic'
loop_
_space_group_symop_operation_xyz
x,y,z
1/2-x,-y,z
1/2+x,-y,-z
-x,y,-z
-x,-y,-z
1/2+x,y,-z
1/2-x,y,z
x,-y,z
loop_
_atom_site_type_symbol
_atom_site_label
_atom_site_fract_x
_atom_site_fract_y
_atom_site_fract_z
Si Si1 0.499523 0.270427 0.332394
Si Si2 0.652383 0.433512 0.524714
Si Si3 0.994309 0.127074 0.667658
Si Si4 0.846318 0.074636 0.171827
Si Si5 0.843042 0.074018 0.843689
Si Si6 0.380548 0.429183 0.909910
Si Si7 0.338756 0.330358 0.697338
Si Si8 0.439494 0.604455 0.204860
O O1 0.500000 0.281526 0.500000
O O2 0.476892 0.199885 0.310489
O O3 0.592867 0.279837 0.280310
O O4 0.449984 0.323967 0.250581
O O5 0.750000 0.429953 0.557825
O O6 0.638399 0.500000 0.453908
O O7 0.633169 0.376108 0.426735
O O8 0.597740 0.429094 0.661665
O O9 0.080986 0.106036 0.738125
O O10 0.000000 0.115515 0.500000
O O11 0.917071 0.094509 0.743339
O O12 0.750000 0.089489 0.208742
O O13 0.854557 0.000000 0.184215
O O14 0.857739 0.091195 0.007059
O O15 0.750000 0.095773 0.804372
O O16 0.841008 0.000000 0.841227
O O17 0.353568 0.500000 0.897935
O O18 0.333144 0.377510 0.825004
O O19 0.472429 0.422353 0.843544
O O20 0.383507 0.408508 0.070759
O O21 0.250000 0.303879 0.662807
#
# Coordination Sequence:
#
# PCOD9401036 Si02
#       8
#     8   8   8   8   8   8   8   8
#     4  10  21  40  57  76 107 152 195 231 271 325
#     4  10  19  31  53  81 102 129 177 230 278 335
#     4  11  23  36  57  89 124 160 203 248 293 342
#     4   9  19  38  63  91 124 160 198 241 291 346
#     4   9  19  39  64  91 125 160 195 239 292 347
#     4  10  20  33  53  79 107 135 167 221 291 352
#     4  10  21  37  55  77 108 142 178 227 284 337
#     4  10  19  36  54  73 105 140 180 222 272 334
#
# _framework density 19.040291
#
# number of rings (size 3 to 8) (size 9 to 14) (size 15 to 20)
#    0.000    2.125    1.250    3.375    0.000    4.250 
#    9.000    5.625    0.000    0.000    0.000    0.000 
#    0.000    0.000    0.000    0.000    0.000    0.000 
#
# Total GULP energy -356781.665330 kJ/mol
# GULP energy per Si atom -5574.713521 kJ/mol
# Density = 1.899695 g / cm^3
# Si number density = 19.040291 Si / 1000 Ang^3
#
#
#
# Elastic Constant Matrix: (Units=GPa)
#
#
# Indices 1 2 3 4 5 6 
#
# 1 81.2978 32.2563 47.1073 0.0000 0.0000 0.0000
# 2 32.2563 52.1542 11.9399 0.0000 0.0000 0.0000
# 3 47.1073 11.9399 69.9964 0.0000 0.0000 0.0000
# 4 0.0000 0.0000 0.0000 23.1517 0.0000 0.0000
# 5 0.0000 0.0000 0.0000 0.0000 28.6518 0.0000
# 6 0.0000 0.0000 0.0000 0.0000 0.0000 7.1069
#
#
#
# Elastic Compliance Matrix: (Units=1/GPa)
#
#
# Indices 1 2 3 4 5 6 
#
# 1 0.026393 -0.012755 -0.015586 0.000000 0.000000 0.000000
# 2 -0.012755 0.026117 0.004129 0.000000 0.000000 0.000000
# 3 -0.015586 0.004129 0.024072 0.000000 0.000000 0.000000
# 4 0.000000 0.000000 0.000000 0.043193 0.000000 0.000000
# 5 0.000000 0.000000 0.000000 0.000000 0.034902 0.000000
# 6 0.000000 0.000000 0.000000 0.000000 0.000000 0.140709
#
#
# Mechanical properties :
#
#
# Convention : Reuss Voigt Hill
#
# Bulk Modulus (GPa) = 35.51530 42.89505 39.20517
# Shear Modulus (GPa) = 14.15642 19.25840 16.70741
#
# Velocity S-wave (km/s) = 2.72967 3.18379 2.96544
# Velocity P-wave (km/s) = 5.35052 6.00773 5.68862
#
# Compressibility (1/GPa) = 0.02815688
#
# Stress axis : x y z
#
# Youngs Moduli (GPa) = 37.88930 38.28868 41.54252
#
# Poissons Ratio (x) = 0.48837 0.64750
# Poissons Ratio (y) = 0.48328 -0.17153
# Poissons Ratio (z) = 0.59056 -0.15810
#
# Static dielectric constant tensor:
#      x y z
#    x 1.605950 0.000000 0.000000 
#    y 0.000000 1.639950 0.000000 
#    z 0.000000 0.000000 1.691580 
# 
# From -- ./inp_files/10063.got.cif
#   From: 2010.05.17/outbox.cif.g08.bks.cpg/sg51_6_cif.got.tgz:10063.got - 2010.06.03 11:52:47.
