data_PCOD9401276
_publ_section_title
;
Structure prediction by ZEFSAII (Michael W. Deem and Ramdas Pophale) SiO2 
 PCOD9401276
Probable space group: P M M A
;
_chemical_formula_sum "Si O2"
_cell_formula_units_Z 64
_cell_length_a 18.929904
_cell_length_b 7.512647
_cell_length_c 20.679865
_cell_angle_alpha 90.000000
_cell_angle_beta 90.000000
_cell_angle_gamma 90.000000
_cell_volume 2940.959838
_symmetry_space_group_name_H-M "P M M A"
_symmetry_group_IT_number 51
_symmetry_cell_setting 'orthorhombic'
loop_
_space_group_symop_operation_xyz
x,y,z
1/2-x,-y,z
1/2+x,-y,-z
-x,y,-z
-x,-y,-z
1/2+x,y,-z
1/2-x,y,z
x,-y,z
loop_
_atom_site_type_symbol
_atom_site_label
_atom_site_fract_x
_atom_site_fract_y
_atom_site_fract_z
Si Si1 0.596355 0.782943 0.165578
Si Si2 0.828785 0.784352 0.294495
Si Si3 0.668020 0.216977 0.035554
Si Si4 0.084772 0.202057 0.359875
Si Si5 0.443214 0.781576 0.216041
Si Si6 0.168864 0.783039 0.109238
Si Si7 0.329516 0.214459 0.478264
Si Si8 0.563166 0.700557 0.406646
O O1 0.651719 0.733196 0.221465
O O2 0.620312 0.721392 0.094989
O O3 0.519452 0.724849 0.189484
O O4 0.595387 0.000000 0.163641
O O5 0.750000 0.725714 0.312382
O O6 0.888118 0.718413 0.343315
O O7 0.830344 0.000000 0.298100
O O8 0.750000 0.267555 0.045639
O O9 0.666435 0.000000 0.035903
O O10 0.646787 0.272941 0.963210
O O11 0.071973 0.281424 0.288939
O O12 0.140201 0.283411 0.410052
O O13 0.008887 0.194264 0.395500
O O14 0.109387 0.000000 0.347934
O O15 0.383221 0.725810 0.165671
O O16 0.445267 0.000000 0.217753
O O17 0.250000 0.728037 0.119475
O O18 0.168310 0.000000 0.109335
O O19 0.250000 0.278073 0.492626
O O20 0.386194 0.253162 0.533927
O O21 0.326433 0.000000 0.474417
O O22 0.538749 0.500000 0.415091
#
# Coordination Sequence:
#
# PCOD9401276 Si02
#       8
#     8   8   8   8   8   8   8   8
#     4   9  15  24  40  63  92 127 169 207 245 297
#     4  10  19  32  52  75 101 136 175 212 253 303
#     4   8  13  21  33  54  90 132 167 200 244 300
#     4  10  20  37  58  78 105 138 174 214 256 305
#     4   9  16  26  43  65  91 126 167 208 247 292
#     4   8  14  23  35  57  93 133 166 200 251 307
#     4  10  22  39  59  82 105 133 171 213 257 307
#     4  12  24  37  55  79 107 138 170 209 258 311
#
# _framework density 21.761602
#
# number of rings (size 3 to 8) (size 9 to 14) (size 15 to 20)
#    0.000    2.500    1.250    3.000    0.000    6.500 
#    0.000    5.000    0.000    0.000    0.000    0.000 
#    0.000    2.000    0.000    2.875    0.000    2.625 
#
# Total GULP energy -357395.217159 kJ/mol
# GULP energy per Si atom -5584.300268 kJ/mol
# Density = 2.171207 g / cm^3
# Si number density = 21.761602 Si / 1000 Ang^3
#
#
#
# Elastic Constant Matrix: (Units=GPa)
#
#
# Indices 1 2 3 4 5 6 
#
# 1 31.6928 -3.2656 42.8880 0.0000 0.0000 0.0000
# 2 -3.2656 60.4640 1.5016 0.0000 0.0000 0.0000
# 3 42.8880 1.5016 152.0112 0.0000 0.0000 0.0000
# 4 0.0000 0.0000 0.0000 -56.7729 0.0000 0.0000
# 5 0.0000 0.0000 0.0000 0.0000 39.6244 0.0000
# 6 0.0000 0.0000 0.0000 0.0000 0.0000 -51.1974
#
#
#
# Elastic Compliance Matrix: (Units=1/GPa)
#
#
# Indices 1 2 3 4 5 6 
#
# 1 0.051633 0.003151 -0.014599 0.000000 0.000000 0.000000
# 2 0.003151 0.016735 -0.001054 0.000000 0.000000 0.000000
# 3 -0.014599 -0.001054 0.010708 0.000000 0.000000 0.000000
# 4 0.000000 0.000000 0.000000 -0.017614 0.000000 0.000000
# 5 0.000000 0.000000 0.000000 0.000000 0.025237 0.000000
# 6 0.000000 0.000000 0.000000 0.000000 0.000000 -0.019532
#
#
# Mechanical properties :
#
#
# Convention : Reuss Voigt Hill
#
# Bulk Modulus (GPa) = 18.49382 36.26845 27.38113
# Shear Modulus (GPa) = 45.37429 -0.13291 22.62069
#
# Velocity S-wave (km/s) = 4.57120 -0.24740 3.22759
# Velocity P-wave (km/s) = 6.03142 4.07686 5.14776
#
# Compressibility (1/GPa) = 0.05407211
#
# Stress axis : x y z
#
# Youngs Moduli (GPa) = 19.36741 59.75453 93.39056
#
# Poissons Ratio (x) = -0.18830 1.36338
# Poissons Ratio (y) = -0.06103 0.09847
# Poissons Ratio (z) = 0.28274 0.06300
#
# Static dielectric constant tensor:
#      x y z
#    x 1.753970 0.000000 0.000000 
#    y 0.000000 1.884500 0.000000 
#    z 0.000000 0.000000 1.774530 
# 
# From -- ./inp_files/34081.got.cif
#   From: 2010.05.17/outbox.cif.g08.bks.cpg/sg51_18_cif.got.tgz:34081.got - 2010.06.03 11:52:47.
