data_PCOD9401915
_publ_section_title
;
Structure prediction by ZEFSAII (Michael W. Deem and Ramdas Pophale) SiO2 
 PCOD9401915
Probable space group: P M M A
;
_chemical_formula_sum "Si O2"
_cell_formula_units_Z 64
_cell_length_a 16.927900
_cell_length_b 14.504939
_cell_length_c 14.189857
_cell_angle_alpha 90.000000
_cell_angle_beta 90.000000
_cell_angle_gamma 90.000000
_cell_volume 3484.151334
_symmetry_space_group_name_H-M "P M M A"
_symmetry_group_IT_number 51
_symmetry_cell_setting 'orthorhombic'
loop_
_space_group_symop_operation_xyz
x,y,z
1/2-x,-y,z
1/2+x,-y,-z
-x,y,-z
-x,-y,-z
1/2+x,y,-z
1/2-x,y,z
x,-y,z
loop_
_atom_site_type_symbol
_atom_site_label
_atom_site_fract_x
_atom_site_fract_y
_atom_site_fract_z
Si Si1 0.071606 0.248381 0.927790
Si Si2 0.845970 0.103787 0.787973
Si Si3 0.020216 0.606671 0.198377
Si Si4 0.153804 0.894851 0.426374
Si Si5 0.155389 0.223176 0.603257
Si Si6 0.655445 0.891363 0.207466
Si Si7 0.456100 0.606471 0.598723
Si Si8 0.842129 0.288870 0.893737
O O1 0.105798 0.161660 0.871768
O O2 0.039840 0.324640 0.854684
O O3 0.138543 0.290173 0.995839
O O4 0.000000 0.226972 0.000000
O O5 0.750000 0.100470 0.787615
O O6 0.871792 0.125010 0.680675
O O7 0.867884 0.187512 0.855342
O O8 0.873054 0.000000 0.813281
O O9 0.003806 0.500000 0.175280
O O10 0.105485 0.636757 0.160392
O O11 0.012597 0.617743 0.310611
O O12 0.250000 0.892605 0.426055
O O13 0.127108 0.826081 0.507200
O O14 0.130968 0.000000 0.448903
O O15 0.250000 0.233572 0.598531
O O16 0.138456 0.157643 0.692540
O O17 0.113535 0.320839 0.611951
O O18 0.750000 0.881223 0.189447
O O19 0.638029 0.000000 0.211246
O O20 0.500000 0.623035 0.500000
O O21 0.428623 0.500000 0.598599
O O22 0.750000 0.300138 0.875165
#
# Coordination Sequence:
#
# PCOD9401915 Si02
#       8
#     8   8   8   8   8   8   8   8
#     4  10  21  38  59  81 112 153 194 235 284 342
#     4   8  15  29  49  76 113 150 181 217 268 329
#     4  10  22  42  62  80 111 152 186 228 291 349
#     4   8  14  26  47  77 110 144 178 213 265 328
#     4  10  19  33  59  87 113 145 187 236 279 330
#     4  10  20  35  57  86 119 152 189 236 288 339
#     4  10  22  40  61  83 112 151 187 224 282 352
#     4  10  21  35  58  88 114 141 191 246 286 333
#
# _framework density 18.368891999999999
#
# number of rings (size 3 to 8) (size 9 to 14) (size 15 to 20)
#    0.000    2.500    1.250    1.500    1.750    5.000 
#    0.000    3.125    0.000    4.875    0.000    0.000 
#    0.000    0.000    0.000    0.000    0.000    0.000 
#
# Total GULP energy -356932.826073 kJ/mol
# GULP energy per Si atom -5577.075407 kJ/mol
# Density = 1.832708 g / cm^3
# Si number density = 18.368892 Si / 1000 Ang^3
#
#
#
# Elastic Constant Matrix: (Units=GPa)
#
#
# Indices 1 2 3 4 5 6 
#
# 1 30.9377 50.8935 36.3103 0.0000 0.0000 0.0000
# 2 50.8935 114.4876 66.3911 0.0000 0.0000 0.0000
# 3 36.3103 66.3911 107.2280 0.0000 0.0000 0.0000
# 4 0.0000 0.0000 0.0000 6.6784 0.0000 0.0000
# 5 0.0000 0.0000 0.0000 0.0000 18.2718 0.0000
# 6 0.0000 0.0000 0.0000 0.0000 0.0000 28.6137
#
#
#
# Elastic Compliance Matrix: (Units=1/GPa)
#
#
# Indices 1 2 3 4 5 6 
#
# 1 0.130863 -0.050667 -0.012943 0.000000 0.000000 0.000000
# 2 -0.050667 0.033245 -0.003426 0.000000 0.000000 0.000000
# 3 -0.012943 -0.003426 0.015830 0.000000 0.000000 0.000000
# 4 0.000000 0.000000 0.000000 0.149737 0.000000 0.000000
# 5 0.000000 0.000000 0.000000 0.000000 0.054729 0.000000
# 6 0.000000 0.000000 0.000000 0.000000 0.000000 0.034948
#
#
# Mechanical properties :
#
#
# Convention : Reuss Voigt Hill
#
# Bulk Modulus (GPa) = 21.80314 62.20478 42.00396
# Shear Modulus (GPa) = 8.79177 17.31666 13.05421
#
# Velocity S-wave (km/s) = 2.19012 3.07370 2.66873
# Velocity P-wave (km/s) = 4.27678 6.82162 5.69322
#
# Compressibility (1/GPa) = 0.04586494
#
# Stress axis : x y z
#
# Youngs Moduli (GPa) = 7.64160 30.07982 63.17056
#
# Poissons Ratio (x) = 1.52407 0.81759
# Poissons Ratio (y) = 0.38718 0.21645
# Poissons Ratio (z) = 0.09890 0.10307
#
# Static dielectric constant tensor:
#      x y z
#    x 1.630490 0.000000 0.000000 
#    y 0.000000 1.617350 0.000000 
#    z 0.000000 0.000000 1.637810 
# 
# From -- ./inp_files/25212.got.cif
#   From: 2010.05.17/outbox.cif.g08.bks.cpg/sg51_13_cif.got.tgz:25212.got - 2010.06.03 11:52:47.
