data_PCOD9401674
_publ_section_title
;
Structure prediction by ZEFSAII (Michael W. Deem and Ramdas Pophale) SiO2 
 PCOD9401674
Probable space group: P M M A
;
_chemical_formula_sum "Si O2"
_cell_formula_units_Z 64
_cell_length_a 19.511278
_cell_length_b 8.117990
_cell_length_c 20.361288
_cell_angle_alpha 90.000000
_cell_angle_beta 90.000000
_cell_angle_gamma 90.000000
_cell_volume 3225.072453
_symmetry_space_group_name_H-M "P M M A"
_symmetry_group_IT_number 51
_symmetry_cell_setting 'orthorhombic'
loop_
_space_group_symop_operation_xyz
x,y,z
1/2-x,-y,z
1/2+x,-y,-z
-x,y,-z
-x,-y,-z
1/2+x,y,-z
1/2-x,y,z
x,-y,z
loop_
_atom_site_type_symbol
_atom_site_label
_atom_site_fract_x
_atom_site_fract_y
_atom_site_fract_z
Si Si1 0.552709 0.697601 0.713820
Si Si2 0.671609 0.199006 0.617282
Si Si3 0.434526 0.300645 0.135945
Si Si4 0.828006 0.198293 0.468657
Si Si5 0.908382 0.301403 0.342215
Si Si6 0.327803 0.701243 0.785966
Si Si7 0.672181 0.803897 0.967343
Si Si8 0.418750 0.698582 0.909311
O O1 0.546047 0.500000 0.718283
O O2 0.618325 0.738282 0.670322
O O3 0.559249 0.757479 0.788790
O O4 0.483878 0.759318 0.677879
O O5 0.750000 0.250271 0.630785
O O6 0.654342 0.253447 0.542711
O O7 0.670103 0.000000 0.617933
O O8 0.434906 0.500000 0.136079
O O9 0.366149 0.245342 0.099430
O O10 0.502577 0.244593 0.096381
O O11 0.750000 0.255629 0.453646
O O12 0.880433 0.250450 0.412777
O O13 0.826233 0.000000 0.469880
O O14 0.909572 0.500000 0.340966
O O15 0.856890 0.246273 0.284449
O O16 0.250000 0.756008 0.796503
O O17 0.327971 0.500000 0.786499
O O18 0.377597 0.754784 0.844538
O O19 0.750000 0.737504 0.972477
O O20 0.675956 0.000000 0.970218
O O21 0.623833 0.746836 0.026884
O O22 0.420799 0.500000 0.907819
#
# Coordination Sequence:
#
# PCOD9401674 Si02
#       8
#     8   8   8   8   8   8   8   8
#     4  10  21  37  57  84 116 143 177 230 281 326
#     4   9  20  39  59  78 105 145 191 234 277 329
#     4  10  21  39  61  84 112 146 184 227 276 331
#     4   9  19  36  55  77 109 148 189 232 275 322
#     4  10  19  33  53  81 115 146 180 223 274 331
#     4   9  16  28  51  81 110 142 179 217 261 317
#     4  11  25  41  56  81 116 148 183 230 278 325
#     4  10  19  36  61  86 110 143 185 227 270 327
#
# _framework density 19.844515999999999
#
# number of rings (size 3 to 8) (size 9 to 14) (size 15 to 20)
#    0.000    2.250    1.250    2.250    0.000    7.000 
#    0.000    6.875    0.000    2.250    0.000    0.000 
#    0.000    0.000    0.000    0.000    0.000    0.000 
#
# Total GULP energy -357306.466738 kJ/mol
# GULP energy per Si atom -5582.913543 kJ/mol
# Density = 1.979935 g / cm^3
# Si number density = 19.844516 Si / 1000 Ang^3
#
#
#
# Elastic Constant Matrix: (Units=GPa)
#
#
# Indices 1 2 3 4 5 6 
#
# 1 94.8718 1.8057 73.3531 0.0000 0.0000 0.0000
# 2 1.8057 7.7911 7.4023 0.0000 0.0000 0.0000
# 3 73.3531 7.4023 123.4796 0.0000 0.0000 0.0000
# 4 0.0000 0.0000 0.0000 43.9702 0.0000 0.0000
# 5 0.0000 0.0000 0.0000 0.0000 37.3578 0.0000
# 6 0.0000 0.0000 0.0000 0.0000 0.0000 16.5680
#
#
#
# Elastic Compliance Matrix: (Units=1/GPa)
#
#
# Indices 1 2 3 4 5 6 
#
# 1 0.019848 0.007001 -0.012211 0.000000 0.000000 0.000000
# 2 0.007001 0.138572 -0.012466 0.000000 0.000000 0.000000
# 3 -0.012211 -0.012466 0.016100 0.000000 0.000000 0.000000
# 4 0.000000 0.000000 0.000000 0.022743 0.000000 0.000000
# 5 0.000000 0.000000 0.000000 0.000000 0.026768 0.000000
# 6 0.000000 0.000000 0.000000 0.000000 0.000000 0.060357
#
#
# Mechanical properties :
#
#
# Convention : Reuss Voigt Hill
#
# Bulk Modulus (GPa) = 7.18550 43.47387 25.32968
# Shear Modulus (GPa) = 13.65638 29.15131 21.40385
#
# Velocity S-wave (km/s) = 2.62614 3.83689 3.28773
# Velocity P-wave (km/s) = 3.58110 6.44855 5.21575
#
# Compressibility (1/GPa) = 0.13916909
#
# Stress axis : x y z
#
# Youngs Moduli (GPa) = 50.38224 7.21644 62.11366
#
# Poissons Ratio (x) = -0.05052 0.75844
# Poissons Ratio (y) = -0.35273 0.77432
# Poissons Ratio (z) = 0.61520 0.08996
#
# Static dielectric constant tensor:
#      x y z
#    x 1.692340 0.000000 0.000000 
#    y 0.000000 1.712710 0.000000 
#    z 0.000000 0.000000 1.677990 
# 
# From -- ./inp_files/30503.got.cif
#   From: 2010.05.17/outbox.cif.g08.bks.cpg/sg51_16_cif.got.tgz:30503.got - 2010.06.03 11:52:47.
