data_PCOD9401548
_publ_section_title
;
Structure prediction by ZEFSAII (Michael W. Deem and Ramdas Pophale) SiO2 
 PCOD9401548
Probable space group: P M M A
;
_chemical_formula_sum "Si O2"
_cell_formula_units_Z 64
_cell_length_a 8.606981
_cell_length_b 32.065880
_cell_length_c 14.785587
_cell_angle_alpha 90.000000
_cell_angle_beta 90.000000
_cell_angle_gamma 90.000000
_cell_volume 4080.680365
_symmetry_space_group_name_H-M "P M M A"
_symmetry_group_IT_number 51
_symmetry_cell_setting 'orthorhombic'
loop_
_space_group_symop_operation_xyz
x,y,z
1/2-x,-y,z
1/2+x,-y,-z
-x,y,-z
-x,-y,-z
1/2+x,y,-z
1/2-x,y,z
x,-y,z
loop_
_atom_site_type_symbol
_atom_site_label
_atom_site_fract_x
_atom_site_fract_y
_atom_site_fract_z
Si Si1 0.436623 0.123363 0.287730
Si Si2 0.562414 0.716110 0.283522
Si Si3 0.938053 0.363778 0.397718
Si Si4 0.063268 0.797795 0.601591
Si Si5 0.063106 0.157554 0.096347
Si Si6 0.063939 0.951801 0.599459
Si Si7 0.064118 0.254612 0.096848
Si Si8 0.562364 0.455190 0.397321
O O1 0.250000 0.124039 0.290785
O O2 0.499465 0.161213 0.348876
O O3 0.487148 0.132030 0.184454
O O4 0.497430 0.080244 0.328145
O O5 0.750000 0.715812 0.279470
O O6 0.510243 0.674418 0.335300
O O7 0.515550 0.756867 0.341422
O O8 0.497746 0.720487 0.182799
O O9 0.750000 0.362664 0.401890
O O10 0.985626 0.409728 0.361066
O O11 0.000000 0.359080 0.500000
O O12 0.250000 0.799544 0.599380
O O13 0.000000 0.795271 0.500000
O O14 0.250000 0.157107 0.093045
O O15 0.013660 0.205998 0.107980
O O16 0.000000 0.142617 0.000000
O O17 0.250000 0.949084 0.597749
O O18 0.000000 0.940658 0.500000
O O19 0.019577 0.000000 0.617251
O O20 0.250000 0.255565 0.095452
O O21 0.000000 0.269024 0.000000
O O22 0.500000 0.455360 0.500000
O O23 0.750000 0.455254 0.399040
O O24 0.512654 0.500000 0.356142
#
# Coordination Sequence:
#
# PCOD9401548 Si02
#       8
#     8   8   8   8   8   8   8   8
#     4  11  21  35  53  75 100 125 158 194 233 276
#     4  10  20  32  45  64  91 125 159 192 231 275
#     4   9  17  28  41  60  88 122 160 196 232 277
#     4  11  22  33  46  65  93 128 162 194 228 266
#     4   9  19  33  51  74  97 122 152 191 233 274
#     4  10  21  37  56  78 102 129 160 194 234 277
#     4  10  19  33  51  70  92 119 154 194 235 277
#     4   8  13  22  37  56  79 110 149 193 236 275
#
# _framework density 15.68366
#
# number of rings (size 3 to 8) (size 9 to 14) (size 15 to 20)
#    0.000    2.250    1.250    2.250    0.000    3.250 
#    0.000    0.000    0.000    0.375    0.000    0.000 
#    0.000    0.500    0.000    0.875    0.000    1.500 
#
# Total GULP energy -356831.507021 kJ/mol
# GULP energy per Si atom -5575.492297 kJ/mol
# Density = 1.564796 g / cm^3
# Si number density = 15.683660 Si / 1000 Ang^3
#
#
#
# Elastic Constant Matrix: (Units=GPa)
#
#
# Indices 1 2 3 4 5 6 
#
# 1 20.9777 24.3933 25.1181 0.0000 0.0000 0.0000
# 2 24.3933 111.1204 73.0837 0.0000 0.0000 0.0000
# 3 25.1181 73.0837 131.3812 0.0000 0.0000 0.0000
# 4 0.0000 0.0000 0.0000 1.9902 0.0000 0.0000
# 5 0.0000 0.0000 0.0000 0.0000 26.0656 0.0000
# 6 0.0000 0.0000 0.0000 0.0000 0.0000 9.5739
#
#
#
# Elastic Compliance Matrix: (Units=1/GPa)
#
#
# Indices 1 2 3 4 5 6 
#
# 1 0.068332 -0.010105 -0.007443 0.000000 0.000000 0.000000
# 2 -0.010105 0.015686 -0.006794 0.000000 0.000000 0.000000
# 3 -0.007443 -0.006794 0.012813 0.000000 0.000000 0.000000
# 4 0.000000 0.000000 0.000000 0.502458 0.000000 0.000000
# 5 0.000000 0.000000 0.000000 0.000000 0.038365 0.000000
# 6 0.000000 0.000000 0.000000 0.000000 0.000000 0.104451
#
#
# Mechanical properties :
#
#
# Convention : Reuss Voigt Hill
#
# Bulk Modulus (GPa) = 20.76931 56.51885 38.64408
# Shear Modulus (GPa) = 6.19704 16.91823 11.55763
#
# Velocity S-wave (km/s) = 1.98994 3.28795 2.71758
# Velocity P-wave (km/s) = 4.30711 7.10838 5.87709
#
# Compressibility (1/GPa) = 0.04814797
#
# Stress axis : x y z
#
# Youngs Moduli (GPa) = 14.63445 63.75256 78.04302
#
# Poissons Ratio (x) = 0.64423 0.58086
# Poissons Ratio (y) = 0.14788 0.53019
# Poissons Ratio (z) = 0.10892 0.43311
#
# Static dielectric constant tensor:
#      x y z
#    x 1.524120 0.000000 0.000000 
#    y 0.000000 1.546570 0.000000 
#    z 0.000000 0.000000 1.496050 
# 
# From -- ./inp_files/22559.got.cif
#   From: 2010.05.17/outbox.cif.g08.bks.cpg/sg51_12_cif.got.tgz:22559.got - 2010.06.03 11:52:47.
