data_PCOD9401110
_publ_section_title
;
Structure prediction by ZEFSAII (Michael W. Deem and Ramdas Pophale) SiO2 
 PCOD9401110
Probable space group: P M M A
;
_chemical_formula_sum "Si O2"
_cell_formula_units_Z 64
_cell_length_a 31.339468
_cell_length_b 9.953765
_cell_length_c 12.209040
_cell_angle_alpha 90.000000
_cell_angle_beta 90.000000
_cell_angle_gamma 90.000000
_cell_volume 3808.557525
_symmetry_space_group_name_H-M "P M M A"
_symmetry_group_IT_number 51
_symmetry_cell_setting 'orthorhombic'
loop_
_space_group_symop_operation_xyz
x,y,z
1/2-x,-y,z
1/2+x,-y,-z
-x,y,-z
-x,-y,-z
1/2+x,y,-z
1/2-x,y,z
x,-y,z
loop_
_atom_site_type_symbol
_atom_site_label
_atom_site_fract_x
_atom_site_fract_y
_atom_site_fract_z
Si Si1 0.506090 0.846911 0.231728
Si Si2 0.627682 0.340726 0.059525
Si Si3 0.799199 0.341920 0.883495
Si Si4 0.606455 0.154631 0.507424
Si Si5 0.352420 0.847508 0.267330
Si Si6 0.465427 0.350579 0.405322
Si Si7 0.572847 0.846452 0.907150
Si Si8 0.391955 0.845694 0.749414
O O1 0.487612 0.734248 0.310663
O O2 0.476839 0.833910 0.123695
O O3 0.557008 0.833641 0.227547
O O4 0.497665 0.000000 0.272571
O O5 0.619301 0.500000 0.069918
O O6 0.630127 0.264107 0.174525
O O7 0.670912 0.321865 0.989566
O O8 0.591047 0.263362 0.990071
O O9 0.750000 0.305502 0.902324
O O10 0.801242 0.500000 0.856669
O O11 0.820364 0.256207 0.787049
O O12 0.641912 0.166568 0.602381
O O13 0.572097 0.263181 0.543586
O O14 0.616954 0.174628 0.379811
O O15 0.589983 0.000000 0.515733
O O16 0.398306 0.832350 0.204215
O O17 0.338589 0.000000 0.243807
O O18 0.500000 0.364036 0.500000
O O19 0.451748 0.500000 0.369431
O O20 0.579982 0.000000 0.947716
O O21 0.379980 0.000000 0.776663
#
# Coordination Sequence:
#
# PCOD9401110 Si02
#       8
#     8   8   8   8   8   8   8   8
#     4  10  19  32  50  69  94 137 186 225 259 298
#     4  10  21  36  53  73 102 134 167 213 263 309
#     4   9  19  37  60  83 104 129 160 196 249 317
#     4  10  19  33  52  72 100 139 177 209 250 305
#     4   9  17  30  52  82 107 128 160 206 256 302
#     4  11  21  29  42  69 102 135 176 226 265 294
#     4   9  17  31  51  72  97 130 174 221 258 299
#     4  10  21  34  51  71  98 141 186 220 248 293
#
# _framework density 16.804262999999999
#
# number of rings (size 3 to 8) (size 9 to 14) (size 15 to 20)
#    0.000    2.250    2.500    0.750    0.000    3.750 
#    0.000    2.500    0.000    0.750    0.000    3.500 
#    0.000    0.000    0.000    0.000    0.000    0.000 
#
# Total GULP energy -356666.699742 kJ/mol
# GULP energy per Si atom -5572.917183 kJ/mol
# Density = 1.676602 g / cm^3
# Si number density = 16.804263 Si / 1000 Ang^3
#
#
#
# Elastic Constant Matrix: (Units=GPa)
#
#
# Indices 1 2 3 4 5 6 
#
# 1 40.1165 49.7495 36.6098 0.0000 0.0000 0.0000
# 2 49.7495 120.7776 71.0139 0.0000 0.0000 0.0000
# 3 36.6098 71.0139 97.8395 0.0000 0.0000 0.0000
# 4 0.0000 0.0000 0.0000 27.5158 0.0000 0.0000
# 5 0.0000 0.0000 0.0000 0.0000 7.9029 0.0000
# 6 0.0000 0.0000 0.0000 0.0000 0.0000 21.4039
#
#
#
# Elastic Compliance Matrix: (Units=1/GPa)
#
#
# Indices 1 2 3 4 5 6 
#
# 1 0.053594 -0.017942 -0.007032 0.000000 0.000000 0.000000
# 2 -0.017942 0.020450 -0.008130 0.000000 0.000000 0.000000
# 3 -0.007032 -0.008130 0.018753 0.000000 0.000000 0.000000
# 4 0.000000 0.000000 0.000000 0.036343 0.000000 0.000000
# 5 0.000000 0.000000 0.000000 0.000000 0.126536 0.000000
# 6 0.000000 0.000000 0.000000 0.000000 0.000000 0.046720
#
#
# Mechanical properties :
#
#
# Convention : Reuss Voigt Hill
#
# Bulk Modulus (GPa) = 37.60650 63.71998 50.66324
# Shear Modulus (GPa) = 13.24625 18.12187 15.68406
#
# Velocity S-wave (km/s) = 2.81066 3.28748 3.05837
# Velocity P-wave (km/s) = 5.74115 7.23956 6.53345
#
# Compressibility (1/GPa) = 0.02659115
#
# Stress axis : x y z
#
# Youngs Moduli (GPa) = 18.65874 48.89985 53.32616
#
# Poissons Ratio (x) = 0.87734 0.37497
# Poissons Ratio (y) = 0.33477 0.43352
# Poissons Ratio (z) = 0.13120 0.39754
#
# Static dielectric constant tensor:
#      x y z
#    x 1.554190 0.000000 0.000000 
#    y 0.000000 1.581500 0.000000 
#    z 0.000000 0.000000 1.594700 
# 
# From -- ./inp_files/19658.got.cif
#   From: 2010.05.17/outbox.cif.g08.bks.cpg/sg51_10_cif.got.tgz:19658.got - 2010.06.03 11:52:47.
