data_PCOD9401790
_publ_section_title
;
Structure prediction by ZEFSAII (Michael W. Deem and Ramdas Pophale) SiO2 
 PCOD9401790
Probable space group: P M M A
;
_chemical_formula_sum "Si O2"
_cell_formula_units_Z 56
_cell_length_a 19.607136
_cell_length_b 9.093109
_cell_length_c 18.130127
_cell_angle_alpha 90.000000
_cell_angle_beta 90.000000
_cell_angle_gamma 90.000000
_cell_volume 3232.417167
_symmetry_space_group_name_H-M "P M M A"
_symmetry_group_IT_number 51
_symmetry_cell_setting 'orthorhombic'
loop_
_space_group_symop_operation_xyz
x,y,z
1/2-x,-y,z
1/2+x,-y,-z
-x,y,-z
-x,-y,-z
1/2+x,y,-z
1/2-x,y,z
x,-y,z
loop_
_atom_site_type_symbol
_atom_site_label
_atom_site_fract_x
_atom_site_fract_y
_atom_site_fract_z
Si Si1 0.830224 0.671937 0.071790
Si Si2 0.390537 0.671588 0.774637
Si Si3 0.052256 0.671834 0.196265
Si Si4 0.930373 0.177558 0.650401
Si Si5 0.428918 0.175292 0.041108
Si Si6 0.587312 0.176878 0.376232
Si Si7 0.828828 0.179323 0.520244
O O1 0.750000 0.678641 0.059623
O O2 0.852294 0.500000 0.067031
O O3 0.847821 0.722440 0.154802
O O4 0.870175 0.765364 0.011938
O O5 0.374989 0.500000 0.760884
O O6 0.469984 0.683197 0.797520
O O7 0.382202 0.760561 0.699484
O O8 0.070358 0.500000 0.195320
O O9 0.079774 0.749933 0.269859
O O10 0.073863 0.749180 0.120805
O O11 0.873041 0.222386 0.591632
O O12 0.006805 0.218079 0.622040
O O13 0.929155 0.000000 0.657538
O O14 0.425672 0.000000 0.049545
O O15 0.500000 0.212427 0.000000
O O16 0.630121 0.226878 0.447137
O O17 0.589568 0.000000 0.374433
O O18 0.750000 0.227913 0.521440
O O19 0.828228 0.000000 0.519360
#
# Coordination Sequence:
#
# PCOD9401790 Si02
#       7
#     8   8   8   8   8   8   8
#     4  10  21  37  55  76 107 146 181 214 261 321
#     4   9  18  32  50  75 104 135 170 210 258 312
#     4  10  19  33  55  79 103 134 174 218 263 313
#     4   9  17  31  51  74 101 131 169 217 263 306
#     4  11  22  35  56  83 109 137 176 223 267 311
#     4   9  17  29  49  75 101 130 169 212 256 308
#     4   9  17  30  49  73 100 133 172 212 259 311
#
# _framework density 17.324497000000001
#
# number of rings (size 3 to 8) (size 9 to 14) (size 15 to 20)
#    0.000    2.429    1.429    1.286    0.000    4.286 
#    0.000    1.429    0.000    7.286    0.000    0.000 
#    0.000    0.000    0.000    0.000    0.000    0.000 
#
# Total GULP energy -312345.591415 kJ/mol
# GULP energy per Si atom -5577.599847 kJ/mol
# Density = 1.728507 g / cm^3
# Si number density = 17.324497 Si / 1000 Ang^3
#
#
#
# Elastic Constant Matrix: (Units=GPa)
#
#
# Indices 1 2 3 4 5 6 
#
# 1 79.9664 34.3664 82.8758 0.0000 0.0000 0.0000
# 2 34.3664 30.5484 53.2168 0.0000 0.0000 0.0000
# 3 82.8758 53.2168 175.9424 0.0000 0.0000 0.0000
# 4 0.0000 0.0000 0.0000 -4.8199 0.0000 0.0000
# 5 0.0000 0.0000 0.0000 0.0000 18.5593 0.0000
# 6 0.0000 0.0000 0.0000 0.0000 0.0000 13.9078
#
#
#
# Elastic Compliance Matrix: (Units=1/GPa)
#
#
# Indices 1 2 3 4 5 6 
#
# 1 0.028616 -0.018413 -0.007910 0.000000 0.000000 0.000000
# 2 -0.018413 0.081042 -0.015839 0.000000 0.000000 0.000000
# 3 -0.007910 -0.015839 0.014200 0.000000 0.000000 0.000000
# 4 0.000000 0.000000 0.000000 -0.207475 0.000000 0.000000
# 5 0.000000 0.000000 0.000000 0.000000 0.053881 0.000000
# 6 0.000000 0.000000 0.000000 0.000000 0.000000 0.071902
#
#
# Mechanical properties :
#
#
# Convention : Reuss Voigt Hill
#
# Bulk Modulus (GPa) = 25.29472 69.70836 47.50154
# Shear Modulus (GPa) = 35.79870 13.26267 24.53069
#
# Velocity S-wave (km/s) = 4.55066 2.76985 3.76700
# Velocity P-wave (km/s) = 6.49951 7.11011 6.81165
#
# Compressibility (1/GPa) = 0.03953395
#
# Stress axis : x y z
#
# Youngs Moduli (GPa) = 34.94516 12.33931 70.42018
#
# Poissons Ratio (x) = 0.22720 0.55703
# Poissons Ratio (y) = 0.64345 1.11540
# Poissons Ratio (z) = 0.27642 0.19545
#
# Static dielectric constant tensor:
#      x y z
#    x 1.579850 0.000000 0.000000 
#    y 0.000000 1.580880 0.000000 
#    z 0.000000 0.000000 1.566440 
# 
# From -- ./inp_files/25688.got.cif
#   From: 2010.05.17/outbox.cif.g08.bks.cpg/sg51_13_cif.got.tgz:25688.got - 2010.06.03 11:52:47.
