data_PCOD9401701
_publ_section_title
;
Structure prediction by ZEFSAII (Michael W. Deem and Ramdas Pophale) SiO2 
 PCOD9401701
Probable space group: P M M A
;
_chemical_formula_sum "Si O2"
_cell_formula_units_Z 64
_cell_length_a 20.073801
_cell_length_b 8.675514
_cell_length_c 21.305000
_cell_angle_alpha 90.000000
_cell_angle_beta 90.000000
_cell_angle_gamma 90.000000
_cell_volume 3710.277289
_symmetry_space_group_name_H-M "P M M A"
_symmetry_group_IT_number 51
_symmetry_cell_setting 'orthorhombic'
loop_
_space_group_symop_operation_xyz
x,y,z
1/2-x,-y,z
1/2+x,-y,-z
-x,y,-z
-x,-y,-z
1/2+x,y,-z
1/2-x,y,z
x,-y,z
loop_
_atom_site_type_symbol
_atom_site_label
_atom_site_fract_x
_atom_site_fract_y
_atom_site_fract_z
Si Si1 0.461417 0.815812 0.677589
Si Si2 0.456711 0.684408 0.438649
Si Si3 0.825594 0.816725 0.508823
Si Si4 0.040635 0.814333 0.816915
Si Si5 0.324796 0.685521 0.014540
Si Si6 0.040876 0.814038 0.061774
Si Si7 0.175255 0.314329 0.867321
Si Si8 0.825636 0.684138 0.368819
O O1 0.504843 0.739229 0.623064
O O2 0.482457 0.767043 0.747645
O O3 0.384629 0.766921 0.667856
O O4 0.466823 0.000000 0.671997
O O5 0.500000 0.730579 0.500000
O O6 0.451308 0.500000 0.438902
O O7 0.383904 0.757846 0.446435
O O8 0.750000 0.787175 0.531460
O O9 0.832860 0.731921 0.441825
O O10 0.832523 0.000000 0.498595
O O11 0.115522 0.757616 0.828776
O O12 0.995222 0.759346 0.874836
O O13 0.040730 0.000000 0.818465
O O14 0.250000 0.732724 0.033308
O O15 0.328236 0.500000 0.017755
O O16 0.333411 0.727782 0.940930
O O17 0.383992 0.757203 0.054187
O O18 0.040209 0.000000 0.061759
O O19 0.000000 0.761676 0.000000
O O20 0.250000 0.267277 0.848048
O O21 0.172021 0.500000 0.863211
O O22 0.750000 0.725674 0.349477
O O23 0.833074 0.500000 0.363160
#
# Coordination Sequence:
#
# PCOD9401701 Si02
#       8
#     8   8   8   8   8   8   8   8
#     4  11  23  37  54  75 106 144 181 221 264 315
#     4  11  22  36  57  83 109 139 177 222 268 312
#     4  10  20  34  56  85 112 139 174 216 264 315
#     4  10  22  37  51  75 107 140 178 220 264 311
#     4   9  18  32  51  78 108 135 171 218 263 311
#     4  10  19  33  54  78 105 136 174 219 264 311
#     4   9  18  32  50  74 105 141 178 214 256 310
#     4  10  20  34  52  76 108 143 179 218 259 308
#
# _framework density 17.249383999999999
#
# number of rings (size 3 to 8) (size 9 to 14) (size 15 to 20)
#    0.000    2.000    2.500    2.250    0.000    4.750 
#    0.000    3.750    0.000    0.750    0.000    1.750 
#    0.000    0.000    0.000    0.000    0.000    0.000 
#
# Total GULP energy -357221.281253 kJ/mol
# GULP energy per Si atom -5581.582520 kJ/mol
# Density = 1.721012 g / cm^3
# Si number density = 17.249384 Si / 1000 Ang^3
#
#
#
# Elastic Constant Matrix: (Units=GPa)
#
#
# Indices 1 2 3 4 5 6 
#
# 1 102.6527 16.6088 56.3780 0.0000 0.0000 0.0000
# 2 16.6088 14.6863 18.6892 0.0000 0.0000 0.0000
# 3 56.3780 18.6892 105.3827 0.0000 0.0000 0.0000
# 4 0.0000 0.0000 0.0000 11.8659 0.0000 0.0000
# 5 0.0000 0.0000 0.0000 0.0000 20.9065 0.0000
# 6 0.0000 0.0000 0.0000 0.0000 0.0000 33.3718
#
#
#
# Elastic Compliance Matrix: (Units=1/GPa)
#
#
# Indices 1 2 3 4 5 6 
#
# 1 0.014567 -0.008468 -0.006291 0.000000 0.000000 0.000000
# 2 -0.008468 0.092858 -0.011938 0.000000 0.000000 0.000000
# 3 -0.006291 -0.011938 0.014972 0.000000 0.000000 0.000000
# 4 0.000000 0.000000 0.000000 0.084275 0.000000 0.000000
# 5 0.000000 0.000000 0.000000 0.000000 0.047832 0.000000
# 6 0.000000 0.000000 0.000000 0.000000 0.000000 0.029965
#
#
# Mechanical properties :
#
#
# Convention : Reuss Voigt Hill
#
# Bulk Modulus (GPa) = 14.49204 45.11932 29.80568
# Shear Modulus (GPa) = 13.85559 21.96521 17.91040
#
# Velocity S-wave (km/s) = 2.83724 3.57233 3.22579
# Velocity P-wave (km/s) = 4.37641 6.57490 5.58490
#
# Compressibility (1/GPa) = 0.06900339
#
# Stress axis : x y z
#
# Youngs Moduli (GPa) = 68.64885 10.76908 66.79074
#
# Poissons Ratio (x) = 0.09119 0.42020
# Poissons Ratio (y) = 0.58130 0.79735
# Poissons Ratio (z) = 0.43189 0.12856
#
# Static dielectric constant tensor:
#      x y z
#    x 1.581340 0.000000 0.000000 
#    y 0.000000 1.579330 0.000000 
#    z 0.000000 0.000000 1.583670 
# 
# From -- ./inp_files/33771.got.cif
#   From: 2010.05.17/outbox.cif.g08.bks.cpg/sg51_17_cif.got.tgz:33771.got - 2010.06.03 11:52:47.
