data_PCOD9401559
_publ_section_title
;
Structure prediction by ZEFSAII (Michael W. Deem and Ramdas Pophale) SiO2 
 PCOD9401559
Probable space group: P M M A
;
_chemical_formula_sum "Si O2"
_cell_formula_units_Z 48
_cell_length_a 26.457418
_cell_length_b 8.600579
_cell_length_c 12.123499
_cell_angle_alpha 90.000000
_cell_angle_beta 90.000000
_cell_angle_gamma 90.000000
_cell_volume 2758.691452
_symmetry_space_group_name_H-M "P M M A"
_symmetry_group_IT_number 51
_symmetry_cell_setting 'orthorhombic'
loop_
_space_group_symop_operation_xyz
x,y,z
1/2-x,-y,z
1/2+x,-y,-z
-x,y,-z
-x,-y,-z
1/2+x,y,-z
1/2-x,y,z
x,-y,z
loop_
_atom_site_type_symbol
_atom_site_label
_atom_site_fract_x
_atom_site_fract_y
_atom_site_fract_z
Si Si1 0.942486 0.684608 0.466454
Si Si2 0.381875 0.315172 0.978986
Si Si3 0.607478 0.183166 0.671735
Si Si4 0.468954 0.681544 0.154185
Si Si5 0.071193 0.179995 0.773542
Si Si6 0.809123 0.312397 0.823506
O O1 0.938843 0.500000 0.484270
O O2 0.903345 0.771873 0.546117
O O3 0.931456 0.724188 0.339652
O O4 0.000000 0.732351 0.500000
O O5 0.377551 0.500000 0.960764
O O6 0.386964 0.232242 0.862098
O O7 0.433386 0.289686 0.049153
O O8 0.337254 0.266417 0.062444
O O9 0.566719 0.281812 0.741787
O O10 0.661058 0.232599 0.723148
O O11 0.599254 0.000000 0.689116
O O12 0.484120 0.500000 0.153808
O O13 0.517722 0.786806 0.166860
O O14 0.076280 0.000000 0.746449
O O15 0.750000 0.276204 0.825256
O O16 0.815298 0.500000 0.813535
#
# Coordination Sequence:
#
# PCOD9401559 Si02
#       6
#     8   8   8   8   8   8
#     4  11  22  36  55  74 103 149 191 223 261 318
#     4   9  19  34  52  75 105 139 178 220 262 315
#     4  11  21  33  53  82 113 140 175 226 276 318
#     4  10  19  33  51  72 103 145 185 218 255 310
#     4  12  23  32  48  75 109 144 179 220 268 318
#     4   9  19  38  63  85 106 138 180 223 268 321
#
# _framework density 17.399553999999998
#
# number of rings (size 3 to 8) (size 9 to 14) (size 15 to 20)
#    0.000    1.667    1.667    5.500    0.000    6.333 
#    0.000    0.000    0.000    1.000    0.000    2.333 
#    0.000    0.000    0.000    0.000    0.000    0.000 
#
# Total GULP energy -268003.108910 kJ/mol
# GULP energy per Si atom -5583.398102 kJ/mol
# Density = 1.735995 g / cm^3
# Si number density = 17.399554 Si / 1000 Ang^3
#
#
#
# Elastic Constant Matrix: (Units=GPa)
#
#
# Indices 1 2 3 4 5 6 
#
# 1 76.8890 14.5298 36.3071 0.0000 0.0000 0.0000
# 2 14.5298 23.8625 28.5864 0.0000 0.0000 0.0000
# 3 36.3071 28.5864 83.5825 0.0000 0.0000 0.0000
# 4 0.0000 0.0000 0.0000 -3.3094 0.0000 0.0000
# 5 0.0000 0.0000 0.0000 0.0000 7.4727 0.0000
# 6 0.0000 0.0000 0.0000 0.0000 0.0000 11.1152
#
#
#
# Elastic Compliance Matrix: (Units=1/GPa)
#
#
# Indices 1 2 3 4 5 6 
#
# 1 0.016447 -0.002466 -0.006301 0.000000 0.000000 0.000000
# 2 -0.002466 0.071365 -0.023336 0.000000 0.000000 0.000000
# 3 -0.006301 -0.023336 0.022683 0.000000 0.000000 0.000000
# 4 0.000000 0.000000 0.000000 -0.302169 0.000000 0.000000
# 5 0.000000 0.000000 0.000000 0.000000 0.133820 0.000000
# 6 0.000000 0.000000 0.000000 0.000000 0.000000 0.089966
#
#
# Mechanical properties :
#
#
# Convention : Reuss Voigt Hill
#
# Bulk Modulus (GPa) = 21.60427 38.13118 29.86773
# Shear Modulus (GPa) = 44.74337 10.04975 27.39656
#
# Velocity S-wave (km/s) = 5.07652 2.40591 3.97237
# Velocity P-wave (km/s) = 6.84141 5.44798 6.18407
#
# Compressibility (1/GPa) = 0.04628714
#
# Stress axis : x y z
#
# Youngs Moduli (GPa) = 60.80092 14.01253 44.08656
#
# Poissons Ratio (x) = 0.03456 0.27778
# Poissons Ratio (y) = 0.14996 1.02882
# Poissons Ratio (z) = 0.38310 0.32700
#
# Static dielectric constant tensor:
#      x y z
#    x 1.585670 0.000000 0.000000 
#    y 0.000000 1.577930 0.000000 
#    z 0.000000 0.000000 1.612080 
# 
# From -- ./inp_files/19005.got.cif
#   From: 2010.05.17/outbox.cif.g08.bks.cpg/sg51_10_cif.got.tgz:19005.got - 2010.06.03 11:52:47.
