data_PCOD9401773
_publ_section_title
;
Structure prediction by ZEFSAII (Michael W. Deem and Ramdas Pophale) SiO2 
 PCOD9401773
Probable space group: P M M A
;
_chemical_formula_sum "Si O2"
_cell_formula_units_Z 56
_cell_length_a 8.617589
_cell_length_b 20.315093
_cell_length_c 15.615190
_cell_angle_alpha 90.000000
_cell_angle_beta 90.000000
_cell_angle_gamma 90.000000
_cell_volume 2733.706372
_symmetry_space_group_name_H-M "P M M A"
_symmetry_group_IT_number 51
_symmetry_cell_setting 'orthorhombic'
loop_
_space_group_symop_operation_xyz
x,y,z
1/2-x,-y,z
1/2+x,-y,-z
-x,y,-z
-x,-y,-z
1/2+x,y,-z
1/2-x,y,z
x,-y,z
loop_
_atom_site_type_symbol
_atom_site_label
_atom_site_fract_x
_atom_site_fract_y
_atom_site_fract_z
Si Si1 0.433254 0.826354 0.910918
Si Si2 0.068187 0.924321 0.227337
Si Si3 0.067241 0.110353 0.590444
Si Si4 0.068969 0.602677 0.410760
Si Si5 0.930799 0.737251 0.369343
Si Si6 0.065010 0.426738 0.774762
Si Si7 0.066697 0.709837 0.185918
O O1 0.250000 0.817006 0.916167
O O2 0.474114 0.875599 0.833619
O O3 0.516493 0.757022 0.890619
O O4 0.500000 0.853030 0.000000
O O5 0.250000 0.907161 0.220919
O O6 0.015928 0.917548 0.325741
O O7 0.046827 0.000000 0.200699
O O8 0.250000 0.096211 0.595342
O O9 0.046496 0.189639 0.596054
O O10 0.000000 0.087091 0.500000
O O11 0.250000 0.587714 0.404428
O O12 0.000000 0.577894 0.500000
O O13 0.040746 0.681605 0.408733
O O14 0.982909 0.578112 0.325492
O O15 0.750000 0.718329 0.381406
O O16 0.972401 0.735946 0.268782
O O17 0.250000 0.417905 0.781044
O O18 0.024096 0.500000 0.805432
O O19 0.980300 0.366520 0.821542
O O20 0.250000 0.715028 0.202102
#
# Coordination Sequence:
#
# PCOD9401773 Si02
#       7
#     8   8   8   8   8   8   8
#     4  12  25  44  71 102 133 166 208 257 312 379
#     4  11  25  45  68  95 130 170 213 263 318 377
#     4  11  23  37  59  88 123 169 217 268 318 372
#     4  11  21  32  48  72 107 151 200 258 315 371
#     4  10  19  33  54  82 115 154 203 257 312 369
#     4  10  21  37  57  82 115 158 206 254 307 370
#     4  11  21  36  62  92 125 162 202 253 309 369
#
# _framework density 20.485009999999999
#
# number of rings (size 3 to 8) (size 9 to 14) (size 15 to 20)
#    0.000    1.143    1.429    7.714    0.000    6.000 
#    0.000    0.000    0.000    0.429    0.000    0.000 
#    0.000    0.000    0.000    0.000    0.000    0.000 
#
# Total GULP energy -313248.924462 kJ/mol
# GULP energy per Si atom -5593.730794 kJ/mol
# Density = 2.043839 g / cm^3
# Si number density = 20.485010 Si / 1000 Ang^3
#
#
#
# Elastic Constant Matrix: (Units=GPa)
#
#
# Indices 1 2 3 4 5 6 
#
# 1 82.0638 35.1898 6.0903 0.0000 0.0000 0.0000
# 2 35.1898 68.2313 15.4210 0.0000 0.0000 0.0000
# 3 6.0903 15.4210 69.0580 0.0000 0.0000 0.0000
# 4 0.0000 0.0000 0.0000 -10.5484 0.0000 0.0000
# 5 0.0000 0.0000 0.0000 0.0000 29.5691 0.0000
# 6 0.0000 0.0000 0.0000 0.0000 0.0000 14.5566
#
#
#
# Elastic Compliance Matrix: (Units=1/GPa)
#
#
# Indices 1 2 3 4 5 6 
#
# 1 0.015659 -0.008176 0.000445 0.000000 0.000000 0.000000
# 2 -0.008176 0.019704 -0.003679 0.000000 0.000000 0.000000
# 3 0.000445 -0.003679 0.015263 0.000000 0.000000 0.000000
# 4 0.000000 0.000000 0.000000 -0.094801 0.000000 0.000000
# 5 0.000000 0.000000 0.000000 0.000000 0.033819 0.000000
# 6 0.000000 0.000000 0.000000 0.000000 0.000000 0.068698
#
#
# Mechanical properties :
#
#
# Convention : Reuss Voigt Hill
#
# Bulk Modulus (GPa) = 35.96479 36.97279 36.46879
# Shear Modulus (GPa) = 55.29087 17.55893 36.42490
#
# Velocity S-wave (km/s) = 5.20091 2.93091 4.22136
# Velocity P-wave (km/s) = 7.32535 5.43521 6.44989
#
# Compressibility (1/GPa) = 0.02780497
#
# Stress axis : x y z
#
# Youngs Moduli (GPa) = 63.86205 50.74994 65.51841
#
# Poissons Ratio (x) = 0.41495 -0.02915
# Poissons Ratio (y) = 0.52216 0.24104
# Poissons Ratio (z) = -0.02841 0.18671
#
# Static dielectric constant tensor:
#      x y z
#    x 1.682110 0.000000 0.000000 
#    y 0.000000 1.762270 0.000000 
#    z 0.000000 0.000000 1.728690 
# 
# From -- ./inp_files/21776.got.cif
#   From: 2010.05.17/outbox.cif.g08.bks.cpg/sg51_11_cif.got.tgz:21776.got - 2010.06.03 11:52:47.
