data_PCOD9401841
_publ_section_title
;
Structure prediction by ZEFSAII (Michael W. Deem and Ramdas Pophale) SiO2 
 PCOD9401841
Probable space group: P M M A
;
_chemical_formula_sum "Si O2"
_cell_formula_units_Z 64
_cell_length_a 8.852132
_cell_length_b 15.578560
_cell_length_c 25.534855
_cell_angle_alpha 90.000000
_cell_angle_beta 90.000000
_cell_angle_gamma 90.000000
_cell_volume 3521.345097
_symmetry_space_group_name_H-M "P M M A"
_symmetry_group_IT_number 51
_symmetry_cell_setting 'orthorhombic'
loop_
_space_group_symop_operation_xyz
x,y,z
1/2-x,-y,z
1/2+x,-y,-z
-x,y,-z
-x,-y,-z
1/2+x,y,-z
1/2-x,y,z
x,-y,z
loop_
_atom_site_type_symbol
_atom_site_label
_atom_site_fract_x
_atom_site_fract_y
_atom_site_fract_z
Si Si1 0.432125 0.095627 0.096462
Si Si2 0.424645 0.669671 0.244086
Si Si3 0.424933 0.868604 0.215796
Si Si4 0.068548 0.717251 0.647092
Si Si5 0.931072 0.269087 0.055006
Si Si6 0.569151 0.595942 0.143468
Si Si7 0.069176 0.599484 0.442660
Si Si8 0.431176 0.907189 0.674921
O O1 0.250000 0.105936 0.093096
O O2 0.472605 0.102643 0.158171
O O3 0.511436 0.173248 0.067011
O O4 0.471274 0.000000 0.077610
O O5 0.250000 0.648666 0.254661
O O6 0.431445 0.765593 0.219754
O O7 0.514815 0.674860 0.298343
O O8 0.494137 0.609717 0.199807
O O9 0.250000 0.894497 0.223324
O O10 0.521374 0.902192 0.264250
O O11 0.250000 0.715773 0.644253
O O12 0.016142 0.817540 0.649168
O O13 0.998647 0.664532 0.599463
O O14 0.750000 0.270030 0.052377
O O15 0.980438 0.332031 0.102048
O O16 0.000000 0.297875 0.000000
O O17 0.750000 0.604431 0.149686
O O18 0.536447 0.500000 0.123930
O O19 0.250000 0.607824 0.444685
O O20 0.033359 0.500000 0.428636
O O21 0.000000 0.615379 0.500000
O O22 0.250000 0.906342 0.671544
O O23 0.485137 0.000000 0.653918
#
# Coordination Sequence:
#
# PCOD9401841 Si02
#       8
#     8   8   8   8   8   8   8   8
#     4  10  20  35  56  81 109 140 175 217 267 323
#     4  10  19  33  55  82 113 146 181 222 268 321
#     4   9  17  30  50  76 107 141 177 217 264 317
#     4  10  20  34  55  83 117 155 191 229 275 325
#     4  11  24  41  61  80 104 136 175 223 273 327
#     4  10  22  40  60  82 108 139 175 218 272 332
#     4  10  21  38  60  85 113 146 188 237 286 335
#     4   9  18  31  48  75 112 151 189 227 267 315
#
# _framework density 18.174873000000002
#
# number of rings (size 3 to 8) (size 9 to 14) (size 15 to 20)
#    0.000    2.125    1.250    1.875    0.000    5.000 
#    0.000    0.000    0.000    0.375    0.000    0.000 
#    0.000    0.000    0.000    0.000    0.000    0.000 
#
# Total GULP energy -357167.569220 kJ/mol
# GULP energy per Si atom -5580.743269 kJ/mol
# Density = 1.813351 g / cm^3
# Si number density = 18.174873 Si / 1000 Ang^3
#
#
#
# Elastic Constant Matrix: (Units=GPa)
#
#
# Indices 1 2 3 4 5 6 
#
# 1 39.4275 38.4937 34.0454 0.0000 0.0000 0.0000
# 2 38.4937 101.8999 59.6951 0.0000 0.0000 0.0000
# 3 34.0454 59.6951 93.6646 0.0000 0.0000 0.0000
# 4 0.0000 0.0000 0.0000 -1.8131 0.0000 0.0000
# 5 0.0000 0.0000 0.0000 0.0000 32.0051 0.0000
# 6 0.0000 0.0000 0.0000 0.0000 0.0000 18.3241
#
#
#
# Elastic Compliance Matrix: (Units=1/GPa)
#
#
# Indices 1 2 3 4 5 6 
#
# 1 0.044180 -0.011621 -0.008652 0.000000 0.000000 0.000000
# 2 -0.011621 0.018717 -0.007705 0.000000 0.000000 0.000000
# 3 -0.008652 -0.007705 0.018732 0.000000 0.000000 0.000000
# 4 0.000000 0.000000 0.000000 -0.551548 0.000000 0.000000
# 5 0.000000 0.000000 0.000000 0.000000 0.031245 0.000000
# 6 0.000000 0.000000 0.000000 0.000000 0.000000 0.054573
#
#
# Mechanical properties :
#
#
# Convention : Reuss Voigt Hill
#
# Bulk Modulus (GPa) = 38.95184 55.49560 47.22372
# Shear Modulus (GPa) = -15.64516 16.55375 0.45430
#
# Velocity S-wave (km/s) = -2.93714 3.02123 0.50050
# Velocity P-wave (km/s) = 3.15845 6.53995 5.13550
#
# Compressibility (1/GPa) = 0.02567273
#
# Stress axis : x y z
#
# Youngs Moduli (GPa) = 22.63488 53.42691 53.38442
#
# Poissons Ratio (x) = 0.62085 0.46190
# Poissons Ratio (y) = 0.26303 0.41133
# Poissons Ratio (z) = 0.19585 0.41166
#
# Static dielectric constant tensor:
#      x y z
#    x 1.613920 0.000000 0.000000 
#    y 0.000000 1.658900 0.000000 
#    z 0.000000 0.000000 1.584360 
# 
# From -- ./inp_files/35034.got.cif
#   From: 2010.05.17/outbox.cif.g08.bks.cpg/sg51_18_cif.got.tgz:35034.got - 2010.06.03 11:52:47.
