data_PCOD9401602
_publ_section_title
;
Structure prediction by ZEFSAII (Michael W. Deem and Ramdas Pophale) SiO2 
 PCOD9401602
Probable space group: P M M A
;
_chemical_formula_sum "Si O2"
_cell_formula_units_Z 48
_cell_length_a 14.754564
_cell_length_b 14.014003
_cell_length_c 12.383073
_cell_angle_alpha 90.000000
_cell_angle_beta 90.000000
_cell_angle_gamma 90.000000
_cell_volume 2560.454247
_symmetry_space_group_name_H-M "P M M A"
_symmetry_group_IT_number 51
_symmetry_cell_setting 'orthorhombic'
loop_
_space_group_symop_operation_xyz
x,y,z
1/2-x,-y,z
1/2+x,-y,-z
-x,y,-z
-x,-y,-z
1/2+x,y,-z
1/2-x,y,z
x,-y,z
loop_
_atom_site_type_symbol
_atom_site_label
_atom_site_fract_x
_atom_site_fract_y
_atom_site_fract_z
Si Si1 0.035717 0.387257 0.166453
Si Si2 0.012121 0.885320 0.377363
Si Si3 0.392246 0.110547 0.018568
Si Si4 0.145438 0.221973 0.239914
Si Si5 0.353666 0.614014 0.941878
Si Si6 0.151269 0.883716 0.778250
O O1 0.035356 0.500000 0.192791
O O2 0.084570 0.316744 0.247901
O O3 0.932962 0.354208 0.140165
O O4 0.097961 0.375968 0.058428
O O5 0.105828 0.851094 0.326573
O O6 0.000000 0.851981 0.500000
O O7 0.931620 0.852694 0.296694
O O8 0.009546 0.000000 0.377751
O O9 0.367502 0.172735 0.122065
O O10 0.364663 0.000000 0.036751
O O11 0.500000 0.111514 0.000000
O O12 0.354846 0.145608 0.903724
O O13 0.250000 0.244071 0.254573
O O14 0.250000 0.650801 0.937713
O O15 0.347255 0.500000 0.924796
O O16 0.250000 0.856280 0.734817
O O17 0.146777 0.000000 0.781991
#
# Coordination Sequence:
#
# PCOD9401602 Si02
#       6
#     8   8   8   8   8   8
#     4   9  19  33  48  73 111 148 185 233 282 329
#     4  10  22  40  58  77 105 139 179 231 281 324
#     4  10  19  33  52  76 112 146 172 214 269 328
#     4  12  24  35  55  84 111 145 189 229 275 336
#     4   8  14  27  48  72 103 148 193 227 269 329
#     4   9  17  31  52  76 103 139 176 209 260 328
#
# _framework density 18.746675
#
# number of rings (size 3 to 8) (size 9 to 14) (size 15 to 20)
#    0.000    2.333    1.667    2.500    2.333    3.667 
#    0.000    2.500    0.000    0.500    0.000    0.000 
#    0.000    0.000    0.000    0.333    0.000    0.000 
#
# Total GULP energy -267804.420958 kJ/mol
# GULP energy per Si atom -5579.258770 kJ/mol
# Density = 1.870401 g / cm^3
# Si number density = 18.746675 Si / 1000 Ang^3
#
#
#
# Elastic Constant Matrix: (Units=GPa)
#
#
# Indices 1 2 3 4 5 6 
#
# 1 138.8290 21.5268 18.4523 0.0000 0.0000 0.0000
# 2 21.5268 60.0085 19.1930 0.0000 0.0000 0.0000
# 3 18.4523 19.1930 69.6651 0.0000 0.0000 0.0000
# 4 0.0000 0.0000 0.0000 9.7626 0.0000 0.0000
# 5 0.0000 0.0000 0.0000 0.0000 0.0727 0.0000
# 6 0.0000 0.0000 0.0000 0.0000 0.0000 25.3205
#
#
#
# Elastic Compliance Matrix: (Units=1/GPa)
#
#
# Indices 1 2 3 4 5 6 
#
# 1 0.007752 -0.002329 -0.001412 0.000000 0.000000 0.000000
# 2 -0.002329 0.018975 -0.004611 0.000000 0.000000 0.000000
# 3 -0.001412 -0.004611 0.015998 0.000000 0.000000 0.000000
# 4 0.000000 0.000000 0.000000 0.102432 0.000000 0.000000
# 5 0.000000 0.000000 0.000000 0.000000 13.749801 0.000000
# 6 0.000000 0.000000 0.000000 0.000000 0.000000 0.039494
#
#
# Mechanical properties :
#
#
# Convention : Reuss Voigt Hill
#
# Bulk Modulus (GPa) = 38.42898 42.98298 40.70598
# Shear Modulus (GPa) = 0.35817 20.98653 10.67235
#
# Velocity S-wave (km/s) = 0.43758 3.34949 2.38857
# Velocity P-wave (km/s) = 4.56058 6.15929 5.41922
#
# Compressibility (1/GPa) = 0.02602203
#
# Stress axis : x y z
#
# Youngs Moduli (GPa) = 129.00042 52.70209 62.50592
#
# Poissons Ratio (x) = 0.12276 0.08823
# Poissons Ratio (y) = 0.30049 0.28819
# Poissons Ratio (z) = 0.18208 0.24299
#
# Static dielectric constant tensor:
#      x y z
#    x 1.666090 0.000000 0.000000 
#    y 0.000000 1.694450 0.000000 
#    z 0.000000 0.000000 1.624780 
# 
# From -- ./inp_files/16393.got.cif
#   From: 2010.05.17/outbox.cif.g08.bks.cpg/sg51_9_cif.got.tgz:16393.got - 2010.06.03 11:52:47.
