data_PCOD9401062
_publ_section_title
;
Structure prediction by ZEFSAII (Michael W. Deem and Ramdas Pophale) SiO2 
 PCOD9401062
Probable space group: P M M A
;
_chemical_formula_sum "Si O2"
_cell_formula_units_Z 64
_cell_length_a 14.258965
_cell_length_b 19.026877
_cell_length_c 12.150288
_cell_angle_alpha 90.000000
_cell_angle_beta 90.000000
_cell_angle_gamma 90.000000
_cell_volume 3296.416550
_symmetry_space_group_name_H-M "P M M A"
_symmetry_group_IT_number 51
_symmetry_cell_setting 'orthorhombic'
loop_
_space_group_symop_operation_xyz
x,y,z
1/2-x,-y,z
1/2+x,-y,-z
-x,y,-z
-x,-y,-z
1/2+x,y,-z
1/2-x,y,z
x,-y,z
loop_
_atom_site_type_symbol
_atom_site_label
_atom_site_fract_x
_atom_site_fract_y
_atom_site_fract_z
Si Si1 0.555163 0.811645 0.782672
Si Si2 0.855724 0.281024 0.960336
Si Si3 0.649274 0.819038 0.153260
Si Si4 0.106199 0.920414 0.046119
Si Si5 0.858922 0.419558 0.456404
Si Si6 0.502369 0.420602 0.746984
Si Si7 0.361226 0.688996 0.346097
Si Si8 0.357678 0.422138 0.944003
O O1 0.570913 0.759922 0.887110
O O2 0.444234 0.827131 0.774983
O O3 0.605240 0.880787 0.835493
O O4 0.597199 0.767111 0.680596
O O5 0.750000 0.264719 0.919537
O O6 0.857962 0.253782 0.085959
O O7 0.869848 0.363119 0.965965
O O8 0.750000 0.822445 0.211473
O O9 0.651239 0.874579 0.051647
O O10 0.140851 0.000000 0.054330
O O11 0.000000 0.923028 0.000000
O O12 0.750000 0.416192 0.419129
O O13 0.870279 0.500000 0.504131
O O14 0.932841 0.414334 0.358363
O O15 0.873358 0.353776 0.538877
O O16 0.540415 0.500000 0.748911
O O17 0.581933 0.362861 0.733735
O O18 0.433711 0.412066 0.849980
O O19 0.250000 0.691245 0.326081
O O20 0.250000 0.416208 0.901640
O O21 0.368751 0.500000 0.990033
#
# Coordination Sequence:
#
# PCOD9401062 Si02
#       8
#     8   8   8   8   8   8   8   8
#     4  10  19  32  48  66  96 133 162 189 227 277
#     4   9  16  28  45  63  87 121 159 194 229 272
#     4   9  17  28  45  67  89 119 157 195 234 272
#     4   8  15  29  49  72  97 127 164 202 237 276
#     4   9  18  34  55  76  97 120 150 196 252 303
#     4  10  19  32  51  71  91 118 153 197 250 296
#     4  11  22  33  46  66  93 126 162 194 230 282
#     4   9  17  29  46  68  90 114 152 200 241 278
#
# _framework density 19.415023000000001
#
# number of rings (size 3 to 8) (size 9 to 14) (size 15 to 20)
#    0.000    2.625    0.000    3.375    0.000    4.000 
#    0.000    1.875    0.000    8.250    0.000    0.000 
#    0.000    2.000    0.000    1.500    0.000   54.250 
#
# Total GULP energy -356694.339945 kJ/mol
# GULP energy per Si atom -5573.349062 kJ/mol
# Density = 1.937083 g / cm^3
# Si number density = 19.415023 Si / 1000 Ang^3
#
#
#
# Elastic Constant Matrix: (Units=GPa)
#
#
# Indices 1 2 3 4 5 6 
#
# 1 114.0736 29.0394 17.0038 0.0000 0.0000 0.0000
# 2 29.0394 104.0257 12.6665 0.0000 0.0000 0.0000
# 3 17.0038 12.6665 30.2477 0.0000 0.0000 0.0000
# 4 0.0000 0.0000 0.0000 16.9858 0.0000 0.0000
# 5 0.0000 0.0000 0.0000 0.0000 8.1056 0.0000
# 6 0.0000 0.0000 0.0000 0.0000 0.0000 3.8364
#
#
#
# Elastic Compliance Matrix: (Units=1/GPa)
#
#
# Indices 1 2 3 4 5 6 
#
# 1 0.010035 -0.002228 -0.004708 0.000000 0.000000 0.000000
# 2 -0.002228 0.010624 -0.003196 0.000000 0.000000 0.000000
# 3 -0.004708 -0.003196 0.037046 0.000000 0.000000 0.000000
# 4 0.000000 0.000000 0.000000 0.058873 0.000000 0.000000
# 5 0.000000 0.000000 0.000000 0.000000 0.123372 0.000000
# 6 0.000000 0.000000 0.000000 0.000000 0.000000 0.260660
#
#
# Mechanical properties :
#
#
# Convention : Reuss Voigt Hill
#
# Bulk Modulus (GPa) = 26.70982 40.64072 33.67527
# Shear Modulus (GPa) = 9.37462 18.42804 13.90133
#
# Velocity S-wave (km/s) = 2.19978 3.08419 2.67874
# Velocity P-wave (km/s) = 4.49880 5.80181 5.19135
#
# Compressibility (1/GPa) = 0.03743941
#
# Stress axis : x y z
#
# Youngs Moduli (GPa) = 99.64830 94.12458 26.99372
#
# Poissons Ratio (x) = 0.20972 0.12709
# Poissons Ratio (y) = 0.22203 0.08628
# Poissons Ratio (z) = 0.46917 0.30087
#
# Static dielectric constant tensor:
#      x y z
#    x 1.753970 0.000000 0.000000 
#    y 0.000000 1.718610 0.000000 
#    z 0.000000 0.000000 1.696410 
# 
# From -- ./inp_files/24462.got.cif
#   From: 2010.05.17/outbox.cif.g08.bks.cpg/sg51_13_cif.got.tgz:24462.got - 2010.06.03 11:52:47.
