data_PCOD9401185
_publ_section_title
;
Structure prediction by ZEFSAII (Michael W. Deem and Ramdas Pophale) SiO2 
 PCOD9401185
Probable space group: P M M A
;
_chemical_formula_sum "Si O2"
_cell_formula_units_Z 56
_cell_length_a 14.569693
_cell_length_b 9.403738
_cell_length_c 18.589369
_cell_angle_alpha 90.000000
_cell_angle_beta 90.000000
_cell_angle_gamma 90.000000
_cell_volume 2546.921559
_symmetry_space_group_name_H-M "P M M A"
_symmetry_group_IT_number 51
_symmetry_cell_setting 'orthorhombic'
loop_
_space_group_symop_operation_xyz
x,y,z
1/2-x,-y,z
1/2+x,-y,-z
-x,y,-z
-x,-y,-z
1/2+x,y,-z
1/2-x,y,z
x,-y,z
loop_
_atom_site_type_symbol
_atom_site_label
_atom_site_fract_x
_atom_site_fract_y
_atom_site_fract_z
Si Si1 0.358862 0.160141 0.220133
Si Si2 0.893006 0.662107 0.358794
Si Si3 0.611964 0.338238 0.635596
Si Si4 0.862303 0.837598 0.058721
Si Si5 0.860045 0.338363 0.196732
Si Si6 0.387880 0.163466 0.503273
Si Si7 0.637591 0.662989 0.917374
O O1 0.250000 0.146081 0.207701
O O2 0.368952 0.245492 0.294034
O O3 0.393933 0.253280 0.153538
O O4 0.397835 0.000000 0.223883
O O5 0.856551 0.500000 0.363609
O O6 0.877907 0.714967 0.277542
O O7 0.858981 0.763361 0.422117
O O8 0.001993 0.652939 0.369564
O O9 0.646168 0.500000 0.641562
O O10 0.643883 0.257269 0.564186
O O11 0.750000 0.840536 0.058842
O O12 0.892079 0.760548 0.131972
O O13 0.894073 0.000000 0.054719
O O14 0.889405 0.747276 0.988998
O O15 0.750000 0.347552 0.189316
O O16 0.897212 0.500000 0.191550
O O17 0.500000 0.162681 0.500000
O O18 0.358704 0.000000 0.498000
O O19 0.750000 0.659635 0.916455
O O20 0.606231 0.500000 0.918035
#
# Coordination Sequence:
#
# PCOD9401185 Si02
#       7
#     8   8   8   8   8   8   8
#     4  10  20  33  49  71  99 126 154 193 239 284
#     4   9  18  32  50  72  96 124 160 200 239 280
#     4  10  19  32  51  72  95 124 159 197 237 284
#     4   9  16  26  42  66  95 125 158 195 233 273
#     4   9  17  30  48  70  97 127 158 193 234 279
#     4   9  17  30  49  71  93 121 160 201 238 279
#     4   9  16  27  45  68  93 123 159 194 230 276
#
# _framework density 21.987327000000001
#
# number of rings (size 3 to 8) (size 9 to 14) (size 15 to 20)
#    0.000    2.714    0.000    2.143    0.000    7.143 
#    0.000    0.714    0.000    3.429    0.000    6.000 
#    0.000    0.000    0.000    0.000    0.000    0.000 
#
# Total GULP energy -312916.809588 kJ/mol
# GULP energy per Si atom -5587.800171 kJ/mol
# Density = 2.193728 g / cm^3
# Si number density = 21.987327 Si / 1000 Ang^3
#
#
#
# Elastic Constant Matrix: (Units=GPa)
#
#
# Indices 1 2 3 4 5 6 
#
# 1 61.7451 3.9540 -5.6577 0.0000 0.0000 0.0000
# 2 3.9540 224.2333 157.3500 0.0000 0.0000 0.0000
# 3 -5.6577 157.3500 242.4108 0.0000 0.0000 0.0000
# 4 0.0000 0.0000 0.0000 40.6334 0.0000 0.0000
# 5 0.0000 0.0000 0.0000 0.0000 20.3231 0.0000
# 6 0.0000 0.0000 0.0000 0.0000 0.0000 -0.5035
#
#
#
# Elastic Compliance Matrix: (Units=1/GPa)
#
#
# Indices 1 2 3 4 5 6 
#
# 1 0.016357 -0.001022 0.001045 0.000000 0.000000 0.000000
# 2 -0.001022 0.008254 -0.005382 0.000000 0.000000 0.000000
# 3 0.001045 -0.005382 0.007643 0.000000 0.000000 0.000000
# 4 0.000000 0.000000 0.000000 0.024610 0.000000 0.000000
# 5 0.000000 0.000000 0.000000 0.000000 0.049205 0.000000
# 6 0.000000 0.000000 0.000000 0.000000 0.000000 -1.986138
#
#
# Mechanical properties :
#
#
# Convention : Reuss Voigt Hill
#
# Bulk Modulus (GPa) = 46.43169 93.29797 69.86483
# Shear Modulus (GPa) = -2.68503 36.94013 17.12755
#
# Velocity S-wave (km/s) = -1.10627 4.10331 2.79404
# Velocity P-wave (km/s) = 4.41945 8.06066 6.50022
#
# Compressibility (1/GPa) = 0.02153702
#
# Stress axis : x y z
#
# Youngs Moduli (GPa) = 61.13663 121.15268 130.84154
#
# Poissons Ratio (x) = 0.12378 -0.13672
# Poissons Ratio (y) = 0.06246 0.70414
# Poissons Ratio (z) = -0.06388 0.65199
#
# Static dielectric constant tensor:
#      x y z
#    x 1.873590 0.000000 0.000000 
#    y 0.000000 1.766070 0.000000 
#    z 0.000000 0.000000 1.752750 
# 
# From -- ./inp_files/30473.got.cif
#   From: 2010.05.17/outbox.cif.g08.bks.cpg/sg51_16_cif.got.tgz:30473.got - 2010.06.03 11:52:47.
