data_PCOD9401882
_publ_section_title
;
Structure prediction by ZEFSAII (Michael W. Deem and Ramdas Pophale) SiO2 
 PCOD9401882
Probable space group: P M M A
;
_chemical_formula_sum "Si O2"
_cell_formula_units_Z 60
_cell_length_a 8.110412
_cell_length_b 15.544254
_cell_length_c 24.609337
_cell_angle_alpha 90.000000
_cell_angle_beta 90.000000
_cell_angle_gamma 90.000000
_cell_volume 3102.506601
_symmetry_space_group_name_H-M "P M M A"
_symmetry_group_IT_number 51
_symmetry_cell_setting 'orthorhombic'
loop_
_space_group_symop_operation_xyz
x,y,z
1/2-x,-y,z
1/2+x,-y,-z
-x,y,-z
-x,-y,-z
1/2+x,y,-z
1/2-x,y,z
x,-y,z
loop_
_atom_site_type_symbol
_atom_site_label
_atom_site_fract_x
_atom_site_fract_y
_atom_site_fract_z
Si Si1 0.949023 0.234671 0.848213
Si Si2 0.449116 0.097795 0.062342
Si Si3 0.549111 0.908801 0.766526
Si Si4 0.450185 0.666057 0.329547
Si Si5 0.945936 0.597686 0.210964
Si Si6 0.950309 0.137864 0.647914
Si Si7 0.050790 0.000000 0.437777
Si Si8 0.433960 0.397551 0.442677
O O1 0.750000 0.234862 0.849502
O O2 0.007172 0.175028 0.798041
O O3 0.999119 0.331785 0.833754
O O4 0.005432 0.177940 0.900193
O O5 0.250000 0.096323 0.066160
O O6 0.505146 0.000000 0.077647
O O7 0.500000 0.111060 0.000000
O O8 0.750000 0.906391 0.768039
O O9 0.499645 0.906503 0.704046
O O10 0.498387 0.000000 0.791446
O O11 0.250000 0.660533 0.325712
O O12 0.510325 0.631394 0.271655
O O13 0.498312 0.763751 0.343399
O O14 0.512304 0.617387 0.383697
O O15 0.250000 0.593285 0.792305
O O16 0.012486 0.500000 0.203781
O O17 0.750000 0.136843 0.645968
O O18 0.007612 0.084036 0.595946
O O19 0.000000 0.000000 0.500000
O O20 0.250000 0.000000 0.435936
O O21 0.500000 0.362958 0.500000
O O22 0.250000 0.361217 0.437983
O O23 0.425626 0.500000 0.448814
#
# Coordination Sequence:
#
# PCOD9401882 Si02
#       8
#     8   8   8   8   8   8   4   8
#     4  10  19  33  56  84 110 143 191 230 259 311
#     4   9  18  33  55  88 125 158 190 225 266 315
#     4   9  14  24  48  79 104 128 163 213 263 305
#     4  10  19  34  55  76  95 125 174 221 265 323
#     4  11  24  38  52  76 111 146 178 222 286 344
#     4   9  16  28  48  71  93 122 163 209 254 303
#     4  10  20  34  50  70  98 136 177 214 260 319
#     4   9  18  31  47  67  90 116 150 198 256 317
#
# _framework density 19.339202
#
# number of rings (size 3 to 8) (size 9 to 14) (size 15 to 20)
#    0.000    2.400    2.000    1.200    0.000    4.800 
#    0.000    2.000    0.000    1.600    0.000    0.000 
#    0.000    0.000    0.000    0.000    0.000    0.000 
#
# Total GULP energy -334078.907792 kJ/mol
# GULP energy per Si atom -5567.981797 kJ/mol
# Density = 1.929518 g / cm^3
# Si number density = 19.339202 Si / 1000 Ang^3
#
#
#
# Elastic Constant Matrix: (Units=GPa)
#
#
# Indices 1 2 3 4 5 6 
#
# 1 13.3794 17.4636 13.9739 0.0000 0.0000 0.0000
# 2 17.4636 148.7303 77.4901 0.0000 0.0000 0.0000
# 3 13.9739 77.4901 137.2246 0.0000 0.0000 0.0000
# 4 0.0000 0.0000 0.0000 24.4255 0.0000 0.0000
# 5 0.0000 0.0000 0.0000 0.0000 23.7326 0.0000
# 6 0.0000 0.0000 0.0000 0.0000 0.0000 4.0703
#
#
#
# Elastic Compliance Matrix: (Units=1/GPa)
#
#
# Indices 1 2 3 4 5 6 
#
# 1 0.090225 -0.008228 -0.004542 0.000000 0.000000 0.000000
# 2 -0.008228 0.010277 -0.004965 0.000000 0.000000 0.000000
# 3 -0.004542 -0.004965 0.010554 0.000000 0.000000 0.000000
# 4 0.000000 0.000000 0.000000 0.040941 0.000000 0.000000
# 5 0.000000 0.000000 0.000000 0.000000 0.042136 0.000000
# 6 0.000000 0.000000 0.000000 0.000000 0.000000 0.245683
#
#
# Mechanical properties :
#
#
# Convention : Reuss Voigt Hill
#
# Bulk Modulus (GPa) = 13.23002 57.46550 35.34776
# Shear Modulus (GPa) = 9.99041 23.13945 16.56493
#
# Velocity S-wave (km/s) = 2.27532 3.46281 2.92986
# Velocity P-wave (km/s) = 3.70927 6.76514 5.45554
#
# Compressibility (1/GPa) = 0.07558567
#
# Stress axis : x y z
#
# Youngs Moduli (GPa) = 11.08343 97.30802 94.75343
#
# Poissons Ratio (x) = 0.80062 0.43034
# Poissons Ratio (y) = 0.09119 0.47048
# Poissons Ratio (z) = 0.05034 0.48317
#
# Static dielectric constant tensor:
#      x y z
#    x 1.712930 0.000000 0.000000 
#    y 0.000000 1.738510 0.000000 
#    z 0.000000 0.000000 1.690190 
# 
# From -- ./inp_files/33136.got.cif
#   From: 2010.05.17/outbox.cif.g08.bks.cpg/sg51_17_cif.got.tgz:33136.got - 2010.06.03 11:52:47.
