data_PCOD9401814
_publ_section_title
;
Structure prediction by ZEFSAII (Michael W. Deem and Ramdas Pophale) SiO2 
 PCOD9401814
Probable space group: P M M A
;
_chemical_formula_sum "Si O2"
_cell_formula_units_Z 56
_cell_length_a 14.260114
_cell_length_b 16.023177
_cell_length_c 11.938383
_cell_angle_alpha 90.000000
_cell_angle_beta 90.000000
_cell_angle_gamma 90.000000
_cell_volume 2727.828956
_symmetry_space_group_name_H-M "P M M A"
_symmetry_group_IT_number 51
_symmetry_cell_setting 'orthorhombic'
loop_
_space_group_symop_operation_xyz
x,y,z
1/2-x,-y,z
1/2+x,-y,-z
-x,y,-z
-x,-y,-z
1/2+x,y,-z
1/2-x,y,z
x,-y,z
loop_
_atom_site_type_symbol
_atom_site_label
_atom_site_fract_x
_atom_site_fract_y
_atom_site_fract_z
Si Si1 0.860060 0.822525 0.795824
Si Si2 0.860189 0.239643 0.042984
Si Si3 0.864364 0.406737 0.161525
Si Si4 0.643892 0.743797 0.569799
Si Si5 0.045248 0.092257 0.819189
Si Si6 0.100690 0.907759 0.560927
Si Si7 0.364347 0.406032 0.580462
O O1 0.750000 0.845740 0.778318
O O2 0.897512 0.771325 0.688426
O O3 0.932998 0.897697 0.809067
O O4 0.865763 0.770015 0.909696
O O5 0.750000 0.231044 0.073852
O O6 0.894400 0.329231 0.086210
O O7 0.915477 0.165023 0.102721
O O8 0.750000 0.407793 0.159498
O O9 0.895215 0.500000 0.127685
O O10 0.893359 0.392491 0.290680
O O11 0.750000 0.718912 0.598062
O O12 0.646482 0.825806 0.491560
O O13 0.602903 0.666677 0.501665
O O14 0.087500 0.100787 0.694108
O O15 0.069249 0.000000 0.861971
O O16 0.000000 0.909081 0.500000
O O17 0.142805 0.000000 0.539081
O O18 0.250000 0.403046 0.582252
O O19 0.390691 0.500000 0.546375
#
# Coordination Sequence:
#
# PCOD9401814 Si02
#       7
#     8   8   8   8   8   8   8
#     4  10  22  38  55  78 110 150 194 232 270 328
#     4  10  21  37  57  84 115 146 187 235 276 324
#     4   8  14  28  53  83 112 143 181 226 276 326
#     4  10  19  33  55  80 108 145 180 218 275 330
#     4  11  23  39  60  82 109 147 187 231 285 332
#     4  10  20  35  53  77 106 134 172 222 274 327
#     4   8  14  26  48  79 109 136 173 220 270 328
#
# _framework density 20.529146000000001
#
# number of rings (size 3 to 8) (size 9 to 14) (size 15 to 20)
#    0.000    2.429    1.429    2.143    0.000    3.714 
#    0.000    5.000    0.000    7.286    0.000    0.000 
#    0.000    0.000    0.000    0.000    0.000    0.000 
#
# Total GULP energy -312392.342778 kJ/mol
# GULP energy per Si atom -5578.434692 kJ/mol
# Density = 2.048242 g / cm^3
# Si number density = 20.529146 Si / 1000 Ang^3
#
#
#
# Elastic Constant Matrix: (Units=GPa)
#
#
# Indices 1 2 3 4 5 6 
#
# 1 53.1276 19.9957 13.5597 0.0000 0.0000 0.0000
# 2 19.9957 161.7717 76.5652 0.0000 0.0000 0.0000
# 3 13.5597 76.5652 88.1018 0.0000 0.0000 0.0000
# 4 0.0000 0.0000 0.0000 0.4525 0.0000 0.0000
# 5 0.0000 0.0000 0.0000 0.0000 17.1161 0.0000
# 6 0.0000 0.0000 0.0000 0.0000 0.0000 21.6701
#
#
#
# Elastic Compliance Matrix: (Units=1/GPa)
#
#
# Indices 1 2 3 4 5 6 
#
# 1 0.019868 -0.001713 -0.001569 0.000000 0.000000 0.000000
# 2 -0.001713 0.010648 -0.008990 0.000000 0.000000 0.000000
# 3 -0.001569 -0.008990 0.019405 0.000000 0.000000 0.000000
# 4 0.000000 0.000000 0.000000 2.209918 0.000000 0.000000
# 5 0.000000 0.000000 0.000000 0.000000 0.058424 0.000000
# 6 0.000000 0.000000 0.000000 0.000000 0.000000 0.046147
#
#
# Mechanical properties :
#
#
# Convention : Reuss Voigt Hill
#
# Bulk Modulus (GPa) = 39.40687 58.13803 48.77245
# Shear Modulus (GPa) = 2.08558 20.70644 11.39601
#
# Velocity S-wave (km/s) = 1.00902 3.17935 2.35864
# Velocity P-wave (km/s) = 4.53814 6.46985 5.58810
#
# Compressibility (1/GPa) = 0.02537629
#
# Stress axis : x y z
#
# Youngs Moduli (GPa) = 50.33254 93.91124 51.53290
#
# Poissons Ratio (x) = 0.16088 0.08086
# Poissons Ratio (y) = 0.08623 0.46330
# Poissons Ratio (z) = 0.07897 0.84429
#
# Static dielectric constant tensor:
#      x y z
#    x 1.782510 0.000000 0.000000 
#    y 0.000000 1.724730 0.000000 
#    z 0.000000 0.000000 1.713160 
# 
# From -- ./inp_files/16676.got.cif
#   From: 2010.05.17/outbox.cif.g08.bks.cpg/sg51_9_cif.got.tgz:16676.got - 2010.06.03 11:52:47.
