data_PCOD9401327
_publ_section_title
;
Structure prediction by ZEFSAII (Michael W. Deem and Ramdas Pophale) SiO2 
 PCOD9401327
Probable space group: P M M A
;
_chemical_formula_sum "Si O2"
_cell_formula_units_Z 56
_cell_length_a 21.722950
_cell_length_b 7.440090
_cell_length_c 15.424565
_cell_angle_alpha 90.000000
_cell_angle_beta 90.000000
_cell_angle_gamma 90.000000
_cell_volume 2492.929040
_symmetry_space_group_name_H-M "P M M A"
_symmetry_group_IT_number 51
_symmetry_cell_setting 'orthorhombic'
loop_
_space_group_symop_operation_xyz
x,y,z
1/2-x,-y,z
1/2+x,-y,-z
-x,y,-z
-x,-y,-z
1/2+x,y,-z
1/2-x,y,z
x,-y,z
loop_
_atom_site_type_symbol
_atom_site_label
_atom_site_fract_x
_atom_site_fract_y
_atom_site_fract_z
Si Si1 0.114540 0.279922 0.435558
Si Si2 0.180729 0.288182 0.116986
Si Si3 0.750000 0.298835 0.571314
Si Si4 0.569252 0.205823 0.010379
Si Si5 0.750000 0.298362 0.362356
Si Si6 0.414710 0.280566 0.251306
Si Si7 0.385287 0.720686 0.631752
Si Si8 0.955180 0.283098 0.197632
O O1 0.115851 0.500000 0.438801
O O2 0.183754 0.217530 0.411532
O O3 0.076151 0.227279 0.351450
O O4 0.098453 0.222649 0.533291
O O5 0.250000 0.216496 0.100259
O O6 0.187831 0.500000 0.130960
O O7 0.146950 0.216751 0.203672
O O8 0.128611 0.273739 0.042105
O O9 0.750000 0.500000 0.610659
O O10 0.750000 0.315580 0.466833
O O11 0.580323 0.217525 0.113415
O O12 0.563549 0.000000 0.983465
O O13 0.500000 0.289812 0.000000
O O14 0.750000 0.500000 0.324207
O O15 0.816241 0.216320 0.344328
O O16 0.413491 0.500000 0.251652
O O17 0.473661 0.226201 0.195511
O O18 0.383791 0.500000 0.629399
O O19 0.428790 0.774829 0.709769
O O20 0.952940 0.500000 0.195950
#
# Coordination Sequence:
#
# PCOD9401327 Si02
#       8
#     8   8   4   8   4   8   8   8
#     4   8  13  21  35  62 100 139 172 204 249 310
#     4  10  21  37  58  85 114 140 171 221 281 332
#     4   7  10  16  30  50  83 131 170 198 239 291
#     4  11  23  40  61  80 102 141 186 227 274 331
#     4   7  10  20  34  54  88 129 168 204 243 293
#     4   9  17  27  44  73 107 141 172 209 261 319
#     4   8  14  24  40  65 100 139 174 211 258 312
#     4  10  19  32  52  77 105 138 175 221 273 319
#
# _framework density 22.463536000000001
#
# number of rings (size 3 to 8) (size 9 to 14) (size 15 to 20)
#    0.000    3.000    1.429    2.143    1.000    1.429 
#    1.286    2.857    0.000    0.000    0.000    3.000 
#    0.000    0.000    0.000    0.000    0.000    0.000 
#
# Total GULP energy -311981.330148 kJ/mol
# GULP energy per Si atom -5571.095181 kJ/mol
# Density = 2.241241 g / cm^3
# Si number density = 22.463536 Si / 1000 Ang^3
#
#
#
# Elastic Constant Matrix: (Units=GPa)
#
#
# Indices 1 2 3 4 5 6 
#
# 1 122.1466 7.4675 66.7485 0.0000 0.0000 0.0000
# 2 7.4675 69.5541 2.6105 0.0000 0.0000 0.0000
# 3 66.7485 2.6105 156.0931 0.0000 0.0000 0.0000
# 4 0.0000 0.0000 0.0000 885.0914 0.0000 0.0000
# 5 0.0000 0.0000 0.0000 0.0000 27.4630 0.0000
# 6 0.0000 0.0000 0.0000 0.0000 0.0000 -14.4918
#
#
#
# Elastic Compliance Matrix: (Units=1/GPa)
#
#
# Indices 1 2 3 4 5 6 
#
# 1 0.010750 -0.000982 -0.004580 0.000000 0.000000 0.000000
# 2 -0.000982 0.014476 0.000178 0.000000 0.000000 0.000000
# 3 -0.004580 0.000178 0.008362 0.000000 0.000000 0.000000
# 4 0.000000 0.000000 0.000000 0.001130 0.000000 0.000000
# 5 0.000000 0.000000 0.000000 0.000000 0.036413 0.000000
# 6 0.000000 0.000000 0.000000 0.000000 0.000000 -0.069004
#
#
# Mechanical properties :
#
#
# Convention : Reuss Voigt Hill
#
# Bulk Modulus (GPa) = 43.82379 55.71631 49.77005
# Shear Modulus (GPa) = 243.87785 197.67700 220.77742
#
# Velocity S-wave (km/s) = 10.43081 9.39096 9.92451
# Velocity P-wave (km/s) = 12.83044 11.93498 12.39080
#
# Compressibility (1/GPa) = 0.02281866
#
# Stress axis : x y z
#
# Youngs Moduli (GPa) = 93.02326 69.07946 119.58624
#
# Poissons Ratio (x) = 0.06785 0.54776
# Poissons Ratio (y) = 0.09137 -0.02128
# Poissons Ratio (z) = 0.42609 -0.01229
#
# Static dielectric constant tensor:
#      x y z
#    x 1.891640 0.000000 0.000000 
#    y 0.000000 1.896910 0.000000 
#    z 0.000000 0.000000 1.804410 
# 
# From -- ./inp_files/25844.got.cif
#   From: 2010.05.17/outbox.cif.g08.bks.cpg/sg51_13_cif.got.tgz:25844.got - 2010.06.03 11:52:47.
