data_PCOD9401672
_publ_section_title
;
Structure prediction by ZEFSAII (Michael W. Deem and Ramdas Pophale) SiO2 
 PCOD9401672
Probable space group: P M M A
;
_chemical_formula_sum "Si O2"
_cell_formula_units_Z 48
_cell_length_a 11.523307
_cell_length_b 13.212140
_cell_length_c 14.100223
_cell_angle_alpha 90.000000
_cell_angle_beta 90.000000
_cell_angle_gamma 90.000000
_cell_volume 2146.724341
_symmetry_space_group_name_H-M "P M M A"
_symmetry_group_IT_number 51
_symmetry_cell_setting 'orthorhombic'
loop_
_space_group_symop_operation_xyz
x,y,z
1/2-x,-y,z
1/2+x,-y,-z
-x,y,-z
-x,-y,-z
1/2+x,y,-z
1/2-x,y,z
x,-y,z
loop_
_atom_site_type_symbol
_atom_site_label
_atom_site_fract_x
_atom_site_fract_y
_atom_site_fract_z
Si Si1 0.378401 0.676603 0.036844
Si Si2 0.430855 0.391737 0.598102
Si Si3 0.976745 0.890136 0.736503
Si Si4 0.877579 0.114240 0.075267
Si Si5 0.880221 0.164332 0.436742
Si Si6 0.376334 0.322501 0.263430
O O1 0.250000 0.636981 0.006248
O O2 0.381425 0.668725 0.150171
O O3 0.500000 0.631064 0.000000
O O4 0.380500 0.793391 0.998805
O O5 0.500000 0.397790 0.500000
O O6 0.370880 0.500000 0.610141
O O7 0.370584 0.283762 0.587115
O O8 0.521299 0.379333 0.684072
O O9 0.029793 0.875467 0.841237
O O10 0.082501 0.886465 0.662023
O O11 0.894511 0.796166 0.713888
O O12 0.920010 0.000000 0.731407
O O13 0.750000 0.120740 0.120581
O O14 0.885244 0.000000 0.033933
O O15 0.750000 0.132176 0.470560
O O16 0.000000 0.149986 0.500000
O O17 0.250000 0.356779 0.297109
#
# Coordination Sequence:
#
# PCOD9401672 Si02
#       6
#     8   8   8   8   8   8
#     4  10  19  33  53  80 114 157 202 246 298 357
#     4   9  20  39  63  89 115 147 190 244 308 374
#     4  10  20  34  53  78 116 164 215 259 302 357
#     4   9  17  29  48  74 106 149 204 257 298 343
#     4  10  22  39  60  88 122 160 203 254 310 373
#     4  10  21  36  56  88 125 159 201 255 312 368
#
# _framework density 22.359646999999999
#
# number of rings (size 3 to 8) (size 9 to 14) (size 15 to 20)
#    0.000    2.333    1.667    0.500    0.000    9.333 
#    0.000    5.000    0.000    0.500    0.000    0.000 
#    0.000    0.000    0.000    0.000    0.000    0.000 
#
# Total GULP energy -267397.432709 kJ/mol
# GULP energy per Si atom -5570.779848 kJ/mol
# Density = 2.230876 g / cm^3
# Si number density = 22.359647 Si / 1000 Ang^3
#
#
#
# Elastic Constant Matrix: (Units=GPa)
#
#
# Indices 1 2 3 4 5 6 
#
# 1 163.9387 0.2463 34.8766 0.0000 0.0000 0.0000
# 2 0.2463 66.0069 13.2452 0.0000 0.0000 0.0000
# 3 34.8766 13.2452 83.2748 0.0000 0.0000 0.0000
# 4 0.0000 0.0000 0.0000 21.7945 0.0000 0.0000
# 5 0.0000 0.0000 0.0000 0.0000 6.7789 0.0000
# 6 0.0000 0.0000 0.0000 0.0000 0.0000 -20.0215
#
#
#
# Elastic Compliance Matrix: (Units=1/GPa)
#
#
# Indices 1 2 3 4 5 6 
#
# 1 0.006716 0.000557 -0.002901 0.000000 0.000000 0.000000
# 2 0.000557 0.015696 -0.002730 0.000000 0.000000 0.000000
# 3 -0.002901 -0.002730 0.013658 0.000000 0.000000 0.000000
# 4 0.000000 0.000000 0.000000 0.045883 0.000000 0.000000
# 5 0.000000 0.000000 0.000000 0.000000 0.147516 0.000000
# 6 0.000000 0.000000 0.000000 0.000000 0.000000 -0.049946
#
#
# Mechanical properties :
#
#
# Convention : Reuss Voigt Hill
#
# Bulk Modulus (GPa) = 38.57809 45.55074 42.06441
# Shear Modulus (GPa) = 25.21291 19.36720 22.29006
#
# Velocity S-wave (km/s) = 3.36163 2.94627 3.16078
# Velocity P-wave (km/s) = 5.68844 5.65597 5.67223
#
# Compressibility (1/GPa) = 0.02592145
#
# Stress axis : x y z
#
# Youngs Moduli (GPa) = 148.89213 63.71204 73.21825
#
# Poissons Ratio (x) = -0.03550 0.21244
# Poissons Ratio (y) = -0.08296 0.19987
# Poissons Ratio (z) = 0.43201 0.17392
#
# Static dielectric constant tensor:
#      x y z
#    x 1.880490 0.000000 0.000000 
#    y 0.000000 1.850770 0.000000 
#    z 0.000000 0.000000 1.794770 
# 
# From -- ./inp_files/23252.got.cif
#   From: 2010.05.17/outbox.cif.g08.bks.cpg/sg51_12_cif.got.tgz:23252.got - 2010.06.03 11:52:47.
