data_PCOD9401778
_publ_section_title
;
Structure prediction by ZEFSAII (Michael W. Deem and Ramdas Pophale) SiO2 
 PCOD9401778
Probable space group: P M M A
;
_chemical_formula_sum "Si O2"
_cell_formula_units_Z 64
_cell_length_a 14.535753
_cell_length_b 7.717934
_cell_length_c 26.880804
_cell_angle_alpha 90.000000
_cell_angle_beta 90.000000
_cell_angle_gamma 90.000000
_cell_volume 3015.649402
_symmetry_space_group_name_H-M "P M M A"
_symmetry_group_IT_number 51
_symmetry_cell_setting 'orthorhombic'
loop_
_space_group_symop_operation_xyz
x,y,z
1/2-x,-y,z
1/2+x,-y,-z
-x,y,-z
-x,-y,-z
1/2+x,y,-z
1/2-x,y,z
x,-y,z
loop_
_atom_site_type_symbol
_atom_site_label
_atom_site_fract_x
_atom_site_fract_y
_atom_site_fract_z
Si Si1 0.356130 0.286895 0.776948
Si Si2 0.356523 0.794202 0.962271
Si Si3 0.354631 0.709603 0.074538
Si Si4 0.459273 0.295123 0.678406
Si Si5 0.524770 0.299551 0.130859
Si Si6 0.146252 0.791216 0.362403
Si Si7 0.637589 0.800663 0.528452
Si Si8 0.854548 0.792580 0.421882
O O1 0.250000 0.232156 0.780106
O O2 0.355197 0.500000 0.777496
O O3 0.403934 0.226766 0.725940
O O4 0.416003 0.225442 0.823955
O O5 0.250000 0.737314 0.958598
O O6 0.415580 0.707255 0.919473
O O7 0.360762 0.000000 0.954265
O O8 0.386082 0.757164 0.018784
O O9 0.250000 0.771846 0.080883
O O10 0.353770 0.500000 0.076851
O O11 0.426551 0.777347 0.115120
O O12 0.450672 0.500000 0.680435
O O13 0.566972 0.251110 0.676376
O O14 0.414510 0.238148 0.626487
O O15 0.507962 0.500000 0.144223
O O16 0.250000 0.731048 0.350957
O O17 0.117778 0.722369 0.417471
O O18 0.150314 0.000000 0.366778
O O19 0.750000 0.805259 0.526109
O O20 0.608751 0.724196 0.475183
O O21 0.603750 0.000000 0.530396
O O22 0.750000 0.727750 0.413768
O O23 0.849161 0.000000 0.428494
#
# Coordination Sequence:
#
# PCOD9401778 Si02
#       8
#     8   8   8   8   8   8   8   8
#     4   9  19  36  55  74  99 132 168 206 250 299
#     4  10  20  32  48  75 110 142 168 199 248 305
#     4   9  18  32  50  75 106 135 165 204 247 292
#     4  11  22  34  50  74 104 136 169 207 257 313
#     4  10  19  33  55  77  96 129 178 220 250 285
#     4   9  18  35  57  76  97 129 169 211 253 300
#     4   7  12  26  49  74  97 125 164 207 248 294
#     4   9  17  31  52  76 101 131 170 212 251 298
#
# _framework density 21.222628
#
# number of rings (size 3 to 8) (size 9 to 14) (size 15 to 20)
#    0.000    2.750    0.000    3.375    0.000    4.750 
#    0.000    5.000    0.000    7.500    0.000    1.750 
#    0.000    0.000    0.000    0.000    0.000    0.000 
#
# Total GULP energy -357132.371110 kJ/mol
# GULP energy per Si atom -5580.193299 kJ/mol
# Density = 2.117432 g / cm^3
# Si number density = 21.222628 Si / 1000 Ang^3
#
#
#
# Elastic Constant Matrix: (Units=GPa)
#
#
# Indices 1 2 3 4 5 6 
#
# 1 109.2564 -3.1277 75.4474 0.0000 0.0000 0.0000
# 2 -3.1277 33.7474 -1.3540 0.0000 0.0000 0.0000
# 3 75.4474 -1.3540 111.8627 0.0000 0.0000 0.0000
# 4 0.0000 0.0000 0.0000 11.1307 0.0000 0.0000
# 5 0.0000 0.0000 0.0000 0.0000 38.9084 0.0000
# 6 0.0000 0.0000 0.0000 0.0000 0.0000 23.1090
#
#
#
# Elastic Compliance Matrix: (Units=1/GPa)
#
#
# Indices 1 2 3 4 5 6 
#
# 1 0.017175 0.001128 -0.011570 0.000000 0.000000 0.000000
# 2 0.001128 0.029720 -0.000401 0.000000 0.000000 0.000000
# 3 -0.011570 -0.000401 0.016738 0.000000 0.000000 0.000000
# 4 0.000000 0.000000 0.000000 0.089842 0.000000 0.000000
# 5 0.000000 0.000000 0.000000 0.000000 0.025701 0.000000
# 6 0.000000 0.000000 0.000000 0.000000 0.000000 0.043273
#
#
# Mechanical properties :
#
#
# Convention : Reuss Voigt Hill
#
# Bulk Modulus (GPa) = 23.83974 44.08866 33.96420
# Shear Modulus (GPa) = 19.37088 26.88966 23.13027
#
# Velocity S-wave (km/s) = 3.02445 3.56340 3.30493
# Velocity P-wave (km/s) = 4.84293 6.14409 5.53190
#
# Compressibility (1/GPa) = 0.04194677
#
# Stress axis : x y z
#
# Youngs Moduli (GPa) = 58.22438 33.64701 59.74286
#
# Poissons Ratio (x) = -0.03794 0.69124
# Poissons Ratio (y) = -0.06565 0.02394
# Poissons Ratio (z) = 0.67367 0.01348
#
# Static dielectric constant tensor:
#      x y z
#    x 1.814470 0.000000 0.000000 
#    y 0.000000 1.800170 0.000000 
#    z 0.000000 0.000000 1.760480 
# 
# From -- ./inp_files/35595.got.cif
#   From: 2010.05.17/outbox.cif.g08.bks.cpg/sg51_18_cif.got.tgz:35595.got - 2010.06.03 11:52:47.
