data_PCOD9401593
_publ_section_title
;
Structure prediction by ZEFSAII (Michael W. Deem and Ramdas Pophale) SiO2 
 PCOD9401593
Probable space group: P M M A
;
_chemical_formula_sum "Si O2"
_cell_formula_units_Z 48
_cell_length_a 31.250247
_cell_length_b 9.163403
_cell_length_c 9.849634
_cell_angle_alpha 90.000000
_cell_angle_beta 90.000000
_cell_angle_gamma 90.000000
_cell_volume 2820.527473
_symmetry_space_group_name_H-M "P M M A"
_symmetry_group_IT_number 51
_symmetry_cell_setting 'orthorhombic'
loop_
_space_group_symop_operation_xyz
x,y,z
1/2-x,-y,z
1/2+x,-y,-z
-x,y,-z
-x,-y,-z
1/2+x,y,-z
1/2-x,y,z
x,-y,z
loop_
_atom_site_type_symbol
_atom_site_label
_atom_site_fract_x
_atom_site_fract_y
_atom_site_fract_z
Si Si1 0.299566 0.174309 0.182831
Si Si2 0.488046 0.825698 0.654822
Si Si3 0.566051 0.674104 0.778411
Si Si4 0.388353 0.826032 0.711674
Si Si5 0.134394 0.826271 0.413617
Si Si6 0.632400 0.325766 0.009437
O O1 0.250000 0.217187 0.183112
O O2 0.322774 0.200805 0.327403
O O3 0.302133 0.000000 0.157783
O O4 0.327672 0.257042 0.071084
O O5 0.500000 0.783331 0.500000
O O6 0.519891 0.744740 0.756846
O O7 0.438522 0.795110 0.684708
O O8 0.494707 0.000000 0.665349
O O9 0.563617 0.500000 0.766500
O O10 0.596647 0.739667 0.661304
O O11 0.590219 0.710413 0.919042
O O12 0.364045 0.788800 0.571858
O O13 0.372217 0.740307 0.841878
O O14 0.384089 0.000000 0.735035
O O15 0.124374 0.000000 0.405118
O O16 0.636385 0.500000 0.013366
#
# Coordination Sequence:
#
# PCOD9401593 Si02
#       6
#     8   8   8   8   8   8
#     4   9  18  35  61  86 103 128 170 215 260 315
#     4  10  19  33  52  75 104 139 182 226 266 306
#     4  10  20  33  50  74 103 140 183 221 259 305
#     4  10  20  34  53  77 106 141 178 219 266 312
#     4   9  17  33  55  77 105 135 169 216 264 310
#     4  10  22  37  52  75 110 146 176 213 263 316
#
# _framework density 17.018093
#
# number of rings (size 3 to 8) (size 9 to 14) (size 15 to 20)
#    0.000    2.333    1.667    1.000    0.000    4.667 
#    0.000    4.167    0.000    3.000    0.000    0.000 
#    0.000    0.000    0.000    0.000    0.000    0.000 
#
# Total GULP energy -267804.764994 kJ/mol
# GULP energy per Si atom -5579.265937 kJ/mol
# Density = 1.697936 g / cm^3
# Si number density = 17.018093 Si / 1000 Ang^3
#
#
#
# Elastic Constant Matrix: (Units=GPa)
#
#
# Indices 1 2 3 4 5 6 
#
# 1 98.4933 43.6914 63.9181 0.0000 0.0000 0.0000
# 2 43.6914 34.8365 55.6037 0.0000 0.0000 0.0000
# 3 63.9181 55.6037 151.0423 0.0000 0.0000 0.0000
# 4 0.0000 0.0000 0.0000 18.7972 0.0000 0.0000
# 5 0.0000 0.0000 0.0000 0.0000 14.2050 0.0000
# 6 0.0000 0.0000 0.0000 0.0000 0.0000 17.1151
#
#
#
# Elastic Compliance Matrix: (Units=1/GPa)
#
#
# Indices 1 2 3 4 5 6 
#
# 1 0.023174 -0.032519 0.002165 0.000000 0.000000 0.000000
# 2 -0.032519 0.115238 -0.028662 0.000000 0.000000 0.000000
# 3 0.002165 -0.028662 0.016256 0.000000 0.000000 0.000000
# 4 0.000000 0.000000 0.000000 0.053199 0.000000 0.000000
# 5 0.000000 0.000000 0.000000 0.000000 0.070398 0.000000
# 6 0.000000 0.000000 0.000000 0.000000 0.000000 0.058428
#
#
# Mechanical properties :
#
#
# Convention : Reuss Voigt Hill
#
# Bulk Modulus (GPa) = 27.29577 67.86650 47.58113
# Shear Modulus (GPa) = 10.70810 18.10072 14.40441
#
# Velocity S-wave (km/s) = 2.51114 3.26485 2.91248
# Velocity P-wave (km/s) = 4.94792 7.36057 6.27136
#
# Compressibility (1/GPa) = 0.03663572
#
# Stress axis : x y z
#
# Youngs Moduli (GPa) = 43.15268 8.67767 61.51642
#
# Poissons Ratio (x) = 0.28219 -0.13317
# Poissons Ratio (y) = 1.40329 1.76316
# Poissons Ratio (z) = -0.09342 0.24872
#
# Static dielectric constant tensor:
#      x y z
#    x 1.558630 0.000000 0.000000 
#    y 0.000000 1.562620 0.000000 
#    z 0.000000 0.000000 1.567280 
# 
# From -- ./inp_files/12830.got.cif
#   From: 2010.05.17/outbox.cif.g08.bks.cpg/sg51_7_cif.got.tgz:12830.got - 2010.06.03 11:52:47.
