data_PCOD9401555
_publ_section_title
;
Structure prediction by ZEFSAII (Michael W. Deem and Ramdas Pophale) SiO2 
 PCOD9401555
Probable space group: P M M A
;
_chemical_formula_sum "Si O2"
_cell_formula_units_Z 64
_cell_length_a 8.766654
_cell_length_b 14.915251
_cell_length_c 30.817064
_cell_angle_alpha 90.000000
_cell_angle_beta 90.000000
_cell_angle_gamma 90.000000
_cell_volume 4029.542056
_symmetry_space_group_name_H-M "P M M A"
_symmetry_group_IT_number 51
_symmetry_cell_setting 'orthorhombic'
loop_
_space_group_symop_operation_xyz
x,y,z
1/2-x,-y,z
1/2+x,-y,-z
-x,y,-z
-x,-y,-z
1/2+x,y,-z
1/2-x,y,z
x,-y,z
loop_
_atom_site_type_symbol
_atom_site_label
_atom_site_fract_x
_atom_site_fract_y
_atom_site_fract_z
Si Si1 0.927749 0.768994 0.697201
Si Si2 0.566143 0.894782 0.955588
Si Si3 0.425916 0.108659 0.139042
Si Si4 0.073215 0.135347 0.454843
Si Si5 0.564153 0.601541 0.642331
Si Si6 0.931184 0.103567 0.230593
Si Si7 0.575913 0.898919 0.366036
Si Si8 0.425847 0.352316 0.454364
O O1 0.750000 0.758524 0.707455
O O2 0.988170 0.674822 0.677672
O O3 0.005964 0.821699 0.736663
O O4 0.954793 0.836381 0.657250
O O5 0.750000 0.891706 0.956939
O O6 0.519275 0.857911 0.908260
O O7 0.519946 0.000000 0.955515
O O8 0.500000 0.854673 0.000000
O O9 0.250000 0.136936 0.145504
O O10 0.522511 0.129261 0.181541
O O11 0.424278 0.000000 0.135859
O O12 0.250000 0.108209 0.450437
O O13 0.069783 0.243990 0.453575
O O14 0.000000 0.107053 0.500000
O O15 0.968821 0.101325 0.416073
O O16 0.750000 0.610737 0.640512
O O17 0.527313 0.500000 0.654788
O O18 0.509475 0.618045 0.592597
O O19 0.750000 0.100641 0.234983
O O20 0.988238 0.000000 0.238406
O O21 0.750000 0.866699 0.359603
O O22 0.568007 0.000000 0.348710
O O23 0.500000 0.381460 0.500000
O O24 0.250000 0.381631 0.455628
#
# Coordination Sequence:
#
# PCOD9401555 Si02
#       8
#     8   8   8   8   8   8   8   8
#     4  11  21  35  53  71  89 115 147 179 220 264
#     4   8  13  20  31  49  75 108 147 190 233 271
#     4   8  14  25  39  56  80 112 152 195 232 269
#     4  10  19  33  51  71  92 117 146 173 207 249
#     4   9  18  34  54  74  95 116 140 172 210 257
#     4  10  20  32  46  66  91 119 151 190 235 274
#     4  11  23  36  50  69  92 118 146 178 215 252
#     4   9  17  31  50  73  95 115 138 164 199 245
#
# _framework density 15.882699000000001
#
# number of rings (size 3 to 8) (size 9 to 14) (size 15 to 20)
#    0.000    2.500    1.250    2.625    0.000    4.750 
#    0.000    2.500    0.000    3.000    0.000    0.000 
#    0.000    0.000    0.000    0.000    0.000    0.625 
#
# Total GULP energy -356470.847530 kJ/mol
# GULP energy per Si atom -5569.856993 kJ/mol
# Density = 1.584655 g / cm^3
# Si number density = 15.882699 Si / 1000 Ang^3
#
#
#
# Elastic Constant Matrix: (Units=GPa)
#
#
# Indices 1 2 3 4 5 6 
#
# 1 25.9778 14.3144 20.5720 0.0000 0.0000 0.0000
# 2 14.3144 65.9970 40.7436 0.0000 0.0000 0.0000
# 3 20.5720 40.7436 129.0964 0.0000 0.0000 0.0000
# 4 0.0000 0.0000 0.0000 2.5341 0.0000 0.0000
# 5 0.0000 0.0000 0.0000 0.0000 27.3634 0.0000
# 6 0.0000 0.0000 0.0000 0.0000 0.0000 3.1312
#
#
#
# Elastic Compliance Matrix: (Units=1/GPa)
#
#
# Indices 1 2 3 4 5 6 
#
# 1 0.046407 -0.006831 -0.005239 0.000000 0.000000 0.000000
# 2 -0.006831 0.019824 -0.005168 0.000000 0.000000 0.000000
# 3 -0.005239 -0.005168 0.010212 0.000000 0.000000 0.000000
# 4 0.000000 0.000000 0.000000 0.394611 0.000000 0.000000
# 5 0.000000 0.000000 0.000000 0.000000 0.036545 0.000000
# 6 0.000000 0.000000 0.000000 0.000000 0.000000 0.319370
#
#
# Mechanical properties :
#
#
# Convention : Reuss Voigt Hill
#
# Bulk Modulus (GPa) = 23.82821 41.37013 32.59917
# Shear Modulus (GPa) = 5.71144 16.30182 11.00663
#
# Velocity S-wave (km/s) = 1.89837 3.20721 2.63534
# Velocity P-wave (km/s) = 4.45424 6.31021 5.46164
#
# Compressibility (1/GPa) = 0.04196707
#
# Stress axis : x y z
#
# Youngs Moduli (GPa) = 21.54826 50.44288 97.92252
#
# Poissons Ratio (x) = 0.34458 0.51305
# Poissons Ratio (y) = 0.14720 0.50608
# Poissons Ratio (z) = 0.11290 0.26070
#
# Static dielectric constant tensor:
#      x y z
#    x 1.543860 0.000000 0.000000 
#    y 0.000000 1.540000 0.000000 
#    z 0.000000 0.000000 1.566640 
# 
# From -- ./inp_files/37673.got.cif
#   From: 2010.05.17/outbox.cif.g08.bks.cpg/sg51_19_cif.got.tgz:37673.got - 2010.06.03 11:52:47.
