data_PCOD9401296
_publ_section_title
;
Structure prediction by ZEFSAII (Michael W. Deem and Ramdas Pophale) SiO2 
 PCOD9401296
Probable space group: P M M A
;
_chemical_formula_sum "Si O2"
_cell_formula_units_Z 56
_cell_length_a 7.704257
_cell_length_b 16.442447
_cell_length_c 20.200797
_cell_angle_alpha 90.000000
_cell_angle_beta 90.000000
_cell_angle_gamma 90.000000
_cell_volume 2558.973077
_symmetry_space_group_name_H-M "P M M A"
_symmetry_group_IT_number 51
_symmetry_cell_setting 'orthorhombic'
loop_
_space_group_symop_operation_xyz
x,y,z
1/2-x,-y,z
1/2+x,-y,-z
-x,y,-z
-x,-y,-z
1/2+x,y,-z
1/2-x,y,z
x,-y,z
loop_
_atom_site_type_symbol
_atom_site_label
_atom_site_fract_x
_atom_site_fract_y
_atom_site_fract_z
Si Si1 0.559438 0.262815 0.076182
Si Si2 0.534998 0.257510 0.215659
Si Si3 0.455037 0.090425 0.716779
Si Si4 0.951554 0.412914 0.292985
Si Si5 0.542982 0.157873 0.574651
Si Si6 0.457477 0.086273 0.077718
Si Si7 0.043417 0.654390 0.426522
O O1 0.750000 0.298869 0.075477
O O2 0.469421 0.289720 0.143713
O O3 0.559423 0.166712 0.094974
O O4 0.500000 0.269154 0.000000
O O5 0.750000 0.254548 0.214374
O O6 0.475365 0.168559 0.241828
O O7 0.476793 0.328394 0.265047
O O8 0.250000 0.087429 0.731122
O O9 0.474806 0.109624 0.638400
O O10 0.528650 0.000000 0.730646
O O11 0.750000 0.414648 0.272500
O O12 0.029950 0.500000 0.273454
O O13 0.961764 0.401847 0.371336
O O14 0.500000 0.128356 0.500000
O O15 0.750000 0.158062 0.580085
O O16 0.479297 0.251659 0.579615
O O17 0.250000 0.098644 0.085019
O O18 0.506566 0.000000 0.109232
O O19 0.500000 0.079086 0.000000
O O20 0.250000 0.654963 0.417315
O O21 0.000000 0.627079 0.500000
#
# Coordination Sequence:
#
# PCOD9401296 Si02
#       7
#     8   8   8   8   8   8   8
#     4  10  19  32  52  76 101 134 172 215 264 319
#     4   9  19  36  56  79 109 139 175 221 268 324
#     4  10  20  35  56  79 105 142 185 228 273 319
#     4  10  20  36  60  85 108 140 180 223 272 323
#     4  10  20  34  54  79 108 146 187 229 273 315
#     4   9  16  26  41  64  95 128 163 205 250 299
#     4  10  20  34  55  83 114 149 184 222 271 320
#
# _framework density 21.883778
#
# number of rings (size 3 to 8) (size 9 to 14) (size 15 to 20)
#    0.000    2.286    1.429    2.571    0.000    3.714 
#    0.000    4.286    0.000    0.429    0.000    0.000 
#    0.000    0.000    0.000    0.000    0.000    0.571 
#
# Total GULP energy -311983.343339 kJ/mol
# GULP energy per Si atom -5571.131131 kJ/mol
# Density = 2.183397 g / cm^3
# Si number density = 21.883778 Si / 1000 Ang^3
#
#
#
# Elastic Constant Matrix: (Units=GPa)
#
#
# Indices 1 2 3 4 5 6 
#
# 1 49.2697 5.8084 -6.7173 0.0000 0.0000 0.0000
# 2 5.8084 100.9009 47.4671 0.0000 0.0000 0.0000
# 3 -6.7173 47.4671 138.0386 0.0000 0.0000 0.0000
# 4 0.0000 0.0000 0.0000 13.4640 0.0000 0.0000
# 5 0.0000 0.0000 0.0000 0.0000 12.1820 0.0000
# 6 0.0000 0.0000 0.0000 0.0000 0.0000 8.7870
#
#
#
# Elastic Compliance Matrix: (Units=1/GPa)
#
#
# Indices 1 2 3 4 5 6 
#
# 1 0.020763 -0.001993 0.001696 0.000000 0.000000 0.000000
# 2 -0.001993 0.012015 -0.004228 0.000000 0.000000 0.000000
# 3 0.001696 -0.004228 0.008781 0.000000 0.000000 0.000000
# 4 0.000000 0.000000 0.000000 0.074272 0.000000 0.000000
# 5 0.000000 0.000000 0.000000 0.000000 0.082088 0.000000
# 6 0.000000 0.000000 0.000000 0.000000 0.000000 0.113805
#
#
# Mechanical properties :
#
#
# Convention : Reuss Voigt Hill
#
# Bulk Modulus (GPa) = 30.76283 42.36952 36.56617
# Shear Modulus (GPa) = 15.07795 22.99665 19.03730
#
# Velocity S-wave (km/s) = 2.62773 3.24520 2.95265
# Velocity P-wave (km/s) = 4.82644 5.78316 5.32633
#
# Compressibility (1/GPa) = 0.03250676
#
# Stress axis : x y z
#
# Youngs Moduli (GPa) = 48.16355 83.23182 113.88366
#
# Poissons Ratio (x) = 0.16587 -0.19311
# Poissons Ratio (y) = 0.09598 0.48155
# Poissons Ratio (z) = -0.08167 0.35194
#
# Static dielectric constant tensor:
#      x y z
#    x 1.802510 0.000000 0.000000 
#    y 0.000000 1.857250 0.000000 
#    z 0.000000 0.000000 1.884810 
# 
# From -- ./inp_files/31968.got.cif
#   From: 2010.05.17/outbox.cif.g08.bks.cpg/sg51_16_cif.got.tgz:31968.got - 2010.06.03 11:52:47.
