data_PCOD9401529
_publ_section_title
;
Structure prediction by ZEFSAII (Michael W. Deem and Ramdas Pophale) SiO2 
 PCOD9401529
Probable space group: P M M A
;
_chemical_formula_sum "Si O2"
_cell_formula_units_Z 44
_cell_length_a 8.109575
_cell_length_b 17.094670
_cell_length_c 16.550928
_cell_angle_alpha 90.000000
_cell_angle_beta 90.000000
_cell_angle_gamma 90.000000
_cell_volume 2294.463564
_symmetry_space_group_name_H-M "P M M A"
_symmetry_group_IT_number 51
_symmetry_cell_setting 'orthorhombic'
loop_
_space_group_symop_operation_xyz
x,y,z
1/2-x,-y,z
1/2+x,-y,-z
-x,y,-z
-x,-y,-z
1/2+x,y,-z
1/2-x,y,z
x,-y,z
loop_
_atom_site_type_symbol
_atom_site_label
_atom_site_fract_x
_atom_site_fract_y
_atom_site_fract_z
Si Si1 0.446050 0.125435 0.785256
Si Si2 0.946993 0.000000 0.090358
Si Si3 0.942902 0.914814 0.611660
Si Si4 0.447563 0.700385 0.235149
Si Si5 0.552871 0.589744 0.088879
Si Si6 0.051137 0.260437 0.414036
O O1 0.250000 0.113856 0.771815
O O2 0.502253 0.076691 0.862079
O O3 0.540445 0.092036 0.707943
O O4 0.482496 0.216447 0.793417
O O5 0.750000 0.000000 0.093253
O O6 0.000000 0.000000 0.000000
O O7 0.750000 0.915534 0.588514
O O8 0.014688 0.830071 0.586317
O O9 0.015607 0.000000 0.588144
O O10 0.250000 0.703768 0.236274
O O11 0.497713 0.636624 0.168618
O O12 0.501253 0.696750 0.330478
O O13 0.750000 0.588741 0.089222
O O14 0.490365 0.500000 0.093550
O O15 0.500000 0.621202 0.000000
O O16 0.250000 0.256214 0.411561
O O17 0.000000 0.296062 0.500000
#
# Coordination Sequence:
#
# PCOD9401529 Si02
#       6
#     8   4   8   8   8   8
#     4  10  19  33  49  70  98 131 178 228 271 322
#     4  10  22  34  46  66  93 128 173 222 271 320
#     4   9  17  30  48  68  94 131 174 223 279 334
#     4  10  21  37  57  82 111 147 185 223 274 329
#     4  10  21  38  62  92 121 147 176 215 266 324
#     4   9  19  33  49  74 106 142 185 230 278 329
#
# _framework density 19.176596
#
# number of rings (size 3 to 8) (size 9 to 14) (size 15 to 20)
#    0.000    2.364    0.909    2.727    0.000    7.273 
#    0.000    1.818    0.000    0.545    0.000    0.000 
#    0.000    0.000    0.000    0.000    0.000    0.000 
#
# Total GULP energy -245149.565935 kJ/mol
# GULP energy per Si atom -5571.581044 kJ/mol
# Density = 1.913295 g / cm^3
# Si number density = 19.176596 Si / 1000 Ang^3
#
#
#
# Elastic Constant Matrix: (Units=GPa)
#
#
# Indices 1 2 3 4 5 6 
#
# 1 29.3346 6.2835 13.4611 0.0000 0.0000 0.0000
# 2 6.2835 62.8161 59.4029 0.0000 0.0000 0.0000
# 3 13.4611 59.4029 189.2457 0.0000 0.0000 0.0000
# 4 0.0000 0.0000 0.0000 37.0449 0.0000 0.0000
# 5 0.0000 0.0000 0.0000 0.0000 27.7596 0.0000
# 6 0.0000 0.0000 0.0000 0.0000 0.0000 5.1075
#
#
#
# Elastic Compliance Matrix: (Units=1/GPa)
#
#
# Indices 1 2 3 4 5 6 
#
# 1 0.035359 -0.001648 -0.001998 0.000000 0.000000 0.000000
# 2 -0.001648 0.022717 -0.007013 0.000000 0.000000 0.000000
# 3 -0.001998 -0.007013 0.007628 0.000000 0.000000 0.000000
# 4 0.000000 0.000000 0.000000 0.026994 0.000000 0.000000
# 5 0.000000 0.000000 0.000000 0.000000 0.036024 0.000000
# 6 0.000000 0.000000 0.000000 0.000000 0.000000 0.195792
#
#
# Mechanical properties :
#
#
# Convention : Reuss Voigt Hill
#
# Bulk Modulus (GPa) = 22.52982 48.85460 35.69221
# Shear Modulus (GPa) = 13.86477 27.46566 20.66521
#
# Velocity S-wave (km/s) = 2.69179 3.78861 3.28628
# Velocity P-wave (km/s) = 4.62981 6.68353 5.74912
#
# Compressibility (1/GPa) = 0.04438562
#
# Stress axis : x y z
#
# Youngs Moduli (GPa) = 28.28124 44.02061 131.10096
#
# Poissons Ratio (x) = 0.07253 0.26193
# Poissons Ratio (y) = 0.04660 0.91946
# Poissons Ratio (z) = 0.05650 0.30873
#
# Static dielectric constant tensor:
#      x y z
#    x 1.684210 0.000000 0.000000 
#    y 0.000000 1.699900 0.000000 
#    z 0.000000 0.000000 1.667770 
# 
# From -- ./inp_files/20909.got.cif
#   From: 2010.05.17/outbox.cif.g08.bks.cpg/sg51_11_cif.got.tgz:20909.got - 2010.06.03 11:52:47.
