data_PCOD9401942
_publ_section_title
;
Structure prediction by ZEFSAII (Michael W. Deem and Ramdas Pophale) SiO2 
 PCOD9401942
Probable space group: P M M A
;
_chemical_formula_sum "Si O2"
_cell_formula_units_Z 48
_cell_length_a 34.620355
_cell_length_b 8.211863
_cell_length_c 7.305432
_cell_angle_alpha 90.000000
_cell_angle_beta 90.000000
_cell_angle_gamma 90.000000
_cell_volume 2076.916874
_symmetry_space_group_name_H-M "P M M A"
_symmetry_group_IT_number 51
_symmetry_cell_setting 'orthorhombic'
loop_
_space_group_symop_operation_xyz
x,y,z
1/2-x,-y,z
1/2+x,-y,-z
-x,y,-z
-x,-y,-z
1/2+x,y,-z
1/2-x,y,z
x,-y,z
loop_
_atom_site_type_symbol
_atom_site_label
_atom_site_fract_x
_atom_site_fract_y
_atom_site_fract_z
Si Si1 0.250000 0.311460 0.356560
Si Si2 0.832956 0.303244 0.590246
Si Si3 0.536357 0.000000 0.736645
Si Si4 0.250000 0.688838 0.803319
Si Si5 0.079611 0.682358 0.291720
Si Si6 0.832033 0.184220 0.178109
Si Si7 0.589964 0.326159 0.128018
Si Si8 0.448105 0.000000 0.820700
O O1 0.250000 0.500000 0.298299
O O2 0.206865 0.247965 0.309767
O O3 0.250000 0.303025 0.580434
O O4 0.828863 0.500000 0.557393
O O5 0.874828 0.280648 0.679463
O O6 0.834178 0.211313 0.396869
O O7 0.554366 0.836781 0.650106
O O8 0.490314 0.000000 0.734453
O O9 0.547395 0.000000 0.955635
O O10 0.250000 0.500000 0.851509
O O11 0.288623 0.771903 0.873035
O O12 0.071718 0.500000 0.365765
O O13 0.072478 0.670369 0.073969
O O14 0.864255 0.304257 0.102383
O O15 0.841533 0.000000 0.127154
O O16 0.582351 0.500000 0.218838
O O17 0.574554 0.165398 0.226024
#
# Coordination Sequence:
#
# PCOD9401942 Si02
#       8
#     4   8   4   4   8   8   8   4
#     4   7  12  25  46  67  94 128 165 209 242 279
#     4   9  17  31  50  74 101 133 173 210 248 297
#     4   9  18  32  55  74 107 128 164 209 257 299
#     4   9  17  31  48  69  98 136 175 214 253 287
#     4   9  19  33  53  78 103 134 168 206 257 307
#     4  11  20  31  50  77 104 136 175 212 252 297
#     4  10  19  34  53  76 106 136 167 209 256 303
#     4   9  18  34  51  80  99 134 166 207 251 311
#
# _framework density 23.111180000000001
#
# number of rings (size 3 to 8) (size 9 to 14) (size 15 to 20)
#    0.000    2.667    0.833    2.750    1.167    0.667 
#    0.000    4.167    0.000    5.000    0.000    3.500 
#    0.000    0.000    0.000    0.000    0.000    0.000 
#
# Total GULP energy -267897.520034 kJ/mol
# GULP energy per Si atom -5581.198334 kJ/mol
# Density = 2.305858 g / cm^3
# Si number density = 23.111180 Si / 1000 Ang^3
#
#
#
# Elastic Constant Matrix: (Units=GPa)
#
#
# Indices 1 2 3 4 5 6 
#
# 1 110.3007 70.5153 -17.2547 0.0000 0.0000 0.0000
# 2 70.5153 159.8556 2.5855 0.0000 0.0000 0.0000
# 3 -17.2547 2.5855 58.2775 0.0000 0.0000 0.0000
# 4 0.0000 0.0000 0.0000 -3.1402 0.0000 0.0000
# 5 0.0000 0.0000 0.0000 0.0000 20.2156 0.0000
# 6 0.0000 0.0000 0.0000 0.0000 0.0000 23.0155
#
#
#
# Elastic Compliance Matrix: (Units=1/GPa)
#
#
# Indices 1 2 3 4 5 6 
#
# 1 0.013627 -0.006081 0.004304 0.000000 0.000000 0.000000
# 2 -0.006081 0.008974 -0.002198 0.000000 0.000000 0.000000
# 3 0.004304 -0.002198 0.018531 0.000000 0.000000 0.000000
# 4 0.000000 0.000000 0.000000 -0.318451 0.000000 0.000000
# 5 0.000000 0.000000 0.000000 0.000000 0.049467 0.000000
# 6 0.000000 0.000000 0.000000 0.000000 0.000000 0.043449
#
#
# Mechanical properties :
#
#
# Convention : Reuss Voigt Hill
#
# Bulk Modulus (GPa) = 30.13675 48.90289 39.51982
# Shear Modulus (GPa) = -30.23095 26.19069 -2.02013
#
# Velocity S-wave (km/s) = -3.62064 3.37003 -0.93594
# Velocity P-wave (km/s) = 2.10013 6.02898 3.99612
#
# Compressibility (1/GPa) = 0.03318208
#
# Stress axis : x y z
#
# Youngs Moduli (GPa) = 73.38453 111.43919 53.96291
#
# Poissons Ratio (x) = 0.67763 -0.23228
# Poissons Ratio (y) = 0.44623 0.11864
# Poissons Ratio (z) = -0.31588 0.24500
#
# Static dielectric constant tensor:
#      x y z
#    x 1.850350 0.000000 0.000000 
#    y 0.000000 1.851460 0.000000 
#    z 0.000000 0.000000 1.919360 
# 
# From -- ./inp_files/12991.got.cif
#   From: 2010.05.17/outbox.cif.g08.bks.cpg/sg51_7_cif.got.tgz:12991.got - 2010.06.03 11:52:47.
