data_PCOD9401732
_publ_section_title
;
Structure prediction by ZEFSAII (Michael W. Deem and Ramdas Pophale) SiO2 
 PCOD9401732
Probable space group: P M M A
;
_chemical_formula_sum "Si O2"
_cell_formula_units_Z 48
_cell_length_a 8.617553
_cell_length_b 32.122388
_cell_length_c 9.658634
_cell_angle_alpha 90.000000
_cell_angle_beta 90.000000
_cell_angle_gamma 90.000000
_cell_volume 2673.668110
_symmetry_space_group_name_H-M "P M M A"
_symmetry_group_IT_number 51
_symmetry_cell_setting 'orthorhombic'
loop_
_space_group_symop_operation_xyz
x,y,z
1/2-x,-y,z
1/2+x,-y,-z
-x,y,-z
-x,-y,-z
1/2+x,y,-z
1/2-x,y,z
x,-y,z
loop_
_atom_site_type_symbol
_atom_site_label
_atom_site_fract_x
_atom_site_fract_y
_atom_site_fract_z
Si Si1 0.936404 0.120291 0.343626
Si Si2 0.062818 0.452418 0.348395
Si Si3 0.064151 0.047024 0.154697
Si Si4 0.436395 0.623035 0.154991
Si Si5 0.563344 0.788926 0.343810
Si Si6 0.563010 0.697352 0.342751
O O1 0.750000 0.118586 0.347418
O O2 0.984206 0.166081 0.284392
O O3 0.000000 0.117361 0.500000
O O4 0.999537 0.082554 0.253607
O O5 0.250000 0.451976 0.354224
O O6 0.012721 0.500000 0.319288
O O7 0.013152 0.419237 0.233774
O O8 0.000000 0.440692 0.500000
O O9 0.250000 0.049188 0.151754
O O10 0.019389 0.000000 0.199599
O O11 0.000000 0.052885 0.000000
O O12 0.250000 0.623906 0.151738
O O13 0.496477 0.661609 0.245670
O O14 0.500000 0.624624 0.000000
O O15 0.500000 0.789161 0.500000
O O16 0.750000 0.788912 0.347510
O O17 0.516679 0.743622 0.287413
O O18 0.500000 0.693054 0.500000
O O19 0.750000 0.694785 0.346792
#
# Coordination Sequence:
#
# PCOD9401732 Si02
#       6
#     8   8   8   8   8   8
#     4  10  19  33  54  80 108 136 170 212 258 306
#     4   9  19  36  57  80 105 134 171 214 258 307
#     4  10  21  37  55  75 101 135 174 214 258 309
#     4  11  23  37  53  76 107 141 177 217 263 311
#     4   8  16  30  50  76 104 134 168 209 255 304
#     4  10  19  34  56  80 106 137 175 215 257 306
#
# _framework density 17.952864000000002
#
# number of rings (size 3 to 8) (size 9 to 14) (size 15 to 20)
#    0.000    2.333    0.000    2.500    0.000    5.667 
#    0.000    0.833    0.000    0.000    0.000    0.000 
#    0.000    0.000    0.000    0.000    0.000    0.000 
#
# Total GULP energy -267631.854862 kJ/mol
# GULP energy per Si atom -5575.663643 kJ/mol
# Density = 1.791200 g / cm^3
# Si number density = 17.952864 Si / 1000 Ang^3
#
#
#
# Elastic Constant Matrix: (Units=GPa)
#
#
# Indices 1 2 3 4 5 6 
#
# 1 42.5910 48.1740 32.0668 0.0000 0.0000 0.0000
# 2 48.1740 183.8915 104.1501 0.0000 0.0000 0.0000
# 3 32.0668 104.1501 99.7819 0.0000 0.0000 0.0000
# 4 0.0000 0.0000 0.0000 -12.0332 0.0000 0.0000
# 5 0.0000 0.0000 0.0000 0.0000 30.6254 0.0000
# 6 0.0000 0.0000 0.0000 0.0000 0.0000 67.0595
#
#
#
# Elastic Compliance Matrix: (Units=1/GPa)
#
#
# Indices 1 2 3 4 5 6 
#
# 1 0.034002 -0.006650 -0.003986 0.000000 0.000000 0.000000
# 2 -0.006650 0.014602 -0.013104 0.000000 0.000000 0.000000
# 3 -0.003986 -0.013104 0.024980 0.000000 0.000000 0.000000
# 4 0.000000 0.000000 0.000000 -0.083103 0.000000 0.000000
# 5 0.000000 0.000000 0.000000 0.000000 0.032653 0.000000
# 6 0.000000 0.000000 0.000000 0.000000 0.000000 0.014912
#
#
# Mechanical properties :
#
#
# Convention : Reuss Voigt Hill
#
# Bulk Modulus (GPa) = 38.30805 77.22734 57.76769
# Shear Modulus (GPa) = 53.06378 26.58858 39.82618
#
# Velocity S-wave (km/s) = 5.44256 3.85258 4.71507
# Velocity P-wave (km/s) = 7.80255 7.93095 7.86701
#
# Compressibility (1/GPa) = 0.02610418
#
# Stress axis : x y z
#
# Youngs Moduli (GPa) = 29.41017 68.48584 40.03152
#
# Poissons Ratio (x) = 0.45542 0.15958
# Poissons Ratio (y) = 0.19557 0.52456
# Poissons Ratio (z) = 0.11724 0.89742
#
# Static dielectric constant tensor:
#      x y z
#    x 1.608750 0.000000 0.000000 
#    y 0.000000 1.661400 0.000000 
#    z 0.000000 0.000000 1.560010 
# 
# From -- ./inp_files/6061.got.cif
#   From: 2010.05.17/outbox.cif.g08.bks.cpg/sg51_4_cif.got.tgz:6061.got - 2010.06.03 11:52:47.
