data_PCOD9401155
_publ_section_title
;
Structure prediction by ZEFSAII (Michael W. Deem and Ramdas Pophale) SiO2 
 PCOD9401155
Probable space group: P M M A
;
_chemical_formula_sum "Si O2"
_cell_formula_units_Z 56
_cell_length_a 17.039850
_cell_length_b 14.322312
_cell_length_c 11.787560
_cell_angle_alpha 90.000000
_cell_angle_beta 90.000000
_cell_angle_gamma 90.000000
_cell_volume 2876.754585
_symmetry_space_group_name_H-M "P M M A"
_symmetry_group_IT_number 51
_symmetry_cell_setting 'orthorhombic'
loop_
_space_group_symop_operation_xyz
x,y,z
1/2-x,-y,z
1/2+x,-y,-z
-x,y,-z
-x,-y,-z
1/2+x,y,-z
1/2-x,y,z
x,-y,z
loop_
_atom_site_type_symbol
_atom_site_label
_atom_site_fract_x
_atom_site_fract_y
_atom_site_fract_z
Si Si1 0.578642 0.389599 0.246652
Si Si2 0.914345 0.199389 0.559188
Si Si3 0.161861 0.112495 0.656897
Si Si4 0.342231 0.395425 0.990697
Si Si5 0.456033 0.714597 0.114225
Si Si6 0.995747 0.110341 0.769726
Si Si7 0.905077 0.604322 0.500858
O O1 0.560849 0.500000 0.247549
O O2 0.499499 0.332821 0.220506
O O3 0.614881 0.369761 0.369678
O O4 0.633220 0.369866 0.138369
O O5 0.858588 0.148757 0.468904
O O6 0.935502 0.139149 0.669180
O O7 0.884076 0.305469 0.575198
O O8 0.000000 0.207928 0.500000
O O9 0.250000 0.143351 0.691892
O O10 0.085564 0.137881 0.733678
O O11 0.161975 0.000000 0.654905
O O12 0.250000 0.400424 0.993152
O O13 0.375445 0.500000 0.013095
O O14 0.371233 0.324159 0.086393
O O15 0.468003 0.824122 0.128446
O O16 0.500000 0.681392 0.000000
O O17 0.993855 0.000000 0.789229
O O18 0.874850 0.500000 0.528712
O O19 0.000000 0.596511 0.500000
#
# Coordination Sequence:
#
# PCOD9401155 Si02
#       7
#     8   8   8   8   8   8   8
#     4   9  16  28  48  74 102 131 165 205 249 304
#     4   9  16  29  48  70  97 129 165 203 247 304
#     4   9  17  30  50  76 101 126 163 214 269 320
#     4   9  18  33  53  77 105 136 171 216 268 315
#     4  10  19  32  50  73  98 131 177 220 261 309
#     4  10  20  34  52  73  99 135 179 225 270 316
#     4   9  16  26  44  72 103 132 163 196 232 285
#
# _framework density 19.466379
#
# number of rings (size 3 to 8) (size 9 to 14) (size 15 to 20)
#    0.000    2.714    0.000    3.429    0.000    3.714 
#    0.000    7.857    0.000    2.571    0.000    1.000 
#    0.000    5.714    0.000    0.000    0.000    0.000 
#
# Total GULP energy -311827.455078 kJ/mol
# GULP energy per Si atom -5568.347412 kJ/mol
# Density = 1.942207 g / cm^3
# Si number density = 19.466379 Si / 1000 Ang^3
#
#
#
# Elastic Constant Matrix: (Units=GPa)
#
#
# Indices 1 2 3 4 5 6 
#
# 1 60.3535 41.9131 26.3486 0.0000 0.0000 0.0000
# 2 41.9131 68.4121 25.5120 0.0000 0.0000 0.0000
# 3 26.3486 25.5120 35.2446 0.0000 0.0000 0.0000
# 4 0.0000 0.0000 0.0000 31.8574 0.0000 0.0000
# 5 0.0000 0.0000 0.0000 0.0000 16.0117 0.0000
# 6 0.0000 0.0000 0.0000 0.0000 0.0000 16.7471
#
#
#
# Elastic Compliance Matrix: (Units=1/GPa)
#
#
# Indices 1 2 3 4 5 6 
#
# 1 0.033101 -0.015138 -0.013789 0.000000 0.000000 0.000000
# 2 -0.015138 0.026945 -0.008187 0.000000 0.000000 0.000000
# 3 -0.013789 -0.008187 0.044608 0.000000 0.000000 0.000000
# 4 0.000000 0.000000 0.000000 0.031390 0.000000 0.000000
# 5 0.000000 0.000000 0.000000 0.000000 0.062455 0.000000
# 6 0.000000 0.000000 0.000000 0.000000 0.000000 0.059712
#
#
# Mechanical properties :
#
#
# Convention : Reuss Voigt Hill
#
# Bulk Modulus (GPa) = 32.86613 39.06198 35.96405
# Shear Modulus (GPa) = 14.59514 17.60566 16.10040
#
# Velocity S-wave (km/s) = 2.74115 3.01061 2.87903
# Velocity P-wave (km/s) = 5.19025 5.67406 5.43754
#
# Compressibility (1/GPa) = 0.03042646
#
# Stress axis : x y z
#
# Youngs Moduli (GPa) = 30.21024 37.11311 22.41753
#
# Poissons Ratio (x) = 0.56181 0.30911
# Poissons Ratio (y) = 0.45731 0.18354
# Poissons Ratio (z) = 0.41656 0.30385
#
# Static dielectric constant tensor:
#      x y z
#    x 1.715040 0.000000 0.000000 
#    y 0.000000 1.727530 0.000000 
#    z 0.000000 0.000000 1.718970 
# 
# From -- ./inp_files/16596.got.cif
#   From: 2010.05.17/outbox.cif.g08.bks.cpg/sg51_9_cif.got.tgz:16596.got - 2010.06.03 11:52:47.
