data_PCOD9401189
_publ_section_title
;
Structure prediction by ZEFSAII (Michael W. Deem and Ramdas Pophale) SiO2 
 PCOD9401189
Probable space group: P M M A
;
_chemical_formula_sum "Si O2"
_cell_formula_units_Z 56
_cell_length_a 14.763960
_cell_length_b 9.163546
_cell_length_c 23.498865
_cell_angle_alpha 90.000000
_cell_angle_beta 90.000000
_cell_angle_gamma 90.000000
_cell_volume 3179.166771
_symmetry_space_group_name_H-M "P M M A"
_symmetry_group_IT_number 51
_symmetry_cell_setting 'orthorhombic'
loop_
_space_group_symop_operation_xyz
x,y,z
1/2-x,-y,z
1/2+x,-y,-z
-x,y,-z
-x,-y,-z
1/2+x,y,-z
1/2-x,y,z
x,-y,z
loop_
_atom_site_type_symbol
_atom_site_label
_atom_site_fract_x
_atom_site_fract_y
_atom_site_fract_z
Si Si1 0.499030 0.324577 0.565386
Si Si2 0.645345 0.828255 0.640701
Si Si3 0.495014 0.827575 0.257473
Si Si4 0.642547 0.676502 0.336758
Si Si5 0.401249 0.833931 0.030782
Si Si6 0.154457 0.670700 0.922791
Si Si7 0.968450 0.325436 0.861411
O O1 0.500000 0.274638 0.500000
O O2 0.502151 0.500000 0.565622
O O3 0.588330 0.262279 0.595241
O O4 0.411541 0.284341 0.604554
O O5 0.750000 0.783653 0.645930
O O6 0.588342 0.812463 0.698630
O O7 0.643125 0.000000 0.625645
O O8 0.583036 0.752549 0.286988
O O9 0.464742 0.749487 0.199603
O O10 0.512219 0.000000 0.248465
O O11 0.750000 0.714807 0.337400
O O12 0.636982 0.500000 0.330079
O O13 0.406198 0.744159 0.089258
O O14 0.374089 0.000000 0.041805
O O15 0.500000 0.835634 0.000000
O O16 0.345362 0.757256 0.981460
O O17 0.250000 0.693261 0.892334
O O18 0.144989 0.500000 0.937204
O O19 0.069795 0.707926 0.884107
O O20 0.956068 0.500000 0.858244
#
# Coordination Sequence:
#
# PCOD9401189 Si02
#       7
#     8   8   8   8   8   8   8
#     4   9  18  32  52  80 109 135 168 210 253 299
#     4   9  19  36  55  74 100 136 174 212 257 305
#     4  10  20  34  52  74 100 130 170 219 262 302
#     4   9  18  33  51  71 101 140 174 205 249 306
#     4   9  17  30  48  69  93 122 156 194 238 287
#     4   9  18  32  49  70  96 125 158 197 243 298
#     4  10  19  32  51  72  96 129 165 201 246 300
#
# _framework density 17.614678000000001
#
# number of rings (size 3 to 8) (size 9 to 14) (size 15 to 20)
#    0.000    2.714    0.000    1.286    0.000    5.143 
#    0.000    3.571    0.000    2.571    0.000    0.000 
#    0.000    0.000    0.000    0.000    0.000    0.000 
#
# Total GULP energy -311906.543239 kJ/mol
# GULP energy per Si atom -5569.759701 kJ/mol
# Density = 1.757459 g / cm^3
# Si number density = 17.614678 Si / 1000 Ang^3
#
#
#
# Elastic Constant Matrix: (Units=GPa)
#
#
# Indices 1 2 3 4 5 6 
#
# 1 74.9019 10.6687 0.8689 0.0000 0.0000 0.0000
# 2 10.6687 26.2825 35.1806 0.0000 0.0000 0.0000
# 3 0.8689 35.1806 91.9063 0.0000 0.0000 0.0000
# 4 0.0000 0.0000 0.0000 27.1982 0.0000 0.0000
# 5 0.0000 0.0000 0.0000 0.0000 5.2632 0.0000
# 6 0.0000 0.0000 0.0000 0.0000 0.0000 3.1698
#
#
#
# Elastic Compliance Matrix: (Units=1/GPa)
#
#
# Indices 1 2 3 4 5 6 
#
# 1 0.015025 -0.012117 0.004496 0.000000 0.000000 0.000000
# 2 -0.012117 0.087802 -0.033495 0.000000 0.000000 0.000000
# 3 0.004496 -0.033495 0.023660 0.000000 0.000000 0.000000
# 4 0.000000 0.000000 0.000000 0.036767 0.000000 0.000000
# 5 0.000000 0.000000 0.000000 0.000000 0.190000 0.000000
# 6 0.000000 0.000000 0.000000 0.000000 0.000000 0.315482
#
#
# Mechanical properties :
#
#
# Convention : Reuss Voigt Hill
#
# Bulk Modulus (GPa) = 22.59686 31.83631 27.21659
# Shear Modulus (GPa) = 6.52982 16.88439 11.70711
#
# Velocity S-wave (km/s) = 1.92745 3.09939 2.58082
# Velocity P-wave (km/s) = 4.22016 5.56069 4.93614
#
# Compressibility (1/GPa) = 0.04425394
#
# Stress axis : x y z
#
# Youngs Moduli (GPa) = 66.55753 11.38931 42.26626
#
# Poissons Ratio (x) = 0.13801 -0.19005
# Poissons Ratio (y) = 0.80651 1.41570
# Poissons Ratio (z) = -0.29927 0.38148
#
# Static dielectric constant tensor:
#      x y z
#    x 1.494130 0.000000 0.000000 
#    y 0.000000 1.595500 0.000000 
#    z 0.000000 0.000000 1.585530 
# 
# From -- ./inp_files/33440.got.cif
#   From: 2010.05.17/outbox.cif.g08.bks.cpg/sg51_17_cif.got.tgz:33440.got - 2010.06.03 11:52:47.
