data_PCOD9401378
_publ_section_title
;
Structure prediction by ZEFSAII (Michael W. Deem and Ramdas Pophale) SiO2 
 PCOD9401378
Probable space group: P M M A
;
_chemical_formula_sum "Si O2"
_cell_formula_units_Z 60
_cell_length_a 23.578113
_cell_length_b 25.121873
_cell_length_c 5.463615
_cell_angle_alpha 90.000000
_cell_angle_beta 90.000000
_cell_angle_gamma 90.000000
_cell_volume 3236.243187
_symmetry_space_group_name_H-M "P M M A"
_symmetry_group_IT_number 51
_symmetry_cell_setting 'orthorhombic'
loop_
_space_group_symop_operation_xyz
x,y,z
1/2-x,-y,z
1/2+x,-y,-z
-x,y,-z
-x,-y,-z
1/2+x,y,-z
1/2-x,y,z
x,-y,z
loop_
_atom_site_type_symbol
_atom_site_label
_atom_site_fract_x
_atom_site_fract_y
_atom_site_fract_z
Si Si1 0.818022 0.880854 0.551907
Si Si2 0.066122 0.255246 0.978184
Si Si3 0.369808 0.765760 0.497715
Si Si4 0.500000 0.398013 0.500000
Si Si5 0.819160 0.061908 0.051388
Si Si6 0.890254 0.440566 0.249318
Si Si7 0.317033 0.347915 0.503093
Si Si8 0.088910 0.635092 0.128404
O O1 0.750000 0.885332 0.553434
O O2 0.834490 0.819210 0.541124
O O3 0.838413 0.907957 0.804782
O O4 0.838051 0.910382 0.304156
O O5 0.096386 0.244198 0.241319
O O6 0.076036 0.318716 0.935434
O O7 0.091453 0.227181 0.738921
O O8 0.000000 0.243882 0.000000
O O9 0.331978 0.713579 0.562022
O O10 0.449976 0.432983 0.613970
O O11 0.463628 0.362234 0.314036
O O12 0.750000 0.063477 0.051217
O O13 0.835672 0.000000 0.045319
O O14 0.868211 0.500000 0.275610
O O15 0.846687 0.394434 0.335503
O O16 0.907389 0.424024 0.975831
O O17 0.250000 0.355305 0.493956
O O18 0.350375 0.354685 0.248121
#
# Coordination Sequence:
#
# PCOD9401378 Si02
#       8
#     8   8   8   4   8   8   8   8
#     4  10  19  32  52  81 118 159 197 236 274 334
#     4  11  22  37  59  84 115 146 187 240 302 357
#     4  11  22  38  58  86 115 154 195 236 287 348
#     4  10  21  36  60  84 110 134 172 236 301 364
#     4   9  17  30  50  79 118 160 196 234 284 330
#     4  11  22  38  57  82 108 139 185 238 295 354
#     4  10  23  41  56  77 109 150 190 233 286 345
#     4  10  22  37  58  84 107 142 182 235 296 363
#
# _framework density 18.540015
#
# number of rings (size 3 to 8) (size 9 to 14) (size 15 to 20)
#    0.000    1.733    1.333    3.400    3.733    5.600 
#    0.000    1.333    0.000    0.000    0.000    0.000 
#    0.000   37.333    0.000    0.000    0.000    0.000 
#
# Total GULP energy -334376.344021 kJ/mol
# GULP energy per Si atom -5572.939067 kJ/mol
# Density = 1.849782 g / cm^3
# Si number density = 18.540015 Si / 1000 Ang^3
#
#
#
# Elastic Constant Matrix: (Units=GPa)
#
#
# Indices 1 2 3 4 5 6 
#
# 1 93.2882 26.4245 43.9955 0.0000 0.0000 0.0000
# 2 26.4245 121.0174 42.3485 0.0000 0.0000 0.0000
# 3 43.9955 42.3485 99.3609 0.0000 0.0000 0.0000
# 4 0.0000 0.0000 0.0000 8.1800 0.0000 0.0000
# 5 0.0000 0.0000 0.0000 0.0000 9.9688 0.0000
# 6 0.0000 0.0000 0.0000 0.0000 0.0000 18.0523
#
#
#
# Elastic Compliance Matrix: (Units=1/GPa)
#
#
# Indices 1 2 3 4 5 6 
#
# 1 0.013655 -0.001018 -0.005612 0.000000 0.000000 0.000000
# 2 -0.001018 0.009788 -0.003721 0.000000 0.000000 0.000000
# 3 -0.005612 -0.003721 0.014135 0.000000 0.000000 0.000000
# 4 0.000000 0.000000 0.000000 0.122250 0.000000 0.000000
# 5 0.000000 0.000000 0.000000 0.000000 0.100313 0.000000
# 6 0.000000 0.000000 0.000000 0.000000 0.000000 0.055395
#
#
# Mechanical properties :
#
#
# Convention : Reuss Voigt Hill
#
# Bulk Modulus (GPa) = 59.25697 59.91150 59.58423
# Shear Modulus (GPa) = 14.62582 20.63342 17.62962
#
# Velocity S-wave (km/s) = 2.81174 3.33965 3.08700
# Velocity P-wave (km/s) = 6.52474 6.87429 6.70180
#
# Compressibility (1/GPa) = 0.01687565
#
# Stress axis : x y z
#
# Youngs Moduli (GPa) = 73.23584 102.17038 70.74487
#
# Poissons Ratio (x) = 0.10396 0.39704
# Poissons Ratio (y) = 0.07452 0.26324
# Poissons Ratio (z) = 0.41102 0.38018
#
# Static dielectric constant tensor:
#      x y z
#    x 1.604360 0.000000 0.000000 
#    y 0.000000 1.652760 0.000000 
#    z 0.000000 0.000000 1.741140 
# 
# From -- ./inp_files/2652.got.cif
#   From: 2010.05.17/outbox.cif.g08.bks.cpg/sg51_2_cif.got.tgz:2652.got - 2010.06.03 11:52:47.
