data_PCOD9401051
_publ_section_title
;
Structure prediction by ZEFSAII (Michael W. Deem and Ramdas Pophale) SiO2 
 PCOD9401051
Probable space group: P M M A
;
_chemical_formula_sum "Si O2"
_cell_formula_units_Z 44
_cell_length_a 34.368816
_cell_length_b 16.861764
_cell_length_c 5.105259
_cell_angle_alpha 90.000000
_cell_angle_beta 90.000000
_cell_angle_gamma 90.000000
_cell_volume 2958.593898
_symmetry_space_group_name_H-M "P M M A"
_symmetry_group_IT_number 51
_symmetry_cell_setting 'orthorhombic'
loop_
_space_group_symop_operation_xyz
x,y,z
1/2-x,-y,z
1/2+x,-y,-z
-x,y,-z
-x,-y,-z
1/2+x,y,-z
1/2-x,y,z
x,-y,z
loop_
_atom_site_type_symbol
_atom_site_label
_atom_site_fract_x
_atom_site_fract_y
_atom_site_fract_z
Si Si1 0.527707 0.500000 0.750773
Si Si2 0.044554 0.744332 0.606161
Si Si3 0.426512 0.342144 0.117243
Si Si4 0.156773 0.595452 0.950462
Si Si5 0.293926 0.404365 0.459160
Si Si6 0.972028 0.912990 0.248914
O O1 0.500000 0.500000 0.500000
O O2 0.554104 0.422007 0.769147
O O3 0.500000 0.500000 0.000000
O O4 0.070336 0.719121 0.357782
O O5 0.052618 0.834021 0.703098
O O6 0.000000 0.739284 0.500000
O O7 0.050781 0.688727 0.859189
O O8 0.383044 0.362036 0.026313
O O9 0.149378 0.500000 0.941049
O O10 0.175240 0.622274 0.676626
O O11 0.188903 0.610389 0.173212
O O12 0.250000 0.374015 0.493875
O O13 0.291966 0.500000 0.489467
O O14 0.000000 0.917592 0.500000
O O15 0.952908 0.000000 0.218451
O O16 0.000000 0.900023 0.000000
#
# Coordination Sequence:
#
# PCOD9401051 Si02
#       6
#     4   8   8   8   8   8
#     4  12  24  34  44  56  77 116 163 200 222 242
#     4  11  21  33  48  63  86 113 154 195 228 265
#     4  12  22  34  45  62  86 120 154 191 230 256
#     4  10  19  32  45  61  87 113 145 182 223 263
#     4   9  17  29  48  67  82 103 138 182 223 267
#     4   9  17  30  48  67  84 104 136 184 237 279
#
# _framework density 14.871931
#
# number of rings (size 3 to 8) (size 9 to 14) (size 15 to 20)
#    0.000    1.636    0.909    7.091    0.000    2.182 
#    0.000    0.000    0.000    0.000    0.000    0.000 
#    0.000    0.000    0.000    0.000    0.000   63.636 
#
# Total GULP energy -245432.573606 kJ/mol
# GULP energy per Si atom -5578.013036 kJ/mol
# Density = 1.483808 g / cm^3
# Si number density = 14.871931 Si / 1000 Ang^3
#
#
#
# Elastic Constant Matrix: (Units=GPa)
#
#
# Indices 1 2 3 4 5 6 
#
# 1 41.3496 20.4678 -5.2168 0.0000 0.0000 0.0000
# 2 20.4678 70.0679 17.4361 0.0000 0.0000 0.0000
# 3 -5.2168 17.4361 76.1964 0.0000 0.0000 0.0000
# 4 0.0000 0.0000 0.0000 14.8752 0.0000 0.0000
# 5 0.0000 0.0000 0.0000 0.0000 8.1658 0.0000
# 6 0.0000 0.0000 0.0000 0.0000 0.0000 4.0420
#
#
#
# Elastic Compliance Matrix: (Units=1/GPa)
#
#
# Indices 1 2 3 4 5 6 
#
# 1 0.029506 -0.009673 0.004234 0.000000 0.000000 0.000000
# 2 -0.009673 0.018305 -0.004851 0.000000 0.000000 0.000000
# 3 0.004234 -0.004851 0.014524 0.000000 0.000000 0.000000
# 4 0.000000 0.000000 0.000000 0.067226 0.000000 0.000000
# 5 0.000000 0.000000 0.000000 0.000000 0.122461 0.000000
# 6 0.000000 0.000000 0.000000 0.000000 0.000000 0.247403
#
#
# Mechanical properties :
#
#
# Convention : Reuss Voigt Hill
#
# Bulk Modulus (GPa) = 23.94953 28.10980 26.02967
# Shear Modulus (GPa) = 9.36464 15.74504 12.55484
#
# Velocity S-wave (km/s) = 2.51208 3.25731 2.90866
# Velocity P-wave (km/s) = 4.95508 5.75231 5.36851
#
# Compressibility (1/GPa) = 0.04175447
#
# Stress axis : x y z
#
# Youngs Moduli (GPa) = 33.89133 54.63136 68.85218
#
# Poissons Ratio (x) = 0.52843 -0.29149
# Poissons Ratio (y) = 0.32782 0.33399
# Poissons Ratio (z) = -0.14348 0.26501
#
# Static dielectric constant tensor:
#      x y z
#    x 1.476710 0.000000 0.000000 
#    y 0.000000 1.528750 0.000000 
#    z 0.000000 0.000000 1.505980 
# 
# From -- ./inp_files/3939.got.cif
#   From: 2010.05.17/outbox.cif.g08.bks.cpg/sg51_2_cif.got.tgz:3939.got - 2010.06.03 11:52:47.
