data_PCOD9401982
_publ_section_title
;
Structure prediction by ZEFSAII (Michael W. Deem and Ramdas Pophale) SiO2 
 PCOD9401982
Probable space group: P M M A
;
_chemical_formula_sum "Si O2"
_cell_formula_units_Z 48
_cell_length_a 8.774124
_cell_length_b 15.085739
_cell_length_c 19.690490
_cell_angle_alpha 90.000000
_cell_angle_beta 90.000000
_cell_angle_gamma 90.000000
_cell_volume 2606.314866
_symmetry_space_group_name_H-M "P M M A"
_symmetry_group_IT_number 51
_symmetry_cell_setting 'orthorhombic'
loop_
_space_group_symop_operation_xyz
x,y,z
1/2-x,-y,z
1/2+x,-y,-z
-x,y,-z
-x,-y,-z
1/2+x,y,-z
1/2-x,y,z
x,-y,z
loop_
_atom_site_type_symbol
_atom_site_label
_atom_site_fract_x
_atom_site_fract_y
_atom_site_fract_z
Si Si1 0.073749 0.362346 0.068348
Si Si2 0.930268 0.896358 0.221001
Si Si3 0.064015 0.406523 0.212874
Si Si4 0.065598 0.398074 0.424575
Si Si5 0.927592 0.851655 0.927241
Si Si6 0.065659 0.746166 0.312073
O O1 0.250000 0.386430 0.067067
O O2 0.005598 0.400337 0.136785
O O3 0.063476 0.255592 0.072027
O O4 0.000000 0.393712 0.000000
O O5 0.750000 0.878056 0.217039
O O6 0.998791 0.879254 0.144983
O O7 0.999630 0.837999 0.282829
O O8 0.954101 0.000000 0.235602
O O9 0.250000 0.403755 0.211921
O O10 0.020159 0.500000 0.244301
O O11 0.016761 0.321389 0.253059
O O12 0.250000 0.397585 0.425167
O O13 0.022273 0.500000 0.402705
O O14 0.020187 0.312790 0.378308
O O15 0.000000 0.387039 0.500000
O O16 0.750000 0.877511 0.926763
O O17 0.000000 0.881529 0.000000
O O18 0.250000 0.754694 0.314386
#
# Coordination Sequence:
#
# PCOD9401982 Si02
#       6
#     8   8   8   8   8   8
#     4   9  17  29  45  67  94 129 170 212 258 307
#     4  11  24  39  55  78 107 141 182 230 286 339
#     4   9  16  28  48  73 100 132 172 214 257 309
#     4   9  18  33  57  90 124 155 185 217 258 314
#     4  10  19  34  55  78 103 136 180 231 286 339
#     4  10  19  35  57  81 108 143 183 221 266 318
#
# _framework density 18.416809000000001
#
# number of rings (size 3 to 8) (size 9 to 14) (size 15 to 20)
#    0.000    2.333    1.667    1.500    0.000    5.333 
#    0.000    0.000    0.000    3.000    0.000    0.000 
#    0.000    0.000    0.000    0.000    0.000    0.000 
#
# Total GULP energy -267205.482393 kJ/mol
# GULP energy per Si atom -5566.780883 kJ/mol
# Density = 1.837489 g / cm^3
# Si number density = 18.416809 Si / 1000 Ang^3
#
#
#
# Elastic Constant Matrix: (Units=GPa)
#
#
# Indices 1 2 3 4 5 6 
#
# 1 44.1144 45.6662 41.8574 0.0000 0.0000 0.0000
# 2 45.6662 94.8930 57.4508 0.0000 0.0000 0.0000
# 3 41.8574 57.4508 136.5578 0.0000 0.0000 0.0000
# 4 0.0000 0.0000 0.0000 10.1746 0.0000 0.0000
# 5 0.0000 0.0000 0.0000 0.0000 26.4772 0.0000
# 6 0.0000 0.0000 0.0000 0.0000 0.0000 17.3507
#
#
#
# Elastic Compliance Matrix: (Units=1/GPa)
#
#
# Indices 1 2 3 4 5 6 
#
# 1 0.049618 -0.019684 -0.006928 0.000000 0.000000 0.000000
# 2 -0.019684 0.021948 -0.003200 0.000000 0.000000 0.000000
# 3 -0.006928 -0.003200 0.010793 0.000000 0.000000 0.000000
# 4 0.000000 0.000000 0.000000 0.098284 0.000000 0.000000
# 5 0.000000 0.000000 0.000000 0.000000 0.037768 0.000000
# 6 0.000000 0.000000 0.000000 0.000000 0.000000 0.057635
#
#
# Mechanical properties :
#
#
# Convention : Reuss Voigt Hill
#
# Bulk Modulus (GPa) = 43.98450 62.83490 53.40970
# Shear Modulus (GPa) = 14.56672 19.50655 17.03663
#
# Velocity S-wave (km/s) = 2.81543 3.25802 3.04478
# Velocity P-wave (km/s) = 5.87397 6.95307 6.43618
#
# Compressibility (1/GPa) = 0.02273528
#
# Stress axis : x y z
#
# Youngs Moduli (GPa) = 20.15403 45.56131 92.65457
#
# Poissons Ratio (x) = 0.89682 0.64187
# Poissons Ratio (y) = 0.39671 0.29653
# Poissons Ratio (z) = 0.13962 0.14581
#
# Static dielectric constant tensor:
#      x y z
#    x 1.635730 0.000000 0.000000 
#    y 0.000000 1.665640 0.000000 
#    z 0.000000 0.000000 1.656380 
# 
# From -- ./inp_files/31611.got.cif
#   From: 2010.05.17/outbox.cif.g08.bks.cpg/sg51_16_cif.got.tgz:31611.got - 2010.06.03 11:52:47.
