data_PCOD9401520
_publ_section_title
;
Structure prediction by ZEFSAII (Michael W. Deem and Ramdas Pophale) SiO2 
 PCOD9401520
Probable space group: P M M A
;
_chemical_formula_sum "Si O2"
_cell_formula_units_Z 52
_cell_length_a 14.376813
_cell_length_b 22.128957
_cell_length_c 7.001995
_cell_angle_alpha 90.000000
_cell_angle_beta 90.000000
_cell_angle_gamma 90.000000
_cell_volume 2227.641834
_symmetry_space_group_name_H-M "P M M A"
_symmetry_group_IT_number 51
_symmetry_cell_setting 'orthorhombic'
loop_
_space_group_symop_operation_xyz
x,y,z
1/2-x,-y,z
1/2+x,-y,-z
-x,y,-z
-x,-y,-z
1/2+x,y,-z
1/2-x,y,z
x,-y,z
loop_
_atom_site_type_symbol
_atom_site_label
_atom_site_fract_x
_atom_site_fract_y
_atom_site_fract_z
Si Si1 0.636564 0.655678 0.377047
Si Si2 0.000000 0.878849 0.500000
Si Si3 0.636218 0.567374 0.680633
Si Si4 0.391040 0.806398 0.956046
Si Si5 0.592103 0.933977 0.126725
Si Si6 0.357724 0.781744 0.503321
Si Si7 0.640202 0.325169 0.953322
O O1 0.750000 0.659282 0.369985
O O2 0.611481 0.592447 0.471024
O O3 0.611436 0.712143 0.513744
O O4 0.599801 0.665416 0.165396
O O5 0.053912 0.916453 0.661341
O O6 0.076320 0.832374 0.413190
O O7 0.750000 0.565513 0.687013
O O8 0.602624 0.500000 0.721569
O O9 0.604710 0.621109 0.820025
O O10 0.356028 0.875757 0.963014
O O11 0.367310 0.790688 0.734641
O O12 0.363483 0.747486 0.078746
O O13 0.500000 0.810649 0.000000
O O14 0.638172 0.000000 0.130648
O O15 0.500000 0.939731 0.000000
O O16 0.250000 0.789516 0.452333
O O17 0.750000 0.337124 0.961453
#
# Coordination Sequence:
#
# PCOD9401520 Si02
#       7
#     8   4   8   8   8   8   8
#     4   8  15  28  44  64  96 133 166 214 279 333
#     4  10  19  32  58  84 105 146 192 228 281 344
#     4   9  17  27  42  68  97 128 173 223 274 338
#     4   9  17  30  52  79 104 139 188 231 277 340
#     4   9  18  32  51  77 109 143 181 227 278 334
#     4   9  18  33  53  81 114 145 186 241 294 346
#     4   9  17  30  48  70  99 133 171 224 282 331
#
# _framework density 23.343070000000001
#
# number of rings (size 3 to 8) (size 9 to 14) (size 15 to 20)
#    0.000    3.077    0.000    1.615    0.000    4.308 
#    0.000    3.077    0.000   30.923    0.000   26.385 
#    0.000    0.000    0.000    0.000    0.000    0.000 
#
# Total GULP energy -289834.115579 kJ/mol
# GULP energy per Si atom -5573.732992 kJ/mol
# Density = 2.328994 g / cm^3
# Si number density = 23.343070 Si / 1000 Ang^3
#
#
#
# Elastic Constant Matrix: (Units=GPa)
#
#
# Indices 1 2 3 4 5 6 
#
# 1 86.8159 15.3912 -1.6931 0.0000 0.0000 0.0000
# 2 15.3912 231.1111 55.8663 0.0000 0.0000 0.0000
# 3 -1.6931 55.8663 62.7332 0.0000 0.0000 0.0000
# 4 0.0000 0.0000 0.0000 45.8313 0.0000 0.0000
# 5 0.0000 0.0000 0.0000 0.0000 9.9476 0.0000
# 6 0.0000 0.0000 0.0000 0.0000 0.0000 23.7931
#
#
#
# Elastic Compliance Matrix: (Units=1/GPa)
#
#
# Indices 1 2 3 4 5 6 
#
# 1 0.011738 -0.001094 0.001291 0.000000 0.000000 0.000000
# 2 -0.001094 0.005616 -0.005031 0.000000 0.000000 0.000000
# 3 0.001291 -0.005031 0.020455 0.000000 0.000000 0.000000
# 4 0.000000 0.000000 0.000000 0.021819 0.000000 0.000000
# 5 0.000000 0.000000 0.000000 0.000000 0.100527 0.000000
# 6 0.000000 0.000000 0.000000 0.000000 0.000000 0.042029
#
#
# Mechanical properties :
#
#
# Convention : Reuss Voigt Hill
#
# Bulk Modulus (GPa) = 35.53445 57.75435 46.64440
# Shear Modulus (GPa) = 22.60073 36.65411 29.62742
#
# Velocity S-wave (km/s) = 3.11496 3.96692 3.56647
# Velocity P-wave (km/s) = 5.30972 6.76588 6.08154
#
# Compressibility (1/GPa) = 0.02814171
#
# Stress axis : x y z
#
# Youngs Moduli (GPa) = 85.19562 178.06892 48.88709
#
# Poissons Ratio (x) = 0.19476 -0.06310
# Poissons Ratio (y) = 0.09318 0.24593
# Poissons Ratio (z) = -0.10997 0.89579
#
# Static dielectric constant tensor:
#      x y z
#    x 1.910180 0.000000 0.000000 
#    y 0.000000 1.913150 0.000000 
#    z 0.000000 0.000000 1.957180 
# 
# From -- ./inp_files/8459.got.cif
#   From: 2010.05.17/outbox.cif.g08.bks.cpg/sg51_5_cif.got.tgz:8459.got - 2010.06.03 11:52:47.
