data_PCOD9401979
_publ_section_title
;
Structure prediction by ZEFSAII (Michael W. Deem and Ramdas Pophale) SiO2 
 PCOD9401979
Probable space group: P M M A
;
_chemical_formula_sum "Si O2"
_cell_formula_units_Z 48
_cell_length_a 25.793699
_cell_length_b 7.949252
_cell_length_c 12.247468
_cell_angle_alpha 90.000000
_cell_angle_beta 90.000000
_cell_angle_gamma 90.000000
_cell_volume 2511.228351
_symmetry_space_group_name_H-M "P M M A"
_symmetry_group_IT_number 51
_symmetry_cell_setting 'orthorhombic'
loop_
_space_group_symop_operation_xyz
x,y,z
1/2-x,-y,z
1/2+x,-y,-z
-x,y,-z
-x,-y,-z
1/2+x,y,-z
1/2-x,y,z
x,-y,z
loop_
_atom_site_type_symbol
_atom_site_label
_atom_site_fract_x
_atom_site_fract_y
_atom_site_fract_z
Si Si1 0.690868 0.200451 0.367581
Si Si2 0.690775 0.296108 0.615222
Si Si3 0.504696 0.803604 0.623093
Si Si4 0.592037 0.302266 0.237966
Si Si5 0.899733 0.698625 0.769251
Si Si6 0.560286 0.294376 0.999402
O O1 0.750000 0.261763 0.351040
O O2 0.676406 0.240758 0.492868
O O3 0.648868 0.276793 0.286671
O O4 0.690446 0.000000 0.353935
O O5 0.750000 0.241316 0.636272
O O6 0.690054 0.500000 0.615921
O O7 0.649482 0.232030 0.703302
O O8 0.500000 0.735083 0.500000
O O9 0.450289 0.785531 0.685270
O O10 0.549372 0.718525 0.694568
O O11 0.518737 0.000000 0.614916
O O12 0.578971 0.500000 0.239477
O O13 0.586130 0.242586 0.113271
O O14 0.889975 0.500000 0.783356
O O15 0.912107 0.768241 0.889408
O O16 0.560800 0.500000 0.995721
O O17 0.500000 0.243351 0.000000
#
# Coordination Sequence:
#
# PCOD9401979 Si02
#       6
#     8   8   8   8   8   8
#     4  10  21  37  56  78 109 145 176 214 266 317
#     4   9  18  33  55  82 108 136 175 220 264 316
#     4  11  23  35  49  75 110 140 171 217 269 320
#     4  11  21  35  57  80 105 139 179 221 264 314
#     4  10  19  34  55  77 104 139 178 218 265 317
#     4   9  17  33  54  77 106 140 176 217 265 313
#
# _framework density 19.114152000000001
#
# number of rings (size 3 to 8) (size 9 to 14) (size 15 to 20)
#    0.000    2.000    1.667    2.500    0.000    5.667 
#    0.000    3.333    0.000    3.000    0.000    2.333 
#    0.000    0.000    0.000    0.000    0.000    0.000 
#
# Total GULP energy -268015.793428 kJ/mol
# GULP energy per Si atom -5583.662363 kJ/mol
# Density = 1.907065 g / cm^3
# Si number density = 19.114152 Si / 1000 Ang^3
#
#
#
# Elastic Constant Matrix: (Units=GPa)
#
#
# Indices 1 2 3 4 5 6 
#
# 1 104.1039 -7.0416 88.2396 0.0000 0.0000 0.0000
# 2 -7.0416 17.5241 -2.3609 0.0000 0.0000 0.0000
# 3 88.2396 -2.3609 183.2114 0.0000 0.0000 0.0000
# 4 0.0000 0.0000 0.0000 900.3008 0.0000 0.0000
# 5 0.0000 0.0000 0.0000 0.0000 21.4382 0.0000
# 6 0.0000 0.0000 0.0000 0.0000 0.0000 -47.6389
#
#
#
# Elastic Compliance Matrix: (Units=1/GPa)
#
#
# Indices 1 2 3 4 5 6 
#
# 1 0.016775 0.005662 -0.008006 0.000000 0.000000 0.000000
# 2 0.005662 0.059075 -0.001966 0.000000 0.000000 0.000000
# 3 -0.008006 -0.001966 0.009289 0.000000 0.000000 0.000000
# 4 0.000000 0.000000 0.000000 0.001111 0.000000 0.000000
# 5 0.000000 0.000000 0.000000 0.000000 0.046646 0.000000
# 6 0.000000 0.000000 0.000000 0.000000 0.000000 -0.020991
#
#
# Mechanical properties :
#
#
# Convention : Reuss Voigt Hill
#
# Bulk Modulus (GPa) = 13.06874 51.39039 32.22956
# Shear Modulus (GPa) = 34.23950 189.88683 112.06317
#
# Velocity S-wave (km/s) = 4.23699 9.97794 7.66522
# Velocity P-wave (km/s) = 5.54870 12.63685 9.75905
#
# Compressibility (1/GPa) = 0.07651846
#
# Stress axis : x y z
#
# Youngs Moduli (GPa) = 59.61239 16.92773 107.65507
#
# Poissons Ratio (x) = -0.09584 0.86192
# Poissons Ratio (y) = -0.33753 0.21162
# Poissons Ratio (z) = 0.47728 0.03328
#
# Static dielectric constant tensor:
#      x y z
#    x 1.645880 0.000000 0.000000 
#    y 0.000000 1.684120 0.000000 
#    z 0.000000 0.000000 1.656860 
# 
# From -- ./inp_files/18580.got.cif
#   From: 2010.05.17/outbox.cif.g08.bks.cpg/sg51_10_cif.got.tgz:18580.got - 2010.06.03 11:52:47.
