data_PCOD9401683
_publ_section_title
;
Structure prediction by ZEFSAII (Michael W. Deem and Ramdas Pophale) SiO2 
 PCOD9401683
Probable space group: P M M A
;
_chemical_formula_sum "Si O2"
_cell_formula_units_Z 64
_cell_length_a 31.704440
_cell_length_b 7.840953
_cell_length_c 12.666917
_cell_angle_alpha 90.000000
_cell_angle_beta 90.000000
_cell_angle_gamma 90.000000
_cell_volume 3148.907201
_symmetry_space_group_name_H-M "P M M A"
_symmetry_group_IT_number 51
_symmetry_cell_setting 'orthorhombic'
loop_
_space_group_symop_operation_xyz
x,y,z
1/2-x,-y,z
1/2+x,-y,-z
-x,y,-z
-x,-y,-z
1/2+x,y,-z
1/2-x,y,z
x,-y,z
loop_
_atom_site_type_symbol
_atom_site_label
_atom_site_fract_x
_atom_site_fract_y
_atom_site_fract_z
Si Si1 0.450955 0.293871 0.490493
Si Si2 0.128047 0.197549 0.096994
Si Si3 0.055937 0.701336 0.257401
Si Si4 0.701503 0.794047 0.518102
Si Si5 0.701769 0.703113 0.756972
Si Si6 0.384791 0.801378 0.867108
Si Si7 0.372767 0.794989 0.635001
Si Si8 0.980752 0.292945 0.114924
O O1 0.500000 0.239428 0.500000
O O2 0.451011 0.500000 0.494630
O O3 0.435409 0.232174 0.374782
O O4 0.417720 0.239440 0.579370
O O5 0.093122 0.277516 0.173461
O O6 0.171680 0.212584 0.158238
O O7 0.115738 0.000000 0.085992
O O8 0.129996 0.273809 0.979316
O O9 0.049088 0.500000 0.270722
O O10 0.013289 0.768426 0.203982
O O11 0.750000 0.734674 0.499508
O O12 0.688908 0.742909 0.636803
O O13 0.666098 0.731447 0.436665
O O14 0.702256 0.000000 0.513624
O O15 0.750000 0.760633 0.767937
O O16 0.699740 0.500000 0.771498
O O17 0.371099 0.726287 0.754612
O O18 0.435286 0.787433 0.871089
O O19 0.371633 0.000000 0.866414
O O20 0.368960 0.000000 0.640395
O O21 0.976613 0.500000 0.120745
O O22 0.000000 0.253617 0.000000
#
# Coordination Sequence:
#
# PCOD9401683 Si02
#       8
#     8   8   8   8   8   8   8   8
#     4  10  21  36  53  75 106 142 180 222 271 324
#     4  11  22  35  53  78 107 139 176 215 260 314
#     4  10  20  34  53  78 106 136 175 224 270 314
#     4   9  18  35  60  86 110 138 175 220 269 323
#     4  10  21  37  58  83 110 137 167 211 266 320
#     4  10  22  37  52  75 109 146 182 223 267 313
#     4  10  21  37  55  78 109 143 183 225 269 321
#     4  10  19  33  54  77 102 139 186 226 265 316
#
# _framework density 20.324511000000001
#
# number of rings (size 3 to 8) (size 9 to 14) (size 15 to 20)
#    0.000    2.000    1.250    2.250    0.000    6.750 
#    0.000    0.625    0.000    2.250    0.000    1.750 
#    0.000    0.000    0.000    0.000    0.000    0.000 
#
# Total GULP energy -357321.538343 kJ/mol
# GULP energy per Si atom -5583.149037 kJ/mol
# Density = 2.027825 g / cm^3
# Si number density = 20.324511 Si / 1000 Ang^3
#
#
#
# Elastic Constant Matrix: (Units=GPa)
#
#
# Indices 1 2 3 4 5 6 
#
# 1 81.6676 -6.2741 66.3642 0.0000 0.0000 0.0000
# 2 -6.2741 18.8171 -1.2580 0.0000 0.0000 0.0000
# 3 66.3642 -1.2580 171.0790 0.0000 0.0000 0.0000
# 4 0.0000 0.0000 0.0000 9.6475 0.0000 0.0000
# 5 0.0000 0.0000 0.0000 0.0000 37.6778 0.0000
# 6 0.0000 0.0000 0.0000 0.0000 0.0000 -36.8786
#
#
#
# Elastic Compliance Matrix: (Units=1/GPa)
#
#
# Indices 1 2 3 4 5 6 
#
# 1 0.018469 0.005682 -0.007123 0.000000 0.000000 0.000000
# 2 0.005682 0.054917 -0.001800 0.000000 0.000000 0.000000
# 3 -0.007123 -0.001800 0.008595 0.000000 0.000000 0.000000
# 4 0.000000 0.000000 0.000000 0.103654 0.000000 0.000000
# 5 0.000000 0.000000 0.000000 0.000000 0.026541 0.000000
# 6 0.000000 0.000000 0.000000 0.000000 0.000000 -0.027116
#
#
# Mechanical properties :
#
#
# Convention : Reuss Voigt Hill
#
# Bulk Modulus (GPa) = 13.24516 43.24755 28.24635
# Shear Modulus (GPa) = 23.07240 16.27145 19.67192
#
# Velocity S-wave (km/s) = 3.37293 2.83253 3.11447
# Velocity P-wave (km/s) = 4.65831 5.65883 5.18277
#
# Compressibility (1/GPa) = 0.07549928
#
# Stress axis : x y z
#
# Youngs Moduli (GPa) = 54.14383 18.20925 116.34613
#
# Poissons Ratio (x) = -0.10346 0.82871
# Poissons Ratio (y) = -0.30764 0.20945
# Poissons Ratio (z) = 0.38565 0.03278
#
# Static dielectric constant tensor:
#      x y z
#    x 1.697160 0.000000 0.000000 
#    y 0.000000 1.750340 0.000000 
#    z 0.000000 0.000000 1.754410 
# 
# From -- ./inp_files/19561.got.cif
#   From: 2010.05.17/outbox.cif.g08.bks.cpg/sg51_10_cif.got.tgz:19561.got - 2010.06.03 11:52:47.
