data_PCOD9401154
_publ_section_title
;
Structure prediction by ZEFSAII (Michael W. Deem and Ramdas Pophale) SiO2 
 PCOD9401154
Probable space group: P M M A
;
_chemical_formula_sum "Si O2"
_cell_formula_units_Z 40
_cell_length_a 17.385449
_cell_length_b 12.776296
_cell_length_c 7.147906
_cell_angle_alpha 90.000000
_cell_angle_beta 90.000000
_cell_angle_gamma 90.000000
_cell_volume 1587.704621
_symmetry_space_group_name_H-M "P M M A"
_symmetry_group_IT_number 51
_symmetry_cell_setting 'orthorhombic'
loop_
_space_group_symop_operation_xyz
x,y,z
1/2-x,-y,z
1/2+x,-y,-z
-x,y,-z
-x,-y,-z
1/2+x,y,-z
1/2-x,y,z
x,-y,z
loop_
_atom_site_type_symbol
_atom_site_label
_atom_site_fract_x
_atom_site_fract_y
_atom_site_fract_z
Si Si1 0.164338 0.116875 0.465394
Si Si2 0.165455 0.624155 0.155265
Si Si3 0.497563 0.344065 0.791892
Si Si4 0.982717 0.113976 0.723094
Si Si5 0.836870 0.319750 0.272295
O O1 0.250000 0.119025 0.394629
O O2 0.108860 0.124905 0.287888
O O3 0.158090 0.209525 0.616606
O O4 0.150753 0.000000 0.548990
O O5 0.250000 0.648309 0.241195
O O6 0.166071 0.500000 0.113597
O O7 0.086435 0.642404 0.271156
O O8 0.161628 0.683420 0.955491
O O9 0.484978 0.218917 0.806093
O O10 0.419018 0.378248 0.689582
O O11 0.500000 0.388893 0.000000
O O12 0.000000 0.117129 0.500000
O O13 0.005320 0.000000 0.794564
O O14 0.750000 0.362898 0.314792
#
# Coordination Sequence:
#
# PCOD9401154 Si02
#       5
#     8   8   8   8   8
#     4   9  17  30  50  74 102 140 181 219 261 309
#     4   9  19  36  56  76 101 136 175 218 273 328
#     4  10  20  32  52  80 106 139 178 222 263 310
#     4  10  19  32  50  73 107 145 180 211 253 310
#     4   9  17  30  49  75 103 134 174 216 258 312
#
# _framework density 25.193601999999998
#
# number of rings (size 3 to 8) (size 9 to 14) (size 15 to 20)
#    0.000    2.600    2.000    0.000    0.000    4.800 
#    0.000    3.000    0.000    3.000    0.000    2.800 
#    0.000    0.000    0.000    0.000    0.000    0.000 
#
# Total GULP energy -222708.199760 kJ/mol
# GULP energy per Si atom -5567.704994 kJ/mol
# Density = 2.513626 g / cm^3
# Si number density = 25.193602 Si / 1000 Ang^3
#
#
#
# Elastic Constant Matrix: (Units=GPa)
#
#
# Indices 1 2 3 4 5 6 
#
# 1 232.5639 6.7044 -14.9256 0.0000 0.0000 0.0000
# 2 6.7044 159.3949 15.2918 0.0000 0.0000 0.0000
# 3 -14.9256 15.2918 78.2518 0.0000 0.0000 0.0000
# 4 0.0000 0.0000 0.0000 0.4871 0.0000 0.0000
# 5 0.0000 0.0000 0.0000 0.0000 0.4065 0.0000
# 6 0.0000 0.0000 0.0000 0.0000 0.0000 101.1901
#
#
#
# Elastic Compliance Matrix: (Units=1/GPa)
#
#
# Indices 1 2 3 4 5 6 
#
# 1 0.004364 -0.000268 0.000885 0.000000 0.000000 0.000000
# 2 -0.000268 0.006410 -0.001304 0.000000 0.000000 0.000000
# 3 0.000885 -0.001304 0.013203 0.000000 0.000000 0.000000
# 4 0.000000 0.000000 0.000000 2.052877 0.000000 0.000000
# 5 0.000000 0.000000 0.000000 0.000000 2.460189 0.000000
# 6 0.000000 0.000000 0.000000 0.000000 0.000000 0.009882
#
#
# Mechanical properties :
#
#
# Convention : Reuss Voigt Hill
#
# Bulk Modulus (GPa) = 44.24275 53.81686 49.02981
# Shear Modulus (GPa) = 1.09749 51.29274 26.19512
#
# Velocity S-wave (km/s) = 0.66073 4.51704 3.22802
# Velocity P-wave (km/s) = 4.26396 6.97227 5.77901
#
# Compressibility (1/GPa) = 0.02260257
#
# Stress axis : x y z
#
# Youngs Moduli (GPa) = 229.12513 156.00361 75.74128
#
# Poissons Ratio (x) = 0.04188 -0.06703
# Poissons Ratio (y) = 0.06151 0.09876
# Poissons Ratio (z) = -0.20276 0.20341
#
# Static dielectric constant tensor:
#      x y z
#    x 2.245270 0.000000 0.000000 
#    y 0.000000 2.022280 0.000000 
#    z 0.000000 0.000000 1.912440 
# 
# From -- ./inp_files/9277.got.cif
#   From: 2010.05.17/outbox.cif.g08.bks.cpg/sg51_5_cif.got.tgz:9277.got - 2010.06.03 11:52:47.
