data_PCOD9401293
_publ_section_title
;
Structure prediction by ZEFSAII (Michael W. Deem and Ramdas Pophale) SiO2 
 PCOD9401293
Probable space group: P M M A
;
_chemical_formula_sum "Si O2"
_cell_formula_units_Z 40
_cell_length_a 8.376746
_cell_length_b 26.928330
_cell_length_c 10.020357
_cell_angle_alpha 90.000000
_cell_angle_beta 90.000000
_cell_angle_gamma 90.000000
_cell_volume 2260.309771
_symmetry_space_group_name_H-M "P M M A"
_symmetry_group_IT_number 51
_symmetry_cell_setting 'orthorhombic'
loop_
_space_group_symop_operation_xyz
x,y,z
1/2-x,-y,z
1/2+x,-y,-z
-x,y,-z
-x,-y,-z
1/2+x,y,-z
1/2-x,y,z
x,-y,z
loop_
_atom_site_type_symbol
_atom_site_label
_atom_site_fract_x
_atom_site_fract_y
_atom_site_fract_z
Si Si1 0.442974 0.443666 0.350149
Si Si2 0.443361 0.357515 0.152658
Si Si3 0.557567 0.248991 0.847004
Si Si4 0.941348 0.859452 0.847497
Si Si5 0.940922 0.943558 0.351282
O O1 0.500000 0.432825 0.500000
O O2 0.250000 0.443139 0.349460
O O3 0.494968 0.500000 0.316246
O O4 0.499916 0.402348 0.245839
O O5 0.250000 0.358239 0.151531
O O6 0.495164 0.302868 0.206253
O O7 0.500000 0.362883 0.000000
O O8 0.750000 0.248942 0.843443
O O9 0.504235 0.195156 0.793930
O O10 0.500000 0.249092 0.000000
O O11 0.750000 0.859896 0.849121
O O12 0.000638 0.903768 0.755325
O O13 0.000000 0.864757 0.000000
O O14 0.750000 0.943729 0.351567
O O15 0.000000 0.931107 0.500000
O O16 0.996824 0.000000 0.321033
#
# Coordination Sequence:
#
# PCOD9401293 Si02
#       5
#     8   8   8   8   8
#     4   9  18  32  48  66  91 124 159 195 236 281
#     4   9  17  30  48  70  96 123 155 195 236 280
#     4   8  15  28  46  68  95 126 156 190 234 280
#     4  10  19  32  52  76 101 129 163 201 240 284
#     4  10  21  37  55  74  98 129 163 199 242 290
#
# _framework density 17.696688999999999
#
# number of rings (size 3 to 8) (size 9 to 14) (size 15 to 20)
#    0.000    2.800    0.000    1.200    0.000    3.600 
#    0.000    1.000    0.000    2.400    0.000    0.000 
#    0.000    0.000    0.000    0.000    0.000    0.000 
#
# Total GULP energy -222754.722470 kJ/mol
# GULP energy per Si atom -5568.868062 kJ/mol
# Density = 1.765641 g / cm^3
# Si number density = 17.696689 Si / 1000 Ang^3
#
#
#
# Elastic Constant Matrix: (Units=GPa)
#
#
# Indices 1 2 3 4 5 6 
#
# 1 17.5565 27.1564 15.7561 0.0000 0.0000 0.0000
# 2 27.1564 192.8556 107.4958 0.0000 0.0000 0.0000
# 3 15.7561 107.4958 84.0969 0.0000 0.0000 0.0000
# 4 0.0000 0.0000 0.0000 -17.3385 0.0000 0.0000
# 5 0.0000 0.0000 0.0000 0.0000 27.6416 0.0000
# 6 0.0000 0.0000 0.0000 0.0000 0.0000 -49.9495
#
#
#
# Elastic Compliance Matrix: (Units=1/GPa)
#
#
# Indices 1 2 3 4 5 6 
#
# 1 0.072904 -0.009225 -0.001868 0.000000 0.000000 0.000000
# 2 -0.009225 0.019201 -0.022816 0.000000 0.000000 0.000000
# 3 -0.001868 -0.022816 0.041405 0.000000 0.000000 0.000000
# 4 0.000000 0.000000 0.000000 -0.057675 0.000000 0.000000
# 5 0.000000 0.000000 0.000000 0.000000 0.036177 0.000000
# 6 0.000000 0.000000 0.000000 0.000000 0.000000 -0.020020
#
#
# Mechanical properties :
#
#
# Convention : Reuss Voigt Hill
#
# Bulk Modulus (GPa) = 15.22202 66.14728 40.68465
# Shear Modulus (GPa) = 27.51696 1.67744 14.59720
#
# Velocity S-wave (km/s) = 3.94753 0.97465 2.87514
# Velocity P-wave (km/s) = 5.42195 6.22303 5.83625
#
# Compressibility (1/GPa) = 0.06569428
#
# Stress axis : x y z
#
# Youngs Moduli (GPa) = 13.71664 52.07959 24.15186
#
# Poissons Ratio (x) = 0.48043 0.04510
# Poissons Ratio (y) = 0.12653 0.55104
# Poissons Ratio (z) = 0.02562 1.18823
#
# Static dielectric constant tensor:
#      x y z
#    x 1.610540 0.000000 0.000000 
#    y 0.000000 1.666890 0.000000 
#    z 0.000000 0.000000 1.544670 
# 
# From -- ./inp_files/5209.got.cif
#   From: 2010.05.17/outbox.cif.g08.bks.cpg/sg51_3_cif.got.tgz:5209.got - 2010.06.03 11:52:47.
