data_PCOD9401457
_publ_section_title
;
Structure prediction by ZEFSAII (Michael W. Deem and Ramdas Pophale) SiO2 
 PCOD9401457
Probable space group: P M M A
;
_chemical_formula_sum "Si O2"
_cell_formula_units_Z 64
_cell_length_a 8.902336
_cell_length_b 15.543083
_cell_length_c 25.459951
_cell_angle_alpha 90.000000
_cell_angle_beta 90.000000
_cell_angle_gamma 90.000000
_cell_volume 3522.886987
_symmetry_space_group_name_H-M "P M M A"
_symmetry_group_IT_number 51
_symmetry_cell_setting 'orthorhombic'
loop_
_space_group_symop_operation_xyz
x,y,z
1/2-x,-y,z
1/2+x,-y,-z
-x,y,-z
-x,-y,-z
1/2+x,y,-z
1/2-x,y,z
x,-y,z
loop_
_atom_site_type_symbol
_atom_site_label
_atom_site_fract_x
_atom_site_fract_y
_atom_site_fract_z
Si Si1 0.931241 0.775593 0.650411
Si Si2 0.424941 0.347222 0.792496
Si Si3 0.068799 0.900914 0.443154
Si Si4 0.572527 0.097349 0.136625
Si Si5 0.071616 0.228103 0.054904
Si Si6 0.427218 0.828139 0.233592
Si Si7 0.071669 0.404691 0.909802
Si Si8 0.071384 0.405556 0.675381
O O1 0.750000 0.770507 0.650377
O O2 0.979796 0.833607 0.601356
O O3 0.974497 0.821182 0.705519
O O4 0.994928 0.678818 0.651213
O O5 0.250000 0.317068 0.791931
O O6 0.534480 0.266018 0.789686
O O7 0.445880 0.397492 0.846551
O O8 0.448352 0.398761 0.738612
O O9 0.250000 0.897269 0.446517
O O10 0.000000 0.881361 0.500000
O O11 0.028199 0.000000 0.429653
O O12 0.750000 0.114261 0.133980
O O13 0.488109 0.166421 0.100843
O O14 0.516660 0.107720 0.196369
O O15 0.543356 0.000000 0.118584
O O16 0.250000 0.225249 0.052456
O O17 0.016349 0.325279 0.065745
O O18 0.000000 0.199313 0.000000
O O19 0.250000 0.845621 0.230978
O O20 0.250000 0.394668 0.920777
O O21 0.024171 0.500000 0.927077
O O22 0.250000 0.400767 0.665548
O O23 0.016970 0.500000 0.657870
#
# Coordination Sequence:
#
# PCOD9401457 Si02
#       8
#     8   8   8   8   8   8   8   8
#     4   9  19  33  51  79 114 149 184 223 274 328
#     4   9  16  29  51  76 109 147 182 219 263 317
#     4   9  18  34  55  78 106 142 184 231 280 329
#     4  11  24  42  63  86 113 145 181 224 275 331
#     4  12  26  44  65  85 110 143 181 229 279 330
#     4  10  19  32  53  82 115 148 181 218 267 325
#     4  10  20  35  58  86 115 148 184 223 271 326
#     4   9  17  29  47  75 110 148 188 226 266 314
#
# _framework density 18.166919
#
# number of rings (size 3 to 8) (size 9 to 14) (size 15 to 20)
#    0.000    2.125    1.250    2.250    0.000    5.000 
#    0.000    1.250    0.000    4.125    0.000    0.000 
#    0.000    0.000    0.000    0.000    0.000    0.000 
#
# Total GULP energy -357147.165392 kJ/mol
# GULP energy per Si atom -5580.424459 kJ/mol
# Density = 1.812557 g / cm^3
# Si number density = 18.166919 Si / 1000 Ang^3
#
#
#
# Elastic Constant Matrix: (Units=GPa)
#
#
# Indices 1 2 3 4 5 6 
#
# 1 53.8855 47.3246 35.0058 0.0000 0.0000 0.0000
# 2 47.3246 106.3410 63.2826 0.0000 0.0000 0.0000
# 3 35.0058 63.2826 98.6834 0.0000 0.0000 0.0000
# 4 0.0000 0.0000 0.0000 2.6857 0.0000 0.0000
# 5 0.0000 0.0000 0.0000 0.0000 25.8360 0.0000
# 6 0.0000 0.0000 0.0000 0.0000 0.0000 2.3020
#
#
#
# Elastic Compliance Matrix: (Units=1/GPa)
#
#
# Indices 1 2 3 4 5 6 
#
# 1 0.031194 -0.011800 -0.003498 0.000000 0.000000 0.000000
# 2 -0.011800 0.019671 -0.008428 0.000000 0.000000 0.000000
# 3 -0.003498 -0.008428 0.016779 0.000000 0.000000 0.000000
# 4 0.000000 0.000000 0.000000 0.372340 0.000000 0.000000
# 5 0.000000 0.000000 0.000000 0.000000 0.038706 0.000000
# 6 0.000000 0.000000 0.000000 0.000000 0.000000 0.434410
#
#
# Mechanical properties :
#
#
# Convention : Reuss Voigt Hill
#
# Bulk Modulus (GPa) = 49.52916 61.12622 55.32769
# Shear Modulus (GPa) = 5.16911 13.71786 9.44349
#
# Velocity S-wave (km/s) = 1.68864 2.75089 2.28242
# Velocity P-wave (km/s) = 5.57894 6.61891 6.12105
#
# Compressibility (1/GPa) = 0.02019013
#
# Stress axis : x y z
#
# Youngs Moduli (GPa) = 32.05743 50.83664 59.59774
#
# Poissons Ratio (x) = 0.59989 0.20848
# Poissons Ratio (y) = 0.37829 0.50231
# Poissons Ratio (z) = 0.11214 0.42847
#
# Static dielectric constant tensor:
#      x y z
#    x 1.608450 0.000000 0.000000 
#    y 0.000000 1.628620 0.000000 
#    z 0.000000 0.000000 1.621900 
# 
# From -- ./inp_files/34933.got.cif
#   From: 2010.05.17/outbox.cif.g08.bks.cpg/sg51_18_cif.got.tgz:34933.got - 2010.06.03 11:52:47.
