data_PCOD9401463
_publ_section_title
;
Structure prediction by ZEFSAII (Michael W. Deem and Ramdas Pophale) SiO2 
 PCOD9401463
Probable space group: P M M A
;
_chemical_formula_sum "Si O2"
_cell_formula_units_Z 64
_cell_length_a 16.244291
_cell_length_b 19.300212
_cell_length_c 11.453761
_cell_angle_alpha 90.000000
_cell_angle_beta 90.000000
_cell_angle_gamma 90.000000
_cell_volume 3590.963220
_symmetry_space_group_name_H-M "P M M A"
_symmetry_group_IT_number 51
_symmetry_cell_setting 'orthorhombic'
loop_
_space_group_symop_operation_xyz
x,y,z
1/2-x,-y,z
1/2+x,-y,-z
-x,y,-z
-x,-y,-z
1/2+x,y,-z
1/2-x,y,z
x,-y,z
loop_
_atom_site_type_symbol
_atom_site_label
_atom_site_fract_x
_atom_site_fract_y
_atom_site_fract_z
Si Si1 0.651491 0.421665 0.787520
Si Si2 0.657481 0.921117 0.751636
Si Si3 0.151294 0.305500 0.022700
Si Si4 0.098629 0.076262 0.513417
Si Si5 0.415499 0.280593 0.770854
Si Si6 0.446293 0.338429 0.393646
Si Si7 0.962371 0.820550 0.883348
Si Si8 0.156116 0.228395 0.541442
O O1 0.750000 0.423768 0.782031
O O2 0.620087 0.500000 0.801739
O O3 0.619079 0.387703 0.667862
O O4 0.631665 0.372109 0.897453
O O5 0.750000 0.895234 0.772619
O O6 0.639900 0.923405 0.614086
O O7 0.590687 0.872978 0.809710
O O8 0.651755 0.000000 0.795107
O O9 0.250000 0.292386 0.028522
O O10 0.123520 0.312535 0.887671
O O11 0.097303 0.242548 0.075896
O O12 0.128391 0.149228 0.564504
O O13 0.000000 0.079359 0.500000
O O14 0.118042 0.000000 0.567583
O O15 0.489143 0.321917 0.708793
O O16 0.461593 0.210647 0.811544
O O17 0.352601 0.266401 0.665980
O O18 0.500000 0.368640 0.500000
O O19 0.402441 0.269488 0.449018
O O20 0.000000 0.853095 0.000000
O O21 0.250000 0.229666 0.499293
#
# Coordination Sequence:
#
# PCOD9401463 Si02
#       8
#     8   8   8   8   8   8   8   8
#     4  10  21  37  58  85 114 144 182 227 273 325
#     4  10  20  33  49  73 104 136 176 225 269 318
#     4  10  20  35  57  80 106 141 180 223 274 321
#     4  10  20  33  50  74 106 142 181 226 276 325
#     4  10  20  35  52  79 110 135 179 228 268 320
#     4  10  20  35  56  80 111 147 183 224 265 328
#     4  10  19  32  54  75 100 134 178 222 268 323
#     4  11  21  33  54  80 110 146 184 226 276 327
#
# _framework density 17.822516
#
# number of rings (size 3 to 8) (size 9 to 14) (size 15 to 20)
#    0.000    1.875    1.250    4.125    0.000    1.250 
#    0.000    1.250    0.000    1.500    0.000    7.000 
#    0.000    0.000    0.000    0.000    0.000    0.000 
#
# Total GULP energy -356720.687178 kJ/mol
# GULP energy per Si atom -5573.760737 kJ/mol
# Density = 1.778195 g / cm^3
# Si number density = 17.822516 Si / 1000 Ang^3
#
#
#
# Elastic Constant Matrix: (Units=GPa)
#
#
# Indices 1 2 3 4 5 6 
#
# 1 63.6225 18.6797 14.6074 0.0000 0.0000 0.0000
# 2 18.6797 70.3970 33.1225 0.0000 0.0000 0.0000
# 3 14.6074 33.1225 71.6691 0.0000 0.0000 0.0000
# 4 0.0000 0.0000 0.0000 10.0014 0.0000 0.0000
# 5 0.0000 0.0000 0.0000 0.0000 30.9446 0.0000
# 6 0.0000 0.0000 0.0000 0.0000 0.0000 28.4802
#
#
#
# Elastic Compliance Matrix: (Units=1/GPa)
#
#
# Indices 1 2 3 4 5 6 
#
# 1 0.017223 -0.003729 -0.001787 0.000000 0.000000 0.000000
# 2 -0.003729 0.018960 -0.008002 0.000000 0.000000 0.000000
# 3 -0.001787 -0.008002 0.018016 0.000000 0.000000 0.000000
# 4 0.000000 0.000000 0.000000 0.099986 0.000000 0.000000
# 5 0.000000 0.000000 0.000000 0.000000 0.032316 0.000000
# 6 0.000000 0.000000 0.000000 0.000000 0.000000 0.035112
#
#
# Mechanical properties :
#
#
# Convention : Reuss Voigt Hill
#
# Bulk Modulus (GPa) = 36.81704 37.61200 37.21452
# Shear Modulus (GPa) = 19.40216 23.17051 21.28633
#
# Velocity S-wave (km/s) = 3.30302 3.60956 3.45969
# Velocity P-wave (km/s) = 5.93709 6.20656 6.07332
#
# Compressibility (1/GPa) = 0.02716133
#
# Stress axis : x y z
#
# Youngs Moduli (GPa) = 58.06224 52.74279 55.50758
#
# Poissons Ratio (x) = 0.19670 0.09918
# Poissons Ratio (y) = 0.21654 0.44419
# Poissons Ratio (z) = 0.10374 0.42207
#
# Static dielectric constant tensor:
#      x y z
#    x 1.621980 0.000000 0.000000 
#    y 0.000000 1.621330 0.000000 
#    z 0.000000 0.000000 1.614540 
# 
# From -- ./inp_files/16826.got.cif
#   From: 2010.05.17/outbox.cif.g08.bks.cpg/sg51_9_cif.got.tgz:16826.got - 2010.06.03 11:52:47.
