data_PCOD9401706
_publ_section_title
;
Structure prediction by ZEFSAII (Michael W. Deem and Ramdas Pophale) SiO2 
 PCOD9401706
Probable space group: P M M A
;
_chemical_formula_sum "Si O2"
_cell_formula_units_Z 40
_cell_length_a 26.506050
_cell_length_b 9.581233
_cell_length_c 7.520603
_cell_angle_alpha 90.000000
_cell_angle_beta 90.000000
_cell_angle_gamma 90.000000
_cell_volume 1909.937158
_symmetry_space_group_name_H-M "P M M A"
_symmetry_group_IT_number 51
_symmetry_cell_setting 'orthorhombic'
loop_
_space_group_symop_operation_xyz
x,y,z
1/2-x,-y,z
1/2+x,-y,-z
-x,y,-z
-x,-y,-z
1/2+x,y,-z
1/2-x,y,z
x,-y,z
loop_
_atom_site_type_symbol
_atom_site_label
_atom_site_fract_x
_atom_site_fract_y
_atom_site_fract_z
Si Si1 0.653769 0.157084 0.618617
Si Si2 0.250000 0.832363 0.939812
Si Si3 0.750000 0.666872 0.698268
Si Si4 0.548012 0.660354 0.254673
Si Si5 0.138748 0.154212 0.798899
Si Si6 0.063473 0.337774 0.313495
O O1 0.700775 0.261297 0.616614
O O2 0.637462 0.143400 0.414684
O O3 0.609008 0.232749 0.724795
O O4 0.666212 0.000000 0.683373
O O5 0.303606 0.805530 0.844002
O O6 0.250000 0.000000 0.980639
O O7 0.250000 0.727277 0.103239
O O8 0.750000 0.500000 0.686152
O O9 0.550548 0.500000 0.198522
O O10 0.592507 0.744101 0.159793
O O11 0.490118 0.707353 0.231585
O O12 0.556652 0.662307 0.470079
O O13 0.129933 0.000000 0.875224
O O14 0.073955 0.500000 0.265856
#
# Coordination Sequence:
#
# PCOD9401706 Si02
#       6
#     8   4   4   8   8   8
#     4  10  19  33  54  79 104 132 166 206 249 296
#     4  10  21  38  54  70  98 134 167 208 256 300
#     4  12  25  38  52  72  98 132 171 210 252 302
#     4   8  14  25  44  71 105 137 164 198 243 290
#     4   9  18  32  53  78 103 131 167 207 249 297
#     4   8  14  26  44  71 105 137 165 198 241 290
#
# _framework density 20.943097999999999
#
# number of rings (size 3 to 8) (size 9 to 14) (size 15 to 20)
#    0.000    2.800    0.000    3.300    0.000    4.000 
#    0.000    5.000    0.000    1.200    0.000    8.400 
#    0.000    0.000    0.000    0.000    0.000    0.000 
#
# Total GULP energy -223009.772268 kJ/mol
# GULP energy per Si atom -5575.244307 kJ/mol
# Density = 2.089543 g / cm^3
# Si number density = 20.943098 Si / 1000 Ang^3
#
#
#
# Elastic Constant Matrix: (Units=GPa)
#
#
# Indices 1 2 3 4 5 6 
#
# 1 122.4507 73.4824 -20.5744 0.0000 0.0000 0.0000
# 2 73.4824 118.1101 1.5737 0.0000 0.0000 0.0000
# 3 -20.5744 1.5737 21.2154 0.0000 0.0000 0.0000
# 4 0.0000 0.0000 0.0000 11.4110 0.0000 0.0000
# 5 0.0000 0.0000 0.0000 0.0000 -19.8413 0.0000
# 6 0.0000 0.0000 0.0000 0.0000 0.0000 41.8095
#
#
#
# Elastic Compliance Matrix: (Units=1/GPa)
#
#
# Indices 1 2 3 4 5 6 
#
# 1 0.018243 -0.011597 0.018552 0.000000 0.000000 0.000000
# 2 -0.011597 0.015847 -0.012422 0.000000 0.000000 0.000000
# 3 0.018552 -0.012422 0.066049 0.000000 0.000000 0.000000
# 4 0.000000 0.000000 0.000000 0.087635 0.000000 0.000000
# 5 0.000000 0.000000 0.000000 0.000000 -0.050400 0.000000
# 6 0.000000 0.000000 0.000000 0.000000 0.000000 0.023918
#
#
# Mechanical properties :
#
#
# Convention : Reuss Voigt Hill
#
# Bulk Modulus (GPa) = 11.21016 41.19328 26.20172
# Shear Modulus (GPa) = 24.75716 20.49547 22.62631
#
# Velocity S-wave (km/s) = 3.44192 3.13169 3.29047
# Velocity P-wave (km/s) = 4.60001 5.72613 5.19368
#
# Compressibility (1/GPa) = 0.08920478
#
# Stress axis : x y z
#
# Youngs Moduli (GPa) = 54.81503 63.10183 15.14033
#
# Poissons Ratio (x) = 0.73180 -0.28089
# Poissons Ratio (y) = 0.63570 0.18808
# Poissons Ratio (z) = -1.01694 0.78387
#
# Static dielectric constant tensor:
#      x y z
#    x 1.847100 0.000000 0.000000 
#    y 0.000000 1.740800 0.000000 
#    z 0.000000 0.000000 1.821660 
# 
# From -- ./inp_files/12217.got.cif
#   From: 2010.05.17/outbox.cif.g08.bks.cpg/sg51_7_cif.got.tgz:12217.got - 2010.06.03 11:52:47.
