data_PCOD9401552
_publ_section_title
;
Structure prediction by ZEFSAII (Michael W. Deem and Ramdas Pophale) SiO2 
 PCOD9401552
Probable space group: P M M A
;
_chemical_formula_sum "Si O2"
_cell_formula_units_Z 64
_cell_length_a 31.252504
_cell_length_b 8.196835
_cell_length_c 14.999427
_cell_angle_alpha 90.000000
_cell_angle_beta 90.000000
_cell_angle_gamma 90.000000
_cell_volume 3842.427493
_symmetry_space_group_name_H-M "P M M A"
_symmetry_group_IT_number 51
_symmetry_cell_setting 'orthorhombic'
loop_
_space_group_symop_operation_xyz
x,y,z
1/2-x,-y,z
1/2+x,-y,-z
-x,y,-z
-x,-y,-z
1/2+x,y,-z
1/2-x,y,z
x,-y,z
loop_
_atom_site_type_symbol
_atom_site_label
_atom_site_fract_x
_atom_site_fract_y
_atom_site_fract_z
Si Si1 0.798698 0.694955 0.857147
Si Si2 0.544134 0.301907 0.050847
Si Si3 0.617541 0.812267 0.564918
Si Si4 0.298608 0.197759 0.346797
Si Si5 0.425513 0.312085 0.263437
Si Si6 0.885535 0.809948 0.914955
Si Si7 0.041591 0.694814 0.555454
Si Si8 0.525887 0.696908 0.248379
O O1 0.750000 0.749174 0.876309
O O2 0.800582 0.500000 0.865066
O O3 0.807421 0.740678 0.753558
O O4 0.835157 0.772268 0.918614
O O5 0.544935 0.500000 0.049479
O O6 0.543151 0.243640 0.153368
O O7 0.500000 0.253613 0.000000
O O8 0.585352 0.238246 0.998401
O O9 0.665068 0.744649 0.584481
O O10 0.595299 0.799205 0.661679
O O11 0.585158 0.727225 0.497356
O O12 0.621249 0.000000 0.537379
O O13 0.250000 0.245577 0.369698
O O14 0.300731 0.000000 0.343977
O O15 0.422069 0.500000 0.294369
O O16 0.402826 0.291737 0.169149
O O17 0.475152 0.273303 0.250717
O O18 0.891655 0.000000 0.895317
O O19 0.035408 0.500000 0.562005
O O20 0.043218 0.759257 0.656843
O O21 0.000000 0.757829 0.500000
O O22 0.531808 0.500000 0.246888
#
# Coordination Sequence:
#
# PCOD9401552 Si02
#       8
#     8   8   8   8   8   8   8   8
#     4  10  20  33  51  74  98 129 170 208 244 295
#     4  10  19  34  54  73  96 131 174 213 249 294
#     4  11  21  31  46  74 102 131 167 205 251 297
#     4   9  18  32  48  68  99 133 161 198 250 301
#     4  11  19  32  51  70  97 135 174 208 241 288
#     4  12  23  33  47  74 106 137 168 203 254 306
#     4  10  19  33  51  70  96 133 172 205 243 296
#     4   9  18  33  51  71  94 129 174 212 247 285
#
# _framework density 16.656137999999999
#
# number of rings (size 3 to 8) (size 9 to 14) (size 15 to 20)
#    0.000    1.750    3.750    2.250    0.000    1.750 
#    0.000    0.625    0.000    0.000    0.000    0.875 
#    0.000    5.000    0.000    0.000    0.000    0.000 
#
# Total GULP energy -357003.343399 kJ/mol
# GULP energy per Si atom -5578.177241 kJ/mol
# Density = 1.661823 g / cm^3
# Si number density = 16.656138 Si / 1000 Ang^3
#
#
#
# Elastic Constant Matrix: (Units=GPa)
#
#
# Indices 1 2 3 4 5 6 
#
# 1 114.2790 13.4986 64.9805 0.0000 0.0000 0.0000
# 2 13.4986 14.3305 0.4518 0.0000 0.0000 0.0000
# 3 64.9805 0.4518 102.4535 0.0000 0.0000 0.0000
# 4 0.0000 0.0000 0.0000 31.6171 0.0000 0.0000
# 5 0.0000 0.0000 0.0000 0.0000 21.0897 0.0000
# 6 0.0000 0.0000 0.0000 0.0000 0.0000 12.7723
#
#
#
# Elastic Compliance Matrix: (Units=1/GPa)
#
#
# Indices 1 2 3 4 5 6 
#
# 1 0.016425 -0.015145 -0.010351 0.000000 0.000000 0.000000
# 2 -0.015145 0.083756 0.009236 0.000000 0.000000 0.000000
# 3 -0.010351 0.009236 0.016285 0.000000 0.000000 0.000000
# 4 0.000000 0.000000 0.000000 0.031628 0.000000 0.000000
# 5 0.000000 0.000000 0.000000 0.000000 0.047417 0.000000
# 6 0.000000 0.000000 0.000000 0.000000 0.000000 0.078295
#
#
# Mechanical properties :
#
#
# Convention : Reuss Voigt Hill
#
# Bulk Modulus (GPa) = 11.91229 43.21386 27.56308
# Shear Modulus (GPa) = 14.95632 23.23795 19.09713
#
# Velocity S-wave (km/s) = 2.99983 3.73923 3.38975
# Velocity P-wave (km/s) = 4.37790 6.68158 5.64843
#
# Compressibility (1/GPa) = 0.08394694
#
# Stress axis : x y z
#
# Youngs Moduli (GPa) = 60.88287 11.93940 61.40763
#
# Poissons Ratio (x) = 0.18082 0.63561
# Poissons Ratio (y) = 0.92208 -0.56718
# Poissons Ratio (z) = 0.63018 -0.11028
#
# Static dielectric constant tensor:
#      x y z
#    x 1.582190 0.000000 0.000000 
#    y 0.000000 1.578400 0.000000 
#    z 0.000000 0.000000 1.553790 
# 
# From -- ./inp_files/26699.got.cif
#   From: 2010.05.17/outbox.cif.g08.bks.cpg/sg51_14_cif.got.tgz:26699.got - 2010.06.03 11:52:47.
