data_PCOD9401944
_publ_section_title
;
Structure prediction by ZEFSAII (Michael W. Deem and Ramdas Pophale) SiO2 
 PCOD9401944
Probable space group: P M M A
;
_chemical_formula_sum "Si O2"
_cell_formula_units_Z 48
_cell_length_a 31.049939
_cell_length_b 9.542960
_cell_length_c 9.374890
_cell_angle_alpha 90.000000
_cell_angle_beta 90.000000
_cell_angle_gamma 90.000000
_cell_volume 2777.857961
_symmetry_space_group_name_H-M "P M M A"
_symmetry_group_IT_number 51
_symmetry_cell_setting 'orthorhombic'
loop_
_space_group_symop_operation_xyz
x,y,z
1/2-x,-y,z
1/2+x,-y,-z
-x,y,-z
-x,-y,-z
1/2+x,y,-z
1/2-x,y,z
x,-y,z
loop_
_atom_site_type_symbol
_atom_site_label
_atom_site_fract_x
_atom_site_fract_y
_atom_site_fract_z
Si Si1 0.323725 0.156169 0.982089
Si Si2 0.396994 0.840486 0.742636
Si Si3 0.348302 0.666027 0.497445
Si Si4 0.876041 0.338638 0.818451
Si Si5 0.048437 0.666094 0.955125
Si Si6 0.750000 0.659995 0.493313
Si Si7 0.250000 0.340561 0.849261
O O1 0.341533 0.229351 0.122623
O O2 0.290282 0.258165 0.908900
O O3 0.306783 0.000000 0.006774
O O4 0.362729 0.147727 0.870705
O O5 0.372808 0.755348 0.617578
O O6 0.408709 0.000000 0.699385
O O7 0.435235 0.753889 0.818763
O O8 0.345420 0.500000 0.539696
O O9 0.375660 0.673836 0.351664
O O10 0.298353 0.715321 0.470419
O O11 0.863228 0.500000 0.851412
O O12 0.919709 0.312889 0.908570
O O13 0.050225 0.500000 0.920908
O O14 0.000000 0.702388 0.000000
O O15 0.750000 0.500000 0.548970
O O16 0.750000 0.660722 0.321465
O O17 0.250000 0.500000 0.898070
#
# Coordination Sequence:
#
# PCOD9401944 Si02
#       7
#     8   8   8   8   8   4   4
#     4  10  20  33  49  72 103 135 170 214 259 306
#     4  10  20  33  52  77 104 137 174 211 260 316
#     4  10  19  34  53  76 106 139 177 217 260 311
#     4   9  19  34  54  78 104 136 174 218 268 318
#     4   9  18  35  58  81 104 134 175 221 269 322
#     4   9  18  30  49  74 100 134 173 213 252 295
#     4  11  19  30  51  74  98 132 177 219 254 299
#
# _framework density 17.279502000000001
#
# number of rings (size 3 to 8) (size 9 to 14) (size 15 to 20)
#    0.000    2.333    1.667    1.250    0.000    3.000 
#    0.000    2.917    0.000    5.000    0.000    0.000 
#    0.000    0.000    0.000    0.000    0.000    0.000 
#
# Total GULP energy -267221.796656 kJ/mol
# GULP energy per Si atom -5567.120764 kJ/mol
# Density = 1.724017 g / cm^3
# Si number density = 17.279502 Si / 1000 Ang^3
#
#
#
# Elastic Constant Matrix: (Units=GPa)
#
#
# Indices 1 2 3 4 5 6 
#
# 1 67.8591 32.2723 19.2632 0.0000 0.0000 0.0000
# 2 32.2723 89.0807 38.1235 0.0000 0.0000 0.0000
# 3 19.2632 38.1235 71.8176 0.0000 0.0000 0.0000
# 4 0.0000 0.0000 0.0000 18.5292 0.0000 0.0000
# 5 0.0000 0.0000 0.0000 0.0000********** 0.0000
# 6 0.0000 0.0000 0.0000 0.0000 0.0000 -23.1670
#
#
#
# Elastic Compliance Matrix: (Units=1/GPa)
#
#
# Indices 1 2 3 4 5 6 
#
# 1 0.017975 -0.005756 -0.001766 0.000000 0.000000 0.000000
# 2 -0.005756 0.016369 -0.007145 0.000000 0.000000 0.000000
# 3 -0.001766 -0.007145 0.018191 0.000000 0.000000 0.000000
# 4 0.000000 0.000000 0.000000 0.053969 0.000000 0.000000
# 5 0.000000 0.000000 0.000000 0.000000 -0.000061 0.000000
# 6 0.000000 0.000000 0.000000 0.000000 0.000000 -0.043165
#
#
# Mechanical properties :
#
#
# Convention : Reuss Voigt Hill
#
# Bulk Modulus (GPa) = 43.10291 45.34171 44.22231
# Shear Modulus (GPa) = 49.82717 -3274.79848 -1612.48566
#
# Velocity S-wave (km/s) = 5.37574 -43.58104 -30.58111
# Velocity P-wave (km/s) = 7.97058 50.06108 34.94697
#
# Compressibility (1/GPa) = 0.02320029
#
# Stress axis : x y z
#
# Youngs Moduli (GPa) = 55.63198 61.09032 54.97290
#
# Poissons Ratio (x) = 0.35166 0.09706
# Poissons Ratio (y) = 0.32024 0.39280
# Poissons Ratio (z) = 0.09823 0.43651
#
# Static dielectric constant tensor:
#      x y z
#    x 1.608050 0.000000 0.000000 
#    y 0.000000 1.610370 0.000000 
#    z 0.000000 0.000000 1.560500 
# 
# From -- ./inp_files/12920.got.cif
#   From: 2010.05.17/outbox.cif.g08.bks.cpg/sg51_7_cif.got.tgz:12920.got - 2010.06.03 11:52:47.
