data_PCOD9401385
_publ_section_title
;
Structure prediction by ZEFSAII (Michael W. Deem and Ramdas Pophale) SiO2 
 PCOD9401385
Probable space group: P M M A
;
_chemical_formula_sum "Si O2"
_cell_formula_units_Z 64
_cell_length_a 20.695219
_cell_length_b 8.639298
_cell_length_c 20.536622
_cell_angle_alpha 90.000000
_cell_angle_beta 90.000000
_cell_angle_gamma 90.000000
_cell_volume 3671.787091
_symmetry_space_group_name_H-M "P M M A"
_symmetry_group_IT_number 51
_symmetry_cell_setting 'orthorhombic'
loop_
_space_group_symop_operation_xyz
x,y,z
1/2-x,-y,z
1/2+x,-y,-z
-x,y,-z
-x,-y,-z
1/2+x,y,-z
1/2-x,y,z
x,-y,z
loop_
_atom_site_type_symbol
_atom_site_label
_atom_site_fract_x
_atom_site_fract_y
_atom_site_fract_z
Si Si1 0.568807 0.186551 0.970716
Si Si2 0.176953 0.311475 0.407348
Si Si3 0.104806 0.685146 0.805468
Si Si4 0.043283 0.314343 0.166916
Si Si5 0.561981 0.312373 0.686665
Si Si6 0.823202 0.813069 0.072856
Si Si7 0.419681 0.183977 0.665919
Si Si8 0.175538 0.313233 0.557786
O O1 0.574718 0.242112 0.896750
O O2 0.568274 0.000000 0.971002
O O3 0.500000 0.240413 0.000000
O O4 0.626190 0.239701 0.017947
O O5 0.250000 0.261361 0.390104
O O6 0.177175 0.500000 0.405748
O O7 0.120855 0.259456 0.358700
O O8 0.164072 0.267903 0.482430
O O9 0.107857 0.500000 0.800662
O O10 0.155230 0.747103 0.857677
O O11 0.110642 0.755507 0.733708
O O12 0.032846 0.727932 0.830937
O O13 0.047574 0.500000 0.162432
O O14 0.070492 0.266781 0.237542
O O15 0.559105 0.500000 0.685042
O O16 0.492426 0.251352 0.663366
O O17 0.750000 0.768253 0.057276
O O18 0.826502 0.000000 0.076072
O O19 0.375667 0.240486 0.606528
O O20 0.423055 0.000000 0.667101
O O21 0.250000 0.271531 0.573938
O O22 0.170810 0.500000 0.561506
#
# Coordination Sequence:
#
# PCOD9401385 Si02
#       8
#     8   8   8   8   8   8   8   8
#     4  10  19  32  53  76  97 131 175 209 244 297
#     4   8  15  31  57  82 102 133 178 222 263 311
#     4  10  20  35  54  75 100 131 170 213 258 306
#     4   9  18  31  50  77 103 129 164 209 255 298
#     4   9  18  34  54  79 109 137 172 219 266 310
#     4  10  21  36  52  74 105 137 170 210 255 304
#     4  11  22  34  51  76 108 142 175 212 258 311
#     4   9  18  34  55  77 101 134 178 221 261 310
#
# _framework density 17.430202999999999
#
# number of rings (size 3 to 8) (size 9 to 14) (size 15 to 20)
#    0.000    2.500    1.250    3.000    0.000    4.250 
#    0.000    3.750    0.000    1.875    0.000    0.000 
#    0.000    0.000    0.000    0.000    0.000    0.000 
#
# Total GULP energy -356967.636665 kJ/mol
# GULP energy per Si atom -5577.619323 kJ/mol
# Density = 1.739053 g / cm^3
# Si number density = 17.430203 Si / 1000 Ang^3
#
#
#
# Elastic Constant Matrix: (Units=GPa)
#
#
# Indices 1 2 3 4 5 6 
#
# 1 136.2614 32.5730 109.1647 0.0000 0.0000 0.0000
# 2 32.5730 17.5626 28.4378 0.0000 0.0000 0.0000
# 3 109.1647 28.4378 142.3379 0.0000 0.0000 0.0000
# 4 0.0000 0.0000 0.0000 -78.4852 0.0000 0.0000
# 5 0.0000 0.0000 0.0000 0.0000 31.5412 0.0000
# 6 0.0000 0.0000 0.0000 0.0000 0.0000 11.9653
#
#
#
# Elastic Compliance Matrix: (Units=1/GPa)
#
#
# Indices 1 2 3 4 5 6 
#
# 1 0.023371 -0.021171 -0.013694 0.000000 0.000000 0.000000
# 2 -0.021171 0.103347 -0.004411 0.000000 0.000000 0.000000
# 3 -0.013694 -0.004411 0.018409 0.000000 0.000000 0.000000
# 4 0.000000 0.000000 0.000000 -0.012741 0.000000 0.000000
# 5 0.000000 0.000000 0.000000 0.000000 0.031705 0.000000
# 6 0.000000 0.000000 0.000000 0.000000 0.000000 0.083575
#
#
# Mechanical properties :
#
#
# Convention : Reuss Voigt Hill
#
# Bulk Modulus (GPa) = 15.02070 70.72364 42.87217
# Shear Modulus (GPa) = 14.35096 1.40334 7.87715
#
# Velocity S-wave (km/s) = 2.87250 0.89826 2.12816
# Velocity P-wave (km/s) = 4.43148 6.46059 5.53973
#
# Compressibility (1/GPa) = 0.06657479
#
# Stress axis : x y z
#
# Youngs Moduli (GPa) = 42.78860 9.67615 54.32034
#
# Poissons Ratio (x) = 0.20486 0.74387
# Poissons Ratio (y) = 0.90589 0.23959
# Poissons Ratio (z) = 0.58595 0.04268
#
# Static dielectric constant tensor:
#      x y z
#    x 1.584160 0.000000 0.000000 
#    y 0.000000 1.589460 0.000000 
#    z 0.000000 0.000000 1.579470 
# 
# From -- ./inp_files/30654.got.cif
#   From: 2010.05.17/outbox.cif.g08.bks.cpg/sg51_16_cif.got.tgz:30654.got - 2010.06.03 11:52:47.
