data_PCOD9401141
_publ_section_title
;
Structure prediction by ZEFSAII (Michael W. Deem and Ramdas Pophale) SiO2 
 PCOD9401141
Probable space group: P M M A
;
_chemical_formula_sum "Si O2"
_cell_formula_units_Z 56
_cell_length_a 23.484339
_cell_length_b 11.828720
_cell_length_c 12.977742
_cell_angle_alpha 90.000000
_cell_angle_beta 90.000000
_cell_angle_gamma 90.000000
_cell_volume 3605.082673
_symmetry_space_group_name_H-M "P M M A"
_symmetry_group_IT_number 51
_symmetry_cell_setting 'orthorhombic'
loop_
_space_group_symop_operation_xyz
x,y,z
1/2-x,-y,z
1/2+x,-y,-z
-x,y,-z
-x,-y,-z
1/2+x,y,-z
1/2-x,y,z
x,-y,z
loop_
_atom_site_type_symbol
_atom_site_label
_atom_site_fract_x
_atom_site_fract_y
_atom_site_fract_z
Si Si1 0.819034 0.000000 0.815186
Si Si2 0.492783 0.636903 0.381672
Si Si3 0.317257 0.243866 0.503400
Si Si4 0.883880 0.364046 0.312181
Si Si5 0.318722 0.245501 0.109322
Si Si6 0.182805 0.633903 0.896544
Si Si7 0.631967 0.635576 0.691663
Si Si8 0.319183 0.000000 0.423456
O O1 0.835761 0.115365 0.871891
O O2 0.838515 0.000000 0.695867
O O3 0.750000 0.000000 0.812182
O O4 0.500000 0.675915 0.500000
O O5 0.490668 0.500000 0.385250
O O6 0.549501 0.666785 0.318909
O O7 0.432850 0.672678 0.333591
O O8 0.250000 0.245093 0.525903
O O9 0.351430 0.301358 0.595767
O O10 0.329364 0.312696 0.398725
O O11 0.335941 0.115051 0.480552
O O12 0.879159 0.500000 0.328799
O O13 0.854622 0.338371 0.203264
O O14 0.250000 0.253598 0.120758
O O15 0.347152 0.318661 0.199151
O O16 0.332705 0.293911 0.996937
O O17 0.250000 0.651944 0.873734
O O18 0.175796 0.500000 0.919224
O O19 0.634878 0.500000 0.688927
O O20 0.250000 0.000000 0.420045
#
# Coordination Sequence:
#
# PCOD9401141 Si02
#       8
#     4   8   8   8   8   8   8   4
#     4   9  16  30  49  68  94 132 166 191 237 304
#     4   9  17  31  47  68  99 134 165 197 240 291
#     4  11  20  30  48  73 100 128 161 199 243 296
#     4  10  19  33  52  72  99 135 168 197 241 298
#     4  10  19  32  50  73 100 128 161 203 249 293
#     4   9  18  32  49  72 103 132 157 195 247 293
#     4  11  20  29  47  75 101 125 159 202 250 295
#     4   9  18  32  45  67 102 134 158 192 245 294
#
# _framework density 15.533624
#
# number of rings (size 3 to 8) (size 9 to 14) (size 15 to 20)
#    0.000    2.143    2.857    1.714    0.000    3.143 
#    0.000    1.429    0.000    8.571    0.000    1.000 
#    0.000    0.000    0.000    0.000    0.000    0.000 
#
# Total GULP energy -312201.609899 kJ/mol
# GULP energy per Si atom -5575.028748 kJ/mol
# Density = 1.549827 g / cm^3
# Si number density = 15.533624 Si / 1000 Ang^3
#
#
#
# Elastic Constant Matrix: (Units=GPa)
#
#
# Indices 1 2 3 4 5 6 
#
# 1 42.7804 15.9419 24.4009 0.0000 0.0000 0.0000
# 2 15.9419 72.3456 39.0913 0.0000 0.0000 0.0000
# 3 24.4009 39.0913 97.3575 0.0000 0.0000 0.0000
# 4 0.0000 0.0000 0.0000 17.9822 0.0000 0.0000
# 5 0.0000 0.0000 0.0000 0.0000 18.8053 0.0000
# 6 0.0000 0.0000 0.0000 0.0000 0.0000 1.0833
#
#
#
# Elastic Compliance Matrix: (Units=1/GPa)
#
#
# Indices 1 2 3 4 5 6 
#
# 1 0.027779 -0.003013 -0.005753 0.000000 0.000000 0.000000
# 2 -0.003013 0.017979 -0.006464 0.000000 0.000000 0.000000
# 3 -0.005753 -0.006464 0.014309 0.000000 0.000000 0.000000
# 4 0.000000 0.000000 0.000000 0.055611 0.000000 0.000000
# 5 0.000000 0.000000 0.000000 0.000000 0.053177 0.000000
# 6 0.000000 0.000000 0.000000 0.000000 0.000000 0.923110
#
#
# Mechanical properties :
#
#
# Convention : Reuss Voigt Hill
#
# Bulk Modulus (GPa) = 33.77468 41.26129 37.51798
# Shear Modulus (GPa) = 4.41582 16.44413 10.42997
#
# Velocity S-wave (km/s) = 1.68788 3.25717 2.59404
# Velocity P-wave (km/s) = 5.05853 6.38481 5.75997
#
# Compressibility (1/GPa) = 0.02960798
#
# Stress axis : x y z
#
# Youngs Moduli (GPa) = 35.99839 55.61992 69.88814
#
# Poissons Ratio (x) = 0.16758 0.40203
# Poissons Ratio (y) = 0.10846 0.45175
# Poissons Ratio (z) = 0.20708 0.35952
#
# Static dielectric constant tensor:
#      x y z
#    x 1.513600 0.000000 0.000000 
#    y 0.000000 1.517040 0.000000 
#    z 0.000000 0.000000 1.493000 
# 
# From -- ./inp_files/18800.got.cif
#   From: 2010.05.17/outbox.cif.g08.bks.cpg/sg51_10_cif.got.tgz:18800.got - 2010.06.03 11:52:47.
