data_PCOD9401737
_publ_section_title
;
Structure prediction by ZEFSAII (Michael W. Deem and Ramdas Pophale) SiO2 
 PCOD9401737
Probable space group: P M M A
;
_chemical_formula_sum "Si O2"
_cell_formula_units_Z 48
_cell_length_a 8.672786
_cell_length_b 31.965294
_cell_length_c 9.635942
_cell_angle_alpha 90.000000
_cell_angle_beta 90.000000
_cell_angle_gamma 90.000000
_cell_volume 2671.354415
_symmetry_space_group_name_H-M "P M M A"
_symmetry_group_IT_number 51
_symmetry_cell_setting 'orthorhombic'
loop_
_space_group_symop_operation_xyz
x,y,z
1/2-x,-y,z
1/2+x,-y,-z
-x,y,-z
-x,-y,-z
1/2+x,y,-z
1/2-x,y,z
x,-y,z
loop_
_atom_site_type_symbol
_atom_site_label
_atom_site_fract_x
_atom_site_fract_y
_atom_site_fract_z
Si Si1 0.436142 0.137222 0.657450
Si Si2 0.434094 0.381149 0.653032
Si Si3 0.434340 0.788085 0.155531
Si Si4 0.064177 0.044836 0.656644
Si Si5 0.434484 0.546632 0.154888
Si Si6 0.935273 0.714999 0.345166
O O1 0.500000 0.141629 0.500000
O O2 0.250000 0.140495 0.653088
O O3 0.504409 0.172602 0.755802
O O4 0.480364 0.090553 0.712170
O O5 0.500000 0.388357 0.500000
O O6 0.250000 0.384066 0.650073
O O7 0.500603 0.415895 0.754258
O O8 0.474247 0.333173 0.691476
O O9 0.250000 0.788548 0.151680
O O10 0.493133 0.747029 0.236449
O O11 0.500000 0.789179 0.000000
O O12 0.250000 0.044765 0.651517
O O13 0.000000 0.044486 0.500000
O O14 0.015387 0.000000 0.721353
O O15 0.250000 0.549038 0.150704
O O16 0.477344 0.500000 0.208247
O O17 0.500000 0.549961 0.000000
O O18 0.750000 0.719443 0.347731
O O19 0.000000 0.723243 0.500000
#
# Coordination Sequence:
#
# PCOD9401737 Si02
#       6
#     8   8   8   8   8   8
#     4  10  19  33  54  80 110 143 179 219 264 315
#     4  10  21  37  59  85 113 144 179 222 269 319
#     4  12  25  40  57  78 106 140 179 223 270 320
#     4   8  14  25  44  72 104 136 171 213 259 306
#     4  10  21  37  57  81 111 148 188 228 270 318
#     4  10  21  39  61  85 111 141 178 219 267 320
#
# _framework density 17.968412000000001
#
# number of rings (size 3 to 8) (size 9 to 14) (size 15 to 20)
#    0.000    2.000    0.000    4.000    0.000    4.667 
#    0.000    0.000    0.000    0.500    0.000    0.000 
#    0.000    0.000    0.000    0.000    0.000    0.000 
#
# Total GULP energy -267811.399045 kJ/mol
# GULP energy per Si atom -5579.404147 kJ/mol
# Density = 1.792752 g / cm^3
# Si number density = 17.968412 Si / 1000 Ang^3
#
#
#
# Elastic Constant Matrix: (Units=GPa)
#
#
# Indices 1 2 3 4 5 6 
#
# 1 84.5953 72.8935 49.4615 0.0000 0.0000 0.0000
# 2 72.8935 193.1563 110.5998 0.0000 0.0000 0.0000
# 3 49.4615 110.5998 98.0473 0.0000 0.0000 0.0000
# 4 0.0000 0.0000 0.0000 -32.3815 0.0000 0.0000
# 5 0.0000 0.0000 0.0000 0.0000 32.6065 0.0000
# 6 0.0000 0.0000 0.0000 0.0000 0.0000 30.6229
#
#
#
# Elastic Compliance Matrix: (Units=1/GPa)
#
#
# Indices 1 2 3 4 5 6 
#
# 1 0.018061 -0.004515 -0.004018 0.000000 0.000000 0.000000
# 2 -0.004515 0.015749 -0.015488 0.000000 0.000000 0.000000
# 3 -0.004018 -0.015488 0.029697 0.000000 0.000000 0.000000
# 4 0.000000 0.000000 0.000000 -0.030882 0.000000 0.000000
# 5 0.000000 0.000000 0.000000 0.000000 0.030669 0.000000
# 6 0.000000 0.000000 0.000000 0.000000 0.000000 0.032655
#
#
# Mechanical properties :
#
#
# Convention : Reuss Voigt Hill
#
# Bulk Modulus (GPa) = 64.66172 93.52318 79.09245
# Shear Modulus (GPa) = 33.52425 15.69252 24.60838
#
# Velocity S-wave (km/s) = 4.32410 2.95844 3.70474
# Velocity P-wave (km/s) = 7.80992 7.98946 7.90020
#
# Compressibility (1/GPa) = 0.01546510
#
# Stress axis : x y z
#
# Youngs Moduli (GPa) = 55.36863 63.49455 33.67381
#
# Poissons Ratio (x) = 0.28670 0.13529
# Poissons Ratio (y) = 0.25001 0.52154
# Poissons Ratio (z) = 0.22245 0.98340
#
# Static dielectric constant tensor:
#      x y z
#    x 1.604800 0.000000 0.000000 
#    y 0.000000 1.655860 0.000000 
#    z 0.000000 0.000000 1.507540 
# 
# From -- ./inp_files/5980.got.cif
#   From: 2010.05.17/outbox.cif.g08.bks.cpg/sg51_3_cif.got.tgz:5980.got - 2010.06.03 11:52:47.
