data_PCOD9401843
_publ_section_title
;
Structure prediction by ZEFSAII (Michael W. Deem and Ramdas Pophale) SiO2 
 PCOD9401843
Probable space group: P M M A
;
_chemical_formula_sum "Si O2"
_cell_formula_units_Z 64
_cell_length_a 18.377012
_cell_length_b 14.629723
_cell_length_c 11.429394
_cell_angle_alpha 90.000000
_cell_angle_beta 90.000000
_cell_angle_gamma 90.000000
_cell_volume 3072.799379
_symmetry_space_group_name_H-M "P M M A"
_symmetry_group_IT_number 51
_symmetry_cell_setting 'orthorhombic'
loop_
_space_group_symop_operation_xyz
x,y,z
1/2-x,-y,z
1/2+x,-y,-z
-x,y,-z
-x,-y,-z
1/2+x,y,-z
1/2-x,y,z
x,-y,z
loop_
_atom_site_type_symbol
_atom_site_label
_atom_site_fract_x
_atom_site_fract_y
_atom_site_fract_z
Si Si1 0.434851 0.901408 0.126901
Si Si2 0.166537 0.104892 0.898658
Si Si3 0.895728 0.258710 0.274334
Si Si4 0.424483 0.097687 0.565210
Si Si5 0.168294 0.867444 0.340117
Si Si6 0.523425 0.308793 0.870311
Si Si7 0.663024 0.400245 0.462422
Si Si8 0.334948 0.345700 0.278647
O O1 0.385691 0.904962 0.242546
O O2 0.473356 0.803172 0.129317
O O3 0.475368 0.000000 0.123786
O O4 0.384805 0.894519 0.011867
O O5 0.250000 0.115780 0.937105
O O6 0.148709 0.192805 0.816076
O O7 0.161503 0.000000 0.849940
O O8 0.934547 0.180414 0.348565
O O9 0.855649 0.320407 0.371250
O O10 0.954152 0.323922 0.212480
O O11 0.500000 0.091200 0.500000
O O12 0.362546 0.115479 0.469076
O O13 0.409898 0.000000 0.622427
O O14 0.250000 0.901902 0.328738
O O15 0.170285 0.760219 0.313421
O O16 0.600209 0.347899 0.819212
O O17 0.500000 0.338828 0.000000
O O18 0.750000 0.400078 0.471146
O O19 0.638233 0.500000 0.419575
O O20 0.639192 0.389535 0.598303
O O21 0.250000 0.374621 0.248248
#
# Coordination Sequence:
#
# PCOD9401843 Si02
#       8
#     8   8   8   8   8   8   8   8
#     4  10  20  35  54  81 117 165 222 269 303 351
#     4  10  21  36  55  84 124 172 223 267 312 372
#     4  12  23  38  60  86 130 165 205 262 326 383
#     4  11  23  36  52  79 120 168 205 245 308 378
#     4  10  19  33  55  82 113 153 205 262 310 356
#     4  11  23  40  59  92 123 168 212 259 315 378
#     4  10  22  43  72 102 127 160 210 262 319 390
#     4   9  19  39  66  90 120 159 206 260 313 369
#
# _framework density 20.827912000000001
#
# number of rings (size 3 to 8) (size 9 to 14) (size 15 to 20)
#    0.000    1.625    2.500    3.000    0.000    4.750 
#    0.000    1.250    0.000    1.500    0.000    1.750 
#    0.000    0.000    0.000    0.000    0.000    0.000 
#
# Total GULP energy -356676.795441 kJ/mol
# GULP energy per Si atom -5573.074929 kJ/mol
# Density = 2.078051 g / cm^3
# Si number density = 20.827912 Si / 1000 Ang^3
#
#
#
# Elastic Constant Matrix: (Units=GPa)
#
#
# Indices 1 2 3 4 5 6 
#
# 1 71.5883 0.4688 34.0304 0.0000 0.0000 0.0000
# 2 0.4688 53.8555 22.6900 0.0000 0.0000 0.0000
# 3 34.0304 22.6900 103.7722 0.0000 0.0000 0.0000
# 4 0.0000 0.0000 0.0000 13.3751 0.0000 0.0000
# 5 0.0000 0.0000 0.0000 0.0000 34.9139 0.0000
# 6 0.0000 0.0000 0.0000 0.0000 0.0000 5.1058
#
#
#
# Elastic Compliance Matrix: (Units=1/GPa)
#
#
# Indices 1 2 3 4 5 6 
#
# 1 0.016825 0.002399 -0.006042 0.000000 0.000000 0.000000
# 2 0.002399 0.020794 -0.005334 0.000000 0.000000 0.000000
# 3 -0.006042 -0.005334 0.012784 0.000000 0.000000 0.000000
# 4 0.000000 0.000000 0.000000 0.074766 0.000000 0.000000
# 5 0.000000 0.000000 0.000000 0.000000 0.028642 0.000000
# 6 0.000000 0.000000 0.000000 0.000000 0.000000 0.195856
#
#
# Mechanical properties :
#
#
# Convention : Reuss Voigt Hill
#
# Bulk Modulus (GPa) = 30.81588 38.17715 34.49652
# Shear Modulus (GPa) = 13.21223 22.14740 17.67982
#
# Velocity S-wave (km/s) = 2.52137 3.26445 2.91667
# Velocity P-wave (km/s) = 4.82742 5.70775 5.28594
#
# Compressibility (1/GPa) = 0.03245080
#
# Stress axis : x y z
#
# Youngs Moduli (GPa) = 59.43443 48.08986 78.22218
#
# Poissons Ratio (x) = -0.11538 0.47263
# Poissons Ratio (y) = -0.14259 0.41720
# Poissons Ratio (z) = 0.35911 0.25649
#
# Static dielectric constant tensor:
#      x y z
#    x 1.762810 0.000000 0.000000 
#    y 0.000000 1.786560 0.000000 
#    z 0.000000 0.000000 1.797770 
# 
# From -- ./inp_files/17592.got.cif
#   From: 2010.05.17/outbox.cif.g08.bks.cpg/sg51_9_cif.got.tgz:17592.got - 2010.06.03 11:52:47.
