data_PCOD9401482
_publ_section_title
;
Structure prediction by ZEFSAII (Michael W. Deem and Ramdas Pophale) SiO2 
 PCOD9401482
Probable space group: P M M A
;
_chemical_formula_sum "Si O2"
_cell_formula_units_Z 52
_cell_length_a 14.173563
_cell_length_b 11.689903
_cell_length_c 16.508403
_cell_angle_alpha 90.000000
_cell_angle_beta 90.000000
_cell_angle_gamma 90.000000
_cell_volume 2735.237287
_symmetry_space_group_name_H-M "P M M A"
_symmetry_group_IT_number 51
_symmetry_cell_setting 'orthorhombic'
loop_
_space_group_symop_operation_xyz
x,y,z
1/2-x,-y,z
1/2+x,-y,-z
-x,y,-z
-x,-y,-z
1/2+x,y,-z
1/2-x,y,z
x,-y,z
loop_
_atom_site_type_symbol
_atom_site_label
_atom_site_fract_x
_atom_site_fract_y
_atom_site_fract_z
Si Si1 0.356626 0.636713 0.372589
Si Si2 0.644219 0.866140 0.386499
Si Si3 0.000000 0.733475 0.500000
Si Si4 0.393014 0.371097 0.034165
Si Si5 0.461762 0.366594 0.212636
Si Si6 0.890683 0.125657 0.027939
Si Si7 0.641741 0.790303 0.202480
O O1 0.250000 0.681639 0.382929
O O2 0.349926 0.500000 0.364516
O O3 0.425277 0.663477 0.446782
O O4 0.405214 0.680503 0.289878
O O5 0.750000 0.821690 0.406691
O O6 0.563038 0.805563 0.437269
O O7 0.632354 0.849382 0.290013
O O8 0.642114 0.000000 0.404747
O O9 0.354544 0.500000 0.015788
O O10 0.400770 0.358597 0.130974
O O11 0.500000 0.375044 0.000000
O O12 0.352925 0.250316 0.001422
O O13 0.480779 0.500000 0.227015
O O14 0.561355 0.305569 0.199729
O O15 0.878194 0.131142 0.124769
O O16 0.854573 0.000000 0.000227
O O17 0.000000 0.127143 0.000000
O O18 0.750000 0.748337 0.196411
#
# Coordination Sequence:
#
# PCOD9401482 Si02
#       7
#     8   8   4   8   8   8   8
#     4  10  22  39  60  87 118 152 191 236 290 358
#     4  10  22  38  56  83 117 151 192 239 289 353
#     4  12  20  36  64  88 112 146 192 238 298 346
#     4   9  16  30  56  79 107 148 189 237 294 344
#     4  10  19  36  58  81 114 155 194 238 293 353
#     4  10  19  32  54  81 111 150 196 245 295 346
#     4  11  21  36  56  81 115 158 199 237 291 356
#
# _framework density 19.011147999999999
#
# number of rings (size 3 to 8) (size 9 to 14) (size 15 to 20)
#    0.000    1.846    4.615    1.385    0.000    1.231 
#    0.000    0.769    0.000    0.923    0.000    0.000 
#    0.000    0.000    0.000    0.000    0.000    0.000 
#
# Total GULP energy -289691.299932 kJ/mol
# GULP energy per Si atom -5570.986537 kJ/mol
# Density = 1.896788 g / cm^3
# Si number density = 19.011148 Si / 1000 Ang^3
#
#
#
# Elastic Constant Matrix: (Units=GPa)
#
#
# Indices 1 2 3 4 5 6 
#
# 1 121.3863 40.8689 39.9239 0.0000 0.0000 0.0000
# 2 40.8689 115.6425 24.5322 0.0000 0.0000 0.0000
# 3 39.9239 24.5322 97.8461 0.0000 0.0000 0.0000
# 4 0.0000 0.0000 0.0000 32.2915 0.0000 0.0000
# 5 0.0000 0.0000 0.0000 0.0000 3.6915 0.0000
# 6 0.0000 0.0000 0.0000 0.0000 0.0000 -13.2277
#
#
#
# Elastic Compliance Matrix: (Units=1/GPa)
#
#
# Indices 1 2 3 4 5 6 
#
# 1 0.010374 -0.002924 -0.003500 0.000000 0.000000 0.000000
# 2 -0.002924 0.009957 -0.001304 0.000000 0.000000 0.000000
# 3 -0.003500 -0.001304 0.011975 0.000000 0.000000 0.000000
# 4 0.000000 0.000000 0.000000 0.030968 0.000000 0.000000
# 5 0.000000 0.000000 0.000000 0.000000 0.270890 0.000000
# 6 0.000000 0.000000 0.000000 0.000000 0.000000 -0.075599
#
#
# Mechanical properties :
#
#
# Convention : Reuss Voigt Hill
#
# Bulk Modulus (GPa) = 59.34068 60.61387 59.97728
# Shear Modulus (GPa) = 17.88039 19.85439 18.86739
#
# Velocity S-wave (km/s) = 3.07012 3.23515 3.15372
# Velocity P-wave (km/s) = 6.62185 6.77551 6.69912
#
# Compressibility (1/GPa) = 0.01685185
#
# Stress axis : x y z
#
# Youngs Moduli (GPa) = 96.39894 100.43067 83.50794
#
# Poissons Ratio (x) = 0.29363 0.29225
# Poissons Ratio (y) = 0.28184 0.10886
# Poissons Ratio (z) = 0.33736 0.13091
#
# Static dielectric constant tensor:
#      x y z
#    x 1.652430 0.000000 0.000000 
#    y 0.000000 1.674200 0.000000 
#    z 0.000000 0.000000 1.660800 
# 
# From -- ./inp_files/24182.got.cif
#   From: 2010.05.17/outbox.cif.g08.bks.cpg/sg51_13_cif.got.tgz:24182.got - 2010.06.03 11:52:47.
