data_PCOD9401687
_publ_section_title
;
Structure prediction by ZEFSAII (Michael W. Deem and Ramdas Pophale) SiO2 
 PCOD9401687
Probable space group: P M M A
;
_chemical_formula_sum "Si O2"
_cell_formula_units_Z 64
_cell_length_a 17.530661
_cell_length_b 9.081844
_cell_length_c 23.377030
_cell_angle_alpha 90.000000
_cell_angle_beta 90.000000
_cell_angle_gamma 90.000000
_cell_volume 3721.873975
_symmetry_space_group_name_H-M "P M M A"
_symmetry_group_IT_number 51
_symmetry_cell_setting 'orthorhombic'
loop_
_space_group_symop_operation_xyz
x,y,z
1/2-x,-y,z
1/2+x,-y,-z
-x,y,-z
-x,-y,-z
1/2+x,y,-z
1/2-x,y,z
x,-y,z
loop_
_atom_site_type_symbol
_atom_site_label
_atom_site_fract_x
_atom_site_fract_y
_atom_site_fract_z
Si Si1 0.560732 0.326955 0.132108
Si Si2 0.396887 0.672645 0.073507
Si Si3 0.426233 0.168484 0.458101
Si Si4 0.836914 0.676043 0.445470
Si Si5 0.493517 0.823608 0.242912
Si Si6 0.978550 0.676281 0.363972
Si Si7 0.665003 0.824389 0.814637
Si Si8 0.659095 0.827587 0.040563
O O1 0.572755 0.500000 0.142895
O O2 0.484843 0.312431 0.092772
O O3 0.542455 0.242582 0.190736
O O4 0.628641 0.255772 0.096338
O O5 0.379952 0.500000 0.066345
O O6 0.349079 0.740259 0.125975
O O7 0.378956 0.757283 0.015481
O O8 0.500000 0.166968 0.500000
O O9 0.360943 0.242789 0.496216
O O10 0.453385 0.261220 0.403603
O O11 0.408239 0.000000 0.442715
O O12 0.750000 0.711528 0.429288
O O13 0.842579 0.500000 0.454601
O O14 0.899342 0.713403 0.396934
O O15 0.516859 0.750835 0.302382
O O16 0.405016 0.788023 0.227305
O O17 0.501307 0.000000 0.245270
O O18 0.983586 0.500000 0.359578
O O19 0.750000 0.791733 0.792609
O O20 0.660436 0.000000 0.825881
O O21 0.750000 0.813523 0.035177
O O22 0.639472 0.000000 0.044370
#
# Coordination Sequence:
#
# PCOD9401687 Si02
#       8
#     8   8   8   8   8   8   8   8
#     4  10  21  37  55  75 100 132 171 213 257 309
#     4  10  20  33  52  78 103 128 163 206 254 312
#     4   9  17  30  50  76 104 133 165 202 247 298
#     4   9  18  33  53  78 107 137 171 213 259 303
#     4  10  20  35  55  76 101 136 176 217 258 303
#     4  10  19  33  54  77 103 138 178 216 254 303
#     4   9  18  33  52  74 100 130 165 207 257 310
#     4  11  23  36  51  74 103 133 167 209 258 311
#
# _framework density 17.195637999999999
#
# number of rings (size 3 to 8) (size 9 to 14) (size 15 to 20)
#    0.000    2.250    0.000    3.000    0.000    8.500 
#    0.000    1.250    0.000    4.500    0.000    0.000 
#    0.000    0.000    0.000    0.000    0.000    0.000 
#
# Total GULP energy -357128.344058 kJ/mol
# GULP energy per Si atom -5580.130376 kJ/mol
# Density = 1.715650 g / cm^3
# Si number density = 17.195638 Si / 1000 Ang^3
#
#
#
# Elastic Constant Matrix: (Units=GPa)
#
#
# Indices 1 2 3 4 5 6 
#
# 1 42.1632 37.2873 45.5365 0.0000 0.0000 0.0000
# 2 37.2873 85.6690 69.8297 0.0000 0.0000 0.0000
# 3 45.5365 69.8297 130.4315 0.0000 0.0000 0.0000
# 4 0.0000 0.0000 0.0000 35.4652 0.0000 0.0000
# 5 0.0000 0.0000 0.0000 0.0000 11.5961 0.0000
# 6 0.0000 0.0000 0.0000 0.0000 0.0000 19.5607
#
#
#
# Elastic Compliance Matrix: (Units=1/GPa)
#
#
# Indices 1 2 3 4 5 6 
#
# 1 0.043832 -0.011718 -0.009029 0.000000 0.000000 0.000000
# 2 -0.011718 0.023844 -0.008674 0.000000 0.000000 0.000000
# 3 -0.009029 -0.008674 0.015463 0.000000 0.000000 0.000000
# 4 0.000000 0.000000 0.000000 0.028197 0.000000 0.000000
# 5 0.000000 0.000000 0.000000 0.000000 0.086236 0.000000
# 6 0.000000 0.000000 0.000000 0.000000 0.000000 0.051123
#
#
# Mechanical properties :
#
#
# Convention : Reuss Voigt Hill
#
# Bulk Modulus (GPa) = 41.15946 62.61898 51.88922
# Shear Modulus (GPa) = 15.84105 20.36505 18.10305
#
# Velocity S-wave (km/s) = 3.03846 3.44512 3.24816
# Velocity P-wave (km/s) = 6.02475 7.23324 6.65648
#
# Compressibility (1/GPa) = 0.02429575
#
# Stress axis : x y z
#
# Youngs Moduli (GPa) = 22.81446 41.94010 64.67013
#
# Poissons Ratio (x) = 0.49145 0.58392
# Poissons Ratio (y) = 0.26734 0.56096
# Poissons Ratio (z) = 0.20600 0.36380
#
# Static dielectric constant tensor:
#      x y z
#    x 1.591510 0.000000 0.000000 
#    y 0.000000 1.574480 0.000000 
#    z 0.000000 0.000000 1.547570 
# 
# From -- ./inp_files/33839.got.cif
#   From: 2010.05.17/outbox.cif.g08.bks.cpg/sg51_17_cif.got.tgz:33839.got - 2010.06.03 11:52:47.
