data_PCOD9401028
_publ_section_title
;
Structure prediction by ZEFSAII (Michael W. Deem and Ramdas Pophale) SiO2 
 PCOD9401028
Probable space group: P M M A
;
_chemical_formula_sum "Si O2"
_cell_formula_units_Z 64
_cell_length_a 24.634977
_cell_length_b 8.950857
_cell_length_c 16.350261
_cell_angle_alpha 90.000000
_cell_angle_beta 90.000000
_cell_angle_gamma 90.000000
_cell_volume 3605.300508
_symmetry_space_group_name_H-M "P M M A"
_symmetry_group_IT_number 51
_symmetry_cell_setting 'orthorhombic'
loop_
_space_group_symop_operation_xyz
x,y,z
1/2-x,-y,z
1/2+x,-y,-z
-x,y,-z
-x,-y,-z
1/2+x,y,-z
1/2-x,y,z
x,-y,z
loop_
_atom_site_type_symbol
_atom_site_label
_atom_site_fract_x
_atom_site_fract_y
_atom_site_fract_z
Si Si1 0.187957 0.678942 0.474294
Si Si2 0.387759 0.825733 0.607514
Si Si3 0.973345 0.679463 0.279058
Si Si4 0.186742 0.171427 0.767385
Si Si5 0.912966 0.679148 0.794641
Si Si6 0.561142 0.823488 0.968517
Si Si7 0.311915 0.821342 0.294707
Si Si8 0.896116 0.324398 0.126383
O O1 0.250000 0.715325 0.503338
O O2 0.184004 0.500000 0.468889
O O3 0.141296 0.741425 0.533241
O O4 0.182220 0.750977 0.384897
O O5 0.442729 0.755621 0.645016
O O6 0.345079 0.814344 0.682382
O O7 0.395749 0.000000 0.587842
O O8 0.968845 0.500000 0.287684
O O9 0.941005 0.720232 0.195178
O O10 0.035997 0.719414 0.264117
O O11 0.250000 0.196298 0.755244
O O12 0.160413 0.284921 0.830839
O O13 0.178295 0.000000 0.796141
O O14 0.908691 0.500000 0.795112
O O15 0.927024 0.736943 0.885106
O O16 0.857803 0.751843 0.762502
O O17 0.567909 0.000000 0.954966
O O18 0.500000 0.795684 0.000000
O O19 0.597394 0.765683 0.043226
O O20 0.250000 0.789002 0.267037
O O21 0.318064 0.000000 0.299268
O O22 0.902496 0.500000 0.110842
#
# Coordination Sequence:
#
# PCOD9401028 Si02
#       8
#     8   8   8   8   8   8   8   8
#     4  10  20  35  57  83 111 146 189 234 279 329
#     4  10  19  31  52  81 113 147 186 230 275 324
#     4   9  19  34  52  78 113 149 181 220 273 328
#     4   9  18  32  49  72 107 148 185 222 270 327
#     4  11  22  38  61  86 114 146 183 228 278 333
#     4  11  22  35  56  84 112 142 182 226 270 324
#     4  10  22  41  63  86 113 144 182 230 281 332
#     4  10  19  33  52  76 108 142 181 226 271 321
#
# _framework density 17.751639999999998
#
# number of rings (size 3 to 8) (size 9 to 14) (size 15 to 20)
#    0.000    2.000    1.250    2.625    0.000    4.750 
#    0.000    1.250    0.000    7.500    0.000    0.000 
#    0.000    0.000    0.000    0.000    0.000    0.000 
#
# Total GULP energy -357186.338659 kJ/mol
# GULP energy per Si atom -5581.036542 kJ/mol
# Density = 1.771124 g / cm^3
# Si number density = 17.751640 Si / 1000 Ang^3
#
#
#
# Elastic Constant Matrix: (Units=GPa)
#
#
# Indices 1 2 3 4 5 6 
#
# 1 104.3937 59.2599 47.4601 0.0000 0.0000 0.0000
# 2 59.2599 70.0489 48.4067 0.0000 0.0000 0.0000
# 3 47.4601 48.4067 64.9443 0.0000 0.0000 0.0000
# 4 0.0000 0.0000 0.0000 33.2495 0.0000 0.0000
# 5 0.0000 0.0000 0.0000 0.0000 23.1862 0.0000
# 6 0.0000 0.0000 0.0000 0.0000 0.0000 26.9769
#
#
#
# Elastic Compliance Matrix: (Units=1/GPa)
#
#
# Indices 1 2 3 4 5 6 
#
# 1 0.018898 -0.013288 -0.003906 0.000000 0.000000 0.000000
# 2 -0.013288 0.038783 -0.019196 0.000000 0.000000 0.000000
# 3 -0.003906 -0.019196 0.032560 0.000000 0.000000 0.000000
# 4 0.000000 0.000000 0.000000 0.030076 0.000000 0.000000
# 5 0.000000 0.000000 0.000000 0.000000 0.043129 0.000000
# 6 0.000000 0.000000 0.000000 0.000000 0.000000 0.037069
#
#
# Mechanical properties :
#
#
# Convention : Reuss Voigt Hill
#
# Bulk Modulus (GPa) = 57.27259 61.07113 59.17186
# Shear Modulus (GPa) = 17.91379 22.29985 20.10682
#
# Velocity S-wave (km/s) = 3.18013 3.54816 3.36917
# Velocity P-wave (km/s) = 6.76887 7.15986 6.96711
#
# Compressibility (1/GPa) = 0.01746036
#
# Stress axis : x y z
#
# Youngs Moduli (GPa) = 52.91582 25.78478 30.71242
#
# Poissons Ratio (x) = 0.34263 0.11996
# Poissons Ratio (y) = 0.70315 0.58956
# Poissons Ratio (z) = 0.20668 0.49497
#
# Static dielectric constant tensor:
#      x y z
#    x 1.609680 0.000000 0.000000 
#    y 0.000000 1.596950 0.000000 
#    z 0.000000 0.000000 1.577400 
# 
# From -- ./inp_files/26252.got.cif
#   From: 2010.05.17/outbox.cif.g08.bks.cpg/sg51_14_cif.got.tgz:26252.got - 2010.06.03 11:52:47.
