data_PCOD9401045
_publ_section_title
;
Structure prediction by ZEFSAII (Michael W. Deem and Ramdas Pophale) SiO2 
 PCOD9401045
Probable space group: P M M A
;
_chemical_formula_sum "Si O2"
_cell_formula_units_Z 64
_cell_length_a 9.164898
_cell_length_b 14.323891
_cell_length_c 26.852501
_cell_angle_alpha 90.000000
_cell_angle_beta 90.000000
_cell_angle_gamma 90.000000
_cell_volume 3525.115773
_symmetry_space_group_name_H-M "P M M A"
_symmetry_group_IT_number 51
_symmetry_cell_setting 'orthorhombic'
loop_
_space_group_symop_operation_xyz
x,y,z
1/2-x,-y,z
1/2+x,-y,-z
-x,y,-z
-x,-y,-z
1/2+x,y,-z
1/2-x,y,z
x,-y,z
loop_
_atom_site_type_symbol
_atom_site_label
_atom_site_fract_x
_atom_site_fract_y
_atom_site_fract_z
Si Si1 0.422949 0.110101 0.695212
Si Si2 0.927374 0.607730 0.745570
Si Si3 0.422970 0.704861 0.949381
Si Si4 0.915000 0.886736 0.796937
Si Si5 0.925126 0.391183 0.551618
Si Si6 0.073947 0.726008 0.351157
Si Si7 0.076470 0.892687 0.898548
Si Si8 0.420244 0.386994 0.143970
O O1 0.250000 0.124427 0.696247
O O2 0.492617 0.137838 0.748425
O O3 0.499442 0.173962 0.654261
O O4 0.451106 0.000000 0.687807
O O5 0.750000 0.606943 0.746447
O O6 0.974548 0.500000 0.739964
O O7 0.971708 0.666926 0.697735
O O8 0.971387 0.642856 0.800559
O O9 0.250000 0.690764 0.952741
O O10 0.451901 0.815214 0.940067
O O11 0.486468 0.652993 0.901113
O O12 0.500000 0.673753 0.000000
O O13 0.750000 0.850093 0.793185
O O14 0.990527 0.862825 0.848911
O O15 0.908271 0.000000 0.797072
O O16 0.750000 0.386019 0.546251
O O17 0.962619 0.500000 0.561169
O O18 0.966865 0.328759 0.598831
O O19 0.000000 0.362857 0.500000
O O20 0.250000 0.734760 0.349902
O O21 0.250000 0.891376 0.887765
O O22 0.037116 0.000000 0.911276
O O23 0.250000 0.360040 0.137580
O O24 0.425675 0.500000 0.143862
#
# Coordination Sequence:
#
# PCOD9401045 Si02
#       8
#     8   8   8   8   8   8   8   8
#     4  10  21  35  49  70 107 150 185 221 268 319
#     4   8  15  30  53  81 110 137 166 205 260 321
#     4  11  24  39  56  78 102 133 173 219 265 315
#     4   9  17  30  50  75 100 131 174 217 255 304
#     4   9  18  33  54  81 115 152 188 227 272 322
#     4  10  19  31  53  84 111 142 184 229 269 312
#     4   9  19  36  55  76 105 138 169 207 261 319
#     4   9  19  37  59  80 104 135 169 210 263 321
#
# _framework density 18.155432000000001
#
# number of rings (size 3 to 8) (size 9 to 14) (size 15 to 20)
#    0.000    2.625    0.000    2.250    1.750    6.000 
#    0.000    0.000    0.000    2.250    0.000    0.000 
#    0.000    0.000    0.000    0.000    0.000    0.000 
#
# Total GULP energy -357138.476386 kJ/mol
# GULP energy per Si atom -5580.288694 kJ/mol
# Density = 1.811411 g / cm^3
# Si number density = 18.155432 Si / 1000 Ang^3
#
#
#
# Elastic Constant Matrix: (Units=GPa)
#
#
# Indices 1 2 3 4 5 6 
#
# 1 40.7895 35.2293 54.8795 0.0000 0.0000 0.0000
# 2 35.2293 58.2333 54.4539 0.0000 0.0000 0.0000
# 3 54.8795 54.4539 143.8583 0.0000 0.0000 0.0000
# 4 0.0000 0.0000 0.0000 29.0885 0.0000 0.0000
# 5 0.0000 0.0000 0.0000 0.0000 26.4119 0.0000
# 6 0.0000 0.0000 0.0000 0.0000 0.0000 21.7003
#
#
#
# Elastic Compliance Matrix: (Units=1/GPa)
#
#
# Indices 1 2 3 4 5 6 
#
# 1 0.069934 -0.026872 -0.016507 0.000000 0.000000 0.000000
# 2 -0.026872 0.036907 -0.003719 0.000000 0.000000 0.000000
# 3 -0.016507 -0.003719 0.014656 0.000000 0.000000 0.000000
# 4 0.000000 0.000000 0.000000 0.034378 0.000000 0.000000
# 5 0.000000 0.000000 0.000000 0.000000 0.037862 0.000000
# 6 0.000000 0.000000 0.000000 0.000000 0.000000 0.046082
#
#
# Mechanical properties :
#
#
# Convention : Reuss Voigt Hill
#
# Bulk Modulus (GPa) = 36.62889 59.11184 47.87036
# Shear Modulus (GPa) = 14.57238 21.99470 18.28354
#
# Velocity S-wave (km/s) = 2.83617 3.48439 3.17686
# Velocity P-wave (km/s) = 5.56275 6.98695 6.31512
#
# Compressibility (1/GPa) = 0.02730085
#
# Stress axis : x y z
#
# Youngs Moduli (GPa) = 14.29916 27.09542 68.23166
#
# Poissons Ratio (x) = 0.72812 1.12629
# Poissons Ratio (y) = 0.38425 0.25373
# Poissons Ratio (z) = 0.23603 0.10076
#
# Static dielectric constant tensor:
#      x y z
#    x 1.603940 0.000000 0.000000 
#    y 0.000000 1.661010 0.000000 
#    z 0.000000 0.000000 1.597800 
# 
# From -- ./inp_files/34836.got.cif
#   From: 2010.05.17/outbox.cif.g08.bks.cpg/sg51_18_cif.got.tgz:34836.got - 2010.06.03 11:52:47.
