data_PCOD9401145
_publ_section_title
;
Structure prediction by ZEFSAII (Michael W. Deem and Ramdas Pophale) SiO2 
 PCOD9401145
Probable space group: P M M A
;
_chemical_formula_sum "Si O2"
_cell_formula_units_Z 36
_cell_length_a 8.174837
_cell_length_b 24.979996
_cell_length_c 9.196487
_cell_angle_alpha 90.000000
_cell_angle_beta 90.000000
_cell_angle_gamma 90.000000
_cell_volume 1877.990659
_symmetry_space_group_name_H-M "P M M A"
_symmetry_group_IT_number 51
_symmetry_cell_setting 'orthorhombic'
loop_
_space_group_symop_operation_xyz
x,y,z
1/2-x,-y,z
1/2+x,-y,-z
-x,y,-z
-x,-y,-z
1/2+x,y,-z
1/2-x,y,z
x,-y,z
loop_
_atom_site_type_symbol
_atom_site_label
_atom_site_fract_x
_atom_site_fract_y
_atom_site_fract_z
Si Si1 0.444786 0.394625 0.334208
Si Si2 0.448076 0.500000 0.166576
Si Si3 0.447620 0.172602 0.830681
Si Si4 0.554276 0.710965 0.167839
Si Si5 0.052104 0.057579 0.830146
O O1 0.500000 0.396632 0.500000
O O2 0.250000 0.397259 0.330479
O O3 0.508656 0.446364 0.246673
O O4 0.495849 0.339356 0.259299
O O5 0.250000 0.500000 0.172267
O O6 0.500000 0.500000 0.000000
O O7 0.250000 0.172396 0.823758
O O8 0.504726 0.230606 0.774483
O O9 0.505226 0.115131 0.768342
O O10 0.500000 0.172543 0.000000
O O11 0.750000 0.711430 0.170069
O O12 0.500000 0.705458 0.000000
O O13 0.250000 0.057552 0.824586
O O14 0.994913 0.000000 0.768549
O O15 0.000000 0.057601 0.000000
#
# Coordination Sequence:
#
# PCOD9401145 Si02
#       5
#     8   4   8   8   8
#     4  11  23  39  57  79 105 134 167 204 248 294
#     4  10  23  40  60  84 108 134 165 200 239 286
#     4   8  14  23  36  56  84 118 156 197 240 285
#     4  10  19  32  50  73 101 134 171 210 250 295
#     4   8  12  18  29  47  74 110 150 190 233 282
#
# _framework density 19.169425
#
# number of rings (size 3 to 8) (size 9 to 14) (size 15 to 20)
#    0.000    2.667    0.000    2.333    0.000    4.444 
#    0.000    0.000    0.000    0.000    0.000    0.000 
#    0.000    0.889    0.000    1.556    0.000   11.111 
#
# Total GULP energy -200452.792374 kJ/mol
# GULP energy per Si atom -5568.133122 kJ/mol
# Density = 1.912579 g / cm^3
# Si number density = 19.169425 Si / 1000 Ang^3
#
#
#
# Elastic Constant Matrix: (Units=GPa)
#
#
# Indices 1 2 3 4 5 6 
#
# 1 22.1536 23.1924 7.2377 0.0000 0.0000 0.0000
# 2 23.1924 271.9484 80.7688 0.0000 0.0000 0.0000
# 3 7.2377 80.7688 69.2217 0.0000 0.0000 0.0000
# 4 0.0000 0.0000 0.0000 -6.0822 0.0000 0.0000
# 5 0.0000 0.0000 0.0000 0.0000 21.3882 0.0000
# 6 0.0000 0.0000 0.0000 0.0000 0.0000 -6.9816
#
#
#
# Elastic Compliance Matrix: (Units=1/GPa)
#
#
# Indices 1 2 3 4 5 6 
#
# 1 0.049571 -0.004114 -0.000383 0.000000 0.000000 0.000000
# 2 -0.004114 0.005969 -0.006534 0.000000 0.000000 0.000000
# 3 -0.000383 -0.006534 0.022111 0.000000 0.000000 0.000000
# 4 0.000000 0.000000 0.000000 -0.164413 0.000000 0.000000
# 5 0.000000 0.000000 0.000000 0.000000 0.046755 0.000000
# 6 0.000000 0.000000 0.000000 0.000000 0.000000 -0.143233
#
#
# Mechanical properties :
#
#
# Convention : Reuss Voigt Hill
#
# Bulk Modulus (GPa) = 17.98940 65.08018 41.53479
# Shear Modulus (GPa) = -35.05083 18.47318 -8.28883
#
# Velocity S-wave (km/s) = -4.28071 3.10769 -2.08167
# Velocity P-wave (km/s) = 3.87657 6.84840 3.99204
#
# Compressibility (1/GPa) = 0.05558830
#
# Stress axis : x y z
#
# Youngs Moduli (GPa) = 20.17302 167.54193 45.22726
#
# Poissons Ratio (x) = 0.68923 0.01733
# Poissons Ratio (y) = 0.08299 0.29552
# Poissons Ratio (z) = 0.00773 1.09475
#
# Static dielectric constant tensor:
#      x y z
#    x 1.678330 0.000000 0.000000 
#    y 0.000000 1.777540 0.000000 
#    z 0.000000 0.000000 1.597450 
# 
# From -- ./inp_files/5251.got.cif
#   From: 2010.05.17/outbox.cif.g08.bks.cpg/sg51_3_cif.got.tgz:5251.got - 2010.06.03 11:52:47.
