data_PCOD9401003
_publ_section_title
;
Structure prediction by ZEFSAII (Michael W. Deem and Ramdas Pophale) SiO2 
 PCOD9401003
Probable space group: P M M A
;
_chemical_formula_sum "Si O2"
_cell_formula_units_Z 40
_cell_length_a 10.277383
_cell_length_b 9.059725
_cell_length_c 25.072116
_cell_angle_alpha 90.000000
_cell_angle_beta 90.000000
_cell_angle_gamma 90.000000
_cell_volume 2334.471332
_symmetry_space_group_name_H-M "P M M A"
_symmetry_group_IT_number 51
_symmetry_cell_setting 'orthorhombic'
loop_
_space_group_symop_operation_xyz
x,y,z
1/2-x,-y,z
1/2+x,-y,-z
-x,y,-z
-x,-y,-z
1/2+x,y,-z
1/2-x,y,z
x,-y,z
loop_
_atom_site_type_symbol
_atom_site_label
_atom_site_fract_x
_atom_site_fract_y
_atom_site_fract_z
Si Si1 0.408017 0.830063 0.335598
Si Si2 0.003526 0.824752 0.878937
Si Si3 0.750000 0.826545 0.951786
Si Si4 0.593257 0.326508 0.772821
Si Si5 0.900295 0.180199 0.545661
Si Si6 0.250000 0.675757 0.934248
O O1 0.250000 0.832116 0.336277
O O2 0.448023 0.733356 0.285169
O O3 0.444577 0.775666 0.394711
O O4 0.451046 0.000000 0.328634
O O5 0.876745 0.799636 0.915797
O O6 0.972776 0.763068 0.820385
O O7 0.123948 0.741972 0.905302
O O8 0.027513 0.000000 0.877007
O O9 0.750000 0.000000 0.967443
O O10 0.750000 0.729566 0.004617
O O11 0.750000 0.305703 0.776997
O O12 0.566377 0.500000 0.777950
O O13 0.750000 0.226504 0.536717
O O14 0.000000 0.228393 0.500000
O O15 0.899209 0.000000 0.546109
O O16 0.250000 0.500000 0.931497
#
# Coordination Sequence:
#
# PCOD9401003 Si02
#       6
#     8   8   4   8   8   4
#     4   8  14  25  43  67  95 129 168 208 254 307
#     4  11  22  39  61  83 108 142 182 222 264 315
#     4  10  22  40  62  86 108 138 181 224 263 310
#     4  10  19  31  51  79 107 133 171 222 269 314
#     4   8  13  22  39  64  92 122 159 205 252 298
#     4  12  26  40  56  82 116 148 175 214 267 320
#
# _framework density 17.134499999999999
#
# number of rings (size 3 to 8) (size 9 to 14) (size 15 to 20)
#    0.000    2.400    1.000    3.900    0.000    4.800 
#    0.000    0.000    2.200    0.600    0.000    0.000 
#    0.000    0.000    0.000    0.000    0.000    0.000 
#
# Total GULP energy -223102.364813 kJ/mol
# GULP energy per Si atom -5577.559120 kJ/mol
# Density = 1.709550 g / cm^3
# Si number density = 17.134500 Si / 1000 Ang^3
#
#
#
# Elastic Constant Matrix: (Units=GPa)
#
#
# Indices 1 2 3 4 5 6 
#
# 1 83.3294 59.3796 64.1778 0.0000 0.0000 0.0000
# 2 59.3796 81.7362 82.9510 0.0000 0.0000 0.0000
# 3 64.1778 82.9510 176.9187 0.0000 0.0000 0.0000
# 4 0.0000 0.0000 0.0000 -17.2661 0.0000 0.0000
# 5 0.0000 0.0000 0.0000 0.0000 17.8337 0.0000
# 6 0.0000 0.0000 0.0000 0.0000 0.0000 16.9728
#
#
#
# Elastic Compliance Matrix: (Units=1/GPa)
#
#
# Indices 1 2 3 4 5 6 
#
# 1 0.024984 -0.017080 -0.001055 0.000000 0.000000 0.000000
# 2 -0.017080 0.035017 -0.010222 0.000000 0.000000 0.000000
# 3 -0.001055 -0.010222 0.010828 0.000000 0.000000 0.000000
# 4 0.000000 0.000000 0.000000 -0.057917 0.000000 0.000000
# 5 0.000000 0.000000 0.000000 0.000000 0.056074 0.000000
# 6 0.000000 0.000000 0.000000 0.000000 0.000000 0.058918
#
#
# Mechanical properties :
#
#
# Convention : Reuss Voigt Hill
#
# Bulk Modulus (GPa) = 70.84871 83.88900 77.36885
# Shear Modulus (GPa) = 26.41010 12.53982 19.47496
#
# Velocity S-wave (km/s) = 3.93025 2.70820 3.37500
# Velocity P-wave (km/s) = 7.87618 7.67102 7.77427
#
# Compressibility (1/GPa) = 0.01411458
#
# Stress axis : x y z
#
# Youngs Moduli (GPa) = 40.02604 28.55772 92.35343
#
# Poissons Ratio (x) = 0.48775 0.09743
# Poissons Ratio (y) = 0.68363 0.94408
# Poissons Ratio (z) = 0.04223 0.29193
#
# Static dielectric constant tensor:
#      x y z
#    x 1.563860 0.000000 0.000000 
#    y 0.000000 1.566410 0.000000 
#    z 0.000000 0.000000 1.579580 
# 
# From -- ./inp_files/36021.got.cif
#   From: 2010.05.17/outbox.cif.g08.bks.cpg/sg51_19_cif.got.tgz:36021.got - 2010.06.03 11:52:47.
