data_PCOD9401782
_publ_section_title
;
Structure prediction by ZEFSAII (Michael W. Deem and Ramdas Pophale) SiO2 
 PCOD9401782
Probable space group: P M M A
;
_chemical_formula_sum "Si O2"
_cell_formula_units_Z 64
_cell_length_a 31.669100
_cell_length_b 9.008710
_cell_length_c 12.491878
_cell_angle_alpha 90.000000
_cell_angle_beta 90.000000
_cell_angle_gamma 90.000000
_cell_volume 3563.904535
_symmetry_space_group_name_H-M "P M M A"
_symmetry_group_IT_number 51
_symmetry_cell_setting 'orthorhombic'
loop_
_space_group_symop_operation_xyz
x,y,z
1/2-x,-y,z
1/2+x,-y,-z
-x,y,-z
-x,-y,-z
1/2+x,y,-z
1/2-x,y,z
x,-y,z
loop_
_atom_site_type_symbol
_atom_site_label
_atom_site_fract_x
_atom_site_fract_y
_atom_site_fract_z
Si Si1 0.109065 0.176486 0.860126
Si Si2 0.520516 0.327395 0.117199
Si Si3 0.298327 0.319242 0.483321
Si Si4 0.374487 0.320468 0.637630
Si Si5 0.133227 0.822999 0.096443
Si Si6 0.563479 0.676463 0.753224
Si Si7 0.451362 0.319166 0.487174
Si Si8 0.699675 0.673016 0.759499
O O1 0.059990 0.221883 0.867214
O O2 0.127538 0.255185 0.755886
O O3 0.113536 0.000000 0.850366
O O4 0.129068 0.225851 0.973182
O O5 0.534482 0.500000 0.125772
O O6 0.484063 0.302522 0.204112
O O7 0.500000 0.308140 0.000000
O O8 0.250000 0.271270 0.506657
O O9 0.297647 0.500000 0.482458
O O10 0.334243 0.273457 0.566358
O O11 0.309923 0.275381 0.361814
O O12 0.374704 0.500000 0.642285
O O13 0.418127 0.273914 0.578465
O O14 0.095175 0.757763 0.167419
O O15 0.175389 0.766211 0.152811
O O16 0.130824 0.000000 0.098201
O O17 0.572354 0.500000 0.758285
O O18 0.565807 0.724523 0.629902
O O19 0.500000 0.269419 0.500000
O O20 0.452358 0.500000 0.488381
O O21 0.750000 0.680235 0.771640
O O22 0.686827 0.500000 0.768050
#
# Coordination Sequence:
#
# PCOD9401782 Si02
#       8
#     8   8   8   8   8   8   8   8
#     4  11  24  38  51  71 107 151 185 218 264 315
#     4  10  19  33  55  81 103 133 181 229 267 309
#     4   8  15  31  57  87 111 131 165 218 277 328
#     4  10  19  33  55  78 103 139 181 224 267 316
#     4  11  23  36  51  75 108 144 178 213 259 315
#     4  10  19  33  56  81 105 134 173 223 270 314
#     4   9  17  30  50  77 106 135 170 216 273 327
#     4   9  18  35  61  88 110 133 166 213 268 324
#
# _framework density 17.957832
#
# number of rings (size 3 to 8) (size 9 to 14) (size 15 to 20)
#    0.000    2.250    1.250    3.000    0.000    6.500 
#    0.000    3.125    0.000    4.875    0.000    0.000 
#    0.000    0.000    0.000    0.000    0.000    0.000 
#
# Total GULP energy -357177.051995 kJ/mol
# GULP energy per Si atom -5580.891437 kJ/mol
# Density = 1.791696 g / cm^3
# Si number density = 17.957832 Si / 1000 Ang^3
#
#
#
# Elastic Constant Matrix: (Units=GPa)
#
#
# Indices 1 2 3 4 5 6 
#
# 1 77.9911 23.7603 67.3992 0.0000 0.0000 0.0000
# 2 23.7603 19.2750 38.5510 0.0000 0.0000 0.0000
# 3 67.3992 38.5510 159.7120 0.0000 0.0000 0.0000
# 4 0.0000 0.0000 0.0000 5.8527 0.0000 0.0000
# 5 0.0000 0.0000 0.0000 0.0000 25.0835 0.0000
# 6 0.0000 0.0000 0.0000 0.0000 0.0000 -41.2992
#
#
#
# Elastic Compliance Matrix: (Units=1/GPa)
#
#
# Indices 1 2 3 4 5 6 
#
# 1 0.022769 -0.017110 -0.005479 0.000000 0.000000 0.000000
# 2 -0.017110 0.113162 -0.020094 0.000000 0.000000 0.000000
# 3 -0.005479 -0.020094 0.013424 0.000000 0.000000 0.000000
# 4 0.000000 0.000000 0.000000 0.170861 0.000000 0.000000
# 5 0.000000 0.000000 0.000000 0.000000 0.039867 0.000000
# 6 0.000000 0.000000 0.000000 0.000000 0.000000 -0.024214
#
#
# Mechanical properties :
#
#
# Convention : Reuss Voigt Hill
#
# Bulk Modulus (GPa) = 15.62772 57.37768 36.50270
# Shear Modulus (GPa) = 11.29777 6.41191 8.85484
#
# Velocity S-wave (km/s) = 2.51096 1.89164 2.22297
# Velocity P-wave (km/s) = 4.13859 6.06562 5.19229
#
# Compressibility (1/GPa) = 0.06398885
#
# Stress axis : x y z
#
# Youngs Moduli (GPa) = 43.91873 8.83688 74.49506
#
# Poissons Ratio (x) = 0.15120 0.40814
# Poissons Ratio (y) = 0.75145 1.49693
# Poissons Ratio (z) = 0.24062 0.17757
#
# Static dielectric constant tensor:
#      x y z
#    x 1.612110 0.000000 0.000000 
#    y 0.000000 1.597990 0.000000 
#    z 0.000000 0.000000 1.616620 
# 
# From -- ./inp_files/19637.got.cif
#   From: 2010.05.17/outbox.cif.g08.bks.cpg/sg51_10_cif.got.tgz:19637.got - 2010.06.03 11:52:47.
