data_PCOD9401946
_publ_section_title
;
Structure prediction by ZEFSAII (Michael W. Deem and Ramdas Pophale) SiO2 
 PCOD9401946
Probable space group: P M M A
;
_chemical_formula_sum "Si O2"
_cell_formula_units_Z 64
_cell_length_a 17.791736
_cell_length_b 13.894405
_cell_length_c 12.585327
_cell_angle_alpha 90.000000
_cell_angle_beta 90.000000
_cell_angle_gamma 90.000000
_cell_volume 3111.163131
_symmetry_space_group_name_H-M "P M M A"
_symmetry_group_IT_number 51
_symmetry_cell_setting 'orthorhombic'
loop_
_space_group_symop_operation_xyz
x,y,z
1/2-x,-y,z
1/2+x,-y,-z
-x,y,-z
-x,-y,-z
1/2+x,y,-z
1/2-x,y,z
x,-y,z
loop_
_atom_site_type_symbol
_atom_site_label
_atom_site_fract_x
_atom_site_fract_y
_atom_site_fract_z
Si Si1 0.337061 0.181784 0.816687
Si Si2 0.840467 0.887509 0.949581
Si Si3 0.938113 0.389241 0.779425
Si Si4 0.381835 0.391401 0.791410
Si Si5 0.832705 0.389348 0.964559
Si Si6 0.551307 0.108935 0.345964
Si Si7 0.394009 0.193959 0.276951
Si Si8 0.831734 0.115788 0.514295
O O1 0.250000 0.155042 0.811761
O O2 0.347813 0.287302 0.761979
O O3 0.388798 0.111685 0.749163
O O4 0.359073 0.172009 0.942127
O O5 0.750000 0.887198 0.939631
O O6 0.873704 0.842981 0.841138
O O7 0.863934 0.000000 0.961165
O O8 0.921599 0.500000 0.751841
O O9 0.904158 0.361703 0.894781
O O10 0.895818 0.309362 0.710658
O O11 0.028196 0.381107 0.781233
O O12 0.361920 0.500000 0.749036
O O13 0.354777 0.392153 0.913341
O O14 0.750000 0.341564 0.949156
O O15 0.822684 0.500000 0.932466
O O16 0.478323 0.163231 0.306605
O O17 0.596826 0.150562 0.446468
O O18 0.527990 0.000000 0.370733
O O19 0.340909 0.146264 0.364185
O O20 0.750000 0.148108 0.473042
O O21 0.833304 0.000000 0.506650
#
# Coordination Sequence:
#
# PCOD9401946 Si02
#       8
#     8   8   8   8   8   8   8   8
#     4  11  22  37  58  85 118 162 203 239 290 354
#     4  10  22  38  56  84 125 166 200 239 293 358
#     4  10  21  36  54  79 117 157 194 239 297 352
#     4  10  19  34  53  76 110 153 201 249 290 335
#     4   9  17  29  48  75 107 148 197 245 288 332
#     4  11  23  40  61  88 119 152 192 244 295 352
#     4  12  22  37  62  90 118 153 198 244 294 350
#     4  10  22  41  66  92 116 146 189 244 302 353
#
# _framework density 20.571085
#
# number of rings (size 3 to 8) (size 9 to 14) (size 15 to 20)
#    0.000    1.625    1.250    4.125    0.000    8.000 
#    0.000    1.250    0.000    2.250    0.000    0.000 
#    0.000    0.000    0.000    0.000    0.000    0.000 
#
# Total GULP energy -356649.303122 kJ/mol
# GULP energy per Si atom -5572.645361 kJ/mol
# Density = 2.052426 g / cm^3
# Si number density = 20.571085 Si / 1000 Ang^3
#
#
#
# Elastic Constant Matrix: (Units=GPa)
#
#
# Indices 1 2 3 4 5 6 
#
# 1 35.0836 4.1353 3.9823 0.0000 0.0000 0.0000
# 2 4.1353 97.0609 3.7409 0.0000 0.0000 0.0000
# 3 3.9823 3.7409 55.7691 0.0000 0.0000 0.0000
# 4 0.0000 0.0000 0.0000 4.0822 0.0000 0.0000
# 5 0.0000 0.0000 0.0000 0.0000 20.6065 0.0000
# 6 0.0000 0.0000 0.0000 0.0000 0.0000 14.6084
#
#
#
# Elastic Compliance Matrix: (Units=1/GPa)
#
#
# Indices 1 2 3 4 5 6 
#
# 1 0.028864 -0.001153 -0.001984 0.000000 0.000000 0.000000
# 2 -0.001153 0.010376 -0.000614 0.000000 0.000000 0.000000
# 3 -0.001984 -0.000614 0.018114 0.000000 0.000000 0.000000
# 4 0.000000 0.000000 0.000000 0.244966 0.000000 0.000000
# 5 0.000000 0.000000 0.000000 0.000000 0.048528 0.000000
# 6 0.000000 0.000000 0.000000 0.000000 0.000000 0.068454
#
#
# Mechanical properties :
#
#
# Convention : Reuss Voigt Hill
#
# Bulk Modulus (GPa) = 20.05918 23.51453 21.78686
# Shear Modulus (GPa) = 11.27596 19.59642 15.43619
#
# Velocity S-wave (km/s) = 2.34379 3.08980 2.74228
# Velocity P-wave (km/s) = 4.13483 4.91781 4.54322
#
# Compressibility (1/GPa) = 0.04985249
#
# Stress axis : x y z
#
# Youngs Moduli (GPa) = 34.64468 96.38000 55.20628
#
# Poissons Ratio (x) = 0.11116 0.10952
# Poissons Ratio (y) = 0.03996 0.03388
# Poissons Ratio (z) = 0.06873 0.05914
#
# Static dielectric constant tensor:
#      x y z
#    x 1.747890 0.000000 0.000000 
#    y 0.000000 1.861620 0.000000 
#    z 0.000000 0.000000 1.757000 
# 
# From -- ./inp_files/17598.got.cif
#   From: 2010.05.17/outbox.cif.g08.bks.cpg/sg51_9_cif.got.tgz:17598.got - 2010.06.03 11:52:47.
