data_PCOD9401225
_publ_section_title
;
Structure prediction by ZEFSAII (Michael W. Deem and Ramdas Pophale) SiO2 
 PCOD9401225
Probable space group: P M M A
;
_chemical_formula_sum "Si O2"
_cell_formula_units_Z 48
_cell_length_a 8.729612
_cell_length_b 16.734446
_cell_length_c 18.912116
_cell_angle_alpha 90.000000
_cell_angle_beta 90.000000
_cell_angle_gamma 90.000000
_cell_volume 2762.780638
_symmetry_space_group_name_H-M "P M M A"
_symmetry_group_IT_number 51
_symmetry_cell_setting 'orthorhombic'
loop_
_space_group_symop_operation_xyz
x,y,z
1/2-x,-y,z
1/2+x,-y,-z
-x,y,-z
-x,-y,-z
1/2+x,y,-z
1/2-x,y,z
x,-y,z
loop_
_atom_site_type_symbol
_atom_site_label
_atom_site_fract_x
_atom_site_fract_y
_atom_site_fract_z
Si Si1 0.934002 0.000000 0.578853
Si Si2 0.067533 0.744328 0.711464
Si Si3 0.434186 0.161279 0.851897
Si Si4 0.432080 0.683706 0.074205
Si Si5 0.566648 0.590951 0.784098
Si Si6 0.933866 0.000000 0.919742
Si Si7 0.066472 0.174317 0.420981
O O1 0.981259 0.914113 0.608156
O O2 0.000000 0.000000 0.500000
O O3 0.750000 0.000000 0.576352
O O4 0.250000 0.747914 0.706426
O O5 0.020355 0.807724 0.773165
O O6 0.015312 0.657208 0.736914
O O7 0.994302 0.764538 0.636449
O O8 0.250000 0.154166 0.854337
O O9 0.488671 0.233388 0.902509
O O10 0.508243 0.078946 0.878308
O O11 0.250000 0.696660 0.069370
O O12 0.461155 0.619131 0.135447
O O13 0.500000 0.657444 0.000000
O O14 0.750000 0.595769 0.772329
O O15 0.517273 0.500000 0.772276
O O16 0.750000 0.000000 0.923285
O O17 0.000000 0.000000 0.000000
O O18 0.250000 0.177402 0.425566
O O19 0.000000 0.184253 0.500000
#
# Coordination Sequence:
#
# PCOD9401225 Si02
#       7
#     4   8   8   8   8   4   8
#     4   8  16  29  46  71 101 134 168 202 241 283
#     4  10  21  36  55  79 106 137 173 214 261 312
#     4  10  21  37  53  72 101 137 178 220 262 309
#     4  10  19  32  51  75 103 134 169 211 259 310
#     4   9  19  36  56  77 102 134 171 210 256 312
#     4  12  24  37  54  75 102 138 182 228 270 311
#     4  10  19  33  54  80 111 144 179 217 257 305
#
# _framework density 17.373801
#
# number of rings (size 3 to 8) (size 9 to 14) (size 15 to 20)
#    0.000    2.167    0.000    3.250    0.000    4.667 
#    0.000    1.667    0.000    0.500    0.000    0.000 
#    0.000    0.000    0.000    0.000    0.000    0.000 
#
# Total GULP energy -267749.983801 kJ/mol
# GULP energy per Si atom -5578.124663 kJ/mol
# Density = 1.733426 g / cm^3
# Si number density = 17.373801 Si / 1000 Ang^3
#
#
#
# Elastic Constant Matrix: (Units=GPa)
#
#
# Indices 1 2 3 4 5 6 
#
# 1 63.8027 49.4823 48.8298 0.0000 0.0000 0.0000
# 2 49.4823 119.8999 62.7266 0.0000 0.0000 0.0000
# 3 48.8298 62.7266 111.5274 0.0000 0.0000 0.0000
# 4 0.0000 0.0000 0.0000 9.3331 0.0000 0.0000
# 5 0.0000 0.0000 0.0000 0.0000 27.6295 0.0000
# 6 0.0000 0.0000 0.0000 0.0000 0.0000 24.6885
#
#
#
# Elastic Compliance Matrix: (Units=1/GPa)
#
#
# Indices 1 2 3 4 5 6 
#
# 1 0.027252 -0.007091 -0.007943 0.000000 0.000000 0.000000
# 2 -0.007091 0.013663 -0.004580 0.000000 0.000000 0.000000
# 3 -0.007943 -0.004580 0.015020 0.000000 0.000000 0.000000
# 4 0.000000 0.000000 0.000000 0.107145 0.000000 0.000000
# 5 0.000000 0.000000 0.000000 0.000000 0.036193 0.000000
# 6 0.000000 0.000000 0.000000 0.000000 0.000000 0.040505
#
#
# Mechanical properties :
#
#
# Convention : Reuss Voigt Hill
#
# Bulk Modulus (GPa) = 59.85746 68.58969 64.22358
# Shear Modulus (GPa) = 17.57005 21.27631 19.42318
#
# Velocity S-wave (km/s) = 3.18354 3.50325 3.34722
# Velocity P-wave (km/s) = 6.93114 7.47852 7.21003
#
# Compressibility (1/GPa) = 0.01670636
#
# Stress axis : x y z
#
# Youngs Moduli (GPa) = 36.69423 73.19216 66.57797
#
# Poissons Ratio (x) = 0.51902 0.52886
# Poissons Ratio (y) = 0.26021 0.30490
# Poissons Ratio (z) = 0.29148 0.33519
#
# Static dielectric constant tensor:
#      x y z
#    x 1.581310 0.000000 0.000000 
#    y 0.000000 1.587350 0.000000 
#    z 0.000000 0.000000 1.574800 
# 
# From -- ./inp_files/27669.got.cif
#   From: 2010.05.17/outbox.cif.g08.bks.cpg/sg51_14_cif.got.tgz:27669.got - 2010.06.03 11:52:47.
