data_PCOD9401178
_publ_section_title
;
Structure prediction by ZEFSAII (Michael W. Deem and Ramdas Pophale) SiO2 
 PCOD9401178
Probable space group: P M M A
;
_chemical_formula_sum "Si O2"
_cell_formula_units_Z 48
_cell_length_a 10.512273
_cell_length_b 13.843023
_cell_length_c 19.019408
_cell_angle_alpha 90.000000
_cell_angle_beta 90.000000
_cell_angle_gamma 90.000000
_cell_volume 2767.735385
_symmetry_space_group_name_H-M "P M M A"
_symmetry_group_IT_number 51
_symmetry_cell_setting 'orthorhombic'
loop_
_space_group_symop_operation_xyz
x,y,z
1/2-x,-y,z
1/2+x,-y,-z
-x,y,-z
-x,-y,-z
1/2+x,y,-z
1/2-x,y,z
x,-y,z
loop_
_atom_site_type_symbol
_atom_site_label
_atom_site_fract_x
_atom_site_fract_y
_atom_site_fract_z
Si Si1 0.602337 0.270720 0.793439
Si Si2 0.105900 0.111921 0.792068
Si Si3 0.899712 0.613300 0.936729
Si Si4 0.882531 0.113783 0.039320
Si Si5 0.473313 0.616038 0.341720
Si Si6 0.750000 0.617490 0.554229
Si Si7 0.750000 0.617868 0.391591
O O1 0.750000 0.239955 0.794497
O O2 0.506697 0.184184 0.773705
O O3 0.573566 0.318699 0.869333
O O4 0.580566 0.348746 0.732345
O O5 0.250000 0.139087 0.769289
O O6 0.107116 0.115292 0.877286
O O7 0.084076 0.000000 0.771864
O O8 0.750000 0.625551 0.956861
O O9 0.912870 0.500000 0.915147
O O10 0.000000 0.627820 0.000000
O O11 0.750000 0.159271 0.017082
O O12 0.877725 0.000000 0.019735
O O13 0.000000 0.158120 0.000000
O O14 0.474510 0.500000 0.342907
O O15 0.375863 0.647962 0.403058
O O16 0.618159 0.649248 0.355545
O O17 0.750000 0.500000 0.553592
O O18 0.750000 0.648207 0.473294
O O19 0.750000 0.500000 0.390543
#
# Coordination Sequence:
#
# PCOD9401178 Si02
#       7
#     8   8   8   8   8   4   4
#     4  11  22  34  52  76 102 135 175 218 264 310
#     4   9  20  37  52  67  93 128 164 211 268 318
#     4   9  19  36  54  72  98 135 179 221 262 307
#     4   8  14  26  44  64  84 109 143 185 241 305
#     4  10  19  32  50  77 112 144 174 206 243 293
#     4   9  16  30  52  74 108 150 174 195 238 296
#     4   9  18  30  48  78 110 144 178 201 232 290
#
# _framework density 17.342697999999999
#
# number of rings (size 3 to 8) (size 9 to 14) (size 15 to 20)
#    0.000    2.667    0.833    2.000    1.167    5.000 
#    0.000    5.000    0.000    0.000    0.000    0.000 
#    0.000    4.000    0.000    0.000    0.000    0.000 
#
# Total GULP energy -267448.400939 kJ/mol
# GULP energy per Si atom -5571.841686 kJ/mol
# Density = 1.730323 g / cm^3
# Si number density = 17.342698 Si / 1000 Ang^3
#
#
#
# Elastic Constant Matrix: (Units=GPa)
#
#
# Indices 1 2 3 4 5 6 
#
# 1 106.5521 25.7734 25.2589 0.0000 0.0000 0.0000
# 2 25.7734 53.5230 3.9991 0.0000 0.0000 0.0000
# 3 25.2589 3.9991 52.4172 0.0000 0.0000 0.0000
# 4 0.0000 0.0000 0.0000 3.7804 0.0000 0.0000
# 5 0.0000 0.0000 0.0000 0.0000 26.2269 0.0000
# 6 0.0000 0.0000 0.0000 0.0000 0.0000 14.2289
#
#
#
# Elastic Compliance Matrix: (Units=1/GPa)
#
#
# Indices 1 2 3 4 5 6 
#
# 1 0.011948 -0.005354 -0.005349 0.000000 0.000000 0.000000
# 2 -0.005354 0.021190 0.000963 0.000000 0.000000 0.000000
# 3 -0.005349 0.000963 0.021582 0.000000 0.000000 0.000000
# 4 0.000000 0.000000 0.000000 0.264519 0.000000 0.000000
# 5 0.000000 0.000000 0.000000 0.000000 0.038129 0.000000
# 6 0.000000 0.000000 0.000000 0.000000 0.000000 0.070280
#
#
# Mechanical properties :
#
#
# Convention : Reuss Voigt Hill
#
# Bulk Modulus (GPa) = 28.37658 35.83944 32.10801
# Shear Modulus (GPa) = 10.89626 19.34464 15.12045
#
# Velocity S-wave (km/s) = 2.50929 3.34344 2.95594
# Velocity P-wave (km/s) = 4.97928 5.96783 5.49583
#
# Compressibility (1/GPa) = 0.03524033
#
# Stress axis : x y z
#
# Youngs Moduli (GPa) = 83.69500 47.19286 46.33518
#
# Poissons Ratio (x) = 0.25266 0.24785
# Poissons Ratio (y) = 0.44809 -0.04463
# Poissons Ratio (z) = 0.44770 -0.04546
#
# Static dielectric constant tensor:
#      x y z
#    x 1.630830 0.000000 0.000000 
#    y 0.000000 1.590980 0.000000 
#    z 0.000000 0.000000 1.559050 
# 
# From -- ./inp_files/27652.got.cif
#   From: 2010.05.17/outbox.cif.g08.bks.cpg/sg51_14_cif.got.tgz:27652.got - 2010.06.03 11:52:47.
