data_PCOD9401578
_publ_section_title
;
Structure prediction by ZEFSAII (Michael W. Deem and Ramdas Pophale) SiO2 
 PCOD9401578
Probable space group: P M M A
;
_chemical_formula_sum "Si O2"
_cell_formula_units_Z 40
_cell_length_a 13.445451
_cell_length_b 13.321838
_cell_length_c 9.964138
_cell_angle_alpha 90.000000
_cell_angle_beta 90.000000
_cell_angle_gamma 90.000000
_cell_volume 1784.757667
_symmetry_space_group_name_H-M "P M M A"
_symmetry_group_IT_number 51
_symmetry_cell_setting 'orthorhombic'
loop_
_space_group_symop_operation_xyz
x,y,z
1/2-x,-y,z
1/2+x,-y,-z
-x,y,-z
-x,-y,-z
1/2+x,y,-z
1/2-x,y,z
x,-y,z
loop_
_atom_site_type_symbol
_atom_site_label
_atom_site_fract_x
_atom_site_fract_y
_atom_site_fract_z
Si Si1 0.929001 0.321824 0.189756
Si Si2 0.641228 0.617450 0.907068
Si Si3 0.868478 0.609832 0.481518
Si Si4 0.431687 0.110731 0.707153
Si Si5 0.634729 0.827513 0.587174
O O1 0.908794 0.374575 0.331439
O O2 0.045111 0.329205 0.152284
O O3 0.899486 0.205377 0.204890
O O4 0.869972 0.371628 0.067569
O O5 0.750000 0.654455 0.862908
O O6 0.634537 0.500000 0.872919
O O7 0.750000 0.610969 0.471139
O O8 0.896780 0.500000 0.536205
O O9 0.892176 0.709519 0.565760
O O10 0.380938 0.125313 0.561183
O O11 0.550134 0.124061 0.679422
O O12 0.410286 0.000000 0.759438
O O13 0.750000 0.838568 0.626723
#
# Coordination Sequence:
#
# PCOD9401578 Si02
#       5
#     8   8   8   8   8
#     4  10  19  33  52  74 100 130 165 204 245 294
#     4  10  20  35  55  77 101 128 158 196 245 302
#     4   9  16  28  49  77 106 134 164 199 241 289
#     4  10  21  35  51  73  99 131 171 211 248 284
#     4   9  18  33  52  74 102 135 169 204 242 290
#
# _framework density 22.412005000000001
#
# number of rings (size 3 to 8) (size 9 to 14) (size 15 to 20)
#    0.000    2.400    0.000    4.200    0.000    4.800 
#    0.000   12.000    0.000    3.600    0.000    0.000 
#    0.000    0.000    0.000    0.000    0.000    0.000 
#
# Total GULP energy -223706.171487 kJ/mol
# GULP energy per Si atom -5592.654287 kJ/mol
# Density = 2.236099 g / cm^3
# Si number density = 22.412005 Si / 1000 Ang^3
#
#
#
# Elastic Constant Matrix: (Units=GPa)
#
#
# Indices 1 2 3 4 5 6 
#
# 1 88.4407 -2.6624 1.6877 0.0000 0.0000 0.0000
# 2 -2.6624 143.9195 4.0677 0.0000 0.0000 0.0000
# 3 1.6877 4.0677 44.6229 0.0000 0.0000 0.0000
# 4 0.0000 0.0000 0.0000 -4.8042 0.0000 0.0000
# 5 0.0000 0.0000 0.0000 0.0000 9.7242 0.0000
# 6 0.0000 0.0000 0.0000 0.0000 0.0000 17.1349
#
#
#
# Elastic Compliance Matrix: (Units=1/GPa)
#
#
# Indices 1 2 3 4 5 6 
#
# 1 0.011322 0.000222 -0.000448 0.000000 0.000000 0.000000
# 2 0.000222 0.006971 -0.000644 0.000000 0.000000 0.000000
# 3 -0.000448 -0.000644 0.022486 0.000000 0.000000 0.000000
# 4 0.000000 0.000000 0.000000 -0.208153 0.000000 0.000000
# 5 0.000000 0.000000 0.000000 0.000000 0.102836 0.000000
# 6 0.000000 0.000000 0.000000 0.000000 0.000000 0.058361
#
#
# Mechanical properties :
#
#
# Convention : Reuss Voigt Hill
#
# Bulk Modulus (GPa) = 25.61590 31.46322 28.53956
# Shear Modulus (GPa) = 583.10121 22.67032 302.88577
#
# Velocity S-wave (km/s) = 16.14740 3.18390 11.63778
# Velocity P-wave (km/s) = 18.95008 5.25217 13.90487
#
# Compressibility (1/GPa) = 0.03903825
#
# Stress axis : x y z
#
# Youngs Moduli (GPa) = 88.32159 143.45894 44.47274
#
# Poissons Ratio (x) = -0.03187 0.01994
# Poissons Ratio (y) = -0.01962 0.02863
# Poissons Ratio (z) = 0.03961 0.09236
#
# Static dielectric constant tensor:
#      x y z
#    x 1.850080 0.000000 0.000000 
#    y 0.000000 1.833780 0.000000 
#    z 0.000000 0.000000 1.829770 
# 
# From -- ./inp_files/16191.got.cif
#   From: 2010.05.17/outbox.cif.g08.bks.cpg/sg51_9_cif.got.tgz:16191.got - 2010.06.03 11:52:47.
