data_PCOD9401414
_publ_section_title
;
Structure prediction by ZEFSAII (Michael W. Deem and Ramdas Pophale) SiO2 
 PCOD9401414
Probable space group: P M M A
;
_chemical_formula_sum "Si O2"
_cell_formula_units_Z 40
_cell_length_a 8.983942
_cell_length_b 13.151314
_cell_length_c 19.876840
_cell_angle_alpha 90.000000
_cell_angle_beta 90.000000
_cell_angle_gamma 90.000000
_cell_volume 2348.461411
_symmetry_space_group_name_H-M "P M M A"
_symmetry_group_IT_number 51
_symmetry_cell_setting 'orthorhombic'
loop_
_space_group_symop_operation_xyz
x,y,z
1/2-x,-y,z
1/2+x,-y,-z
-x,y,-z
-x,-y,-z
1/2+x,y,-z
1/2-x,y,z
x,-y,z
loop_
_atom_site_type_symbol
_atom_site_label
_atom_site_fract_x
_atom_site_fract_y
_atom_site_fract_z
Si Si1 0.071392 0.790558 0.824848
Si Si2 0.427788 0.617786 0.426601
Si Si3 0.422289 0.000000 0.335334
Si Si4 0.579350 0.000000 0.828173
Si Si5 0.070546 0.383392 0.927799
Si Si6 0.928621 0.212303 0.333104
O O1 0.250000 0.799376 0.828329
O O2 0.023686 0.696557 0.871059
O O3 0.033712 0.774955 0.746183
O O4 0.000960 0.896365 0.848975
O O5 0.500000 0.632506 0.500000
O O6 0.250000 0.632508 0.430246
O O7 0.455869 0.500000 0.406820
O O8 0.500304 0.696942 0.375447
O O9 0.424674 0.000000 0.253608
O O10 0.505140 0.896544 0.355871
O O11 0.250000 0.000000 0.356864
O O12 0.750000 0.000000 0.849860
O O13 0.250000 0.379234 0.933220
O O14 0.029561 0.500000 0.910785
O O15 0.000000 0.358978 0.000000
O O16 0.750000 0.211720 0.339669
#
# Coordination Sequence:
#
# PCOD9401414 Si02
#       6
#     8   8   4   4   8   8
#     4   9  18  32  51  74 101 132 165 202 245 297
#     4  10  21  37  55  75 102 136 171 207 250 299
#     4   9  17  31  50  73 104 137 166 202 250 299
#     4   9  17  29  48  73 100 129 163 204 247 291
#     4   9  18  33  51  71  97 130 166 204 248 296
#     4  10  19  32  53  79 104 132 168 208 250 298
#
# _framework density 17.032426999999998
#
# number of rings (size 3 to 8) (size 9 to 14) (size 15 to 20)
#    0.000    2.600    0.000    1.800    0.000    6.000 
#    0.000    3.000    0.000    2.400    0.000    0.000 
#    0.000    0.000    0.000    0.000    0.000    0.000 
#
# Total GULP energy -223045.873098 kJ/mol
# GULP energy per Si atom -5576.146827 kJ/mol
# Density = 1.699366 g / cm^3
# Si number density = 17.032427 Si / 1000 Ang^3
#
#
#
# Elastic Constant Matrix: (Units=GPa)
#
#
# Indices 1 2 3 4 5 6 
#
# 1 63.6430 74.5980 47.5285 0.0000 0.0000 0.0000
# 2 74.5980 177.9247 97.8916 0.0000 0.0000 0.0000
# 3 47.5285 97.8916 74.3720 0.0000 0.0000 0.0000
# 4 0.0000 0.0000 0.0000 -27.4767 0.0000 0.0000
# 5 0.0000 0.0000 0.0000 0.0000 25.8724 0.0000
# 6 0.0000 0.0000 0.0000 0.0000 0.0000 24.5668
#
#
#
# Elastic Compliance Matrix: (Units=1/GPa)
#
#
# Indices 1 2 3 4 5 6 
#
# 1 0.032986 -0.008092 -0.010429 0.000000 0.000000 0.000000
# 2 -0.008092 0.022362 -0.024262 0.000000 0.000000 0.000000
# 3 -0.010429 -0.024262 0.052046 0.000000 0.000000 0.000000
# 4 0.000000 0.000000 0.000000 -0.036394 0.000000 0.000000
# 5 0.000000 0.000000 0.000000 0.000000 0.038651 0.000000
# 6 0.000000 0.000000 0.000000 0.000000 0.000000 0.040705
#
#
# Mechanical properties :
#
#
# Convention : Reuss Voigt Hill
#
# Bulk Modulus (GPa) = 45.81517 83.99731 64.90624
# Shear Modulus (GPa) = 20.55935 10.98727 15.77331
#
# Velocity S-wave (km/s) = 3.47806 2.54260 3.04645
# Velocity P-wave (km/s) = 6.56402 7.61859 7.11088
#
# Compressibility (1/GPa) = 0.02182683
#
# Stress axis : x y z
#
# Youngs Moduli (GPa) = 30.31589 44.71907 19.21379
#
# Poissons Ratio (x) = 0.36186 0.20038
# Poissons Ratio (y) = 0.24531 0.46617
# Poissons Ratio (z) = 0.31617 1.08499
#
# Static dielectric constant tensor:
#      x y z
#    x 1.569920 0.000000 0.000000 
#    y 0.000000 1.566200 0.000000 
#    z 0.000000 0.000000 1.552520 
# 
# From -- ./inp_files/31444.got.cif
#   From: 2010.05.17/outbox.cif.g08.bks.cpg/sg51_16_cif.got.tgz:31444.got - 2010.06.03 11:52:47.
