data_PCOD9401767
_publ_section_title
;
Structure prediction by ZEFSAII (Michael W. Deem and Ramdas Pophale) SiO2 
 PCOD9401767
Probable space group: P M M A
;
_chemical_formula_sum "Si O2"
_cell_formula_units_Z 56
_cell_length_a 14.325427
_cell_length_b 15.004913
_cell_length_c 14.875264
_cell_angle_alpha 90.000000
_cell_angle_beta 90.000000
_cell_angle_gamma 90.000000
_cell_volume 3197.464561
_symmetry_space_group_name_H-M "P M M A"
_symmetry_group_IT_number 51
_symmetry_cell_setting 'orthorhombic'
loop_
_space_group_symop_operation_xyz
x,y,z
1/2-x,-y,z
1/2+x,-y,-z
-x,y,-z
-x,-y,-z
1/2+x,y,-z
1/2-x,y,z
x,-y,z
loop_
_atom_site_type_symbol
_atom_site_label
_atom_site_fract_x
_atom_site_fract_y
_atom_site_fract_z
Si Si1 0.860808 0.897340 0.438301
Si Si2 0.863129 0.405187 0.664743
Si Si3 0.137814 0.401000 0.933865
Si Si4 0.984725 0.773631 0.102701
Si Si5 0.489832 0.105869 0.732444
Si Si6 0.860233 0.645054 0.863141
Si Si7 0.637584 0.792490 0.618728
O O1 0.750000 0.890630 0.422684
O O2 0.915527 0.877436 0.347273
O O3 0.884522 0.834569 0.521850
O O4 0.881814 0.000000 0.464166
O O5 0.750000 0.405590 0.658265
O O6 0.896930 0.500000 0.626646
O O7 0.887013 0.402260 0.770802
O O8 0.893364 0.310847 0.624273
O O9 0.250000 0.390388 0.921613
O O10 0.111523 0.500000 0.898894
O O11 0.082551 0.314369 0.898001
O O12 0.119369 0.401143 0.041591
O O13 0.957645 0.847084 0.175416
O O14 0.084819 0.736636 0.133119
O O15 0.000000 0.804543 0.000000
O O16 0.584098 0.150158 0.693500
O O17 0.500361 0.000000 0.744184
O O18 0.750000 0.658281 0.859530
O O19 0.750000 0.796456 0.631617
#
# Coordination Sequence:
#
# PCOD9401767 Si02
#       7
#     8   8   8   8   8   8   8
#     4   9  19  36  58  80  99 125 169 222 267 307
#     4   9  16  26  45  74 106 137 164 194 242 308
#     4   9  18  32  51  74 100 132 174 222 263 299
#     4  10  21  34  50  76 104 142 177 212 255 309
#     4  11  22  36  54  77 103 136 176 219 265 311
#     4   9  16  29  48  73 105 135 169 210 253 301
#     4  10  19  33  54  82 109 132 162 209 267 320
#
# _framework density 17.513876
#
# number of rings (size 3 to 8) (size 9 to 14) (size 15 to 20)
#    0.000    2.429    1.429    1.286    0.000    7.714 
#    0.000    0.000    0.000    2.571    0.000    8.000 
#    0.000    0.000    0.000    0.000    0.000    0.000 
#
# Total GULP energy -311942.604540 kJ/mol
# GULP energy per Si atom -5570.403652 kJ/mol
# Density = 1.747401 g / cm^3
# Si number density = 17.513876 Si / 1000 Ang^3
#
#
#
# Elastic Constant Matrix: (Units=GPa)
#
#
# Indices 1 2 3 4 5 6 
#
# 1 32.4307 38.0767 32.9670 0.0000 0.0000 0.0000
# 2 38.0767 145.6772 91.6220 0.0000 0.0000 0.0000
# 3 32.9670 91.6220 103.7275 0.0000 0.0000 0.0000
# 4 0.0000 0.0000 0.0000 -7.0927 0.0000 0.0000
# 5 0.0000 0.0000 0.0000 0.0000 16.9335 0.0000
# 6 0.0000 0.0000 0.0000 0.0000 0.0000 11.7288
#
#
#
# Elastic Compliance Matrix: (Units=1/GPa)
#
#
# Indices 1 2 3 4 5 6 
#
# 1 0.048277 -0.006679 -0.009444 0.000000 0.000000 0.000000
# 2 -0.006679 0.016368 -0.012336 0.000000 0.000000 0.000000
# 3 -0.009444 -0.012336 0.023538 0.000000 0.000000 0.000000
# 4 0.000000 0.000000 0.000000 -0.140991 0.000000 0.000000
# 5 0.000000 0.000000 0.000000 0.000000 0.059054 0.000000
# 6 0.000000 0.000000 0.000000 0.000000 0.000000 0.085260
#
#
# Mechanical properties :
#
#
# Convention : Reuss Voigt Hill
#
# Bulk Modulus (GPa) = 31.98315 67.46297 49.72306
# Shear Modulus (GPa) = 31.47698 12.25858 21.86778
#
# Velocity S-wave (km/s) = 4.24401 2.64850 3.53738
# Velocity P-wave (km/s) = 6.50513 6.92503 6.71836
#
# Compressibility (1/GPa) = 0.03126647
#
# Stress axis : x y z
#
# Youngs Moduli (GPa) = 20.71396 61.09336 42.48415
#
# Poissons Ratio (x) = 0.40801 0.40123
# Poissons Ratio (y) = 0.13834 0.52406
# Poissons Ratio (z) = 0.19563 0.75362
#
# Static dielectric constant tensor:
#      x y z
#    x 1.615580 0.000000 0.000000 
#    y 0.000000 1.618510 0.000000 
#    z 0.000000 0.000000 1.600130 
# 
# From -- ./inp_files/24310.got.cif
#   From: 2010.05.17/outbox.cif.g08.bks.cpg/sg51_13_cif.got.tgz:24310.got - 2010.06.03 11:52:47.
