data_PCOD9401863
_publ_section_title
;
Structure prediction by ZEFSAII (Michael W. Deem and Ramdas Pophale) SiO2 
 PCOD9401863
Probable space group: P M M A
;
_chemical_formula_sum "Si O2"
_cell_formula_units_Z 64
_cell_length_a 20.143675
_cell_length_b 9.174241
_cell_length_c 20.360258
_cell_angle_alpha 90.000000
_cell_angle_beta 90.000000
_cell_angle_gamma 90.000000
_cell_volume 3762.635315
_symmetry_space_group_name_H-M "P M M A"
_symmetry_group_IT_number 51
_symmetry_cell_setting 'orthorhombic'
loop_
_space_group_symop_operation_xyz
x,y,z
1/2-x,-y,z
1/2+x,-y,-z
-x,y,-z
-x,-y,-z
1/2+x,y,-z
1/2-x,y,z
x,-y,z
loop_
_atom_site_type_symbol
_atom_site_label
_atom_site_fract_x
_atom_site_fract_y
_atom_site_fract_z
Si Si1 0.392624 0.829501 0.802328
Si Si2 0.172574 0.327834 0.923655
Si Si3 0.827255 0.174280 0.441542
Si Si4 0.930513 0.325554 0.963565
Si Si5 0.950067 0.829020 0.827244
Si Si6 0.414759 0.326090 0.667469
Si Si7 0.327328 0.825751 0.404346
Si Si8 0.930892 0.325886 0.691480
O O1 0.348928 0.761230 0.859813
O O2 0.469757 0.814830 0.823835
O O3 0.385841 0.744382 0.733975
O O4 0.378242 0.000000 0.792900
O O5 0.250000 0.308417 0.937528
O O6 0.159976 0.500000 0.911023
O O7 0.127799 0.286326 0.985951
O O8 0.750000 0.209830 0.427006
O O9 0.876857 0.258801 0.394321
O O10 0.838924 0.206267 0.518525
O O11 0.835098 0.000000 0.432662
O O12 0.928812 0.500000 0.951695
O O13 0.926670 0.242428 0.894933
O O14 0.000000 0.292371 0.000000
O O15 0.923286 0.746438 0.763099
O O16 0.933745 0.000000 0.824339
O O17 0.407180 0.500000 0.669184
O O18 0.493724 0.292695 0.667593
O O19 0.250000 0.791810 0.390078
O O20 0.377613 0.739881 0.358384
O O21 0.335994 0.000000 0.395525
O O22 0.924625 0.500000 0.696271
#
# Coordination Sequence:
#
# PCOD9401863 Si02
#       8
#     8   8   8   8   8   8   8   8
#     4  10  20  34  53  76 103 137 177 218 262 314
#     4  10  21  36  53  76 107 140 174 214 262 316
#     4   9  19  36  56  78 106 142 183 224 268 323
#     4  10  19  33  56  80 103 137 177 217 263 316
#     4  10  20  34  55  81 106 135 177 223 265 313
#     4  10  21  35  53  79 111 144 180 223 268 316
#     4   9  19  37  59  81 107 141 181 224 272 326
#     4  10  21  36  55  81 112 143 179 224 271 321
#
# _framework density 17.009354999999999
#
# number of rings (size 3 to 8) (size 9 to 14) (size 15 to 20)
#    0.000    2.250    1.250    2.250    0.000    5.500 
#    0.000    4.375    0.000    2.250    0.000    0.000 
#    0.000    0.000    0.000    0.000    0.000    0.000 
#
# Total GULP energy -357223.896655 kJ/mol
# GULP energy per Si atom -5581.623385 kJ/mol
# Density = 1.697064 g / cm^3
# Si number density = 17.009355 Si / 1000 Ang^3
#
#
#
# Elastic Constant Matrix: (Units=GPa)
#
#
# Indices 1 2 3 4 5 6 
#
# 1 86.1804 67.3950 89.4944 0.0000 0.0000 0.0000
# 2 67.3950 75.4390 83.7487 0.0000 0.0000 0.0000
# 3 89.4944 83.7487 147.1071 0.0000 0.0000 0.0000
# 4 0.0000 0.0000 0.0000 40.4062 0.0000 0.0000
# 5 0.0000 0.0000 0.0000 0.0000 27.1775 0.0000
# 6 0.0000 0.0000 0.0000 0.0000 0.0000 27.0553
#
#
#
# Elastic Compliance Matrix: (Units=1/GPa)
#
#
# Indices 1 2 3 4 5 6 
#
# 1 0.045469 -0.026936 -0.012327 0.000000 0.000000 0.000000
# 2 -0.026936 0.051979 -0.013205 0.000000 0.000000 0.000000
# 3 -0.012327 -0.013205 0.021815 0.000000 0.000000 0.000000
# 4 0.000000 0.000000 0.000000 0.024749 0.000000 0.000000
# 5 0.000000 0.000000 0.000000 0.000000 0.036795 0.000000
# 6 0.000000 0.000000 0.000000 0.000000 0.000000 0.036961
#
#
# Mechanical properties :
#
#
# Convention : Reuss Voigt Hill
#
# Bulk Modulus (GPa) = 69.79844 87.77808 78.78826
# Shear Modulus (GPa) = 15.26808 23.46702 19.36755
#
# Velocity S-wave (km/s) = 2.99930 3.71840 3.37804
# Velocity P-wave (km/s) = 7.28826 8.37575 7.85086
#
# Compressibility (1/GPa) = 0.01432697
#
# Stress axis : x y z
#
# Youngs Moduli (GPa) = 21.99296 19.23836 45.84055
#
# Poissons Ratio (x) = 0.51821 0.56507
# Poissons Ratio (y) = 0.59240 0.60533
# Poissons Ratio (z) = 0.27110 0.25405
#
# Static dielectric constant tensor:
#      x y z
#    x 1.561200 0.000000 0.000000 
#    y 0.000000 1.565840 0.000000 
#    z 0.000000 0.000000 1.542460 
# 
# From -- ./inp_files/30612.got.cif
#   From: 2010.05.17/outbox.cif.g08.bks.cpg/sg51_16_cif.got.tgz:30612.got - 2010.06.03 11:52:47.
