data_PCOD9401579
_publ_section_title
;
Structure prediction by ZEFSAII (Michael W. Deem and Ramdas Pophale) SiO2 
 PCOD9401579
Probable space group: P M M A
;
_chemical_formula_sum "Si O2"
_cell_formula_units_Z 44
_cell_length_a 8.549442
_cell_length_b 30.250820
_cell_length_c 9.397539
_cell_angle_alpha 90.000000
_cell_angle_beta 90.000000
_cell_angle_gamma 90.000000
_cell_volume 2430.463249
_symmetry_space_group_name_H-M "P M M A"
_symmetry_group_IT_number 51
_symmetry_cell_setting 'orthorhombic'
loop_
_space_group_symop_operation_xyz
x,y,z
1/2-x,-y,z
1/2+x,-y,-z
-x,y,-z
-x,-y,-z
1/2+x,y,-z
1/2-x,y,z
x,-y,z
loop_
_atom_site_type_symbol
_atom_site_label
_atom_site_fract_x
_atom_site_fract_y
_atom_site_fract_z
Si Si1 0.061550 0.818621 0.338341
Si Si2 0.935872 0.640007 0.160988
Si Si3 0.560751 0.915025 0.661454
Si Si4 0.938231 0.722146 0.661644
Si Si5 0.062495 0.451896 0.162449
Si Si6 0.060634 0.000000 0.159697
O O1 0.250000 0.818533 0.340136
O O2 0.011720 0.866519 0.279469
O O3 0.013256 0.770780 0.278283
O O4 0.000000 0.818696 0.500000
O O5 0.750000 0.639328 0.156089
O O6 0.995311 0.681798 0.248743
O O7 0.994919 0.593271 0.225457
O O8 0.000000 0.643107 0.000000
O O9 0.500000 0.919428 0.500000
O O10 0.750000 0.915870 0.656497
O O11 0.507870 0.956087 0.756386
O O12 0.750000 0.719888 0.660513
O O13 0.000000 0.719385 0.500000
O O14 0.250000 0.448908 0.159371
O O15 0.019022 0.500000 0.225789
O O16 0.000000 0.452601 0.000000
O O17 0.250000 0.000000 0.158399
O O18 0.000000 0.000000 0.000000
#
# Coordination Sequence:
#
# PCOD9401579 Si02
#       6
#     8   8   8   8   8   4
#     4   8  15  28  48  71  96 123 156 199 242 284
#     4  11  21  33  50  73 101 132 166 206 249 294
#     4   9  17  31  51  75  97 122 159 202 243 284
#     4  10  19  33  52  74 100 131 165 202 245 296
#     4   9  16  27  45  69  96 126 161 202 246 291
#     4  10  21  34  48  68 100 134 163 196 238 290
#
# _framework density 18.103545
#
# number of rings (size 3 to 8) (size 9 to 14) (size 15 to 20)
#    0.000    2.545    0.000    4.091    0.000    2.545 
#    0.000    0.909    0.000    2.727    0.000    0.000 
#    0.000    0.000    0.000    0.000    0.000    0.000 
#
# Total GULP energy -245056.181644 kJ/mol
# GULP energy per Si atom -5569.458674 kJ/mol
# Density = 1.806234 g / cm^3
# Si number density = 18.103545 Si / 1000 Ang^3
#
#
#
# Elastic Constant Matrix: (Units=GPa)
#
#
# Indices 1 2 3 4 5 6 
#
# 1 58.9014 52.7097 15.7983 0.0000 0.0000 0.0000
# 2 52.7097 250.8591 66.5923 0.0000 0.0000 0.0000
# 3 15.7983 66.5923 45.2041 0.0000 0.0000 0.0000
# 4 0.0000 0.0000 0.0000 33.5389 0.0000 0.0000
# 5 0.0000 0.0000 0.0000 0.0000 22.9261 0.0000
# 6 0.0000 0.0000 0.0000 0.0000 0.0000 31.9558
#
#
#
# Elastic Compliance Matrix: (Units=1/GPa)
#
#
# Indices 1 2 3 4 5 6 
#
# 1 0.020961 -0.004039 -0.001375 0.000000 0.000000 0.000000
# 2 -0.004039 0.007325 -0.009379 0.000000 0.000000 0.000000
# 3 -0.001375 -0.009379 0.036419 0.000000 0.000000 0.000000
# 4 0.000000 0.000000 0.000000 0.029816 0.000000 0.000000
# 5 0.000000 0.000000 0.000000 0.000000 0.043618 0.000000
# 6 0.000000 0.000000 0.000000 0.000000 0.000000 0.031293
#
#
# Mechanical properties :
#
#
# Convention : Reuss Voigt Hill
#
# Bulk Modulus (GPa) = 28.47540 69.46280 48.96910
# Shear Modulus (GPa) = 23.72771 32.34178 28.03474
#
# Velocity S-wave (km/s) = 3.62424 4.23127 3.93947
# Velocity P-wave (km/s) = 5.76861 7.89459 6.91380
#
# Compressibility (1/GPa) = 0.03511804
#
# Stress axis : x y z
#
# Youngs Moduli (GPa) = 47.70767 136.52604 27.45851
#
# Poissons Ratio (x) = 0.55145 0.03776
# Poissons Ratio (y) = 0.19270 0.25752
# Poissons Ratio (z) = 0.06561 1.28042
#
# Static dielectric constant tensor:
#      x y z
#    x 1.606000 0.000000 0.000000 
#    y 0.000000 1.704430 0.000000 
#    z 0.000000 0.000000 1.579940 
# 
# From -- ./inp_files/5751.got.cif
#   From: 2010.05.17/outbox.cif.g08.bks.cpg/sg51_3_cif.got.tgz:5751.got - 2010.06.03 11:52:47.
