data_PCOD9401407
_publ_section_title
;
Structure prediction by ZEFSAII (Michael W. Deem and Ramdas Pophale) SiO2 
 PCOD9401407
Probable space group: P M M A
;
_chemical_formula_sum "Si O2"
_cell_formula_units_Z 40
_cell_length_a 8.666719
_cell_length_b 14.029234
_cell_length_c 19.147494
_cell_angle_alpha 90.000000
_cell_angle_beta 90.000000
_cell_angle_gamma 90.000000
_cell_volume 2328.094565
_symmetry_space_group_name_H-M "P M M A"
_symmetry_group_IT_number 51
_symmetry_cell_setting 'orthorhombic'
loop_
_space_group_symop_operation_xyz
x,y,z
1/2-x,-y,z
1/2+x,-y,-z
-x,y,-z
-x,-y,-z
1/2+x,y,-z
1/2-x,y,z
x,-y,z
loop_
_atom_site_type_symbol
_atom_site_label
_atom_site_fract_x
_atom_site_fract_y
_atom_site_fract_z
Si Si1 0.935450 0.300281 0.424802
Si Si2 0.437323 0.893585 0.646257
Si Si3 0.434898 0.391281 0.285862
Si Si4 0.934638 0.111123 0.924775
Si Si5 0.064996 0.790075 0.788636
O O1 0.750000 0.304491 0.424371
O O2 0.984608 0.191487 0.405427
O O3 0.000000 0.327318 0.500000
O O4 0.999788 0.364673 0.362223
O O5 0.250000 0.895876 0.644660
O O6 0.481308 0.859995 0.724379
O O7 0.494104 0.000000 0.630491
O O8 0.250000 0.382286 0.287039
O O9 0.475378 0.500000 0.268206
O O10 0.504050 0.313707 0.233085
O O11 0.750000 0.116094 0.926041
O O12 0.999065 0.172145 0.861003
O O13 0.980368 0.000000 0.914442
O O14 0.000000 0.141263 0.000000
O O15 0.250000 0.788731 0.791053
#
# Coordination Sequence:
#
# PCOD9401407 Si02
#       5
#     8   8   8   8   8
#     4  10  20  33  50  72  99 131 166 208 257 308
#     4   8  15  28  46  69  97 130 166 201 241 292
#     4  10  21  37  56  76  98 127 166 213 262 311
#     4  10  20  33  51  78 112 147 180 212 247 291
#     4  10  19  32  53  78 105 136 169 210 256 305
#
# _framework density 17.181432000000001
#
# number of rings (size 3 to 8) (size 9 to 14) (size 15 to 20)
#    0.000    2.400    0.000    4.200    0.000    4.400 
#    0.000    0.000    0.000   12.000    0.000    0.000 
#    0.000    0.000    0.000    0.000    0.000    0.000 
#
# Total GULP energy -223198.240348 kJ/mol
# GULP energy per Si atom -5579.956009 kJ/mol
# Density = 1.714233 g / cm^3
# Si number density = 17.181432 Si / 1000 Ang^3
#
#
#
# Elastic Constant Matrix: (Units=GPa)
#
#
# Indices 1 2 3 4 5 6 
#
# 1 44.5182 21.1132 29.8831 0.0000 0.0000 0.0000
# 2 21.1132 68.7620 27.8834 0.0000 0.0000 0.0000
# 3 29.8831 27.8834 113.8505 0.0000 0.0000 0.0000
# 4 0.0000 0.0000 0.0000 6.3812 0.0000 0.0000
# 5 0.0000 0.0000 0.0000 0.0000 27.5856 0.0000
# 6 0.0000 0.0000 0.0000 0.0000 0.0000 23.3448
#
#
#
# Elastic Compliance Matrix: (Units=1/GPa)
#
#
# Indices 1 2 3 4 5 6 
#
# 1 0.029760 -0.006628 -0.006188 0.000000 0.000000 0.000000
# 2 -0.006628 0.017623 -0.002576 0.000000 0.000000 0.000000
# 3 -0.006188 -0.002576 0.011039 0.000000 0.000000 0.000000
# 4 0.000000 0.000000 0.000000 0.156710 0.000000 0.000000
# 5 0.000000 0.000000 0.000000 0.000000 0.036251 0.000000
# 6 0.000000 0.000000 0.000000 0.000000 0.000000 0.042836
#
#
# Mechanical properties :
#
#
# Convention : Reuss Voigt Hill
#
# Bulk Modulus (GPa) = 36.18444 42.76557 39.47501
# Shear Modulus (GPa) = 14.96038 21.34571 18.15304
#
# Velocity S-wave (km/s) = 2.95401 3.52855 3.25399
# Velocity P-wave (km/s) = 5.72196 6.44558 6.09452
#
# Compressibility (1/GPa) = 0.02763619
#
# Stress axis : x y z
#
# Youngs Moduli (GPa) = 33.60210 56.74453 90.59134
#
# Poissons Ratio (x) = 0.37613 0.56057
# Poissons Ratio (y) = 0.22273 0.23338
# Poissons Ratio (z) = 0.20793 0.14619
#
# Static dielectric constant tensor:
#      x y z
#    x 1.571280 0.000000 0.000000 
#    y 0.000000 1.586860 0.000000 
#    z 0.000000 0.000000 1.551390 
# 
# From -- ./inp_files/27037.got.cif
#   From: 2010.05.17/outbox.cif.g08.bks.cpg/sg51_14_cif.got.tgz:27037.got - 2010.06.03 11:52:47.
