data_PCOD9401113
_publ_section_title
;
Structure prediction by ZEFSAII (Michael W. Deem and Ramdas Pophale) SiO2 
 PCOD9401113
Probable space group: P M M A
;
_chemical_formula_sum "Si O2"
_cell_formula_units_Z 48
_cell_length_a 9.253305
_cell_length_b 17.863715
_cell_length_c 17.556460
_cell_angle_alpha 90.000000
_cell_angle_beta 90.000000
_cell_angle_gamma 90.000000
_cell_volume 2902.054806
_symmetry_space_group_name_H-M "P M M A"
_symmetry_group_IT_number 51
_symmetry_cell_setting 'orthorhombic'
loop_
_space_group_symop_operation_xyz
x,y,z
1/2-x,-y,z
1/2+x,-y,-z
-x,y,-z
-x,-y,-z
1/2+x,y,-z
1/2-x,y,z
x,-y,z
loop_
_atom_site_type_symbol
_atom_site_label
_atom_site_fract_x
_atom_site_fract_y
_atom_site_fract_z
Si Si1 0.581738 0.089934 0.580163
Si Si2 0.580922 0.697208 0.802099
Si Si3 0.915902 0.189492 0.299099
Si Si4 0.076133 0.586000 0.917647
Si Si5 0.585402 0.583433 0.660295
Si Si6 0.408681 0.310433 0.566891
O O1 0.500000 0.105821 0.500000
O O2 0.750000 0.114743 0.575671
O O3 0.503037 0.126878 0.653162
O O4 0.579918 0.000000 0.588740
O O5 0.750000 0.710556 0.822280
O O6 0.501759 0.772546 0.771480
O O7 0.493979 0.651187 0.866296
O O8 0.580043 0.639756 0.730998
O O9 0.750000 0.167515 0.279859
O O10 0.904958 0.255582 0.361590
O O11 0.250000 0.595169 0.923043
O O12 0.049862 0.500000 0.888710
O O13 0.000000 0.589700 0.000000
O O14 0.750000 0.583718 0.632586
O O15 0.546463 0.500000 0.684679
O O16 0.482488 0.614191 0.595342
O O17 0.500000 0.275025 0.500000
O O18 0.250000 0.324315 0.538088
#
# Coordination Sequence:
#
# PCOD9401113 Si02
#       6
#     8   8   8   8   8   8
#     4  10  20  33  50  73 100 130 164 202 246 295
#     4  10  19  32  50  70  94 123 156 195 239 288
#     4  10  20  33  49  69  93 122 157 195 237 287
#     4  10  20  33  50  73 101 132 166 204 246 293
#     4   9  18  31  45  60  79 107 144 185 229 275
#     4  10  20  31  43  59  79 107 144 186 230 274
#
# _framework density 16.540005000000001
#
# number of rings (size 3 to 8) (size 9 to 14) (size 15 to 20)
#    0.000    2.167    0.000    3.500    0.000    7.333 
#    0.000    0.000    0.000    0.000    0.000    0.000 
#    0.000    0.667    0.000    2.500    0.000    3.833 
#
# Total GULP energy -267448.773884 kJ/mol
# GULP energy per Si atom -5571.849456 kJ/mol
# Density = 1.650236 g / cm^3
# Si number density = 16.540005 Si / 1000 Ang^3
#
#
#
# Elastic Constant Matrix: (Units=GPa)
#
#
# Indices 1 2 3 4 5 6 
#
# 1 138.4979 45.0348 48.6211 0.0000 0.0000 0.0000
# 2 45.0348 60.7140 23.4591 0.0000 0.0000 0.0000
# 3 48.6211 23.4591 58.8952 0.0000 0.0000 0.0000
# 4 0.0000 0.0000 0.0000 31.9173 0.0000 0.0000
# 5 0.0000 0.0000 0.0000 0.0000 27.3467 0.0000
# 6 0.0000 0.0000 0.0000 0.0000 0.0000 -12.5997
#
#
#
# Elastic Compliance Matrix: (Units=1/GPa)
#
#
# Indices 1 2 3 4 5 6 
#
# 1 0.011691 -0.005842 -0.007325 0.000000 0.000000 0.000000
# 2 -0.005842 0.022386 -0.004094 0.000000 0.000000 0.000000
# 3 -0.007325 -0.004094 0.024657 0.000000 0.000000 0.000000
# 4 0.000000 0.000000 0.000000 0.031331 0.000000 0.000000
# 5 0.000000 0.000000 0.000000 0.000000 0.036567 0.000000
# 6 0.000000 0.000000 0.000000 0.000000 0.000000 -0.079367
#
#
# Mechanical properties :
#
#
# Convention : Reuss Voigt Hill
#
# Bulk Modulus (GPa) = 41.30040 54.70412 48.00226
# Shear Modulus (GPa) = 55.64329 18.73233 37.18781
#
# Velocity S-wave (km/s) = 5.80643 3.36898 4.74683
# Velocity P-wave (km/s) = 8.36523 6.94831 7.68948
#
# Compressibility (1/GPa) = 0.02421284
#
# Stress axis : x y z
#
# Youngs Moduli (GPa) = 85.53291 44.67135 40.55622
#
# Poissons Ratio (x) = 0.26096 0.29707
# Poissons Ratio (y) = 0.49967 0.16603
# Poissons Ratio (z) = 0.62652 0.18288
#
# Static dielectric constant tensor:
#      x y z
#    x 1.354820 0.000000 0.000000 
#    y 0.000000 1.566220 0.000000 
#    z 0.000000 0.000000 1.549730 
# 
# From -- ./inp_files/27834.got.cif
#   From: 2010.05.17/outbox.cif.g08.bks.cpg/sg51_14_cif.got.tgz:27834.got - 2010.06.03 11:52:47.
