data_PCOD9401962
_publ_section_title
;
Structure prediction by ZEFSAII (Michael W. Deem and Ramdas Pophale) SiO2 
 PCOD9401962
Probable space group: P M M A
;
_chemical_formula_sum "Si O2"
_cell_formula_units_Z 42
_cell_length_a 15.101682
_cell_length_b 7.419361
_cell_length_c 14.915760
_cell_angle_alpha 90.000000
_cell_angle_beta 90.000000
_cell_angle_gamma 90.000000
_cell_volume 1671.233800
_symmetry_space_group_name_H-M "P M M A"
_symmetry_group_IT_number 51
_symmetry_cell_setting 'orthorhombic'
loop_
_space_group_symop_operation_xyz
x,y,z
1/2-x,-y,z
1/2+x,-y,-z
-x,y,-z
-x,-y,-z
1/2+x,y,-z
1/2-x,y,z
x,-y,z
loop_
_atom_site_type_symbol
_atom_site_label
_atom_site_fract_x
_atom_site_fract_y
_atom_site_fract_z
Si Si1 0.395354 0.713887 0.021681
Si Si2 0.844533 0.716728 0.634601
Si Si3 0.848614 0.216648 0.259076
Si Si4 0.585827 0.207628 0.451482
Si Si5 0.250000 0.000000 0.966540
Si Si6 0.540054 0.714292 0.792623
O O1 0.373308 0.500000 0.013629
O O2 0.398178 0.775356 0.126271
O O3 0.327862 0.842027 0.970861
O O4 0.500000 0.730555 0.000000
O O5 0.750000 0.761723 0.677020
O O6 0.850387 0.500000 0.628155
O O7 0.847489 0.788091 0.534177
O O8 0.923609 0.783559 0.697633
O O9 0.750000 0.282554 0.234316
O O10 0.874948 0.283348 0.359486
O O11 0.935069 0.255481 0.199867
O O12 0.841626 0.000000 0.261171
O O13 0.500000 0.293277 0.500000
O O14 0.563698 0.000000 0.430853
O O15 0.550643 0.500000 0.791841
#
# Coordination Sequence:
#
# PCOD9401962 Si02
#       6
#     8   8   8   8   2   8
#     4  10  24  48  73 105 149 186 223 283 346 406
#     4  10  21  35  54  82 115 153 201 257 315 377
#     4  10  21  37  56  81 117 162 213 270 328 389
#     4  10  19  34  54  77 111 156 205 262 319 379
#     4  12  24  44  80 116 136 182 238 274 334 424
#     4  10  22  40  62  88 124 164 207 262 324 389
#
# _framework density 25.131133999999999
#
# number of rings (size 3 to 8) (size 9 to 14) (size 15 to 20)
#    0.000    1.905    1.905    1.143    2.667    2.667 
#    1.714    0.000    0.000    0.000    0.000    0.000 
#    0.000    0.000    0.000    0.000    0.000    0.000 
#
# Total GULP energy -234170.792191 kJ/mol
# GULP energy per Si atom -5575.495052 kJ/mol
# Density = 2.507393 g / cm^3
# Si number density = 25.131134 Si / 1000 Ang^3
#
#
#
# Elastic Constant Matrix: (Units=GPa)
#
#
# Indices 1 2 3 4 5 6 
#
# 1 142.7197 30.1695 12.4521 0.0000 0.0000 0.0000
# 2 30.1695 122.0288 10.1445 0.0000 0.0000 0.0000
# 3 12.4521 10.1445 59.6467 0.0000 0.0000 0.0000
# 4 0.0000 0.0000 0.0000 12.6069 0.0000 0.0000
# 5 0.0000 0.0000 0.0000 0.0000 5.8377 0.0000
# 6 0.0000 0.0000 0.0000 0.0000 0.0000 32.2465
#
#
#
# Elastic Compliance Matrix: (Units=1/GPa)
#
#
# Indices 1 2 3 4 5 6 
#
# 1 0.007486 -0.001746 -0.001266 0.000000 0.000000 0.000000
# 2 -0.001746 0.008719 -0.001119 0.000000 0.000000 0.000000
# 3 -0.001266 -0.001119 0.017220 0.000000 0.000000 0.000000
# 4 0.000000 0.000000 0.000000 0.079322 0.000000 0.000000
# 5 0.000000 0.000000 0.000000 0.000000 0.171300 0.000000
# 6 0.000000 0.000000 0.000000 0.000000 0.000000 0.031011
#
#
# Mechanical properties :
#
#
# Convention : Reuss Voigt Hill
#
# Bulk Modulus (GPa) = 39.73733 47.76972 43.75352
# Shear Modulus (GPa) = 15.07353 28.24683 21.66018
#
# Velocity S-wave (km/s) = 2.45173 3.35621 2.93898
# Velocity P-wave (km/s) = 4.88477 5.83681 5.38188
#
# Compressibility (1/GPa) = 0.02516525
#
# Stress axis : x y z
#
# Youngs Moduli (GPa) = 133.57922 114.68762 58.07234
#
# Poissons Ratio (x) = 0.20020 0.07352
# Poissons Ratio (y) = 0.23317 0.06496
# Poissons Ratio (z) = 0.16911 0.12828
#
# Static dielectric constant tensor:
#      x y z
#    x 2.037720 0.000000 0.000000 
#    y 0.000000 1.950440 0.000000 
#    z 0.000000 0.000000 2.072670 
# 
# From -- ./inp_files/23802.got.cif
#   From: 2010.05.17/outbox.cif.g08.bks.cpg/sg51_12_cif.got.tgz:23802.got - 2010.06.03 11:52:47.
