data_PCOD9401512
_publ_section_title
;
Structure prediction by ZEFSAII (Michael W. Deem and Ramdas Pophale) SiO2 
 PCOD9401512
Probable space group: P M M A
;
_chemical_formula_sum "Si O2"
_cell_formula_units_Z 64
_cell_length_a 14.401434
_cell_length_b 8.937104
_cell_length_c 26.449262
_cell_angle_alpha 90.000000
_cell_angle_beta 90.000000
_cell_angle_gamma 90.000000
_cell_volume 3404.208164
_symmetry_space_group_name_H-M "P M M A"
_symmetry_group_IT_number 51
_symmetry_cell_setting 'orthorhombic'
loop_
_space_group_symop_operation_xyz
x,y,z
1/2-x,-y,z
1/2+x,-y,-z
-x,y,-z
-x,-y,-z
1/2+x,y,-z
1/2-x,y,z
x,-y,z
loop_
_atom_site_type_symbol
_atom_site_label
_atom_site_fract_x
_atom_site_fract_y
_atom_site_fract_z
Si Si1 0.140745 0.678043 0.876071
Si Si2 0.967249 0.680497 0.225438
Si Si3 0.142779 0.337101 0.082336
Si Si4 0.640854 0.822712 0.816586
Si Si5 0.356970 0.318101 0.674866
Si Si6 0.605433 0.167043 0.017683
Si Si7 0.640174 0.819395 0.523973
Si Si8 0.964335 0.681132 0.427712
O O1 0.250000 0.703123 0.867745
O O2 0.127230 0.500000 0.883402
O O3 0.085802 0.724882 0.826029
O O4 0.112768 0.762100 0.927219
O O5 0.971386 0.500000 0.226197
O O6 0.909122 0.730932 0.274173
O O7 0.070956 0.743977 0.221884
O O8 0.250000 0.355571 0.095524
O O9 0.095804 0.500000 0.083922
O O10 0.109257 0.229974 0.127028
O O11 0.144100 0.271600 0.026367
O O12 0.750000 0.786408 0.808382
O O13 0.631698 0.000000 0.813715
O O14 0.250000 0.265744 0.672024
O O15 0.353438 0.500000 0.676425
O O16 0.417156 0.279460 0.625608
O O17 0.645570 0.000000 0.017212
O O18 0.500000 0.155321 0.000000
O O19 0.750000 0.784994 0.531384
O O20 0.567178 0.750238 0.564307
O O21 0.601575 0.748688 0.471672
O O22 0.630525 0.000000 0.522756
O O23 0.968602 0.500000 0.432677
#
# Coordination Sequence:
#
# PCOD9401512 Si02
#       8
#     8   8   8   8   8   8   8   8
#     4  10  21  36  54  77 104 135 172 213 259 313
#     4  10  20  36  59  82 105 137 177 221 266 315
#     4  10  20  34  53  75  96 121 159 205 251 307
#     4  10  21  37  56  78 106 138 171 213 267 322
#     4   9  18  34  57  85 114 143 180 228 279 325
#     4  11  23  35  48  70 101 134 166 205 256 312
#     4  10  20  34  53  79 116 159 196 232 278 332
#     4  10  19  32  55  85 115 149 191 239 284 328
#
# _framework density 18.800260999999999
#
# number of rings (size 3 to 8) (size 9 to 14) (size 15 to 20)
#    0.000    2.000    0.000    4.500    0.000    9.750 
#    0.000    1.875    0.000    6.375    0.000    0.000 
#    0.000    0.000    0.000    0.000    0.000    0.000 
#
# Total GULP energy -356971.724186 kJ/mol
# GULP energy per Si atom -5577.683190 kJ/mol
# Density = 1.875747 g / cm^3
# Si number density = 18.800261 Si / 1000 Ang^3
#
#
#
# Elastic Constant Matrix: (Units=GPa)
#
#
# Indices 1 2 3 4 5 6 
#
# 1 158.4199 53.0724 85.3238 0.0000 0.0000 0.0000
# 2 53.0724 56.1690 34.2069 0.0000 0.0000 0.0000
# 3 85.3238 34.2069 123.7803 0.0000 0.0000 0.0000
# 4 0.0000 0.0000 0.0000 -21.3886 0.0000 0.0000
# 5 0.0000 0.0000 0.0000 0.0000 29.9265 0.0000
# 6 0.0000 0.0000 0.0000 0.0000 0.0000 30.7121
#
#
#
# Elastic Compliance Matrix: (Units=1/GPa)
#
#
# Indices 1 2 3 4 5 6 
#
# 1 0.012348 -0.007796 -0.006357 0.000000 0.000000 0.000000
# 2 -0.007796 0.026328 -0.001902 0.000000 0.000000 0.000000
# 3 -0.006357 -0.001902 0.012987 0.000000 0.000000 0.000000
# 4 0.000000 0.000000 0.000000 -0.046754 0.000000 0.000000
# 5 0.000000 0.000000 0.000000 0.000000 0.033415 0.000000
# 6 0.000000 0.000000 0.000000 0.000000 0.000000 0.032561
#
#
# Mechanical properties :
#
#
# Convention : Reuss Voigt Hill
#
# Bulk Modulus (GPa) = 51.14494 75.95283 63.54888
# Shear Modulus (GPa) = 45.65731 18.90105 32.27918
#
# Velocity S-wave (km/s) = 4.93337 3.17418 4.14811
# Velocity P-wave (km/s) = 7.72751 7.34313 7.53777
#
# Compressibility (1/GPa) = 0.01955228
#
# Stress axis : x y z
#
# Youngs Moduli (GPa) = 80.98495 37.98300 77.00201
#
# Poissons Ratio (x) = 0.29610 0.48953
# Poissons Ratio (y) = 0.63133 0.14646
# Poissons Ratio (z) = 0.51485 0.07224
#
# Static dielectric constant tensor:
#      x y z
#    x 1.669370 0.000000 0.000000 
#    y 0.000000 1.664840 0.000000 
#    z 0.000000 0.000000 1.648260 
# 
# From -- ./inp_files/35685.got.cif
#   From: 2010.05.17/outbox.cif.g08.bks.cpg/sg51_18_cif.got.tgz:35685.got - 2010.06.03 11:52:47.
