data_PCOD9401114
_publ_section_title
;
Structure prediction by ZEFSAII (Michael W. Deem and Ramdas Pophale) SiO2 
 PCOD9401114
Probable space group: P M M A
;
_chemical_formula_sum "Si O2"
_cell_formula_units_Z 64
_cell_length_a 17.552315
_cell_length_b 7.789609
_cell_length_c 23.989096
_cell_angle_alpha 90.000000
_cell_angle_beta 90.000000
_cell_angle_gamma 90.000000
_cell_volume 3279.925245
_symmetry_space_group_name_H-M "P M M A"
_symmetry_group_IT_number 51
_symmetry_cell_setting 'orthorhombic'
loop_
_space_group_symop_operation_xyz
x,y,z
1/2-x,-y,z
1/2+x,-y,-z
-x,y,-z
-x,-y,-z
1/2+x,y,-z
1/2-x,y,z
x,-y,z
loop_
_atom_site_type_symbol
_atom_site_label
_atom_site_fract_x
_atom_site_fract_y
_atom_site_fract_z
Si Si1 0.984333 0.789960 0.739833
Si Si2 0.576395 0.295913 0.030786
Si Si3 0.427171 0.803248 0.634928
Si Si4 0.074165 0.699843 0.431320
Si Si5 0.986828 0.207054 0.866469
Si Si6 0.164841 0.792055 0.327051
Si Si7 0.334222 0.797188 0.071033
Si Si8 0.334290 0.298306 0.534125
O O1 0.994547 0.732798 0.803062
O O2 0.901413 0.740459 0.715865
O O3 0.046876 0.730217 0.694675
O O4 0.986620 0.000000 0.739017
O O5 0.579435 0.500000 0.024569
O O6 0.558492 0.254615 0.094695
O O7 0.500000 0.227985 0.000000
O O8 0.645481 0.223965 0.994449
O O9 0.504060 0.794501 0.597695
O O10 0.363493 0.717487 0.597022
O O11 0.404584 0.000000 0.642791
O O12 0.050701 0.500000 0.437192
O O13 0.142653 0.715519 0.386938
O O14 0.104214 0.771043 0.489930
O O15 0.907405 0.272283 0.894577
O O16 0.982468 0.000000 0.865892
O O17 0.250000 0.742981 0.310163
O O18 0.162114 0.000000 0.331822
O O19 0.250000 0.725347 0.083306
O O20 0.331481 0.000000 0.083148
O O21 0.250000 0.223426 0.527245
O O22 0.330134 0.500000 0.520390
#
# Coordination Sequence:
#
# PCOD9401114 Si02
#       8
#     8   8   8   8   8   8   8   8
#     4   8  16  30  47  68  93 123 158 193 231 272
#     4   9  17  29  45  66  93 124 155 186 223 265
#     4  10  20  34  51  72  97 124 157 196 237 283
#     4  10  19  32  50  70  94 125 159 193 234 287
#     4   9  16  29  49  69  92 124 160 195 227 265
#     4   9  17  29  45  67  97 129 159 193 232 276
#     4   9  17  28  45  72 100 123 151 187 226 269
#     4  10  21  35  50  70  95 122 154 195 244 293
#
# _framework density 19.512639
#
# number of rings (size 3 to 8) (size 9 to 14) (size 15 to 20)
#    0.000    2.750    0.000    2.625    0.000    5.750 
#    0.000    5.625    0.000    0.750    0.000    7.000 
#    0.000    0.000    0.000    0.000    0.000    0.000 
#
# Total GULP energy -356697.623646 kJ/mol
# GULP energy per Si atom -5573.400369 kJ/mol
# Density = 1.946823 g / cm^3
# Si number density = 19.512639 Si / 1000 Ang^3
#
#
#
# Elastic Constant Matrix: (Units=GPa)
#
#
# Indices 1 2 3 4 5 6 
#
# 1 23.1800 -5.4515 15.7241 0.0000 0.0000 0.0000
# 2 -5.4515 26.9692 -5.8124 0.0000 0.0000 0.0000
# 3 15.7241 -5.8124 126.5115 0.0000 0.0000 0.0000
# 4 0.0000 0.0000 0.0000 30.4811 0.0000 0.0000
# 5 0.0000 0.0000 0.0000 0.0000 14.8745 0.0000
# 6 0.0000 0.0000 0.0000 0.0000 0.0000 -0.3446
#
#
#
# Elastic Compliance Matrix: (Units=1/GPa)
#
#
# Indices 1 2 3 4 5 6 
#
# 1 0.049048 0.008687 -0.005697 0.000000 0.000000 0.000000
# 2 0.008687 0.038989 0.000712 0.000000 0.000000 0.000000
# 3 -0.005697 0.000712 0.008645 0.000000 0.000000 0.000000
# 4 0.000000 0.000000 0.000000 0.032807 0.000000 0.000000
# 5 0.000000 0.000000 0.000000 0.000000 0.067229 0.000000
# 6 0.000000 0.000000 0.000000 0.000000 0.000000 -2.901698
#
#
# Mechanical properties :
#
#
# Convention : Reuss Voigt Hill
#
# Bulk Modulus (GPa) = 9.60758 20.62012 15.11385
# Shear Modulus (GPa) = -1.86728 20.48221 9.30746
#
# Velocity S-wave (km/s) = -0.97931 3.24341 2.18639
# Velocity P-wave (km/s) = 1.91200 4.96153 3.75982
#
# Compressibility (1/GPa) = 0.10408444
#
# Stress axis : x y z
#
# Youngs Moduli (GPa) = 20.38808 25.64848 115.67100
#
# Poissons Ratio (x) = -0.22280 0.65899
# Poissons Ratio (y) = -0.17710 -0.08231
# Poissons Ratio (z) = 0.11615 -0.01825
#
# Static dielectric constant tensor:
#      x y z
#    x 1.697420 0.000000 0.000000 
#    y 0.000000 1.704090 0.000000 
#    z 0.000000 0.000000 1.704440 
# 
# From -- ./inp_files/35917.got.cif
#   From: 2010.05.17/outbox.cif.g08.bks.cpg/sg51_18_cif.got.tgz:35917.got - 2010.06.03 11:52:47.
