data_PCOD9401280
_publ_section_title
;
Structure prediction by ZEFSAII (Michael W. Deem and Ramdas Pophale) SiO2 
 PCOD9401280
Probable space group: P M M A
;
_chemical_formula_sum "Si O2"
_cell_formula_units_Z 48
_cell_length_a 31.508486
_cell_length_b 8.747848
_cell_length_c 9.938178
_cell_angle_alpha 90.000000
_cell_angle_beta 90.000000
_cell_angle_gamma 90.000000
_cell_volume 2739.274375
_symmetry_space_group_name_H-M "P M M A"
_symmetry_group_IT_number 51
_symmetry_cell_setting 'orthorhombic'
loop_
_space_group_symop_operation_xyz
x,y,z
1/2-x,-y,z
1/2+x,-y,-z
-x,y,-z
-x,-y,-z
1/2+x,y,-z
1/2-x,y,z
x,-y,z
loop_
_atom_site_type_symbol
_atom_site_label
_atom_site_fract_x
_atom_site_fract_y
_atom_site_fract_z
Si Si1 0.362128 0.184115 0.087050
Si Si2 0.869129 0.682999 0.488134
Si Si3 0.298741 0.815268 0.316574
Si Si4 0.481984 0.683276 0.849957
Si Si5 0.389538 0.817439 0.798777
Si Si6 0.567328 0.315827 0.717360
O O1 0.321179 0.227881 0.175244
O O2 0.402633 0.251534 0.165097
O O3 0.365423 0.000000 0.090497
O O4 0.363599 0.231965 0.931985
O O5 0.867432 0.500000 0.487560
O O6 0.828429 0.747484 0.567048
O O7 0.873036 0.744353 0.338226
O O8 0.910417 0.729689 0.577541
O O9 0.250000 0.765528 0.324246
O O10 0.299812 0.000000 0.326153
O O11 0.475027 0.500000 0.838659
O O12 0.438045 0.767121 0.823823
O O13 0.519032 0.730133 0.745878
O O14 0.500000 0.712448 0.000000
O O15 0.387172 0.000000 0.787821
O O16 0.568355 0.500000 0.725520
#
# Coordination Sequence:
#
# PCOD9401280 Si02
#       6
#     8   8   8   8   8   8
#     4   9  18  32  52  77 104 133 168 212 258 309
#     4  10  21  36  54  76 107 142 175 214 262 313
#     4   9  18  36  61  83 102 128 165 209 259 316
#     4  10  19  32  52  75 102 138 183 227 268 313
#     4  11  22  34  50  76 110 143 179 219 264 312
#     4   9  18  33  52  74  99 136 181 221 260 308
#
# _framework density 17.522887999999998
#
# number of rings (size 3 to 8) (size 9 to 14) (size 15 to 20)
#    0.000    2.333    1.667    1.000    0.000    3.333 
#    0.000    4.167    0.000    3.000    0.000    0.000 
#    0.000    0.000    0.000    0.000    0.000    0.000 
#
# Total GULP energy -267756.414551 kJ/mol
# GULP energy per Si atom -5578.258636 kJ/mol
# Density = 1.748300 g / cm^3
# Si number density = 17.522888 Si / 1000 Ang^3
#
#
#
# Elastic Constant Matrix: (Units=GPa)
#
#
# Indices 1 2 3 4 5 6 
#
# 1 108.4941 27.5590 63.8200 0.0000 0.0000 0.0000
# 2 27.5590 17.1637 34.4955 0.0000 0.0000 0.0000
# 3 63.8200 34.4955 156.8904 0.0000 0.0000 0.0000
# 4 0.0000 0.0000 0.0000 24.4323 0.0000 0.0000
# 5 0.0000 0.0000 0.0000 0.0000 14.3245 0.0000
# 6 0.0000 0.0000 0.0000 0.0000 0.0000 31.2809
#
#
#
# Elastic Compliance Matrix: (Units=1/GPa)
#
#
# Indices 1 2 3 4 5 6 
#
# 1 0.015765 -0.022262 -0.001518 0.000000 0.000000 0.000000
# 2 -0.022262 0.135830 -0.020809 0.000000 0.000000 0.000000
# 3 -0.001518 -0.020809 0.011567 0.000000 0.000000 0.000000
# 4 0.000000 0.000000 0.000000 0.040929 0.000000 0.000000
# 5 0.000000 0.000000 0.000000 0.000000 0.069810 0.000000
# 6 0.000000 0.000000 0.000000 0.000000 0.000000 0.031968
#
#
# Mechanical properties :
#
#
# Convention : Reuss Voigt Hill
#
# Bulk Modulus (GPa) = 13.51663 59.36634 36.44149
# Shear Modulus (GPa) = 11.91302 24.45247 18.18275
#
# Velocity S-wave (km/s) = 2.61023 3.73964 3.22476
# Velocity P-wave (km/s) = 4.10059 7.25254 5.89127
#
# Compressibility (1/GPa) = 0.07398295
#
# Stress axis : x y z
#
# Youngs Moduli (GPa) = 63.43191 7.36216 86.45481
#
# Poissons Ratio (x) = 0.16390 0.13125
# Poissons Ratio (y) = 1.41211 1.79905
# Poissons Ratio (z) = 0.09630 0.15320
#
# Static dielectric constant tensor:
#      x y z
#    x 1.578280 0.000000 0.000000 
#    y 0.000000 1.590040 0.000000 
#    z 0.000000 0.000000 1.600750 
# 
# From -- ./inp_files/12765.got.cif
#   From: 2010.05.17/outbox.cif.g08.bks.cpg/sg51_7_cif.got.tgz:12765.got - 2010.06.03 11:52:47.
