data_PCOD9401886
_publ_section_title
;
Structure prediction by ZEFSAII (Michael W. Deem and Ramdas Pophale) SiO2 
 PCOD9401886
Probable space group: P M M A
;
_chemical_formula_sum "Si O2"
_cell_formula_units_Z 64
_cell_length_a 16.024318
_cell_length_b 23.426498
_cell_length_c 9.154935
_cell_angle_alpha 90.000000
_cell_angle_beta 90.000000
_cell_angle_gamma 90.000000
_cell_volume 3436.704498
_symmetry_space_group_name_H-M "P M M A"
_symmetry_group_IT_number 51
_symmetry_cell_setting 'orthorhombic'
loop_
_space_group_symop_operation_xyz
x,y,z
1/2-x,-y,z
1/2+x,-y,-z
-x,y,-z
-x,-y,-z
1/2+x,y,-z
1/2-x,y,z
x,-y,z
loop_
_atom_site_type_symbol
_atom_site_label
_atom_site_fract_x
_atom_site_fract_y
_atom_site_fract_z
Si Si1 0.846467 0.435706 0.122925
Si Si2 0.965368 0.620479 0.341542
Si Si3 0.918378 0.341782 0.908661
Si Si4 0.649204 0.271300 0.412427
Si Si5 0.348624 0.239929 0.257039
Si Si6 0.494708 0.065307 0.829304
Si Si7 0.346426 0.886910 0.302984
Si Si8 0.583634 0.149289 0.401795
O O1 0.750000 0.429891 0.166273
O O2 0.859510 0.500000 0.065804
O O3 0.906995 0.424866 0.259567
O O4 0.868019 0.388090 0.002047
O O5 0.907079 0.677443 0.351091
O O6 0.000000 0.605388 0.500000
O O7 0.044943 0.631048 0.238626
O O8 0.871595 0.284329 0.866825
O O9 0.000000 0.326266 0.000000
O O10 0.750000 0.280027 0.397082
O O11 0.626341 0.264704 0.584620
O O12 0.621493 0.209662 0.350594
O O13 0.250000 0.234986 0.266529
O O14 0.377129 0.174894 0.240373
O O15 0.587361 0.068996 0.759508
O O16 0.439411 0.107691 0.730584
O O17 0.464268 0.000000 0.819931
O O18 0.500000 0.081263 0.000000
O O19 0.250000 0.897444 0.265279
O O20 0.355224 0.879187 0.478133
O O21 0.500000 0.159293 0.500000
#
# Coordination Sequence:
#
# PCOD9401886 Si02
#       8
#     8   8   8   8   8   8   8   8
#     4  10  23  44  62  79 114 160 199 240 289 341
#     4  11  21  35  59  90 117 147 190 242 293 344
#     4  10  21  34  57  84 113 152 194 234 282 343
#     4  10  19  33  56  84 119 151 180 228 293 349
#     4   9  17  32  54  81 114 146 183 231 287 345
#     4  10  22  39  57  79 113 156 196 240 287 342
#     4   9  19  35  57  84 113 149 190 242 294 344
#     4   9  18  33  58  83 109 145 191 237 282 344
#
# _framework density 18.622491
#
# number of rings (size 3 to 8) (size 9 to 14) (size 15 to 20)
#    0.000    2.250    1.250    2.250    3.500    5.500 
#    2.250    1.250    0.000    4.125    0.000    0.000 
#    0.000    0.000    0.000    0.000    0.000    0.000 
#
# Total GULP energy -356829.947521 kJ/mol
# GULP energy per Si atom -5575.467930 kJ/mol
# Density = 1.858011 g / cm^3
# Si number density = 18.622491 Si / 1000 Ang^3
#
#
#
# Elastic Constant Matrix: (Units=GPa)
#
#
# Indices 1 2 3 4 5 6 
#
# 1 42.1584 19.8452 11.0553 0.0000 0.0000 0.0000
# 2 19.8452 86.5334 36.5301 0.0000 0.0000 0.0000
# 3 11.0553 36.5301 72.0864 0.0000 0.0000 0.0000
# 4 0.0000 0.0000 0.0000 27.8518 0.0000 0.0000
# 5 0.0000 0.0000 0.0000 0.0000 6.0967 0.0000
# 6 0.0000 0.0000 0.0000 0.0000 0.0000 24.5771
#
#
#
# Elastic Compliance Matrix: (Units=1/GPa)
#
#
# Indices 1 2 3 4 5 6 
#
# 1 0.026680 -0.005587 -0.001261 0.000000 0.000000 0.000000
# 2 -0.005587 0.015871 -0.007186 0.000000 0.000000 0.000000
# 3 -0.001261 -0.007186 0.017707 0.000000 0.000000 0.000000
# 4 0.000000 0.000000 0.000000 0.035904 0.000000 0.000000
# 5 0.000000 0.000000 0.000000 0.000000 0.164024 0.000000
# 6 0.000000 0.000000 0.000000 0.000000 0.000000 0.040688
#
#
# Mechanical properties :
#
#
# Convention : Reuss Voigt Hill
#
# Bulk Modulus (GPa) = 31.06357 37.29327 34.17842
# Shear Modulus (GPa) = 14.72006 20.59495 17.65751
#
# Velocity S-wave (km/s) = 2.81454 3.32914 3.08260
# Velocity P-wave (km/s) = 5.22293 5.90313 5.57342
#
# Compressibility (1/GPa) = 0.03219205
#
# Stress axis : x y z
#
# Youngs Moduli (GPa) = 37.48067 63.00814 56.47455
#
# Poissons Ratio (x) = 0.35200 0.07120
# Poissons Ratio (y) = 0.20939 0.40582
# Poissons Ratio (z) = 0.04725 0.45277
#
# Static dielectric constant tensor:
#      x y z
#    x 1.650040 0.000000 0.000000 
#    y 0.000000 1.661990 0.000000 
#    z 0.000000 0.000000 1.664670 
# 
# From -- ./inp_files/8687.got.cif
#   From: 2010.05.17/outbox.cif.g08.bks.cpg/sg51_5_cif.got.tgz:8687.got - 2010.06.03 11:52:47.
