data_PCOD9401088
_publ_section_title
;
Structure prediction by ZEFSAII (Michael W. Deem and Ramdas Pophale) SiO2 
 PCOD9401088
Probable space group: P M M A
;
_chemical_formula_sum "Si O2"
_cell_formula_units_Z 64
_cell_length_a 31.528373
_cell_length_b 9.302872
_cell_length_c 12.475072
_cell_angle_alpha 90.000000
_cell_angle_beta 90.000000
_cell_angle_gamma 90.000000
_cell_volume 3658.993737
_symmetry_space_group_name_H-M "P M M A"
_symmetry_group_IT_number 51
_symmetry_cell_setting 'orthorhombic'
loop_
_space_group_symop_operation_xyz
x,y,z
1/2-x,-y,z
1/2+x,-y,-z
-x,y,-z
-x,-y,-z
1/2+x,y,-z
1/2-x,y,z
x,-y,z
loop_
_atom_site_type_symbol
_atom_site_label
_atom_site_fract_x
_atom_site_fract_y
_atom_site_fract_z
Si Si1 0.444928 0.672273 0.247135
Si Si2 0.200246 0.331681 0.257347
Si Si3 0.385968 0.832333 0.870054
Si Si4 0.868971 0.327341 0.912714
Si Si5 0.987162 0.832237 0.118836
Si Si6 0.377656 0.825995 0.627922
Si Si7 0.201331 0.172629 0.478440
Si Si8 0.449701 0.327214 0.491886
O O1 0.448730 0.500000 0.243225
O O2 0.408977 0.716268 0.161776
O O3 0.488275 0.743414 0.208049
O O4 0.435356 0.709728 0.370283
O O5 0.250000 0.318047 0.233860
O O6 0.190859 0.500000 0.279349
O O7 0.172110 0.287810 0.156688
O O8 0.191052 0.242013 0.363790
O O9 0.436999 0.822320 0.869960
O O10 0.372011 0.783883 0.752051
O O11 0.374492 0.000000 0.883522
O O12 0.369951 0.744275 0.971613
O O13 0.870491 0.500000 0.924366
O O14 0.999736 0.000000 0.126796
O O15 0.000000 0.780380 0.000000
O O16 0.335368 0.787048 0.561754
O O17 0.418947 0.753355 0.574578
O O18 0.383012 0.000000 0.624955
O O19 0.250000 0.215480 0.507116
O O20 0.200964 0.000000 0.469357
O O21 0.500000 0.291891 0.500000
O O22 0.445967 0.500000 0.506926
#
# Coordination Sequence:
#
# PCOD9401088 Si02
#       8
#     8   8   8   8   8   8   8   8
#     4  10  20  32  49  74 101 129 165 209 254 301
#     4   9  18  34  56  80 106 134 164 205 257 308
#     4  10  21  36  51  71 102 136 174 215 252 299
#     4  10  20  33  50  74 101 130 166 205 249 299
#     4  10  19  32  49  70  97 133 174 213 252 293
#     4  10  21  36  54  76 103 139 177 217 265 313
#     4   9  18  34  56  81 106 132 168 213 261 314
#     4  10  21  36  53  76 107 139 172 214 262 313
#
# _framework density 17.491149
#
# number of rings (size 3 to 8) (size 9 to 14) (size 15 to 20)
#    0.000    2.250    1.250    1.500    0.000    4.000 
#    0.000    0.625    0.000    0.750    0.000    0.000 
#    0.000    0.000    0.000    0.000    0.000    0.000 
#
# Total GULP energy -357062.301829 kJ/mol
# GULP energy per Si atom -5579.098466 kJ/mol
# Density = 1.745134 g / cm^3
# Si number density = 17.491149 Si / 1000 Ang^3
#
#
#
# Elastic Constant Matrix: (Units=GPa)
#
#
# Indices 1 2 3 4 5 6 
#
# 1 76.6611 33.5656 73.1388 0.0000 0.0000 0.0000
# 2 33.5656 18.5368 45.8231 0.0000 0.0000 0.0000
# 3 73.1388 45.8231 156.7953 0.0000 0.0000 0.0000
# 4 0.0000 0.0000 0.0000 32.6760 0.0000 0.0000
# 5 0.0000 0.0000 0.0000 0.0000 34.0513 0.0000
# 6 0.0000 0.0000 0.0000 0.0000 0.0000 17.8594
#
#
#
# Elastic Compliance Matrix: (Units=1/GPa)
#
#
# Indices 1 2 3 4 5 6 
#
# 1 0.073211 -0.173468 0.016546 0.000000 0.000000 0.000000
# 2 -0.173468 0.605380 -0.096005 0.000000 0.000000 0.000000
# 3 0.016546 -0.096005 0.026717 0.000000 0.000000 0.000000
# 4 0.000000 0.000000 0.000000 0.030604 0.000000 0.000000
# 5 0.000000 0.000000 0.000000 0.000000 0.029367 0.000000
# 6 0.000000 0.000000 0.000000 0.000000 0.000000 0.055993
#
#
# Mechanical properties :
#
#
# Convention : Reuss Voigt Hill
#
# Bulk Modulus (GPa) = 5.01372 61.89428 33.45400
# Shear Modulus (GPa) = 3.58780 23.54838 13.56809
#
# Velocity S-wave (km/s) = 1.43376 3.67318 2.78818
# Velocity P-wave (km/s) = 2.36929 7.31112 5.43443
#
# Compressibility (1/GPa) = 0.19945280
#
# Stress axis : x y z
#
# Youngs Moduli (GPa) = 13.65915 1.65186 37.42917
#
# Poissons Ratio (x) = 0.28654 -0.61929
# Poissons Ratio (y) = 2.36943 3.59339
# Poissons Ratio (z) = -0.22600 0.15859
#
# Static dielectric constant tensor:
#      x y z
#    x 1.597620 0.000000 0.000000 
#    y 0.000000 1.590100 0.000000 
#    z 0.000000 0.000000 1.587160 
# 
# From -- ./inp_files/19568.got.cif
#   From: 2010.05.17/outbox.cif.g08.bks.cpg/sg51_10_cif.got.tgz:19568.got - 2010.06.03 11:52:47.
