data_PCOD9401432
_publ_section_title
;
Structure prediction by ZEFSAII (Michael W. Deem and Ramdas Pophale) SiO2 
 PCOD9401432
Probable space group: P M M A
;
_chemical_formula_sum "Si O2"
_cell_formula_units_Z 40
_cell_length_a 8.196212
_cell_length_b 7.665163
_cell_length_c 29.766034
_cell_angle_alpha 90.000000
_cell_angle_beta 90.000000
_cell_angle_gamma 90.000000
_cell_volume 1870.060045
_symmetry_space_group_name_H-M "P M M A"
_symmetry_group_IT_number 51
_symmetry_cell_setting 'orthorhombic'
loop_
_space_group_symop_operation_xyz
x,y,z
1/2-x,-y,z
1/2+x,-y,-z
-x,y,-z
-x,-y,-z
1/2+x,y,-z
1/2-x,y,z
x,-y,z
loop_
_atom_site_type_symbol
_atom_site_label
_atom_site_fract_x
_atom_site_fract_y
_atom_site_fract_z
Si Si1 0.427447 0.213286 0.235064
Si Si2 0.068110 0.709369 0.047387
Si Si3 0.250000 0.214028 0.711424
Si Si4 0.569382 0.209407 0.143587
Si Si5 0.250000 0.207504 0.608953
Si Si6 0.563685 0.709186 0.548403
O O1 0.250000 0.270024 0.252012
O O2 0.585076 0.269617 0.263136
O O3 0.450130 0.268989 0.183078
O O4 0.428462 0.000000 0.235874
O O5 0.250000 0.777959 0.054043
O O6 0.075126 0.500000 0.043253
O O7 0.970134 0.745548 0.092494
O O8 0.000000 0.776575 0.000000
O O9 0.250000 0.274129 0.660007
O O10 0.250000 0.000000 0.712296
O O11 0.750000 0.273309 0.154881
O O12 0.570062 0.000000 0.145825
O O13 0.417330 0.256660 0.583340
O O14 0.250000 0.000000 0.611306
O O15 0.500000 0.775999 0.500000
O O16 0.750000 0.772491 0.558222
O O17 0.575817 0.500000 0.544922
#
# Coordination Sequence:
#
# PCOD9401432 Si02
#       6
#     8   8   4   8   4   8
#     4   9  16  29  51  75 103 141 180 219 263 319
#     4  10  21  36  52  71  99 136 174 211 260 328
#     4   9  18  33  49  75 115 151 181 215 272 343
#     4  10  19  32  53  80 105 130 171 224 268 311
#     4  11  23  35  55  89 127 155 183 241 302 345
#     4  10  20  38  62  83 109 154 207 244 278 342
#
# _framework density 21.389686999999999
#
# number of rings (size 3 to 8) (size 9 to 14) (size 15 to 20)
#    0.000    2.200    2.000    1.500    0.000    4.400 
#    0.000    2.000    0.000    2.400    0.000    2.800 
#    0.000    0.000    0.000    0.000    0.000    0.000 
#
# Total GULP energy -223199.918331 kJ/mol
# GULP energy per Si atom -5579.997958 kJ/mol
# Density = 2.134100 g / cm^3
# Si number density = 21.389687 Si / 1000 Ang^3
#
#
#
# Elastic Constant Matrix: (Units=GPa)
#
#
# Indices 1 2 3 4 5 6 
#
# 1 206.0825 9.9792 91.7689 0.0000 0.0000 0.0000
# 2 9.9792 36.1737 0.9277 0.0000 0.0000 0.0000
# 3 91.7689 0.9277 157.8036 0.0000 0.0000 0.0000
# 4 0.0000 0.0000 0.0000 -7.5443 0.0000 0.0000
# 5 0.0000 0.0000 0.0000 0.0000 26.7668 0.0000
# 6 0.0000 0.0000 0.0000 0.0000 0.0000 20.6560
#
#
#
# Elastic Compliance Matrix: (Units=1/GPa)
#
#
# Indices 1 2 3 4 5 6 
#
# 1 0.006656 -0.001737 -0.003860 0.000000 0.000000 0.000000
# 2 -0.001737 0.028102 0.000845 0.000000 0.000000 0.000000
# 3 -0.003860 0.000845 0.008577 0.000000 0.000000 0.000000
# 4 0.000000 0.000000 0.000000 -0.132550 0.000000 0.000000
# 5 0.000000 0.000000 0.000000 0.000000 0.037360 0.000000
# 6 0.000000 0.000000 0.000000 0.000000 0.000000 0.048412
#
#
# Mechanical properties :
#
#
# Convention : Reuss Voigt Hill
#
# Bulk Modulus (GPa) = 29.55983 67.26792 48.41388
# Shear Modulus (GPa) = 288.39219 27.80129 158.09674
#
# Velocity S-wave (km/s) = 11.62413 3.60912 8.60657
# Velocity P-wave (km/s) = 13.92875 6.99176 11.02032
#
# Compressibility (1/GPa) = 0.03382970
#
# Stress axis : x y z
#
# Youngs Moduli (GPa) = 150.25162 35.58474 116.59239
#
# Poissons Ratio (x) = 0.06181 0.45007
# Poissons Ratio (y) = 0.26099 -0.09852
# Poissons Ratio (z) = 0.58000 -0.03007
#
# Static dielectric constant tensor:
#      x y z
#    x 1.805280 0.000000 0.000000 
#    y 0.000000 1.793600 0.000000 
#    z 0.000000 0.000000 1.784430 
# 
# From -- ./inp_files/36042.got.cif
#   From: 2010.05.17/outbox.cif.g08.bks.cpg/sg51_19_cif.got.tgz:36042.got - 2010.06.03 11:52:47.
