data_PCOD9401837
_publ_section_title
;
Structure prediction by ZEFSAII (Michael W. Deem and Ramdas Pophale) SiO2 
 PCOD9401837
Probable space group: P M M A
;
_chemical_formula_sum "Si O2"
_cell_formula_units_Z 44
_cell_length_a 8.009554
_cell_length_b 18.698015
_cell_length_c 14.696458
_cell_angle_alpha 90.000000
_cell_angle_beta 90.000000
_cell_angle_gamma 90.000000
_cell_volume 2200.982125
_symmetry_space_group_name_H-M "P M M A"
_symmetry_group_IT_number 51
_symmetry_cell_setting 'orthorhombic'
loop_
_space_group_symop_operation_xyz
x,y,z
1/2-x,-y,z
1/2+x,-y,-z
-x,y,-z
-x,-y,-z
1/2+x,y,-z
1/2-x,y,z
x,-y,z
loop_
_atom_site_type_symbol
_atom_site_label
_atom_site_fract_x
_atom_site_fract_y
_atom_site_fract_z
Si Si1 0.551079 0.421959 0.290685
Si Si2 0.449613 0.860264 0.288283
Si Si3 0.549685 0.281850 0.394941
Si Si4 0.451070 0.197907 0.100019
Si Si5 0.949685 0.363425 0.899647
Si Si6 0.047719 0.000000 0.394401
O O1 0.750000 0.423512 0.306039
O O2 0.482313 0.500000 0.316235
O O3 0.484422 0.354032 0.346431
O O4 0.520840 0.407511 0.184213
O O5 0.250000 0.869426 0.281416
O O6 0.482920 0.788041 0.344003
O O7 0.513954 0.847487 0.185729
O O8 0.514523 0.929081 0.342409
O O9 0.500000 0.280824 0.500000
O O10 0.750000 0.280461 0.387696
O O11 0.250000 0.199849 0.104100
O O12 0.509514 0.280609 0.108816
O O13 0.500000 0.171718 0.000000
O O14 0.750000 0.363946 0.892924
O O15 0.000000 0.389031 0.000000
O O16 0.000000 0.000000 0.500000
O O17 0.250000 0.000000 0.391325
#
# Coordination Sequence:
#
# PCOD9401837 Si02
#       6
#     8   8   8   8   8   4
#     4  10  22  39  56  78 110 145 185 233 281 331
#     4  10  20  38  60  85 115 149 186 228 275 329
#     4  11  23  38  59  83 108 143 185 231 281 334
#     4   9  18  32  54  82 113 145 182 224 269 322
#     4  10  19  33  55  82 111 146 185 228 277 331
#     4  10  22  38  59  84 116 150 185 230 281 328
#
# _framework density 19.991074999999999
#
# number of rings (size 3 to 8) (size 9 to 14) (size 15 to 20)
#    0.000    2.000    1.818    1.636    0.000    5.455 
#    0.000    0.455    0.000    0.000    0.000    0.000 
#    0.000    0.000    0.000    0.000    0.000    0.000 
#
# Total GULP energy -245711.867123 kJ/mol
# GULP energy per Si atom -5584.360616 kJ/mol
# Density = 1.994557 g / cm^3
# Si number density = 19.991075 Si / 1000 Ang^3
#
#
#
# Elastic Constant Matrix: (Units=GPa)
#
#
# Indices 1 2 3 4 5 6 
#
# 1 7.6739 0.8560 -14.5048 0.0000 0.0000 0.0000
# 2 0.8560 151.8752 85.2914 0.0000 0.0000 0.0000
# 3 -14.5048 85.2914 144.7087 0.0000 0.0000 0.0000
# 4 0.0000 0.0000 0.0000 -94.4521 0.0000 0.0000
# 5 0.0000 0.0000 0.0000 0.0000 28.5042 0.0000
# 6 0.0000 0.0000 0.0000 0.0000 0.0000 23.1566
#
#
#
# Elastic Compliance Matrix: (Units=1/GPa)
#
#
# Indices 1 2 3 4 5 6 
#
# 1 0.186936 -0.017304 0.028936 0.000000 0.000000 0.000000
# 2 -0.017304 0.011444 -0.008479 0.000000 0.000000 0.000000
# 3 0.028936 -0.008479 0.014809 0.000000 0.000000 0.000000
# 4 0.000000 0.000000 0.000000 -0.010587 0.000000 0.000000
# 5 0.000000 0.000000 0.000000 0.000000 0.035083 0.000000
# 6 0.000000 0.000000 0.000000 0.000000 0.000000 0.043184
#
#
# Mechanical properties :
#
#
# Convention : Reuss Voigt Hill
#
# Bulk Modulus (GPa) = 4.55593 49.72700 27.14146
# Shear Modulus (GPa) = 14.37913 6.94944 10.66428
#
# Velocity S-wave (km/s) = 2.68484 1.86650 2.31216
# Velocity P-wave (km/s) = 3.44893 5.43817 4.55350
#
# Compressibility (1/GPa) = 0.21949411
#
# Stress axis : x y z
#
# Youngs Moduli (GPa) = 5.34944 87.38319 67.52805
#
# Poissons Ratio (x) = 1.51207 -1.95401
# Poissons Ratio (y) = 0.09257 0.57260
# Poissons Ratio (z) = -0.15479 0.74096
#
# Static dielectric constant tensor:
#      x y z
#    x 1.715470 0.000000 0.000000 
#    y 0.000000 1.717320 0.000000 
#    z 0.000000 0.000000 1.683220 
# 
# From -- ./inp_files/20875.got.cif
#   From: 2010.05.17/outbox.cif.g08.bks.cpg/sg51_11_cif.got.tgz:20875.got - 2010.06.03 11:52:47.
