data_PCOD9401376
_publ_section_title
;
Structure prediction by ZEFSAII (Michael W. Deem and Ramdas Pophale) SiO2 
 PCOD9401376
Probable space group: P M M A
;
_chemical_formula_sum "Si O2"
_cell_formula_units_Z 48
_cell_length_a 29.756549
_cell_length_b 7.509235
_cell_length_c 10.324995
_cell_angle_alpha 90.000000
_cell_angle_beta 90.000000
_cell_angle_gamma 90.000000
_cell_volume 2307.108974
_symmetry_space_group_name_H-M "P M M A"
_symmetry_group_IT_number 51
_symmetry_cell_setting 'orthorhombic'
loop_
_space_group_symop_operation_xyz
x,y,z
1/2-x,-y,z
1/2+x,-y,-z
-x,y,-z
-x,-y,-z
1/2+x,y,-z
1/2-x,y,z
x,-y,z
loop_
_atom_site_type_symbol
_atom_site_label
_atom_site_fract_x
_atom_site_fract_y
_atom_site_fract_z
Si Si1 0.022631 0.781880 0.366902
Si Si2 0.129126 0.218322 0.980679
Si Si3 0.699231 0.213759 0.231399
Si Si4 0.967980 0.216790 0.116397
Si Si5 0.698642 0.289109 0.524387
Si Si6 0.379765 0.209705 0.274927
O O1 0.073644 0.720913 0.337156
O O2 0.000000 0.722647 0.500000
O O3 0.990244 0.726784 0.249886
O O4 0.023600 0.000000 0.370171
O O5 0.168719 0.279437 0.885976
O O6 0.082340 0.272657 0.914939
O O7 0.130505 0.000000 0.982092
O O8 0.130106 0.279612 0.130035
O O9 0.750000 0.283586 0.223308
O O10 0.682860 0.250947 0.377441
O O11 0.700874 0.000000 0.220280
O O12 0.967725 0.000000 0.117237
O O13 0.000000 0.273661 0.000000
O O14 0.750000 0.216909 0.538903
O O15 0.701505 0.500000 0.538557
O O16 0.662472 0.227416 0.629455
O O17 0.387972 0.000000 0.256301
#
# Coordination Sequence:
#
# PCOD9401376 Si02
#       6
#     8   8   8   8   8   8
#     4   9  17  26  41  73 110 139 168 204 246 296
#     4   9  17  28  47  77 108 136 165 206 259 306
#     4   9  18  33  53  77 101 126 163 212 262 309
#     4   9  14  24  40  64 104 141 164 196 245 297
#     4  10  22  39  55  72  99 136 174 212 258 311
#     4  10  19  32  52  81 110 135 170 213 256 301
#
# _framework density 20.805259
#
# number of rings (size 3 to 8) (size 9 to 14) (size 15 to 20)
#    0.000    2.667    1.667    0.500    2.333    1.667 
#    0.000    2.500    0.000    2.500    0.000    1.167 
#    0.000    0.000    0.000    0.000    0.000    0.000 
#
# Total GULP energy -267862.449555 kJ/mol
# GULP energy per Si atom -5580.467699 kJ/mol
# Density = 2.075791 g / cm^3
# Si number density = 20.805259 Si / 1000 Ang^3
#
#
#
# Elastic Constant Matrix: (Units=GPa)
#
#
# Indices 1 2 3 4 5 6 
#
# 1 137.5221 -2.6553 124.8379 0.0000 0.0000 0.0000
# 2 -2.6553 50.3326 -2.9954 0.0000 0.0000 0.0000
# 3 124.8379 -2.9954 228.9375 0.0000 0.0000 0.0000
# 4 0.0000 0.0000 0.0000 88.2313 0.0000 0.0000
# 5 0.0000 0.0000 0.0000 0.0000 41.1461 0.0000
# 6 0.0000 0.0000 0.0000 0.0000 0.0000 -90.5654
#
#
#
# Elastic Compliance Matrix: (Units=1/GPa)
#
#
# Indices 1 2 3 4 5 6 
#
# 1 0.014403 0.000293 -0.007850 0.000000 0.000000 0.000000
# 2 0.000293 0.019889 0.000101 0.000000 0.000000 0.000000
# 3 -0.007850 0.000101 0.008650 0.000000 0.000000 0.000000
# 4 0.000000 0.000000 0.000000 0.011334 0.000000 0.000000
# 5 0.000000 0.000000 0.000000 0.000000 0.024304 0.000000
# 6 0.000000 0.000000 0.000000 0.000000 0.000000 -0.011042
#
#
# Mechanical properties :
#
#
# Convention : Reuss Voigt Hill
#
# Bulk Modulus (GPa) = 35.67758 72.79629 54.23693
# Shear Modulus (GPa) = 54.46907 27.60272 41.03590
#
# Velocity S-wave (km/s) = 5.12223 3.64637 4.44597
# Velocity P-wave (km/s) = 7.22278 7.26590 7.24437
#
# Compressibility (1/GPa) = 0.02802881
#
# Stress axis : x y z
#
# Youngs Moduli (GPa) = 69.42812 50.27833 115.60700
#
# Poissons Ratio (x) = -0.01471 0.90754
# Poissons Ratio (y) = -0.02032 -0.01163
# Poissons Ratio (z) = 0.54503 -0.00506
#
# Static dielectric constant tensor:
#      x y z
#    x 1.804490 0.000000 0.000000 
#    y 0.000000 1.784760 0.000000 
#    z 0.000000 0.000000 1.723530 
# 
# From -- ./inp_files/12821.got.cif
#   From: 2010.05.17/outbox.cif.g08.bks.cpg/sg51_7_cif.got.tgz:12821.got - 2010.06.03 11:52:47.
