data_PCOD9401609
_publ_section_title
;
Structure prediction by ZEFSAII (Michael W. Deem and Ramdas Pophale) SiO2 
 PCOD9401609
Probable space group: P M M A
;
_chemical_formula_sum "Si O2"
_cell_formula_units_Z 64
_cell_length_a 8.636857
_cell_length_b 25.222869
_cell_length_c 15.678411
_cell_angle_alpha 90.000000
_cell_angle_beta 90.000000
_cell_angle_gamma 90.000000
_cell_volume 3415.484025
_symmetry_space_group_name_H-M "P M M A"
_symmetry_group_IT_number 51
_symmetry_cell_setting 'orthorhombic'
loop_
_space_group_symop_operation_xyz
x,y,z
1/2-x,-y,z
1/2+x,-y,-z
-x,y,-z
-x,-y,-z
1/2+x,y,-z
1/2-x,y,z
x,-y,z
loop_
_atom_site_type_symbol
_atom_site_label
_atom_site_fract_x
_atom_site_fract_y
_atom_site_fract_z
Si Si1 0.064660 0.856906 0.409381
Si Si2 0.066908 0.243294 0.675939
Si Si3 0.065713 0.355688 0.272275
Si Si4 0.063368 0.330715 0.911081
Si Si5 0.064881 0.437578 0.592776
Si Si6 0.936114 0.940465 0.733799
Si Si7 0.435701 0.096930 0.912093
Si Si8 0.434254 0.213414 0.870590
O O1 0.250000 0.856874 0.410779
O O2 0.011673 0.896309 0.333911
O O3 0.000000 0.874912 0.500000
O O4 0.004951 0.797689 0.390140
O O5 0.250000 0.249745 0.661536
O O6 0.044724 0.216626 0.769025
O O7 0.989862 0.300759 0.683903
O O8 0.250000 0.355857 0.265471
O O9 0.994086 0.356892 0.176872
O O10 0.007610 0.403091 0.331904
O O11 0.250000 0.330947 0.911103
O O12 0.004826 0.269303 0.905487
O O13 0.000000 0.353424 0.000000
O O14 0.250000 0.431257 0.593058
O O15 0.028563 0.500000 0.603775
O O16 0.000000 0.421299 0.500000
O O17 0.750000 0.935952 0.742139
O O18 0.009075 0.931244 0.826352
O O19 0.972154 0.000000 0.703846
O O20 0.250000 0.097258 0.914252
O O21 0.496798 0.157973 0.904562
O O22 0.500000 0.073817 0.000000
O O23 0.250000 0.213402 0.887278
#
# Coordination Sequence:
#
# PCOD9401609 Si02
#       8
#     8   8   8   8   8   8   8   8
#     4  11  23  39  61  87 113 145 183 229 285 347
#     4  10  19  36  58  83 117 151 187 233 283 338
#     4  11  22  36  57  88 123 161 202 242 289 346
#     4  10  19  33  52  80 118 160 201 244 290 341
#     4  10  21  39  63  90 120 156 199 248 299 349
#     4  10  23  43  62  81 108 142 183 233 284 338
#     4  11  21  35  56  84 112 144 184 226 279 337
#     4   8  16  30  51  78 109 144 181 225 275 329
#
# _framework density 18.738192000000002
#
# number of rings (size 3 to 8) (size 9 to 14) (size 15 to 20)
#    0.000    1.875    1.250    4.125    0.000    2.500 
#    0.000    3.750    0.000    0.375    0.000    0.000 
#    0.000    0.000    0.000    0.000    0.000    0.000 
#
# Total GULP energy -357336.649575 kJ/mol
# GULP energy per Si atom -5583.385150 kJ/mol
# Density = 1.869554 g / cm^3
# Si number density = 18.738192 Si / 1000 Ang^3
#
#
#
# Elastic Constant Matrix: (Units=GPa)
#
#
# Indices 1 2 3 4 5 6 
#
# 1 67.2420 36.1048 50.7999 0.0000 0.0000 0.0000
# 2 36.1048 71.7611 57.9646 0.0000 0.0000 0.0000
# 3 50.7999 57.9646 132.5881 0.0000 0.0000 0.0000
# 4 0.0000 0.0000 0.0000 -4.6063 0.0000 0.0000
# 5 0.0000 0.0000 0.0000 0.0000 33.3391 0.0000
# 6 0.0000 0.0000 0.0000 0.0000 0.0000 21.4740
#
#
#
# Elastic Compliance Matrix: (Units=1/GPa)
#
#
# Indices 1 2 3 4 5 6 
#
# 1 0.022926 -0.006863 -0.005784 0.000000 0.000000 0.000000
# 2 -0.006863 0.023597 -0.007687 0.000000 0.000000 0.000000
# 3 -0.005784 -0.007687 0.013118 0.000000 0.000000 0.000000
# 4 0.000000 0.000000 0.000000 -0.217094 0.000000 0.000000
# 5 0.000000 0.000000 0.000000 0.000000 0.029995 0.000000
# 6 0.000000 0.000000 0.000000 0.000000 0.000000 0.046568
#
#
# Mechanical properties :
#
#
# Convention : Reuss Voigt Hill
#
# Bulk Modulus (GPa) = 52.70056 62.36998 57.53527
# Shear Modulus (GPa) = -147.49804 18.48947 -64.50429
#
# Velocity S-wave (km/s) = -8.88178 3.14463 -5.87356
# Velocity P-wave (km/s) = 8.77472 6.82218 3.90215
#
# Compressibility (1/GPa) = 0.01897513
#
# Stress axis : x y z
#
# Youngs Moduli (GPa) = 43.61858 42.37856 76.22861
#
# Poissons Ratio (x) = 0.29085 0.44087
# Poissons Ratio (y) = 0.29936 0.58593
# Poissons Ratio (z) = 0.25227 0.32574
#
# Static dielectric constant tensor:
#      x y z
#    x 1.626600 0.000000 0.000000 
#    y 0.000000 1.654040 0.000000 
#    z 0.000000 0.000000 1.647610 
# 
# From -- ./inp_files/22307.got.cif
#   From: 2010.05.17/outbox.cif.g08.bks.cpg/sg51_12_cif.got.tgz:22307.got - 2010.06.03 11:52:47.
