data_PCOD9401436
_publ_section_title
;
Structure prediction by ZEFSAII (Michael W. Deem and Ramdas Pophale) SiO2 
 PCOD9401436
Probable space group: P M M A
;
_chemical_formula_sum "Si O2"
_cell_formula_units_Z 56
_cell_length_a 22.483848
_cell_length_b 14.671134
_cell_length_c 9.649191
_cell_angle_alpha 90.000000
_cell_angle_beta 90.000000
_cell_angle_gamma 90.000000
_cell_volume 3182.916367
_symmetry_space_group_name_H-M "P M M A"
_symmetry_group_IT_number 51
_symmetry_cell_setting 'orthorhombic'
loop_
_space_group_symop_operation_xyz
x,y,z
1/2-x,-y,z
1/2+x,-y,-z
-x,y,-z
-x,-y,-z
1/2+x,y,-z
1/2-x,y,z
x,-y,z
loop_
_atom_site_type_symbol
_atom_site_label
_atom_site_fract_x
_atom_site_fract_y
_atom_site_fract_z
Si Si1 0.178787 0.891963 0.971434
Si Si2 0.678932 0.729295 0.516462
Si Si3 0.178194 0.897678 0.289627
Si Si4 0.138662 0.272191 0.799052
Si Si5 0.102650 0.608640 0.286234
Si Si6 0.022068 0.392233 0.840113
Si Si7 0.315356 0.607227 0.034716
O O1 0.250000 0.873726 0.955765
O O2 0.161714 0.872918 0.131670
O O3 0.170374 0.000000 0.947260
O O4 0.142332 0.826811 0.870345
O O5 0.750000 0.712573 0.534549
O O6 0.662848 0.822532 0.597450
O O7 0.663221 0.734278 0.355443
O O8 0.637425 0.654101 0.588344
O O9 0.250000 0.902010 0.287692
O O10 0.156216 0.000000 0.320350
O O11 0.075409 0.323525 0.807959
O O12 0.179536 0.335935 0.895809
O O13 0.109222 0.500000 0.295730
O O14 0.136088 0.637835 0.145130
O O15 0.033290 0.627331 0.261746
O O16 0.039017 0.500000 0.824638
O O17 0.000000 0.382637 0.000000
O O18 0.250000 0.619371 0.097875
O O19 0.324022 0.500000 0.006092
#
# Coordination Sequence:
#
# PCOD9401436 Si02
#       7
#     8   8   8   8   8   8   8
#     4   9  18  34  58  87 116 149 191 236 284 343
#     4  11  23  35  52  85 122 151 181 227 293 361
#     4   8  16  33  55  78 108 147 187 224 267 331
#     4  12  22  34  55  84 119 149 184 234 292 337
#     4  10  21  38  58  77 105 149 197 237 273 329
#     4  10  21  40  62  82 106 146 204 251 279 322
#     4  10  19  32  53  80 108 142 184 233 289 339
#
# _framework density 17.593928999999999
#
# number of rings (size 3 to 8) (size 9 to 14) (size 15 to 20)
#    0.000    2.000    1.429    3.857    0.000    4.286 
#    0.000    2.857    0.000    1.286    0.000    2.000 
#    0.000    0.000    0.000    0.000    0.000    0.000 
#
# Total GULP energy -312407.516062 kJ/mol
# GULP energy per Si atom -5578.705644 kJ/mol
# Density = 1.755388 g / cm^3
# Si number density = 17.593929 Si / 1000 Ang^3
#
#
#
# Elastic Constant Matrix: (Units=GPa)
#
#
# Indices 1 2 3 4 5 6 
#
# 1 75.4473 44.4874 21.9703 0.0000 0.0000 0.0000
# 2 44.4874 80.0655 40.7738 0.0000 0.0000 0.0000
# 3 21.9703 40.7738 82.4573 0.0000 0.0000 0.0000
# 4 0.0000 0.0000 0.0000 177.2325 0.0000 0.0000
# 5 0.0000 0.0000 0.0000 0.0000 23.8382 0.0000
# 6 0.0000 0.0000 0.0000 0.0000 0.0000 7.2654
#
#
#
# Elastic Compliance Matrix: (Units=1/GPa)
#
#
# Indices 1 2 3 4 5 6 
#
# 1 0.019716 -0.011066 0.000219 0.000000 0.000000 0.000000
# 2 -0.011066 0.022905 -0.008378 0.000000 0.000000 0.000000
# 3 0.000219 -0.008378 0.016212 0.000000 0.000000 0.000000
# 4 0.000000 0.000000 0.000000 0.005642 0.000000 0.000000
# 5 0.000000 0.000000 0.000000 0.000000 0.041949 0.000000
# 6 0.000000 0.000000 0.000000 0.000000 0.000000 0.137638
#
#
# Mechanical properties :
#
#
# Convention : Reuss Voigt Hill
#
# Bulk Modulus (GPa) = 49.06152 50.27035 49.66593
# Shear Modulus (GPa) = 17.28270 50.38315 33.83293
#
# Velocity S-wave (km/s) = 3.13758 5.35713 4.38995
# Velocity P-wave (km/s) = 6.40874 8.17922 7.34750
#
# Compressibility (1/GPa) = 0.02038257
#
# Stress axis : x y z
#
# Youngs Moduli (GPa) = 50.72092 43.65871 61.68371
#
# Poissons Ratio (x) = 0.48314 -0.01351
# Poissons Ratio (y) = 0.56129 0.51676
# Poissons Ratio (z) = -0.01111 0.36575
#
# Static dielectric constant tensor:
#      x y z
#    x 1.607050 0.000000 0.000000 
#    y 0.000000 1.621260 0.000000 
#    z 0.000000 0.000000 1.596200 
# 
# From -- ./inp_files/10959.got.cif
#   From: 2010.05.17/outbox.cif.g08.bks.cpg/sg51_6_cif.got.tgz:10959.got - 2010.06.03 11:52:47.
