data_PCOD9401856
_publ_section_title
;
Structure prediction by ZEFSAII (Michael W. Deem and Ramdas Pophale) SiO2 
 PCOD9401856
Probable space group: P M M A
;
_chemical_formula_sum "Si O2"
_cell_formula_units_Z 56
_cell_length_a 9.413375
_cell_length_b 21.371209
_cell_length_c 14.632320
_cell_angle_alpha 90.000000
_cell_angle_beta 90.000000
_cell_angle_gamma 90.000000
_cell_volume 2943.659969
_symmetry_space_group_name_H-M "P M M A"
_symmetry_group_IT_number 51
_symmetry_cell_setting 'orthorhombic'
loop_
_space_group_symop_operation_xyz
x,y,z
1/2-x,-y,z
1/2+x,-y,-z
-x,y,-z
-x,-y,-z
1/2+x,y,-z
1/2-x,y,z
x,-y,z
loop_
_atom_site_type_symbol
_atom_site_label
_atom_site_fract_x
_atom_site_fract_y
_atom_site_fract_z
Si Si1 0.086618 0.745738 0.908796
Si Si2 0.414630 0.896666 0.908286
Si Si3 0.583865 0.069580 0.729165
Si Si4 0.582059 0.569563 0.269348
Si Si5 0.907477 0.574069 0.917000
Si Si6 0.579775 0.293722 0.295099
Si Si7 0.579587 0.814176 0.595863
O O1 0.250000 0.727459 0.923003
O O2 0.079777 0.821088 0.897404
O O3 0.041122 0.715678 0.812360
O O4 0.000000 0.731959 0.000000
O O5 0.250000 0.914945 0.915725
O O6 0.488611 0.924070 0.818948
O O7 0.500000 0.913279 0.000000
O O8 0.750000 0.076203 0.755759
O O9 0.552328 0.124808 0.658398
O O10 0.565026 0.000000 0.689289
O O11 0.750000 0.570731 0.246195
O O12 0.552229 0.500000 0.309095
O O13 0.491866 0.576122 0.177299
O O14 0.555195 0.633884 0.323226
O O15 0.750000 0.601830 0.910711
O O16 0.890765 0.500000 0.936012
O O17 0.000000 0.599759 0.000000
O O18 0.750000 0.280538 0.302883
O O19 0.488220 0.245489 0.353144
O O20 0.500000 0.821259 0.500000
O O21 0.750000 0.807420 0.584710
#
# Coordination Sequence:
#
# PCOD9401856 Si02
#       7
#     8   8   8   8   8   8   8
#     4   9  18  31  50  77 110 149 192 238 283 328
#     4  10  19  33  55  83 118 160 203 243 284 331
#     4  10  22  40  61  88 122 157 193 234 281 335
#     4   9  18  32  51  76 107 144 183 226 282 343
#     4   9  16  26  41  62  94 138 185 231 275 324
#     4  10  20  37  59  84 116 151 191 239 287 340
#     4  11  24  42  66  91 116 147 186 233 287 345
#
# _framework density 19.023937
#
# number of rings (size 3 to 8) (size 9 to 14) (size 15 to 20)
#    0.000    2.286    1.429    1.286    0.000    5.429 
#    0.000    1.429    0.000    0.429    0.000    0.000 
#    0.000    0.000    0.000    0.000    0.000    0.000 
#
# Total GULP energy -312443.553478 kJ/mol
# GULP energy per Si atom -5579.349169 kJ/mol
# Density = 1.898064 g / cm^3
# Si number density = 19.023937 Si / 1000 Ang^3
#
#
#
# Elastic Constant Matrix: (Units=GPa)
#
#
# Indices 1 2 3 4 5 6 
#
# 1 82.1787 70.7265 61.1778 0.0000 0.0000 0.0000
# 2 70.7265 137.1996 55.5100 0.0000 0.0000 0.0000
# 3 61.1778 55.5100 92.6368 0.0000 0.0000 0.0000
# 4 0.0000 0.0000 0.0000 -2.7658 0.0000 0.0000
# 5 0.0000 0.0000 0.0000 0.0000 29.1976 0.0000
# 6 0.0000 0.0000 0.0000 0.0000 0.0000 16.7499
#
#
#
# Elastic Compliance Matrix: (Units=1/GPa)
#
#
# Indices 1 2 3 4 5 6 
#
# 1 0.032669 -0.010708 -0.015158 0.000000 0.000000 0.000000
# 2 -0.010708 0.013131 -0.000797 0.000000 0.000000 0.000000
# 3 -0.015158 -0.000797 0.021283 0.000000 0.000000 0.000000
# 4 0.000000 0.000000 0.000000 -0.361563 0.000000 0.000000
# 5 0.000000 0.000000 0.000000 0.000000 0.034249 0.000000
# 6 0.000000 0.000000 0.000000 0.000000 0.000000 0.059702
#
#
# Mechanical properties :
#
#
# Convention : Reuss Voigt Hill
#
# Bulk Modulus (GPa) = 72.69151 76.31600 74.50375
# Shear Modulus (GPa) = -35.05867 16.94307 -9.05780
#
# Velocity S-wave (km/s) = -4.29753 2.98756 -2.18440
# Velocity P-wave (km/s) = 3.69710 7.21828 5.73464
#
# Compressibility (1/GPa) = 0.01375676
#
# Stress axis : x y z
#
# Youngs Moduli (GPa) = 30.61028 76.15595 46.98606
#
# Poissons Ratio (x) = 0.81547 0.71223
# Poissons Ratio (y) = 0.32777 0.03744
# Poissons Ratio (z) = 0.46400 0.06068
#
# Static dielectric constant tensor:
#      x y z
#    x 1.652510 0.000000 0.000000 
#    y 0.000000 1.723290 0.000000 
#    z 0.000000 0.000000 1.607850 
# 
# From -- ./inp_files/21753.got.cif
#   From: 2010.05.17/outbox.cif.g08.bks.cpg/sg51_11_cif.got.tgz:21753.got - 2010.06.03 11:52:47.
