data_PCOD9401644
_publ_section_title
;
Structure prediction by ZEFSAII (Michael W. Deem and Ramdas Pophale) SiO2 
 PCOD9401644
Probable space group: P M M A
;
_chemical_formula_sum "Si O2"
_cell_formula_units_Z 64
_cell_length_a 8.661273
_cell_length_b 20.171093
_cell_length_c 21.248794
_cell_angle_alpha 90.000000
_cell_angle_beta 90.000000
_cell_angle_gamma 90.000000
_cell_volume 3712.320346
_symmetry_space_group_name_H-M "P M M A"
_symmetry_group_IT_number 51
_symmetry_cell_setting 'orthorhombic'
loop_
_space_group_symop_operation_xyz
x,y,z
1/2-x,-y,z
1/2+x,-y,-z
-x,y,-z
-x,-y,-z
1/2+x,y,-z
1/2-x,y,z
x,-y,z
loop_
_atom_site_type_symbol
_atom_site_label
_atom_site_fract_x
_atom_site_fract_y
_atom_site_fract_z
Si Si1 0.063741 0.711916 0.433270
Si Si2 0.063793 0.787832 0.307483
Si Si3 0.565795 0.925213 0.112694
Si Si4 0.565214 0.074112 0.747214
Si Si5 0.563968 0.574009 0.237765
Si Si6 0.434899 0.712350 0.814382
Si Si7 0.436361 0.426442 0.378754
Si Si8 0.932884 0.789713 0.933877
O O1 0.250000 0.712487 0.435308
O O2 0.014934 0.756339 0.373685
O O3 0.011179 0.636263 0.419304
O O4 0.000000 0.734619 0.500000
O O5 0.250000 0.780630 0.303125
O O6 0.025784 0.865319 0.298395
O O7 0.990556 0.749214 0.248817
O O8 0.750000 0.919620 0.106229
O O9 0.519898 0.917585 0.186128
O O10 0.486082 0.865681 0.076193
O O11 0.518674 0.000000 0.093678
O O12 0.750000 0.077690 0.759502
O O13 0.531032 0.000000 0.723234
O O14 0.750000 0.576034 0.244178
O O15 0.520670 0.500000 0.215630
O O16 0.518676 0.635340 0.193928
O O17 0.492722 0.583100 0.307131
O O18 0.250000 0.716624 0.818360
O O19 0.505518 0.747780 0.874920
O O20 0.250000 0.425969 0.378468
O O21 0.488262 0.500000 0.399673
O O22 0.750000 0.787060 0.935005
O O23 0.000000 0.765366 0.000000
#
# Coordination Sequence:
#
# PCOD9401644 Si02
#       8
#     8   8   8   8   8   8   8   8
#     4  10  21  34  48  70 102 139 180 221 269 318
#     4  10  19  33  53  77 104 137 176 222 268 317
#     4  10  20  34  53  80 113 145 179 218 261 313
#     4   9  17  30  51  78 105 136 174 217 266 316
#     4   9  18  32  52  80 110 138 171 213 261 315
#     4  11  21  34  56  83 109 139 176 218 267 317
#     4   9  17  30  48  71 101 136 173 213 258 313
#     4  12  25  40  57  78 109 146 184 224 266 316
#
# _framework density 17.239889999999999
#
# number of rings (size 3 to 8) (size 9 to 14) (size 15 to 20)
#    0.000    2.000    2.500    1.875    0.000    2.750 
#    0.000    0.000    0.000    0.750    0.000    0.000 
#    0.000    0.000    0.000    0.000    0.000    0.000 
#
# Total GULP energy -357126.565964 kJ/mol
# GULP energy per Si atom -5580.102593 kJ/mol
# Density = 1.720065 g / cm^3
# Si number density = 17.239890 Si / 1000 Ang^3
#
#
#
# Elastic Constant Matrix: (Units=GPa)
#
#
# Indices 1 2 3 4 5 6 
#
# 1 32.1784 34.7737 31.7691 0.0000 0.0000 0.0000
# 2 34.7737 112.7838 65.7556 0.0000 0.0000 0.0000
# 3 31.7691 65.7556 119.6914 0.0000 0.0000 0.0000
# 4 0.0000 0.0000 0.0000 18.7647 0.0000 0.0000
# 5 0.0000 0.0000 0.0000 0.0000 26.0171 0.0000
# 6 0.0000 0.0000 0.0000 0.0000 0.0000 16.4296
#
#
#
# Elastic Compliance Matrix: (Units=1/GPa)
#
#
# Indices 1 2 3 4 5 6 
#
# 1 0.050422 -0.011392 -0.007124 0.000000 0.000000 0.000000
# 2 -0.011392 0.015619 -0.005557 0.000000 0.000000 0.000000
# 3 -0.007124 -0.005557 0.013299 0.000000 0.000000 0.000000
# 4 0.000000 0.000000 0.000000 0.053292 0.000000 0.000000
# 5 0.000000 0.000000 0.000000 0.000000 0.038436 0.000000
# 6 0.000000 0.000000 0.000000 0.000000 0.000000 0.060866
#
#
# Mechanical properties :
#
#
# Convention : Reuss Voigt Hill
#
# Bulk Modulus (GPa) = 32.05960 58.80558 45.43259
# Shear Modulus (GPa) = 17.21304 21.06596 19.13950
#
# Velocity S-wave (km/s) = 3.16324 3.49941 3.33556
# Velocity P-wave (km/s) = 5.65491 7.10718 6.42223
#
# Compressibility (1/GPa) = 0.03119190
#
# Stress axis : x y z
#
# Youngs Moduli (GPa) = 19.83267 64.02554 75.19599
#
# Poissons Ratio (x) = 0.72940 0.53573
# Poissons Ratio (y) = 0.22594 0.41785
# Poissons Ratio (z) = 0.14130 0.35577
#
# Static dielectric constant tensor:
#      x y z
#    x 1.579310 0.000000 0.000000 
#    y 0.000000 1.621900 0.000000 
#    z 0.000000 0.000000 1.550770 
# 
# From -- ./inp_files/28415.got.cif
#   From: 2010.05.17/outbox.cif.g08.bks.cpg/sg51_15_cif.got.tgz:28415.got - 2010.06.03 11:52:47.
