data_PCOD9401501
_publ_section_title
;
Structure prediction by ZEFSAII (Michael W. Deem and Ramdas Pophale) SiO2 
 PCOD9401501
Probable space group: P M M A
;
_chemical_formula_sum "Si O2"
_cell_formula_units_Z 64
_cell_length_a 16.827820
_cell_length_b 19.375658
_cell_length_c 10.608178
_cell_angle_alpha 90.000000
_cell_angle_beta 90.000000
_cell_angle_gamma 90.000000
_cell_volume 3458.797341
_symmetry_space_group_name_H-M "P M M A"
_symmetry_group_IT_number 51
_symmetry_cell_setting 'orthorhombic'
loop_
_space_group_symop_operation_xyz
x,y,z
1/2-x,-y,z
1/2+x,-y,-z
-x,y,-z
-x,-y,-z
1/2+x,y,-z
1/2-x,y,z
x,-y,z
loop_
_atom_site_type_symbol
_atom_site_label
_atom_site_fract_x
_atom_site_fract_y
_atom_site_fract_z
Si Si1 0.405790 0.782934 0.521918
Si Si2 0.112762 0.713954 0.265852
Si Si3 0.155017 0.650048 0.666660
Si Si4 0.956045 0.678665 0.125475
Si Si5 0.154482 0.576702 0.406673
Si Si6 0.153861 0.925045 0.941889
Si Si7 0.839337 0.779506 0.985992
Si Si8 0.345759 0.079117 0.646044
O O1 0.500000 0.773561 0.500000
O O2 0.370973 0.762129 0.385662
O O3 0.369349 0.727065 0.619429
O O4 0.385701 0.859660 0.567783
O O5 0.128963 0.636002 0.310422
O O6 0.161058 0.741640 0.147505
O O7 0.022735 0.711782 0.215002
O O8 0.250000 0.646757 0.689309
O O9 0.101510 0.632556 0.787970
O O10 0.133684 0.601600 0.547843
O O11 0.899055 0.738149 0.073181
O O12 0.000000 0.648936 0.000000
O O13 0.250000 0.574775 0.402705
O O14 0.123583 0.500000 0.380109
O O15 0.250000 0.928969 0.947382
O O16 0.133895 0.913401 0.794692
O O17 0.122480 0.000000 0.981833
O O18 0.131522 0.858382 0.022122
O O19 0.750000 0.779186 0.039691
O O20 0.250000 0.085778 0.635532
O O21 0.366352 0.000000 0.609173
#
# Coordination Sequence:
#
# PCOD9401501 Si02
#       8
#     8   8   8   8   8   8   8   8
#     4  11  20  32  53  77 110 147 177 227 288 341
#     4  10  21  35  52  80 117 141 175 226 282 334
#     4  10  19  34  58  84 107 140 190 234 273 329
#     4  10  20  34  52  77 110 144 181 230 277 327
#     4   9  19  36  60  87 113 145 184 226 274 332
#     4   8  15  29  50  76 103 134 183 239 280 321
#     4  10  19  32  55  80 104 143 190 231 279 333
#     4   9  18  32  50  74 103 139 188 237 278 331
#
# _framework density 18.503540000000001
#
# number of rings (size 3 to 8) (size 9 to 14) (size 15 to 20)
#    0.000    2.375    1.250    2.625    0.000    2.750 
#    0.000    1.875    0.000   11.625    0.000    7.000 
#    0.000    0.000    0.000    0.000    0.000    0.000 
#
# Total GULP energy -356631.093160 kJ/mol
# GULP energy per Si atom -5572.360831 kJ/mol
# Density = 1.846143 g / cm^3
# Si number density = 18.503540 Si / 1000 Ang^3
#
#
#
# Elastic Constant Matrix: (Units=GPa)
#
#
# Indices 1 2 3 4 5 6 
#
# 1 50.5464 22.8577 23.6790 0.0000 0.0000 0.0000
# 2 22.8577 120.7385 52.0708 0.0000 0.0000 0.0000
# 3 23.6790 52.0708 89.1454 0.0000 0.0000 0.0000
# 4 0.0000 0.0000 0.0000 13.2601 0.0000 0.0000
# 5 0.0000 0.0000 0.0000 0.0000 17.0646 0.0000
# 6 0.0000 0.0000 0.0000 0.0000 0.0000 -3.9334
#
#
#
# Elastic Compliance Matrix: (Units=1/GPa)
#
#
# Indices 1 2 3 4 5 6 
#
# 1 0.023066 -0.002305 -0.004780 0.000000 0.000000 0.000000
# 2 -0.002305 0.011302 -0.005989 0.000000 0.000000 0.000000
# 3 -0.004780 -0.005989 0.015986 0.000000 0.000000 0.000000
# 4 0.000000 0.000000 0.000000 0.075414 0.000000 0.000000
# 5 0.000000 0.000000 0.000000 0.000000 0.058601 0.000000
# 6 0.000000 0.000000 0.000000 0.000000 0.000000 -0.254233
#
#
# Mechanical properties :
#
#
# Convention : Reuss Voigt Hill
#
# Bulk Modulus (GPa) = 41.31565 50.84947 46.08256
# Shear Modulus (GPa) = -140.25947 16.06646 -62.09651
#
# Velocity S-wave (km/s) = -8.71585 2.94987 -5.79932
# Velocity P-wave (km/s) = 8.88319 6.25643 4.45915
#
# Compressibility (1/GPa) = 0.02420390
#
# Stress axis : x y z
#
# Youngs Moduli (GPa) = 43.35463 88.48233 62.55580
#
# Poissons Ratio (x) = 0.20396 0.29904
# Poissons Ratio (y) = 0.09994 0.37466
# Poissons Ratio (z) = 0.20725 0.52994
#
# Static dielectric constant tensor:
#      x y z
#    x 1.667280 0.000000 0.000000 
#    y 0.000000 1.646620 0.000000 
#    z 0.000000 0.000000 1.655870 
# 
# From -- ./inp_files/17671.got.cif
#   From: 2010.05.17/outbox.cif.g08.bks.cpg/sg51_9_cif.got.tgz:17671.got - 2010.06.03 11:52:47.
