data_PCOD9401149
_publ_section_title
;
Structure prediction by ZEFSAII (Michael W. Deem and Ramdas Pophale) SiO2 
 PCOD9401149
Probable space group: P M M A
;
_chemical_formula_sum "Si O2"
_cell_formula_units_Z 56
_cell_length_a 9.906222
_cell_length_b 18.274051
_cell_length_c 16.116832
_cell_angle_alpha 90.000000
_cell_angle_beta 90.000000
_cell_angle_gamma 90.000000
_cell_volume 2917.578621
_symmetry_space_group_name_H-M "P M M A"
_symmetry_group_IT_number 51
_symmetry_cell_setting 'orthorhombic'
loop_
_space_group_symop_operation_xyz
x,y,z
1/2-x,-y,z
1/2+x,-y,-z
-x,y,-z
-x,-y,-z
1/2+x,y,-z
1/2-x,y,z
x,-y,z
loop_
_atom_site_type_symbol
_atom_site_label
_atom_site_fract_x
_atom_site_fract_y
_atom_site_fract_z
Si Si1 0.400608 0.849030 0.162207
Si Si2 0.386719 0.000000 0.064337
Si Si3 0.413175 0.583531 0.234156
Si Si4 0.597406 0.218809 0.571580
Si Si5 0.906489 0.000000 0.419239
Si Si6 0.404236 0.392802 0.425182
Si Si7 0.592183 0.145625 0.308984
Si Si8 0.910084 0.690327 0.917965
O O1 0.250000 0.839153 0.204018
O O2 0.390625 0.925807 0.115703
O O3 0.532280 0.860243 0.218075
O O4 0.419123 0.776044 0.107505
O O5 0.250000 0.000000 0.013342
O O6 0.500000 0.000000 0.000000
O O7 0.250000 0.589460 0.238051
O O8 0.448272 0.500000 0.210387
O O9 0.456481 0.595042 0.330660
O O10 0.453989 0.641447 0.162627
O O11 0.500000 0.188168 0.500000
O O12 0.750000 0.188595 0.570075
O O13 0.606606 0.305533 0.562461
O O14 0.511232 0.203804 0.652690
O O15 0.927328 0.928969 0.361228
O O16 0.000000 0.000000 0.500000
O O17 0.750000 0.000000 0.446061
O O18 0.500000 0.419200 0.500000
O O19 0.250000 0.420751 0.430821
O O20 0.750000 0.165462 0.313335
O O21 0.750000 0.674836 0.933430
O O22 0.000000 0.676265 0.000000
#
# Coordination Sequence:
#
# PCOD9401149 Si02
#       8
#     8   4   8   8   4   8   8   8
#     4  10  21  37  56  80 109 141 177 217 270 333
#     4  10  21  36  56  80 106 136 169 208 257 316
#     4   9  18  34  56  81 111 150 191 228 275 337
#     4  10  19  32  50  73 102 136 176 221 269 320
#     4  10  23  38  50  70 102 140 183 230 278 330
#     4   9  18  33  54  80 111 146 183 226 275 328
#     4  11  22  35  52  75 102 135 178 226 275 325
#     4  10  21  38  60  85 113 146 187 234 284 341
#
# _framework density 19.193998000000001
#
# number of rings (size 3 to 8) (size 9 to 14) (size 15 to 20)
#    0.000    2.143    0.000    3.000    0.000    6.857 
#    0.000    0.714    0.000    0.857    0.000    0.000 
#    0.000    0.000    0.000    0.000    0.000    0.000 
#
# Total GULP energy -311859.106269 kJ/mol
# GULP energy per Si atom -5568.912612 kJ/mol
# Density = 1.915031 g / cm^3
# Si number density = 19.193998 Si / 1000 Ang^3
#
#
#
# Elastic Constant Matrix: (Units=GPa)
#
#
# Indices 1 2 3 4 5 6 
#
# 1 127.7427 33.5078 66.0423 0.0000 0.0000 0.0000
# 2 33.5078 84.5348 43.1312 0.0000 0.0000 0.0000
# 3 66.0423 43.1312 117.6679 0.0000 0.0000 0.0000
# 4 0.0000 0.0000 0.0000 -6.7835 0.0000 0.0000
# 5 0.0000 0.0000 0.0000 0.0000 43.1835 0.0000
# 6 0.0000 0.0000 0.0000 0.0000 0.0000 12.8570
#
#
#
# Elastic Compliance Matrix: (Units=1/GPa)
#
#
# Indices 1 2 3 4 5 6 
#
# 1 0.011184 -0.001513 -0.005722 0.000000 0.000000 0.000000
# 2 -0.001513 0.014756 -0.004559 0.000000 0.000000 0.000000
# 3 -0.005722 -0.004559 0.013381 0.000000 0.000000 0.000000
# 4 0.000000 0.000000 0.000000 -0.147417 0.000000 0.000000
# 5 0.000000 0.000000 0.000000 0.000000 0.023157 0.000000
# 6 0.000000 0.000000 0.000000 0.000000 0.000000 0.077778
#
#
# Mechanical properties :
#
#
# Convention : Reuss Voigt Hill
#
# Bulk Modulus (GPa) = 63.56942 68.36753 65.96848
# Shear Modulus (GPa) = 230.71660 22.33570 126.52615
#
# Velocity S-wave (km/s) = 10.97558 3.41498 8.12790
# Velocity P-wave (km/s) = 13.92154 7.15863 11.06922
#
# Compressibility (1/GPa) = 0.01573083
#
# Stress axis : x y z
#
# Youngs Moduli (GPa) = 89.41729 67.77121 74.73118
#
# Poissons Ratio (x) = 0.10256 0.42762
# Poissons Ratio (y) = 0.13532 0.34072
# Poissons Ratio (z) = 0.51166 0.30899
#
# Static dielectric constant tensor:
#      x y z
#    x 1.627990 0.000000 0.000000 
#    y 0.000000 1.677330 0.000000 
#    z 0.000000 0.000000 1.745630 
# 
# From -- ./inp_files/21915.got.cif
#   From: 2010.05.17/outbox.cif.g08.bks.cpg/sg51_11_cif.got.tgz:21915.got - 2010.06.03 11:52:47.
