data_PCOD9401663
_publ_section_title
;
Structure prediction by ZEFSAII (Michael W. Deem and Ramdas Pophale) SiO2 
 PCOD9401663
Probable space group: P M M A
;
_chemical_formula_sum "Si O2"
_cell_formula_units_Z 64
_cell_length_a 9.308500
_cell_length_b 22.364898
_cell_length_c 16.617962
_cell_angle_alpha 90.000000
_cell_angle_beta 90.000000
_cell_angle_gamma 90.000000
_cell_volume 3459.588035
_symmetry_space_group_name_H-M "P M M A"
_symmetry_group_IT_number 51
_symmetry_cell_setting 'orthorhombic'
loop_
_space_group_symop_operation_xyz
x,y,z
1/2-x,-y,z
1/2+x,-y,-z
-x,y,-z
-x,-y,-z
1/2+x,y,-z
1/2-x,y,z
x,-y,z
loop_
_atom_site_type_symbol
_atom_site_label
_atom_site_fract_x
_atom_site_fract_y
_atom_site_fract_z
Si Si1 0.077213 0.568800 0.238483
Si Si2 0.913436 0.222268 0.867553
Si Si3 0.077484 0.932747 0.258935
Si Si4 0.920525 0.186176 0.287691
Si Si5 0.920832 0.357447 0.918265
Si Si6 0.416000 0.259182 0.420402
Si Si7 0.583696 0.403426 0.581062
Si Si8 0.586707 0.909143 0.924050
O O1 0.250000 0.578526 0.244053
O O2 0.051079 0.500000 0.216157
O O3 0.027714 0.611216 0.165101
O O4 0.024518 0.578370 0.330572
O O5 0.750000 0.224614 0.831843
O O6 0.938804 0.285924 0.908131
O O7 0.914708 0.163418 0.922467
O O8 0.030274 0.208809 0.799898
O O9 0.250000 0.921266 0.263151
O O10 0.036687 0.929276 0.164178
O O11 0.990224 0.879449 0.299751
O O12 0.050477 0.000000 0.288469
O O13 0.750000 0.184734 0.296157
O O14 0.996372 0.231886 0.347496
O O15 0.750000 0.369511 0.925883
O O16 0.000000 0.376992 0.000000
O O17 0.500000 0.240117 0.500000
O O18 0.250000 0.239814 0.419915
O O19 0.417078 0.331192 0.417698
O O20 0.500000 0.422531 0.500000
O O21 0.750000 0.423546 0.575169
O O22 0.750000 0.928798 0.931378
O O23 0.500000 0.930606 0.000000
#
# Coordination Sequence:
#
# PCOD9401663 Si02
#       8
#     8   8   8   8   8   8   8   8
#     4   9  18  33  52  74 103 142 183 217 258 319
#     4   9  18  33  50  69  97 132 169 208 258 319
#     4   9  19  36  53  68  93 134 177 210 246 295
#     4  11  21  32  51  79 106 132 166 210 258 304
#     4  10  20  34  53  75 100 135 179 227 276 322
#     4  10  19  33  53  78 108 137 166 201 248 306
#     4   9  18  33  55  81 108 138 171 210 257 313
#     4   9  17  28  44  67  94 123 156 199 249 300
#
# _framework density 18.499313000000001
#
# number of rings (size 3 to 8) (size 9 to 14) (size 15 to 20)
#    0.000    2.500    0.000    3.375    0.000    6.000 
#    0.000    0.625    0.000    1.125    0.000    0.000 
#    0.000    0.000    0.000    0.000    0.000    0.000 
#
# Total GULP energy -356743.626170 kJ/mol
# GULP energy per Si atom -5574.119159 kJ/mol
# Density = 1.845721 g / cm^3
# Si number density = 18.499313 Si / 1000 Ang^3
#
#
#
# Elastic Constant Matrix: (Units=GPa)
#
#
# Indices 1 2 3 4 5 6 
#
# 1 70.9877 23.8021 33.4305 0.0000 0.0000 0.0000
# 2 23.8021 57.9515 34.4639 0.0000 0.0000 0.0000
# 3 33.4305 34.4639 82.2526 0.0000 0.0000 0.0000
# 4 0.0000 0.0000 0.0000 -0.5364 0.0000 0.0000
# 5 0.0000 0.0000 0.0000 0.0000 33.2490 0.0000
# 6 0.0000 0.0000 0.0000 0.0000 0.0000 10.4031
#
#
#
# Elastic Compliance Matrix: (Units=1/GPa)
#
#
# Indices 1 2 3 4 5 6 
#
# 1 0.018117 -0.004078 -0.005655 0.000000 0.000000 0.000000
# 2 -0.004078 0.023901 -0.008357 0.000000 0.000000 0.000000
# 3 -0.005655 -0.008357 0.017957 0.000000 0.000000 0.000000
# 4 0.000000 0.000000 0.000000 -1.864431 0.000000 0.000000
# 5 0.000000 0.000000 0.000000 0.000000 0.030076 0.000000
# 6 0.000000 0.000000 0.000000 0.000000 0.000000 0.096125
#
#
# Mechanical properties :
#
#
# Convention : Reuss Voigt Hill
#
# Bulk Modulus (GPa) = 42.02433 43.84275 42.93354
# Shear Modulus (GPa) = -3.05971 16.58951 6.76490
#
# Velocity S-wave (km/s) = -1.28746 2.99785 1.91436
# Velocity P-wave (km/s) = 4.53387 5.97779 5.30518
#
# Compressibility (1/GPa) = 0.02379574
#
# Stress axis : x y z
#
# Youngs Moduli (GPa) = 55.19542 41.83974 55.68719
#
# Poissons Ratio (x) = 0.17064 0.31490
# Poissons Ratio (y) = 0.22511 0.46537
# Poissons Ratio (z) = 0.31212 0.34965
#
# Static dielectric constant tensor:
#      x y z
#    x 1.627140 0.000000 0.000000 
#    y 0.000000 1.657690 0.000000 
#    z 0.000000 0.000000 1.696330 
# 
# From -- ./inp_files/22316.got.cif
#   From: 2010.05.17/outbox.cif.g08.bks.cpg/sg51_12_cif.got.tgz:22316.got - 2010.06.03 11:52:47.
