data_PCOD9401009
_publ_section_title
;
Structure prediction by ZEFSAII (Michael W. Deem and Ramdas Pophale) SiO2 
 PCOD9401009
Probable space group: P M M A
;
_chemical_formula_sum "Si O2"
_cell_formula_units_Z 48
_cell_length_a 14.966054
_cell_length_b 7.801523
_cell_length_c 21.165048
_cell_angle_alpha 90.000000
_cell_angle_beta 90.000000
_cell_angle_gamma 90.000000
_cell_volume 2471.188981
_symmetry_space_group_name_H-M "P M M A"
_symmetry_group_IT_number 51
_symmetry_cell_setting 'orthorhombic'
loop_
_space_group_symop_operation_xyz
x,y,z
1/2-x,-y,z
1/2+x,-y,-z
-x,y,-z
-x,-y,-z
1/2+x,y,-z
1/2-x,y,z
x,-y,z
loop_
_atom_site_type_symbol
_atom_site_label
_atom_site_fract_x
_atom_site_fract_y
_atom_site_fract_z
Si Si1 0.250000 0.795320 0.526880
Si Si2 0.557610 0.704732 0.819963
Si Si3 0.553743 0.294310 0.061479
Si Si4 0.056596 0.206715 0.560672
Si Si5 0.750000 0.204362 0.020211
Si Si6 0.250000 0.292249 0.379294
Si Si7 0.063556 0.706397 0.320881
Si Si8 0.750000 0.205834 0.874971
O O1 0.342336 0.726977 0.555266
O O2 0.250000 0.764285 0.451873
O O3 0.250000 0.000000 0.537049
O O4 0.543524 0.500000 0.817466
O O5 0.492499 0.773501 0.874770
O O6 0.542754 0.772671 0.749265
O O7 0.659860 0.734705 0.840791
O O8 0.542676 0.500000 0.061717
O O9 0.658422 0.258532 0.053762
O O10 0.500000 0.227905 0.000000
O O11 0.000000 0.269397 0.500000
O O12 0.008035 0.251120 0.625553
O O13 0.059097 0.000000 0.556014
O O14 0.750000 0.000000 0.017050
O O15 0.750000 0.270040 0.947645
O O16 0.250000 0.500000 0.378604
O O17 0.339664 0.231292 0.344796
O O18 0.069398 0.500000 0.317072
O O19 0.750000 0.000000 0.875775
#
# Coordination Sequence:
#
# PCOD9401009 Si02
#       8
#     4   8   8   8   4   4   8   4
#     4  10  20  35  54  79 107 137 178 222 265 311
#     4  10  21  38  58  81 113 149 187 232 279 328
#     4  10  20  36  60  84 107 148 196 232 270 327
#     4  10  20  35  56  79 107 145 183 222 266 320
#     4  11  23  36  55  85 119 147 179 234 289 330
#     4  10  19  31  51  80 110 138 169 214 274 327
#     4  10  21  36  55  81 112 143 177 225 279 325
#     4  11  22  34  54  86 118 148 180 224 282 340
#
# _framework density 19.423848
#
# number of rings (size 3 to 8) (size 9 to 14) (size 15 to 20)
#    0.000    1.833    3.333    1.000    0.000    4.667 
#    0.000    1.667    0.000    3.000    0.000    0.000 
#    0.000    0.000    0.000    0.000    0.000    0.000 
#
# Total GULP energy -268079.433856 kJ/mol
# GULP energy per Si atom -5584.988205 kJ/mol
# Density = 1.937964 g / cm^3
# Si number density = 19.423848 Si / 1000 Ang^3
#
#
#
# Elastic Constant Matrix: (Units=GPa)
#
#
# Indices 1 2 3 4 5 6 
#
# 1 180.6004 0.5136 121.9020 0.0000 0.0000 0.0000
# 2 0.5136 16.7788 0.9465 0.0000 0.0000 0.0000
# 3 121.9020 0.9465 197.3547 0.0000 0.0000 0.0000
# 4 0.0000 0.0000 0.0000 -0.0615 0.0000 0.0000
# 5 0.0000 0.0000 0.0000 0.0000 1.9729 0.0000
# 6 0.0000 0.0000 0.0000 0.0000 0.0000 28.4448
#
#
#
# Elastic Compliance Matrix: (Units=1/GPa)
#
#
# Indices 1 2 3 4 5 6 
#
# 1 0.009496 0.000040 -0.005866 0.000000 0.000000 0.000000
# 2 0.000040 0.059615 -0.000311 0.000000 0.000000 0.000000
# 3 -0.005866 -0.000311 0.008692 0.000000 0.000000 0.000000
# 4 0.000000 0.000000 0.000000-16.249383 0.000000 0.000000
# 5 0.000000 0.000000 0.000000 0.000000 0.506871 0.000000
# 6 0.000000 0.000000 0.000000 0.000000 0.000000 0.035156
#
#
# Mechanical properties :
#
#
# Convention : Reuss Voigt Hill
#
# Bulk Modulus (GPa) = 15.26009 71.27314 43.26661
# Shear Modulus (GPa) = -0.32061 24.16267 11.92103
#
# Velocity S-wave (km/s) = -0.40671 3.53082 2.48005
# Velocity P-wave (km/s) = 2.76638 7.30723 5.52487
#
# Compressibility (1/GPa) = 0.06553043
#
# Stress axis : x y z
#
# Youngs Moduli (GPa) = 105.30362 16.77425 115.05157
#
# Poissons Ratio (x) = -0.00067 0.67488
# Poissons Ratio (y) = -0.00423 0.03575
# Poissons Ratio (z) = 0.61770 0.00521
#
# Static dielectric constant tensor:
#      x y z
#    x 1.656760 0.000000 0.000000 
#    y 0.000000 1.698060 0.000000 
#    z 0.000000 0.000000 1.674360 
# 
# From -- ./inp_files/29700.got.cif
#   From: 2010.05.17/outbox.cif.g08.bks.cpg/sg51_15_cif.got.tgz:29700.got - 2010.06.03 11:52:47.
