data_PCOD9401876
_publ_section_title
;
Structure prediction by ZEFSAII (Michael W. Deem and Ramdas Pophale) SiO2 
 PCOD9401876
Probable space group: P M M A
;
_chemical_formula_sum "Si O2"
_cell_formula_units_Z 48
_cell_length_a 19.661623
_cell_length_b 7.776035
_cell_length_c 13.938362
_cell_angle_alpha 90.000000
_cell_angle_beta 90.000000
_cell_angle_gamma 90.000000
_cell_volume 2131.028759
_symmetry_space_group_name_H-M "P M M A"
_symmetry_group_IT_number 51
_symmetry_cell_setting 'orthorhombic'
loop_
_space_group_symop_operation_xyz
x,y,z
1/2-x,-y,z
1/2+x,-y,-z
-x,y,-z
-x,-y,-z
1/2+x,y,-z
1/2-x,y,z
x,-y,z
loop_
_atom_site_type_symbol
_atom_site_label
_atom_site_fract_x
_atom_site_fract_y
_atom_site_fract_z
Si Si1 0.671983 0.203608 0.502270
Si Si2 0.587456 0.799323 0.099384
Si Si3 0.829288 0.294036 0.284346
Si Si4 0.536867 0.696760 0.592755
Si Si5 0.544861 0.203854 0.807695
Si Si6 0.827468 0.210898 0.917019
O O1 0.750000 0.264034 0.513636
O O2 0.652093 0.234943 0.391310
O O3 0.616731 0.292213 0.568905
O O4 0.670271 0.000000 0.521555
O O5 0.627000 0.785624 0.199827
O O6 0.513083 0.723069 0.121537
O O7 0.577575 0.000000 0.074863
O O8 0.635310 0.730379 0.015055
O O9 0.750000 0.248248 0.270333
O O10 0.835958 0.500000 0.280252
O O11 0.500000 0.778583 0.500000
O O12 0.513319 0.500000 0.598186
O O13 0.525011 0.771150 0.697476
O O14 0.620408 0.265800 0.833495
O O15 0.545882 0.000000 0.824292
O O16 0.750000 0.271789 0.909183
O O17 0.823933 0.000000 0.917789
#
# Coordination Sequence:
#
# PCOD9401876 Si02
#       6
#     8   8   8   8   8   8
#     4  10  21  37  58  83 110 144 189 238 287 341
#     4  10  19  33  56  83 111 145 186 232 280 331
#     4  10  20  33  51  79 115 150 184 228 282 337
#     4  11  24  40  58  82 114 152 192 234 284 341
#     4  10  21  36  56  83 113 145 186 236 284 330
#     4   9  18  34  57  84 113 146 186 231 278 330
#
# _framework density 22.524332999999999
#
# number of rings (size 3 to 8) (size 9 to 14) (size 15 to 20)
#    0.000    2.000    0.000    3.500    0.000   10.000 
#    0.000    2.500    0.000    3.000    0.000    0.000 
#    0.000    0.000    0.000    0.000    0.000    0.000 
#
# Total GULP energy -268207.894939 kJ/mol
# GULP energy per Si atom -5587.664478 kJ/mol
# Density = 2.247307 g / cm^3
# Si number density = 22.524333 Si / 1000 Ang^3
#
#
#
# Elastic Constant Matrix: (Units=GPa)
#
#
# Indices 1 2 3 4 5 6 
#
# 1 130.2573 8.6065 56.7894 0.0000 0.0000 0.0000
# 2 8.6065 30.8366 1.1900 0.0000 0.0000 0.0000
# 3 56.7894 1.1900 83.4907 0.0000 0.0000 0.0000
# 4 0.0000 0.0000 0.0000 61.2637 0.0000 0.0000
# 5 0.0000 0.0000 0.0000 0.0000 32.6344 0.0000
# 6 0.0000 0.0000 0.0000 0.0000 0.0000 6.6019
#
#
#
# Elastic Compliance Matrix: (Units=1/GPa)
#
#
# Indices 1 2 3 4 5 6 
#
# 1 0.011154 -0.002822 -0.007546 0.000000 0.000000 0.000000
# 2 -0.002822 0.033161 0.001447 0.000000 0.000000 0.000000
# 3 -0.007546 0.001447 0.017090 0.000000 0.000000 0.000000
# 4 0.000000 0.000000 0.000000 0.016323 0.000000 0.000000
# 5 0.000000 0.000000 0.000000 0.000000 0.030643 0.000000
# 6 0.000000 0.000000 0.000000 0.000000 0.000000 0.151472
#
#
# Mechanical properties :
#
#
# Convention : Reuss Voigt Hill
#
# Bulk Modulus (GPa) = 22.95622 41.97293 32.46458
# Shear Modulus (GPa) = 17.11128 31.96657 24.53892
#
# Velocity S-wave (km/s) = 2.75922 3.77132 3.30425
# Velocity P-wave (km/s) = 4.51275 6.13504 5.38533
#
# Compressibility (1/GPa) = 0.04356117
#
# Stress axis : x y z
#
# Youngs Moduli (GPa) = 89.65728 30.15617 58.51489
#
# Poissons Ratio (x) = 0.08509 0.44157
# Poissons Ratio (y) = 0.25299 -0.08465
# Poissons Ratio (z) = 0.67658 -0.04363
#
# Static dielectric constant tensor:
#      x y z
#    x 1.863720 0.000000 0.000000 
#    y 0.000000 1.824130 0.000000 
#    z 0.000000 0.000000 1.801640 
# 
# From -- ./inp_files/24805.got.cif
#   From: 2010.05.17/outbox.cif.g08.bks.cpg/sg51_13_cif.got.tgz:24805.got - 2010.06.03 11:52:47.
