data_PCOD9401811
_publ_section_title
;
Structure prediction by ZEFSAII (Michael W. Deem and Ramdas Pophale) SiO2 
 PCOD9401811
Probable space group: P M M A
;
_chemical_formula_sum "Si O2"
_cell_formula_units_Z 48
_cell_length_a 32.108900
_cell_length_b 7.579674
_cell_length_c 9.182860
_cell_angle_alpha 90.000000
_cell_angle_beta 90.000000
_cell_angle_gamma 90.000000
_cell_volume 2234.878502
_symmetry_space_group_name_H-M "P M M A"
_symmetry_group_IT_number 51
_symmetry_cell_setting 'orthorhombic'
loop_
_space_group_symop_operation_xyz
x,y,z
1/2-x,-y,z
1/2+x,-y,-z
-x,y,-z
-x,-y,-z
1/2+x,y,-z
1/2-x,y,z
x,-y,z
loop_
_atom_site_type_symbol
_atom_site_label
_atom_site_fract_x
_atom_site_fract_y
_atom_site_fract_z
Si Si1 0.916533 0.283607 0.171369
Si Si2 0.333561 0.290030 0.667435
Si Si3 0.250000 0.787130 0.161706
Si Si4 0.417744 0.709399 0.160533
Si Si5 0.750000 0.711186 0.180552
Si Si6 0.667429 0.789545 0.673779
Si Si7 0.998908 0.715992 0.667677
O O1 0.916205 0.500000 0.172244
O O2 0.876051 0.222184 0.260144
O O3 0.959373 0.229960 0.248286
O O4 0.914880 0.222718 0.004277
O O5 0.333817 0.500000 0.693454
O O6 0.291936 0.218266 0.744020
O O7 0.332549 0.263011 0.494868
O O8 0.291698 0.721199 0.241908
O O9 0.250000 0.000000 0.172487
O O10 0.250000 0.742473 0.991616
O O11 0.424541 0.500000 0.146958
O O12 0.374948 0.734695 0.246854
O O13 0.457392 0.778185 0.250002
O O14 0.750000 0.500000 0.203553
O O15 0.669056 0.000000 0.679000
O O16 0.998281 0.500000 0.666850
O O17 0.000000 0.772543 0.500000
#
# Coordination Sequence:
#
# PCOD9401811 Si02
#       7
#     8   8   4   8   4   8   8
#     4   9  17  30  51  80 109 138 176 218 262 319
#     4  10  20  35  55  80 109 139 174 218 267 314
#     4  10  23  40  56  76 106 144 179 212 256 316
#     4  10  19  33  55  80 107 139 175 221 272 315
#     4  10  21  36  58  88 114 136 171 222 270 312
#     4  11  23  38  55  77 106 141 182 221 260 313
#     4   9  16  27  48  79 110 139 174 216 262 316
#
# _framework density 21.477678000000001
#
# number of rings (size 3 to 8) (size 9 to 14) (size 15 to 20)
#    0.000    2.167    0.000    3.500    0.000    8.000 
#    0.000    0.833    0.000    6.500    0.000    0.000 
#    0.000    0.000    0.000    0.000    0.000    0.000 
#
# Total GULP energy -268314.618032 kJ/mol
# GULP energy per Si atom -5589.887876 kJ/mol
# Density = 2.142879 g / cm^3
# Si number density = 21.477678 Si / 1000 Ang^3
#
#
#
# Elastic Constant Matrix: (Units=GPa)
#
#
# Indices 1 2 3 4 5 6 
#
# 1 265.8267 -1.1046 148.8880 0.0000 0.0000 0.0000
# 2 -1.1046 43.0555 -12.7125 0.0000 0.0000 0.0000
# 3 148.8880 -12.7125 243.2366 0.0000 0.0000 0.0000
# 4 0.0000 0.0000 0.0000 -193.4579 0.0000 0.0000
# 5 0.0000 0.0000 0.0000 0.0000 51.3481 0.0000
# 6 0.0000 0.0000 0.0000 0.0000 0.0000 -10.6944
#
#
#
# Elastic Compliance Matrix: (Units=1/GPa)
#
#
# Indices 1 2 3 4 5 6 
#
# 1 0.005759 -0.000907 -0.003573 0.000000 0.000000 0.000000
# 2 -0.000907 0.023733 0.001796 0.000000 0.000000 0.000000
# 3 -0.003573 0.001796 0.006392 0.000000 0.000000 0.000000
# 4 0.000000 0.000000 0.000000 -0.005169 0.000000 0.000000
# 5 0.000000 0.000000 0.000000 0.000000 0.019475 0.000000
# 6 0.000000 0.000000 0.000000 0.000000 0.000000 -0.093507
#
#
# Mechanical properties :
#
#
# Convention : Reuss Voigt Hill
#
# Bulk Modulus (GPa) = 32.77019 91.36229 62.06624
# Shear Modulus (GPa) = -180.00118 -2.75764 -91.37941
#
# Velocity S-wave (km/s) = -9.16463 -1.13435 -6.52982
# Velocity P-wave (km/s) = 9.83343 6.39648 5.28116
#
# Compressibility (1/GPa) = 0.03051554
#
# Stress axis : x y z
#
# Youngs Moduli (GPa) = 173.63891 42.13587 156.44788
#
# Poissons Ratio (x) = 0.03822 0.55893
# Poissons Ratio (y) = 0.15751 -0.28092
# Poissons Ratio (z) = 0.62034 -0.07566
#
# Static dielectric constant tensor:
#      x y z
#    x 1.740970 0.000000 0.000000 
#    y 0.000000 1.817560 0.000000 
#    z 0.000000 0.000000 1.703520 
# 
# From -- ./inp_files/12908.got.cif
#   From: 2010.05.17/outbox.cif.g08.bks.cpg/sg51_7_cif.got.tgz:12908.got - 2010.06.03 11:52:47.
