data_PCOD9401153
_publ_section_title
;
Structure prediction by ZEFSAII (Michael W. Deem and Ramdas Pophale) SiO2 
 PCOD9401153
Probable space group: P M M A
;
_chemical_formula_sum "Si O2"
_cell_formula_units_Z 64
_cell_length_a 24.585772
_cell_length_b 7.370793
_cell_length_c 15.225280
_cell_angle_alpha 90.000000
_cell_angle_beta 90.000000
_cell_angle_gamma 90.000000
_cell_volume 2759.074026
_symmetry_space_group_name_H-M "P M M A"
_symmetry_group_IT_number 51
_symmetry_cell_setting 'orthorhombic'
loop_
_space_group_symop_operation_xyz
x,y,z
1/2-x,-y,z
1/2+x,-y,-z
-x,y,-z
-x,-y,-z
1/2+x,y,-z
1/2-x,y,z
x,-y,z
loop_
_atom_site_type_symbol
_atom_site_label
_atom_site_fract_x
_atom_site_fract_y
_atom_site_fract_z
Si Si1 0.874933 0.713336 0.691081
Si Si2 0.602673 0.293916 0.380331
Si Si3 0.688321 0.722254 0.522681
Si Si4 0.808926 0.219193 0.240369
Si Si5 0.811453 0.218290 0.867570
Si Si6 0.003734 0.723431 0.286137
Si Si7 0.022770 0.291608 0.909819
Si Si8 0.147268 0.780502 0.943247
O O1 0.879673 0.500000 0.673582
O O2 0.832359 0.780779 0.618742
O O3 0.851306 0.735159 0.788348
O O4 0.936393 0.783763 0.685163
O O5 0.591063 0.500000 0.409315
O O6 0.642312 0.214005 0.454256
O O7 0.640874 0.295188 0.294393
O O8 0.545133 0.214885 0.349569
O O9 0.750000 0.782645 0.504585
O O10 0.689723 0.500000 0.518307
O O11 0.750000 0.277505 0.275120
O O12 0.814603 0.268376 0.138308
O O13 0.811809 0.000000 0.246496
O O14 0.750000 0.282872 0.850556
O O15 0.809584 0.000000 0.872195
O O16 0.832568 0.283159 0.962070
O O17 0.001580 0.500000 0.285586
O O18 0.993382 0.783653 0.185358
O O19 0.002770 0.500000 0.908423
O O20 0.087401 0.286611 0.919878
O O21 0.000000 0.207467 0.000000
O O22 0.145006 0.000000 0.946079
#
# Coordination Sequence:
#
# PCOD9401153 Si02
#       8
#     8   8   8   8   8   8   8   8
#     4  10  20  36  57  79 106 140 179 222 268 318
#     4  10  19  34  55  78 108 141 176 217 264 318
#     4   9  18  32  53  82 109 135 174 224 271 314
#     4  10  20  34  52  76 106 139 175 216 262 312
#     4  10  21  37  55  77 107 141 178 222 271 320
#     4   9  18  32  51  78 108 140 177 217 263 313
#     4  10  19  32  50  73 106 142 177 221 265 306
#     4  10  20  34  52  75 103 138 178 217 262 316
#
# _framework density 23.196186999999998
#
# number of rings (size 3 to 8) (size 9 to 14) (size 15 to 20)
#    0.000    2.250    1.250    1.875    0.000    5.250 
#    0.000    4.375    0.000    4.500    0.000    1.750 
#    0.000    0.000    0.000    0.000    0.000    0.000 
#
# Total GULP energy -357606.697659 kJ/mol
# GULP energy per Si atom -5587.604651 kJ/mol
# Density = 2.314339 g / cm^3
# Si number density = 23.196187 Si / 1000 Ang^3
#
#
#
# Elastic Constant Matrix: (Units=GPa)
#
#
# Indices 1 2 3 4 5 6 
#
# 1 108.2906 1.0259 31.2404 0.0000 0.0000 0.0000
# 2 1.0259 81.1038 -4.5320 0.0000 0.0000 0.0000
# 3 31.2404 -4.5320 89.5651 0.0000 0.0000 0.0000
# 4 0.0000 0.0000 0.0000 11.5537 0.0000 0.0000
# 5 0.0000 0.0000 0.0000 0.0000 39.4239 0.0000
# 6 0.0000 0.0000 0.0000 0.0000 0.0000 -6.3469
#
#
#
# Elastic Compliance Matrix: (Units=1/GPa)
#
#
# Indices 1 2 3 4 5 6 
#
# 1 0.010276 -0.000331 -0.003601 0.000000 0.000000 0.000000
# 2 -0.000331 0.012376 0.000742 0.000000 0.000000 0.000000
# 3 -0.003601 0.000742 0.012459 0.000000 0.000000 0.000000
# 4 0.000000 0.000000 0.000000 0.086552 0.000000 0.000000
# 5 0.000000 0.000000 0.000000 0.000000 0.025365 0.000000
# 6 0.000000 0.000000 0.000000 0.000000 0.000000 -0.157557
#
#
# Mechanical properties :
#
#
# Convention : Reuss Voigt Hill
#
# Bulk Modulus (GPa) = 34.80769 37.15868 35.98318
# Shear Modulus (GPa) = 920.91193 25.67448 473.29321
#
# Velocity S-wave (km/s) = 19.94673 3.33053 14.29973
# Velocity P-wave (km/s) = 23.35667 5.55374 16.97613
#
# Compressibility (1/GPa) = 0.02872928
#
# Stress axis : x y z
#
# Youngs Moduli (GPa) = 97.30984 80.80474 80.26520
#
# Poissons Ratio (x) = 0.02676 0.28905
# Poissons Ratio (y) = 0.03223 -0.05953
# Poissons Ratio (z) = 0.35043 -0.05994
#
# Static dielectric constant tensor:
#      x y z
#    x 1.854800 0.000000 0.000000 
#    y 0.000000 1.874280 0.000000 
#    z 0.000000 0.000000 1.851560 
# 
# From -- ./inp_files/26183.got.cif
#   From: 2010.05.17/outbox.cif.g08.bks.cpg/sg51_14_cif.got.tgz:26183.got - 2010.06.03 11:52:47.
