data_PCOD9401075
_publ_section_title
;
Structure prediction by ZEFSAII (Michael W. Deem and Ramdas Pophale) SiO2 
 PCOD9401075
Probable space group: P M M A
;
_chemical_formula_sum "Si O2"
_cell_formula_units_Z 52
_cell_length_a 8.991480
_cell_length_b 15.630185
_cell_length_c 23.408723
_cell_angle_alpha 90.000000
_cell_angle_beta 90.000000
_cell_angle_gamma 90.000000
_cell_volume 3289.826720
_symmetry_space_group_name_H-M "P M M A"
_symmetry_group_IT_number 51
_symmetry_cell_setting 'orthorhombic'
loop_
_space_group_symop_operation_xyz
x,y,z
1/2-x,-y,z
1/2+x,-y,-z
-x,y,-z
-x,-y,-z
1/2+x,y,-z
1/2-x,y,z
x,-y,z
loop_
_atom_site_type_symbol
_atom_site_label
_atom_site_fract_x
_atom_site_fract_y
_atom_site_fract_z
Si Si1 0.577569 0.761145 0.769866
Si Si2 0.428601 0.404967 0.815439
Si Si3 0.576958 0.171625 0.899090
Si Si4 0.927500 0.000000 0.062334
Si Si5 0.928464 0.342204 0.057775
Si Si6 0.420193 0.896221 0.557728
Si Si7 0.570165 0.099021 0.677925
O O1 0.750000 0.743464 0.755968
O O2 0.493429 0.671591 0.777551
O O3 0.573339 0.803356 0.832594
O O4 0.520611 0.831065 0.724505
O O5 0.250000 0.401466 0.812152
O O6 0.478963 0.500000 0.798739
O O7 0.466224 0.389523 0.882605
O O8 0.750000 0.163645 0.916883
O O9 0.496882 0.247643 0.933332
O O10 0.489339 0.084410 0.907579
O O11 0.750000 0.000000 0.059459
O O12 0.000000 0.000000 0.000000
O O13 0.750000 0.339259 0.052401
O O14 0.000000 0.379128 0.000000
O O15 0.500000 0.865594 0.500000
O O16 0.250000 0.866609 0.560513
O O17 0.507852 0.876693 0.615758
O O18 0.417470 0.000000 0.554571
O O19 0.750000 0.099087 0.676808
O O20 0.524519 0.000000 0.690667
#
# Coordination Sequence:
#
# PCOD9401075 Si02
#       7
#     8   8   8   4   8   8   8
#     4   9  19  33  51  72  94 122 156 193 234 277
#     4   9  19  35  52  69  92 121 150 187 238 288
#     4  10  20  34  50  66  87 116 150 188 232 278
#     4  12  24  36  48  64  84 112 151 192 233 276
#     4  10  19  32  49  68  91 114 143 181 229 285
#     4   9  16  26  41  63  93 129 168 203 234 267
#     4   9  17  29  46  68  97 131 163 195 232 273
#
# _framework density 15.806304000000001
#
# number of rings (size 3 to 8) (size 9 to 14) (size 15 to 20)
#    0.000    2.462    0.000    2.538    1.077    4.308 
#    0.000    0.000    0.000    0.000    0.000    0.000 
#    0.000    0.615    0.000    2.000    0.000    2.923 
#
# Total GULP energy -289893.713289 kJ/mol
# GULP energy per Si atom -5574.879102 kJ/mol
# Density = 1.577033 g / cm^3
# Si number density = 15.806304 Si / 1000 Ang^3
#
#
#
# Elastic Constant Matrix: (Units=GPa)
#
#
# Indices 1 2 3 4 5 6 
#
# 1 57.1133 37.1799 26.2225 0.0000 0.0000 0.0000
# 2 37.1799 104.9874 42.3151 0.0000 0.0000 0.0000
# 3 26.2225 42.3151 86.4433 0.0000 0.0000 0.0000
# 4 0.0000 0.0000 0.0000 8.3214 0.0000 0.0000
# 5 0.0000 0.0000 0.0000 0.0000 24.4270 0.0000
# 6 0.0000 0.0000 0.0000 0.0000 0.0000 19.7689
#
#
#
# Elastic Compliance Matrix: (Units=1/GPa)
#
#
# Indices 1 2 3 4 5 6 
#
# 1 0.023738 -0.006857 -0.003844 0.000000 0.000000 0.000000
# 2 -0.006857 0.013847 -0.004698 0.000000 0.000000 0.000000
# 3 -0.003844 -0.004698 0.015034 0.000000 0.000000 0.000000
# 4 0.000000 0.000000 0.000000 0.120172 0.000000 0.000000
# 5 0.000000 0.000000 0.000000 0.000000 0.040938 0.000000
# 6 0.000000 0.000000 0.000000 0.000000 0.000000 0.050584
#
#
# Mechanical properties :
#
#
# Convention : Reuss Voigt Hill
#
# Bulk Modulus (GPa) = 45.82930 51.10881 48.46905
# Shear Modulus (GPa) = 16.53513 20.02522 18.28018
#
# Velocity S-wave (km/s) = 3.23787 3.56323 3.40444
# Velocity P-wave (km/s) = 6.56016 7.02378 6.79592
#
# Compressibility (1/GPa) = 0.02182010
#
# Stress axis : x y z
#
# Youngs Moduli (GPa) = 42.12669 72.21845 66.51483
#
# Poissons Ratio (x) = 0.49521 0.25570
# Poissons Ratio (y) = 0.28886 0.31250
# Poissons Ratio (z) = 0.16195 0.33929
#
# Static dielectric constant tensor:
#      x y z
#    x 1.535170 0.000000 0.000000 
#    y 0.000000 1.523390 0.000000 
#    z 0.000000 0.000000 1.524970 
# 
# From -- ./inp_files/34685.got.cif
#   From: 2010.05.17/outbox.cif.g08.bks.cpg/sg51_18_cif.got.tgz:34685.got - 2010.06.03 11:52:47.
