data_PCOD9401519
_publ_section_title
;
Structure prediction by ZEFSAII (Michael W. Deem and Ramdas Pophale) SiO2 
 PCOD9401519
Probable space group: P M M A
;
_chemical_formula_sum "Si O2"
_cell_formula_units_Z 64
_cell_length_a 19.029039
_cell_length_b 14.450656
_cell_length_c 11.432056
_cell_angle_alpha 90.000000
_cell_angle_beta 90.000000
_cell_angle_gamma 90.000000
_cell_volume 3143.610727
_symmetry_space_group_name_H-M "P M M A"
_symmetry_group_IT_number 51
_symmetry_cell_setting 'orthorhombic'
loop_
_space_group_symop_operation_xyz
x,y,z
1/2-x,-y,z
1/2+x,-y,-z
-x,y,-z
-x,-y,-z
1/2+x,y,-z
1/2-x,y,z
x,-y,z
loop_
_atom_site_type_symbol
_atom_site_label
_atom_site_fract_x
_atom_site_fract_y
_atom_site_fract_z
Si Si1 0.831412 0.752264 0.855369
Si Si2 0.931264 0.605625 0.558628
Si Si3 0.326724 0.150012 0.383031
Si Si4 0.062300 0.246597 0.790624
Si Si5 0.085247 0.891650 0.987878
Si Si6 0.829894 0.282706 0.410188
Si Si7 0.481274 0.100138 0.363963
Si Si8 0.051325 0.607950 0.161738
O O1 0.750000 0.745030 0.895061
O O2 0.828765 0.769134 0.715449
O O3 0.880494 0.663907 0.884015
O O4 0.871541 0.841540 0.909071
O O5 0.930266 0.500000 0.519148
O O6 0.861993 0.649171 0.506202
O O7 0.939620 0.607618 0.697112
O O8 0.000000 0.651963 0.500000
O O9 0.250000 0.106008 0.368147
O O10 0.331565 0.187081 0.516074
O O11 0.397531 0.096607 0.358581
O O12 0.099141 0.174748 0.877831
O O13 0.119501 0.284938 0.700700
O O14 0.008962 0.183504 0.714503
O O15 0.017709 0.327252 0.855051
O O16 0.103557 0.000000 0.976823
O O17 0.000000 0.886895 0.000000
O O18 0.750000 0.303278 0.379457
O O19 0.500000 0.113677 0.500000
O O20 0.510384 0.000000 0.324589
O O21 0.045784 0.500000 0.124740
#
# Coordination Sequence:
#
# PCOD9401519 Si02
#       8
#     8   8   8   8   8   8   8   8
#     4  11  23  41  65  94 129 165 208 269 329 370
#     4  10  19  32  56  91 126 164 212 262 308 365
#     4  10  20  36  57  85 123 163 202 252 316 379
#     4  12  22  40  65  90 130 168 208 264 314 378
#     4  11  24  44  70  96 120 160 218 270 320 387
#     4  11  22  35  56  87 129 174 206 249 314 380
#     4  11  21  34  58  88 117 161 210 255 310 373
#     4  11  22  37  64  97 126 164 214 266 320 379
#
# _framework density 20.358754000000001
#
# number of rings (size 3 to 8) (size 9 to 14) (size 15 to 20)
#    0.000    1.125    6.250    0.375    0.000    3.000 
#    0.000    3.750    0.000    1.125    0.000    1.750 
#    0.000    0.000    0.000    0.000    0.000    0.000 
#
# Total GULP energy -357090.417646 kJ/mol
# GULP energy per Si atom -5579.537776 kJ/mol
# Density = 2.031242 g / cm^3
# Si number density = 20.358754 Si / 1000 Ang^3
#
#
#
# Elastic Constant Matrix: (Units=GPa)
#
#
# Indices 1 2 3 4 5 6 
#
# 1 133.3499 42.5531 24.0656 0.0000 0.0000 0.0000
# 2 42.5531 125.8523 18.5449 0.0000 0.0000 0.0000
# 3 24.0656 18.5449 52.3200 0.0000 0.0000 0.0000
# 4 0.0000 0.0000 0.0000 26.9664 0.0000 0.0000
# 5 0.0000 0.0000 0.0000 0.0000 18.9220 0.0000
# 6 0.0000 0.0000 0.0000 0.0000 0.0000 11.1299
#
#
#
# Elastic Compliance Matrix: (Units=1/GPa)
#
#
# Indices 1 2 3 4 5 6 
#
# 1 0.008883 -0.002534 -0.003188 0.000000 0.000000 0.000000
# 2 -0.002534 0.009106 -0.002062 0.000000 0.000000 0.000000
# 3 -0.003188 -0.002062 0.021310 0.000000 0.000000 0.000000
# 4 0.000000 0.000000 0.000000 0.037083 0.000000 0.000000
# 5 0.000000 0.000000 0.000000 0.000000 0.052848 0.000000
# 6 0.000000 0.000000 0.000000 0.000000 0.000000 0.089848
#
#
# Mechanical properties :
#
#
# Convention : Reuss Voigt Hill
#
# Bulk Modulus (GPa) = 42.13711 53.53882 47.83796
# Shear Modulus (GPa) = 20.61364 26.49424 23.55394
#
# Velocity S-wave (km/s) = 3.18546 3.61136 3.40508
# Velocity P-wave (km/s) = 5.85421 6.61393 6.24563
#
# Compressibility (1/GPa) = 0.02373205
#
# Stress axis : x y z
#
# Youngs Moduli (GPa) = 112.57578 109.81257 46.92536
#
# Poissons Ratio (x) = 0.27824 0.14959
# Poissons Ratio (y) = 0.28524 0.09678
# Poissons Ratio (z) = 0.35887 0.22647
#
# Static dielectric constant tensor:
#      x y z
#    x 1.737070 0.000000 0.000000 
#    y 0.000000 1.751470 0.000000 
#    z 0.000000 0.000000 1.768550 
# 
# From -- ./inp_files/17570.got.cif
#   From: 2010.05.17/outbox.cif.g08.bks.cpg/sg51_9_cif.got.tgz:17570.got - 2010.06.03 11:52:47.
