data_PCOD9401094
_publ_section_title
;
Structure prediction by ZEFSAII (Michael W. Deem and Ramdas Pophale) SiO2 
 PCOD9401094
Probable space group: P M M A
;
_chemical_formula_sum "Si O2"
_cell_formula_units_Z 44
_cell_length_a 7.890152
_cell_length_b 14.027647
_cell_length_c 18.862966
_cell_angle_alpha 90.000000
_cell_angle_beta 90.000000
_cell_angle_gamma 90.000000
_cell_volume 2087.758114
_symmetry_space_group_name_H-M "P M M A"
_symmetry_group_IT_number 51
_symmetry_cell_setting 'orthorhombic'
loop_
_space_group_symop_operation_xyz
x,y,z
1/2-x,-y,z
1/2+x,-y,-z
-x,y,-z
-x,-y,-z
1/2+x,y,-z
1/2-x,y,z
x,-y,z
loop_
_atom_site_type_symbol
_atom_site_label
_atom_site_fract_x
_atom_site_fract_y
_atom_site_fract_z
Si Si1 0.950016 0.103432 0.853508
Si Si2 0.950769 0.798785 0.282318
Si Si3 0.547764 0.290442 0.582166
Si Si4 0.452997 0.301788 0.080886
Si Si5 0.549717 0.397495 0.218855
Si Si6 0.546141 0.500000 0.583264
O O1 0.750000 0.100858 0.868798
O O2 0.018284 0.196934 0.893776
O O3 0.972250 0.122656 0.769456
O O4 0.023355 0.000000 0.872591
O O5 0.750000 0.802004 0.270082
O O6 0.023964 0.697441 0.254112
O O7 0.983277 0.791942 0.365762
O O8 0.500000 0.277738 0.500000
O O9 0.750000 0.293004 0.586492
O O10 0.480927 0.395884 0.607153
O O11 0.250000 0.303304 0.088688
O O12 0.527001 0.378687 0.135275
O O13 0.500000 0.318416 0.000000
O O14 0.750000 0.399268 0.234591
O O15 0.475772 0.500000 0.239752
O O16 0.750000 0.500000 0.591343
O O17 0.500000 0.500000 0.500000
#
# Coordination Sequence:
#
# PCOD9401094 Si02
#       6
#     8   8   8   8   8   4
#     4   9  19  37  58  78 102 133 169 210 258 311
#     4  10  20  33  52  78 105 135 172 215 261 310
#     4  10  19  32  49  72 103 139 177 217 259 304
#     4  10  20  34  53  78 106 135 169 210 255 305
#     4   9  19  35  52  72 101 139 179 215 252 297
#     4   8  16  28  42  64  94 130 169 206 245 290
#
# _framework density 21.075236
#
# number of rings (size 3 to 8) (size 9 to 14) (size 15 to 20)
#    0.000    2.545    0.000    1.636    1.273    3.636 
#    0.000    0.000    0.000    0.545    0.000    0.000 
#    0.000    0.000    0.000    0.000    0.000    0.000 
#
# Total GULP energy -245399.437538 kJ/mol
# GULP energy per Si atom -5577.259944 kJ/mol
# Density = 2.102727 g / cm^3
# Si number density = 21.075236 Si / 1000 Ang^3
#
#
#
# Elastic Constant Matrix: (Units=GPa)
#
#
# Indices 1 2 3 4 5 6 
#
# 1 39.8371 0.0479 -16.4116 0.0000 0.0000 0.0000
# 2 0.0479 43.0326 -18.1418 0.0000 0.0000 0.0000
# 3 -16.4116 -18.1418 59.8855 0.0000 0.0000 0.0000
# 4 0.0000 0.0000 0.0000 15.5406 0.0000 0.0000
# 5 0.0000 0.0000 0.0000 0.0000 21.8178 0.0000
# 6 0.0000 0.0000 0.0000 0.0000 0.0000 11.4710
#
#
#
# Elastic Compliance Matrix: (Units=1/GPa)
#
#
# Indices 1 2 3 4 5 6 
#
# 1 0.028824 0.003781 0.009045 0.000000 0.000000 0.000000
# 2 0.003781 0.027137 0.009257 0.000000 0.000000 0.000000
# 3 0.009045 0.009257 0.021981 0.000000 0.000000 0.000000
# 4 0.000000 0.000000 0.000000 0.064347 0.000000 0.000000
# 5 0.000000 0.000000 0.000000 0.000000 0.045834 0.000000
# 6 0.000000 0.000000 0.000000 0.000000 0.000000 0.087177
#
#
# Mechanical properties :
#
#
# Convention : Reuss Voigt Hill
#
# Bulk Modulus (GPa) = 8.18957 8.19381 8.19169
# Shear Modulus (GPa) = 18.39336 21.58327 19.98831
#
# Velocity S-wave (km/s) = 2.95743 3.20364 3.08299
# Velocity P-wave (km/s) = 3.94414 4.19294 4.07044
#
# Compressibility (1/GPa) = 0.12210648
#
# Stress axis : x y z
#
# Youngs Moduli (GPa) = 34.69368 36.85068 45.49285
#
# Poissons Ratio (x) = -0.13933 -0.41146
# Poissons Ratio (y) = -0.13117 -0.42112
# Poissons Ratio (z) = -0.31379 -0.34112
#
# Static dielectric constant tensor:
#      x y z
#    x 1.748280 0.000000 0.000000 
#    y 0.000000 1.798480 0.000000 
#    z 0.000000 0.000000 1.779830 
# 
# From -- ./inp_files/27397.got.cif
#   From: 2010.05.17/outbox.cif.g08.bks.cpg/sg51_14_cif.got.tgz:27397.got - 2010.06.03 11:52:47.
