data_PCOD9401330
_publ_section_title
;
Structure prediction by ZEFSAII (Michael W. Deem and Ramdas Pophale) SiO2 
 PCOD9401330
Probable space group: P M M A
;
_chemical_formula_sum "Si O2"
_cell_formula_units_Z 56
_cell_length_a 14.127616
_cell_length_b 20.023923
_cell_length_c 10.136452
_cell_angle_alpha 90.000000
_cell_angle_beta 90.000000
_cell_angle_gamma 90.000000
_cell_volume 2867.503896
_symmetry_space_group_name_H-M "P M M A"
_symmetry_group_IT_number 51
_symmetry_cell_setting 'orthorhombic'
loop_
_space_group_symop_operation_xyz
x,y,z
1/2-x,-y,z
1/2+x,-y,-z
-x,y,-z
-x,-y,-z
1/2+x,y,-z
1/2-x,y,z
x,-y,z
loop_
_atom_site_type_symbol
_atom_site_label
_atom_site_fract_x
_atom_site_fract_y
_atom_site_fract_z
Si Si1 0.441088 0.573892 0.633544
Si Si2 0.137811 0.712836 0.701162
Si Si3 0.636258 0.838771 0.862625
Si Si4 0.520020 0.155539 0.349908
Si Si5 0.363433 0.922277 0.872917
Si Si6 0.358695 0.293704 0.004118
Si Si7 0.423152 0.428060 0.116443
O O1 0.500000 0.574250 0.500000
O O2 0.394445 0.500000 0.648131
O O3 0.376494 0.639465 0.638844
O O4 0.518070 0.579202 0.750099
O O5 0.250000 0.730782 0.693152
O O6 0.070404 0.771047 0.644639
O O7 0.106799 0.703056 0.854377
O O8 0.750000 0.840459 0.840816
O O9 0.578990 0.849209 0.728938
O O10 0.600332 0.766651 0.913062
O O11 0.614471 0.887840 0.985737
O O12 0.500000 0.133368 0.500000
O O13 0.588351 0.113444 0.252022
O O14 0.250000 0.916555 0.858001
O O15 0.389806 0.000000 0.876907
O O16 0.250000 0.274699 0.988201
O O17 0.364764 0.362955 0.080676
O O18 0.372537 0.500000 0.118226
O O19 0.500000 0.430626 0.000000
#
# Coordination Sequence:
#
# PCOD9401330 Si02
#       7
#     8   8   8   8   8   8   8
#     4  10  21  37  55  79 112 154 203 250 303 366
#     4  11  22  37  59  87 118 156 206 257 306 363
#     4  10  22  40  63  92 121 160 209 254 300 354
#     4  12  25  39  62  93 130 168 200 248 306 367
#     4  10  22  43  70  97 125 160 206 253 295 351
#     4  10  20  34  56  83 111 144 195 253 301 354
#     4  10  19  32  52  77 106 142 187 241 299 355
#
# _framework density 19.529181000000001
#
# number of rings (size 3 to 8) (size 9 to 14) (size 15 to 20)
#    0.000    1.571    2.857    2.143    0.000    3.143 
#    0.000    3.571    0.000    4.286    0.000    0.000 
#    0.000    0.000    0.000    0.000    0.000    0.000 
#
# Total GULP energy -312272.781040 kJ/mol
# GULP energy per Si atom -5576.299661 kJ/mol
# Density = 1.948473 g / cm^3
# Si number density = 19.529181 Si / 1000 Ang^3
#
#
#
# Elastic Constant Matrix: (Units=GPa)
#
#
# Indices 1 2 3 4 5 6 
#
# 1 78.1602 31.9629 37.9619 0.0000 0.0000 0.0000
# 2 31.9629 101.7205 32.9636 0.0000 0.0000 0.0000
# 3 37.9619 32.9636 144.6054 0.0000 0.0000 0.0000
# 4 0.0000 0.0000 0.0000 12.2881 0.0000 0.0000
# 5 0.0000 0.0000 0.0000 0.0000 13.6648 0.0000
# 6 0.0000 0.0000 0.0000 0.0000 0.0000 28.3636
#
#
#
# Elastic Compliance Matrix: (Units=1/GPa)
#
#
# Indices 1 2 3 4 5 6 
#
# 1 0.016019 -0.003963 -0.003302 0.000000 0.000000 0.000000
# 2 -0.003963 0.011596 -0.001603 0.000000 0.000000 0.000000
# 3 -0.003302 -0.001603 0.008148 0.000000 0.000000 0.000000
# 4 0.000000 0.000000 0.000000 0.081379 0.000000 0.000000
# 5 0.000000 0.000000 0.000000 0.000000 0.073181 0.000000
# 6 0.000000 0.000000 0.000000 0.000000 0.000000 0.035256
#
#
# Mechanical properties :
#
#
# Convention : Reuss Voigt Hill
#
# Bulk Modulus (GPa) = 55.47590 58.91811 57.19700
# Shear Modulus (GPa) = 20.05430 25.63649 22.84539
#
# Velocity S-wave (km/s) = 3.20799 3.62709 3.42396
# Velocity P-wave (km/s) = 6.49538 6.91200 6.70693
#
# Compressibility (1/GPa) = 0.01802585
#
# Stress axis : x y z
#
# Youngs Moduli (GPa) = 62.42700 86.23907 122.73681
#
# Poissons Ratio (x) = 0.34181 0.40525
# Poissons Ratio (y) = 0.24743 0.19672
# Poissons Ratio (z) = 0.20612 0.13822
#
# Static dielectric constant tensor:
#      x y z
#    x 1.698550 0.000000 0.000000 
#    y 0.000000 1.741290 0.000000 
#    z 0.000000 0.000000 1.650260 
# 
# From -- ./inp_files/8487.got.cif
#   From: 2010.05.17/outbox.cif.g08.bks.cpg/sg51_5_cif.got.tgz:8487.got - 2010.06.03 11:52:47.
