data_PCOD9401500
_publ_section_title
;
Structure prediction by ZEFSAII (Michael W. Deem and Ramdas Pophale) SiO2 
 PCOD9401500
Probable space group: P M M A
;
_chemical_formula_sum "Si O2"
_cell_formula_units_Z 58
_cell_length_a 13.998632
_cell_length_b 18.417218
_cell_length_c 9.903110
_cell_angle_alpha 90.000000
_cell_angle_beta 90.000000
_cell_angle_gamma 90.000000
_cell_volume 2553.178794
_symmetry_space_group_name_H-M "P M M A"
_symmetry_group_IT_number 51
_symmetry_cell_setting 'orthorhombic'
loop_
_space_group_symop_operation_xyz
x,y,z
1/2-x,-y,z
1/2+x,-y,-z
-x,y,-z
-x,-y,-z
1/2+x,y,-z
1/2-x,y,z
x,-y,z
loop_
_atom_site_type_symbol
_atom_site_label
_atom_site_fract_x
_atom_site_fract_y
_atom_site_fract_z
Si Si1 0.644793 0.916102 0.961083
Si Si2 0.642243 0.847967 0.254971
Si Si3 0.551553 0.084997 0.683748
Si Si4 0.523510 0.721438 0.151324
Si Si5 0.142674 0.416407 0.813148
Si Si6 0.250000 0.500000 0.384102
Si Si7 0.115832 0.383132 0.501734
Si Si8 0.408378 0.765703 0.402224
O O1 0.750000 0.904310 0.898623
O O2 0.569351 0.903692 0.844019
O O3 0.636706 0.000000 0.999145
O O4 0.642265 0.875128 0.100600
O O5 0.750000 0.852993 0.308783
O O6 0.560403 0.893837 0.332356
O O7 0.605477 0.766388 0.230957
O O8 0.615454 0.149227 0.618057
O O9 0.569561 0.000000 0.651355
O O10 0.563218 0.640246 0.139971
O O11 0.435881 0.734586 0.253604
O O12 0.500000 0.747554 0.000000
O O13 0.250000 0.398162 0.863452
O O14 0.122653 0.500000 0.848373
O O15 0.144672 0.409342 0.650604
O O16 0.166514 0.436656 0.397865
O O17 0.146491 0.300327 0.471342
O O18 0.000000 0.386560 0.500000
O O19 0.500000 0.770010 0.500000
#
# Coordination Sequence:
#
# PCOD9401500 Si02
#       8
#     8   8   8   8   8   2   8   8
#     4   9  17  31  52  80 115 155 204 261 321 378
#     4  10  19  32  54  86 118 162 215 272 321 375
#     4  10  20  34  55  84 122 166 216 266 323 386
#     4  11  22  38  62  90 125 168 214 263 331 393
#     4  11  21  38  64  94 126 166 218 262 325 405
#     4  12  22  36  68 110 128 160 218 284 344 368
#     4  11  20  38  65  98 131 164 215 276 325 391
#     4  10  21  39  62  90 124 168 218 264 318 383
#
# _framework density 22.71678
#
# number of rings (size 3 to 8) (size 9 to 14) (size 15 to 20)
#    0.000    1.655    4.138    3.103    0.000    2.483 
#    1.241    0.000    3.034    0.000    0.000    1.931 
#    0.000    0.000    0.000    0.000    0.000    0.138 
#
# Total GULP energy -322908.921040 kJ/mol
# GULP energy per Si atom -5567.395190 kJ/mol
# Density = 2.266508 g / cm^3
# Si number density = 22.716780 Si / 1000 Ang^3
#
#
#
# Elastic Constant Matrix: (Units=GPa)
#
#
# Indices 1 2 3 4 5 6 
#
# 1 94.0164 37.0908 -5.2144 0.0000 0.0000 0.0000
# 2 37.0908 157.2198 8.4062 0.0000 0.0000 0.0000
# 3 -5.2144 8.4062 63.7780 0.0000 0.0000 0.0000
# 4 0.0000 0.0000 0.0000 20.1048 0.0000 0.0000
# 5 0.0000 0.0000 0.0000 0.0000 2.1426 0.0000
# 6 0.0000 0.0000 0.0000 0.0000 0.0000 9.4163
#
#
#
# Elastic Compliance Matrix: (Units=1/GPa)
#
#
# Indices 1 2 3 4 5 6 
#
# 1 0.011842 -0.002866 0.001346 0.000000 0.000000 0.000000
# 2 -0.002866 0.007099 -0.001170 0.000000 0.000000 0.000000
# 3 0.001346 -0.001170 0.015944 0.000000 0.000000 0.000000
# 4 0.000000 0.000000 0.000000 0.049739 0.000000 0.000000
# 5 0.000000 0.000000 0.000000 0.000000 0.466733 0.000000
# 6 0.000000 0.000000 0.000000 0.000000 0.000000 0.106199
#
#
# Mechanical properties :
#
#
# Convention : Reuss Voigt Hill
#
# Bulk Modulus (GPa) = 33.89266 43.95328 38.92297
# Shear Modulus (GPa) = 7.43196 24.64816 16.04006
#
# Velocity S-wave (km/s) = 1.81071 3.29754 2.66012
# Velocity P-wave (km/s) = 4.39586 5.82140 5.15812
#
# Compressibility (1/GPa) = 0.02950492
#
# Stress axis : x y z
#
# Youngs Moduli (GPa) = 84.44797 140.86249 62.72093
#
# Poissons Ratio (x) = 0.40366 -0.08441
# Poissons Ratio (y) = 0.24199 0.07338
# Poissons Ratio (z) = -0.11365 0.16481
#
# Static dielectric constant tensor:
#      x y z
#    x 1.870450 0.000000 0.000000 
#    y 0.000000 1.879870 0.000000 
#    z 0.000000 0.000000 -0.158380 
# 
# From -- ./inp_files/16804.got.cif
#   From: 2010.05.17/outbox.cif.g08.bks.cpg/sg51_9_cif.got.tgz:16804.got - 2010.06.03 11:52:47.
