data_PCOD9401562
_publ_section_title
;
Structure prediction by ZEFSAII (Michael W. Deem and Ramdas Pophale) SiO2 
 PCOD9401562
Probable space group: P M M A
;
_chemical_formula_sum "Si O2"
_cell_formula_units_Z 52
_cell_length_a 8.113280
_cell_length_b 23.814244
_cell_length_c 14.713436
_cell_angle_alpha 90.000000
_cell_angle_beta 90.000000
_cell_angle_gamma 90.000000
_cell_volume 2842.806946
_symmetry_space_group_name_H-M "P M M A"
_symmetry_group_IT_number 51
_symmetry_cell_setting 'orthorhombic'
loop_
_space_group_symop_operation_xyz
x,y,z
1/2-x,-y,z
1/2+x,-y,-z
-x,y,-z
-x,-y,-z
1/2+x,y,-z
1/2-x,y,z
x,-y,z
loop_
_atom_site_type_symbol
_atom_site_label
_atom_site_fract_x
_atom_site_fract_y
_atom_site_fract_z
Si Si1 0.552144 0.331245 0.716144
Si Si2 0.553395 0.852200 0.900247
Si Si3 0.551157 0.722824 0.900192
Si Si4 0.947813 0.777333 0.395494
Si Si5 0.949322 0.436357 0.603097
Si Si6 0.052089 0.111079 0.708433
Si Si7 0.949532 0.000000 0.395167
O O1 0.750000 0.336484 0.722707
O O2 0.489718 0.314259 0.816126
O O3 0.514402 0.279224 0.650077
O O4 0.488785 0.388839 0.672006
O O5 0.750000 0.850921 0.897405
O O6 0.491739 0.787492 0.889981
O O7 0.491492 0.887027 0.814443
O O8 0.500000 0.872176 0.000000
O O9 0.750000 0.724205 0.896646
O O10 0.500000 0.702952 0.000000
O O11 0.750000 0.775912 0.390627
O O12 0.009046 0.831782 0.339656
O O13 0.000000 0.781565 0.500000
O O14 0.750000 0.436597 0.606213
O O15 0.006626 0.500000 0.622587
O O16 0.000000 0.422281 0.500000
O O17 0.250000 0.111416 0.700742
O O18 0.990741 0.055998 0.656132
O O19 0.000000 0.000000 0.500000
O O20 0.750000 0.000000 0.391461
#
# Coordination Sequence:
#
# PCOD9401562 Si02
#       7
#     8   8   8   8   8   8   4
#     4  10  19  33  51  74 103 132 169 210 255 305
#     4  10  19  33  55  80 107 136 169 210 258 311
#     4   9  18  31  49  74 102 133 165 204 251 304
#     4  11  22  33  49  74 104 134 166 207 257 305
#     4   9  18  32  50  71  98 134 173 211 250 297
#     4  10  21  37  55  77 104 136 173 214 257 305
#     4  10  22  40  59  78 103 138 179 218 256 306
#
# _framework density 18.291779999999999
#
# number of rings (size 3 to 8) (size 9 to 14) (size 15 to 20)
#    0.000    2.154    1.538    1.846    0.000    4.308 
#    0.000    0.385    0.000    0.462    0.000    0.000 
#    0.000    0.000    0.000    0.000    0.000    0.000 
#
# Total GULP energy -290235.169485 kJ/mol
# GULP energy per Si atom -5581.445567 kJ/mol
# Density = 1.825015 g / cm^3
# Si number density = 18.291780 Si / 1000 Ang^3
#
#
#
# Elastic Constant Matrix: (Units=GPa)
#
#
# Indices 1 2 3 4 5 6 
#
# 1 3.5711 4.9457 -2.1651 0.0000 0.0000 0.0000
# 2 4.9457 109.9729 83.5001 0.0000 0.0000 0.0000
# 3 -2.1651 83.5001 171.8347 0.0000 0.0000 0.0000
# 4 0.0000 0.0000 0.0000 62.7795 0.0000 0.0000
# 5 0.0000 0.0000 0.0000 0.0000 29.3526 0.0000
# 6 0.0000 0.0000 0.0000 0.0000 0.0000 0.9642
#
#
#
# Elastic Compliance Matrix: (Units=1/GPa)
#
#
# Indices 1 2 3 4 5 6 
#
# 1 0.330524 -0.028566 0.018046 0.000000 0.000000 0.000000
# 2 -0.028566 0.016879 -0.008562 0.000000 0.000000 0.000000
# 3 0.018046 -0.008562 0.010207 0.000000 0.000000 0.000000
# 4 0.000000 0.000000 0.000000 0.015929 0.000000 0.000000
# 5 0.000000 0.000000 0.000000 0.000000 0.034069 0.000000
# 6 0.000000 0.000000 0.000000 0.000000 0.000000 1.037128
#
#
# Mechanical properties :
#
#
# Convention : Reuss Voigt Hill
#
# Bulk Modulus (GPa) = 3.13042 50.88222 27.00632
# Shear Modulus (GPa) = 3.14588 31.89247 17.51917
#
# Velocity S-wave (km/s) = 1.31285 4.18010 3.09813
# Velocity P-wave (km/s) = 2.00329 7.15367 5.25301
#
# Compressibility (1/GPa) = 0.31944634
#
# Stress axis : x y z
#
# Youngs Moduli (GPa) = 3.02549 59.24660 97.96838
#
# Poissons Ratio (x) = 1.69244 -1.76791
# Poissons Ratio (y) = 0.08643 0.83878
# Poissons Ratio (z) = -0.05460 0.50726
#
# Static dielectric constant tensor:
#      x y z
#    x 1.649260 0.000000 0.000000 
#    y 0.000000 1.632980 0.000000 
#    z 0.000000 0.000000 1.612230 
# 
# From -- ./inp_files/21602.got.cif
#   From: 2010.05.17/outbox.cif.g08.bks.cpg/sg51_11_cif.got.tgz:21602.got - 2010.06.03 11:52:47.
