data_PCOD9401450
_publ_section_title
;
Structure prediction by ZEFSAII (Michael W. Deem and Ramdas Pophale) SiO2 
 PCOD9401450
Probable space group: P M M A
;
_chemical_formula_sum "Si O2"
_cell_formula_units_Z 56
_cell_length_a 8.281290
_cell_length_b 15.353695
_cell_length_c 20.567668
_cell_angle_alpha 90.000000
_cell_angle_beta 90.000000
_cell_angle_gamma 90.000000
_cell_volume 2615.146096
_symmetry_space_group_name_H-M "P M M A"
_symmetry_group_IT_number 51
_symmetry_cell_setting 'orthorhombic'
loop_
_space_group_symop_operation_xyz
x,y,z
1/2-x,-y,z
1/2+x,-y,-z
-x,y,-z
-x,-y,-z
1/2+x,y,-z
1/2-x,y,z
x,-y,z
loop_
_atom_site_type_symbol
_atom_site_label
_atom_site_fract_x
_atom_site_fract_y
_atom_site_fract_z
Si Si1 0.943389 0.399302 0.073998
Si Si2 0.429398 0.103470 0.934442
Si Si3 0.947712 0.401789 0.683876
Si Si4 0.936532 0.096868 0.796143
Si Si5 0.443241 0.907362 0.575324
Si Si6 0.441314 0.274928 0.425970
Si Si7 0.445694 0.286569 0.195152
O O1 0.750000 0.398781 0.075094
O O2 0.997218 0.500000 0.090485
O O3 0.002379 0.326861 0.125807
O O4 0.000000 0.382114 0.000000
O O5 0.250000 0.137744 0.918349
O O6 0.550321 0.107170 0.874413
O O7 0.410148 0.000000 0.945766
O O8 0.500000 0.143412 0.000000
O O9 0.750000 0.401181 0.682418
O O10 0.003578 0.500000 0.681966
O O11 0.005750 0.348664 0.621371
O O12 0.995329 0.355254 0.750172
O O13 0.750000 0.093930 0.775324
O O14 0.007768 0.191647 0.779488
O O15 0.008317 0.000000 0.780850
O O16 0.500000 0.908607 0.500000
O O17 0.250000 0.902822 0.576044
O O18 0.514012 0.819401 0.603200
O O19 0.494877 0.000000 0.604943
O O20 0.500000 0.281373 0.500000
O O21 0.250000 0.280280 0.428322
O O22 0.250000 0.279678 0.193801
#
# Coordination Sequence:
#
# PCOD9401450 Si02
#       7
#     8   8   8   8   8   8   8
#     4  10  21  37  58  85 114 142 176 223 277 329
#     4   9  16  26  42  64  91 126 167 208 251 299
#     4   9  19  36  57  81 109 141 178 221 273 332
#     4   9  18  32  49  71 100 132 168 212 259 308
#     4   9  16  27  46  73 107 146 184 223 268 316
#     4  10  19  32  53  81 112 146 184 226 270 318
#     4  10  20  36  59  82 106 142 183 223 271 325
#
# _framework density 21.413716999999998
#
# number of rings (size 3 to 8) (size 9 to 14) (size 15 to 20)
#    0.000    2.571    0.000    3.000    0.000    5.429 
#    0.000    2.143    0.000    5.571    0.000    2.000 
#    0.000    0.000    0.000    0.000    0.000    0.000 
#
# Total GULP energy -312088.057949 kJ/mol
# GULP energy per Si atom -5573.001035 kJ/mol
# Density = 2.136498 g / cm^3
# Si number density = 21.413717 Si / 1000 Ang^3
#
#
#
# Elastic Constant Matrix: (Units=GPa)
#
#
# Indices 1 2 3 4 5 6 
#
# 1 29.9621 10.8848 3.7911 0.0000 0.0000 0.0000
# 2 10.8848 198.0927 61.9363 0.0000 0.0000 0.0000
# 3 3.7911 61.9363 69.3993 0.0000 0.0000 0.0000
# 4 0.0000 0.0000 0.0000 -249.6773 0.0000 0.0000
# 5 0.0000 0.0000 0.0000 0.0000 8.9493 0.0000
# 6 0.0000 0.0000 0.0000 0.0000 0.0000 -94.9759
#
#
#
# Elastic Compliance Matrix: (Units=1/GPa)
#
#
# Indices 1 2 3 4 5 6 
#
# 1 0.034059 -0.001789 -0.000264 0.000000 0.000000 0.000000
# 2 -0.001789 0.007096 -0.006235 0.000000 0.000000 0.000000
# 3 -0.000264 -0.006235 0.019988 0.000000 0.000000 0.000000
# 4 0.000000 0.000000 0.000000 -0.004005 0.000000 0.000000
# 5 0.000000 0.000000 0.000000 0.000000 0.111741 0.000000
# 6 0.000000 0.000000 0.000000 0.000000 0.000000 -0.010529
#
#
# Mechanical properties :
#
#
# Convention : Reuss Voigt Hill
#
# Bulk Modulus (GPa) = 22.43813 50.07538 36.25675
# Shear Modulus (GPa) = 26.34608 -52.41800 -13.03596
#
# Velocity S-wave (km/s) = 3.51142 -4.95296 -2.47000
# Velocity P-wave (km/s) = 5.19050 3.04526 2.97217
#
# Compressibility (1/GPa) = 0.04456699
#
# Stress axis : x y z
#
# Youngs Moduli (GPa) = 29.36103 140.92582 50.02898
#
# Poissons Ratio (x) = 0.25210 0.01321
# Poissons Ratio (y) = 0.05252 0.31194
# Poissons Ratio (z) = 0.00775 0.87869
#
# Static dielectric constant tensor:
#      x y z
#    x 1.772920 0.000000 0.000000 
#    y 0.000000 1.853090 0.000000 
#    z 0.000000 0.000000 1.750900 
# 
# From -- ./inp_files/32036.got.cif
#   From: 2010.05.17/outbox.cif.g08.bks.cpg/sg51_17_cif.got.tgz:32036.got - 2010.06.03 11:52:47.
