data_PCOD9401633
_publ_section_title
;
Structure prediction by ZEFSAII (Michael W. Deem and Ramdas Pophale) SiO2 
 PCOD9401633
Probable space group: P M M A
;
_chemical_formula_sum "Si O2"
_cell_formula_units_Z 64
_cell_length_a 15.808640
_cell_length_b 21.008994
_cell_length_c 9.328502
_cell_angle_alpha 90.000000
_cell_angle_beta 90.000000
_cell_angle_gamma 90.000000
_cell_volume 3098.215881
_symmetry_space_group_name_H-M "P M M A"
_symmetry_group_IT_number 51
_symmetry_cell_setting 'orthorhombic'
loop_
_space_group_symop_operation_xyz
x,y,z
1/2-x,-y,z
1/2+x,-y,-z
-x,y,-z
-x,-y,-z
1/2+x,y,-z
1/2-x,y,z
x,-y,z
loop_
_atom_site_type_symbol
_atom_site_label
_atom_site_fract_x
_atom_site_fract_y
_atom_site_fract_z
Si Si1 0.646713 0.071401 0.767814
Si Si2 0.853172 0.928728 0.099282
Si Si3 0.153116 0.680114 0.240811
Si Si4 0.594134 0.427815 0.563349
Si Si5 0.352897 0.196535 0.733517
Si Si6 0.408688 0.313221 0.930428
Si Si7 0.353469 0.194165 0.404351
Si Si8 0.847409 0.426335 0.255281
O O1 0.750000 0.071892 0.765917
O O2 0.617436 0.128167 0.666347
O O3 0.620332 0.000000 0.725550
O O4 0.621883 0.082259 0.933601
O O5 0.750000 0.929179 0.101846
O O6 0.880592 0.870884 0.199037
O O7 0.881073 0.000000 0.141680
O O8 0.250000 0.672461 0.288108
O O9 0.103663 0.621058 0.308050
O O10 0.119884 0.745870 0.308563
O O11 0.150312 0.683264 0.070097
O O12 0.500000 0.427583 0.500000
O O13 0.616301 0.500000 0.606502
O O14 0.648754 0.409283 0.423768
O O15 0.250000 0.198487 0.736936
O O16 0.385567 0.254364 0.829314
O O17 0.380036 0.201842 0.568564
O O18 0.400319 0.377280 0.837931
O O19 0.500000 0.305708 0.000000
O O20 0.250000 0.192817 0.402517
O O21 0.750000 0.422627 0.207902
O O22 0.876134 0.500000 0.243795
#
# Coordination Sequence:
#
# PCOD9401633 Si02
#       8
#     8   8   8   8   8   8   8   8
#     4   8  13  23  40  66 103 139 169 209 265 322
#     4   8  14  25  45  75 109 144 180 221 271 326
#     4  11  22  36  56  81 110 144 186 233 277 327
#     4  10  21  38  60  87 119 151 182 220 268 322
#     4  10  19  33  53  76 107 143 182 228 276 334
#     4  12  25  39  56  79 109 144 185 233 287 342
#     4   9  18  30  48  76 105 137 176 220 269 319
#     4  10  21  39  62  85 111 145 183 223 272 331
#
# _framework density 20.657050000000002
#
# number of rings (size 3 to 8) (size 9 to 14) (size 15 to 20)
#    0.000    2.250    0.000    4.500    0.000    5.000 
#    0.000    2.500    0.000    0.375    0.000    0.000 
#    0.000    4.500    0.000    0.000    0.000    0.000 
#
# Total GULP energy -357506.680483 kJ/mol
# GULP energy per Si atom -5586.041883 kJ/mol
# Density = 2.061003 g / cm^3
# Si number density = 20.657050 Si / 1000 Ang^3
#
#
#
# Elastic Constant Matrix: (Units=GPa)
#
#
# Indices 1 2 3 4 5 6 
#
# 1 27.3866 8.2851 4.4239 0.0000 0.0000 0.0000
# 2 8.2851 124.6117 81.1463 0.0000 0.0000 0.0000
# 3 4.4239 81.1463 106.9490 0.0000 0.0000 0.0000
# 4 0.0000 0.0000 0.0000 -9.9975 0.0000 0.0000
# 5 0.0000 0.0000 0.0000 0.0000 -112.0824 0.0000
# 6 0.0000 0.0000 0.0000 0.0000 0.0000 -31.8844
#
#
#
# Elastic Compliance Matrix: (Units=1/GPa)
#
#
# Indices 1 2 3 4 5 6 
#
# 1 0.037288 -0.002915 0.000669 0.000000 0.000000 0.000000
# 2 -0.002915 0.016090 -0.012088 0.000000 0.000000 0.000000
# 3 0.000669 -0.012088 0.018494 0.000000 0.000000 0.000000
# 4 0.000000 0.000000 0.000000 -0.100025 0.000000 0.000000
# 5 0.000000 0.000000 0.000000 0.000000 -0.008922 0.000000
# 6 0.000000 0.000000 0.000000 0.000000 0.000000 -0.031363
#
#
# Mechanical properties :
#
#
# Convention : Reuss Voigt Hill
#
# Bulk Modulus (GPa) = 23.14525 49.62863 36.38694
# Shear Modulus (GPa) = -197.08235 -19.78672 -108.43454
#
# Velocity S-wave (km/s) = -9.77824 -3.09830 -7.25305
# Velocity P-wave (km/s) = 10.78223 3.35826 7.24495
#
# Compressibility (1/GPa) = 0.04320541
#
# Stress axis : x y z
#
# Youngs Moduli (GPa) = 26.81827 62.14998 54.07191
#
# Poissons Ratio (x) = 0.18117 -0.03619
# Poissons Ratio (y) = 0.07818 0.65360
# Poissons Ratio (z) = -0.01795 0.75124
#
# Static dielectric constant tensor:
#      x y z
#    x 1.840780 0.000000 0.000000 
#    y 0.000000 1.715570 0.000000 
#    z 0.000000 0.000000 1.699580 
# 
# From -- ./inp_files/10048.got.cif
#   From: 2010.05.17/outbox.cif.g08.bks.cpg/sg51_6_cif.got.tgz:10048.got - 2010.06.03 11:52:47.
