data_PCOD9401903
_publ_section_title
;
Structure prediction by ZEFSAII (Michael W. Deem and Ramdas Pophale) SiO2 
 PCOD9401903
Probable space group: P M M A
;
_chemical_formula_sum "Si O2"
_cell_formula_units_Z 64
_cell_length_a 9.354212
_cell_length_b 25.486563
_cell_length_c 14.674423
_cell_angle_alpha 90.000000
_cell_angle_beta 90.000000
_cell_angle_gamma 90.000000
_cell_volume 3498.480959
_symmetry_space_group_name_H-M "P M M A"
_symmetry_group_IT_number 51
_symmetry_cell_setting 'orthorhombic'
loop_
_space_group_symop_operation_xyz
x,y,z
1/2-x,-y,z
1/2+x,-y,-z
-x,y,-z
-x,-y,-z
1/2+x,y,-z
1/2-x,y,z
x,-y,z
loop_
_atom_site_type_symbol
_atom_site_label
_atom_site_fract_x
_atom_site_fract_y
_atom_site_fract_z
Si Si1 0.580263 0.939151 0.292670
Si Si2 0.921086 0.342869 0.593372
Si Si3 0.082484 0.219238 0.908780
Si Si4 0.579893 0.850867 0.595153
Si Si5 0.413756 0.435983 0.087898
Si Si6 0.418292 0.247993 0.270897
Si Si7 0.917128 0.907440 0.090400
Si Si8 0.575586 0.440084 0.710579
O O1 0.750000 0.925425 0.298185
O O2 0.489213 0.901518 0.356885
O O3 0.535894 0.931149 0.186984
O O4 0.564524 0.000000 0.317346
O O5 0.750000 0.343429 0.578606
O O6 0.950461 0.299208 0.669572
O O7 0.966945 0.399075 0.633864
O O8 0.000000 0.330745 0.500000
O O9 0.250000 0.231221 0.915127
O O10 0.067772 0.155738 0.901663
O O11 0.012053 0.243329 0.819135
O O12 0.000000 0.235726 0.000000
O O13 0.500000 0.841041 0.500000
O O14 0.750000 0.857199 0.580645
O O15 0.558415 0.802254 0.664049
O O16 0.250000 0.418386 0.080835
O O17 0.413079 0.500000 0.087015
O O18 0.471416 0.422190 0.188151
O O19 0.500000 0.417826 0.000000
O O20 0.250000 0.248915 0.246009
O O21 0.750000 0.919836 0.078831
O O22 0.000000 0.924722 0.000000
O O23 0.750000 0.440422 0.714294
O O24 0.529407 0.500000 0.694362
#
# Coordination Sequence:
#
# PCOD9401903 Si02
#       8
#     8   8   8   8   8   8   8   8
#     4  10  21  38  57  79 110 144 180 223 270 322
#     4  10  21  37  56  79 108 140 179 228 277 325
#     4  10  19  33  57  85 114 146 180 220 265 319
#     4  11  23  38  58  80 104 136 180 228 277 330
#     4   8  13  23  42  68  96 128 167 207 249 299
#     4  10  21  37  57  82 110 142 180 224 271 322
#     4   9  18  32  52  80 110 142 177 214 259 311
#     4   8  15  30  52  76 105 144 182 215 262 324
#
# _framework density 18.293654
#
# number of rings (size 3 to 8) (size 9 to 14) (size 15 to 20)
#    0.000    2.500    1.250    1.875    0.000    3.000 
#    0.000    1.250    0.000    2.250    0.000    0.000 
#    0.000    0.000    0.000    0.000    0.000    0.000 
#
# Total GULP energy -357075.343393 kJ/mol
# GULP energy per Si atom -5579.302241 kJ/mol
# Density = 1.825202 g / cm^3
# Si number density = 18.293654 Si / 1000 Ang^3
#
#
#
# Elastic Constant Matrix: (Units=GPa)
#
#
# Indices 1 2 3 4 5 6 
#
# 1 69.4208 44.0970 73.4232 0.0000 0.0000 0.0000
# 2 44.0970 59.2841 44.1145 0.0000 0.0000 0.0000
# 3 73.4232 44.1145 121.8862 0.0000 0.0000 0.0000
# 4 0.0000 0.0000 0.0000 -3.6815 0.0000 0.0000
# 5 0.0000 0.0000 0.0000 0.0000 38.2414 0.0000
# 6 0.0000 0.0000 0.0000 0.0000 0.0000 14.6181
#
#
#
# Elastic Compliance Matrix: (Units=1/GPa)
#
#
# Indices 1 2 3 4 5 6 
#
# 1 0.055239 -0.022345 -0.025188 0.000000 0.000000 0.000000
# 2 -0.022345 0.032124 0.001834 0.000000 0.000000 0.000000
# 3 -0.025188 0.001834 0.022714 0.000000 0.000000 0.000000
# 4 0.000000 0.000000 0.000000 -0.271628 0.000000 0.000000
# 5 0.000000 0.000000 0.000000 0.000000 0.026150 0.000000
# 6 0.000000 0.000000 0.000000 0.000000 0.000000 0.068408
#
#
# Mechanical properties :
#
#
# Convention : Reuss Voigt Hill
#
# Bulk Modulus (GPa) = 53.53876 63.76226 58.65051
# Shear Modulus (GPa) = 163.22291 15.76604 89.49447
#
# Velocity S-wave (km/s) = 9.45608 2.93888 7.00195
# Velocity P-wave (km/s) = 12.18824 6.81517 9.87420
#
# Compressibility (1/GPa) = 0.01867806
#
# Stress axis : x y z
#
# Youngs Moduli (GPa) = 18.10305 31.12903 44.02604
#
# Poissons Ratio (x) = 0.69559 1.10894
# Poissons Ratio (y) = 0.40452 -0.08073
# Poissons Ratio (z) = 0.45598 -0.05708
#
# Static dielectric constant tensor:
#      x y z
#    x 1.610190 0.000000 0.000000 
#    y 0.000000 1.636000 0.000000 
#    z 0.000000 0.000000 1.612370 
# 
# From -- ./inp_files/22274.got.cif
#   From: 2010.05.17/outbox.cif.g08.bks.cpg/sg51_12_cif.got.tgz:22274.got - 2010.06.03 11:52:47.
