data_PCOD9401952
_publ_section_title
;
Structure prediction by ZEFSAII (Michael W. Deem and Ramdas Pophale) SiO2 
 PCOD9401952
Probable space group: P M M A
;
_chemical_formula_sum "Si O2"
_cell_formula_units_Z 48
_cell_length_a 8.760559
_cell_length_b 16.924209
_cell_length_c 18.892227
_cell_angle_alpha 90.000000
_cell_angle_beta 90.000000
_cell_angle_gamma 90.000000
_cell_volume 2801.066077
_symmetry_space_group_name_H-M "P M M A"
_symmetry_group_IT_number 51
_symmetry_cell_setting 'orthorhombic'
loop_
_space_group_symop_operation_xyz
x,y,z
1/2-x,-y,z
1/2+x,-y,-z
-x,y,-z
-x,-y,-z
1/2+x,y,-z
1/2-x,y,z
x,-y,z
loop_
_atom_site_type_symbol
_atom_site_label
_atom_site_fract_x
_atom_site_fract_y
_atom_site_fract_z
Si Si1 0.932931 0.266380 0.706220
Si Si2 0.566205 0.841933 0.577928
Si Si3 0.433381 0.000000 0.648222
Si Si4 0.933004 0.686570 0.075275
Si Si5 0.067380 0.000000 0.815658
Si Si6 0.932926 0.167152 0.846096
Si Si7 0.566123 0.589954 0.214697
O O1 0.750000 0.274144 0.707303
O O2 0.978457 0.228060 0.631917
O O3 0.974005 0.205254 0.769428
O O4 0.005183 0.349890 0.726424
O O5 0.500000 0.830550 0.500000
O O6 0.750000 0.846409 0.575529
O O7 0.501868 0.922843 0.610962
O O8 0.472283 0.000000 0.731715
O O9 0.250000 0.000000 0.641389
O O10 0.750000 0.689532 0.072256
O O11 0.978684 0.627170 0.138673
O O12 0.997738 0.772310 0.097203
O O13 0.000000 0.662307 0.000000
O O14 0.999552 0.920470 0.849007
O O15 0.250000 0.000000 0.821692
O O16 0.750000 0.165544 0.852005
O O17 0.750000 0.590227 0.217062
O O18 0.512612 0.500000 0.222322
#
# Coordination Sequence:
#
# PCOD9401952 Si02
#       7
#     8   8   4   8   4   8   8
#     4   9  19  34  53  76 103 136 174 216 260 310
#     4  11  22  36  52  75 108 143 180 221 266 313
#     4  11  22  34  51  76 107 143 180 219 265 310
#     4  10  20  35  54  78 109 141 173 210 257 311
#     4  11  21  32  51  78 105 135 178 223 263 306
#     4  10  19  34  54  75 101 137 179 219 263 308
#     4   9  19  35  56  82 109 136 169 211 258 310
#
# _framework density 17.136331999999999
#
# number of rings (size 3 to 8) (size 9 to 14) (size 15 to 20)
#    0.000    2.000    1.667    2.250    0.000    4.000 
#    0.000    0.417    0.000    0.500    0.000    0.000 
#    0.000    0.000    0.000    0.000    0.000    0.000 
#
# Total GULP energy -267980.912486 kJ/mol
# GULP energy per Si atom -5582.935677 kJ/mol
# Density = 1.709733 g / cm^3
# Si number density = 17.136332 Si / 1000 Ang^3
#
#
#
# Elastic Constant Matrix: (Units=GPa)
#
#
# Indices 1 2 3 4 5 6 
#
# 1 38.3343 34.3392 24.8485 0.0000 0.0000 0.0000
# 2 34.3392 158.1918 49.9414 0.0000 0.0000 0.0000
# 3 24.8485 49.9414 79.6428 0.0000 0.0000 0.0000
# 4 0.0000 0.0000 0.0000 13.4331 0.0000 0.0000
# 5 0.0000 0.0000 0.0000 0.0000 25.9587 0.0000
# 6 0.0000 0.0000 0.0000 0.0000 0.0000 28.3301
#
#
#
# Elastic Compliance Matrix: (Units=1/GPa)
#
#
# Indices 1 2 3 4 5 6 
#
# 1 0.035960 -0.005316 -0.007886 0.000000 0.000000 0.000000
# 2 -0.005316 0.008668 -0.003777 0.000000 0.000000 0.000000
# 3 -0.007886 -0.003777 0.017385 0.000000 0.000000 0.000000
# 4 0.000000 0.000000 0.000000 0.074443 0.000000 0.000000
# 5 0.000000 0.000000 0.000000 0.000000 0.038523 0.000000
# 6 0.000000 0.000000 0.000000 0.000000 0.000000 0.035298
#
#
# Mechanical properties :
#
#
# Convention : Reuss Voigt Hill
#
# Bulk Modulus (GPa) = 35.64423 54.93633 45.29028
# Shear Modulus (GPa) = 19.71721 24.68037 22.19879
#
# Velocity S-wave (km/s) = 3.39574 3.79916 3.60310
# Velocity P-wave (km/s) = 6.01833 7.16748 6.61790
#
# Compressibility (1/GPa) = 0.02805503
#
# Stress axis : x y z
#
# Youngs Moduli (GPa) = 27.80846 115.37013 57.52226
#
# Poissons Ratio (x) = 0.61336 0.45361
# Poissons Ratio (y) = 0.14784 0.21724
# Poissons Ratio (z) = 0.21929 0.43570
#
# Static dielectric constant tensor:
#      x y z
#    x 1.572410 0.000000 0.000000 
#    y 0.000000 1.559960 0.000000 
#    z 0.000000 0.000000 1.571480 
# 
# From -- ./inp_files/27641.got.cif
#   From: 2010.05.17/outbox.cif.g08.bks.cpg/sg51_14_cif.got.tgz:27641.got - 2010.06.03 11:52:47.
