data_PCOD9401754
_publ_section_title
;
Structure prediction by ZEFSAII (Michael W. Deem and Ramdas Pophale) SiO2 
 PCOD9401754
Probable space group: P M M A
;
_chemical_formula_sum "Si O2"
_cell_formula_units_Z 48
_cell_length_a 8.532158
_cell_length_b 32.342657
_cell_length_c 9.523516
_cell_angle_alpha 90.000000
_cell_angle_beta 90.000000
_cell_angle_gamma 90.000000
_cell_volume 2628.039570
_symmetry_space_group_name_H-M "P M M A"
_symmetry_group_IT_number 51
_symmetry_cell_setting 'orthorhombic'
loop_
_space_group_symop_operation_xyz
x,y,z
1/2-x,-y,z
1/2+x,-y,-z
-x,y,-z
-x,-y,-z
1/2+x,y,-z
1/2-x,y,z
x,-y,z
loop_
_atom_site_type_symbol
_atom_site_label
_atom_site_fract_x
_atom_site_fract_y
_atom_site_fract_z
Si Si1 0.060846 0.454207 0.658032
Si Si2 0.938990 0.135325 0.839669
Si Si3 0.060910 0.955671 0.160053
Si Si4 0.438679 0.376511 0.842205
Si Si5 0.936971 0.788463 0.341616
Si Si6 0.437122 0.712620 0.158982
O O1 0.250000 0.453557 0.656090
O O2 0.011794 0.500000 0.710006
O O3 0.008206 0.415595 0.750788
O O4 0.000000 0.449897 0.500000
O O5 0.750000 0.137892 0.841944
O O6 0.986776 0.089421 0.784318
O O7 0.006362 0.171235 0.743181
O O8 0.000000 0.139592 0.000000
O O9 0.250000 0.955714 0.158277
O O10 0.009625 0.000000 0.224120
O O11 0.000000 0.955957 0.000000
O O12 0.250000 0.374694 0.842867
O O13 0.503653 0.332383 0.791625
O O14 0.500000 0.381779 0.000000
O O15 0.750000 0.787172 0.343145
O O16 0.000000 0.789231 0.500000
O O17 0.001095 0.748609 0.258849
O O18 0.250000 0.713042 0.154727
O O19 0.500000 0.718740 0.000000
#
# Coordination Sequence:
#
# PCOD9401754 Si02
#       6
#     8   8   8   8   8   8
#     4   9  19  35  54  77 107 143 182 222 263 311
#     4  10  19  33  54  81 111 144 181 220 265 315
#     4   8  14  25  44  72 105 138 173 215 260 306
#     4  10  20  35  55  81 111 141 177 220 266 315
#     4  12  25  41  58  79 107 139 178 222 270 321
#     4  11  22  39  61  84 110 141 178 219 267 320
#
# _framework density 18.264565999999999
#
# number of rings (size 3 to 8) (size 9 to 14) (size 15 to 20)
#    0.000    2.000    0.000    5.500    0.000    3.000 
#    0.000    1.667    0.000    0.500    0.000    0.000 
#    0.000    0.000    0.000    0.000    0.000    0.000 
#
# Total GULP energy -267792.428658 kJ/mol
# GULP energy per Si atom -5579.008930 kJ/mol
# Density = 1.822300 g / cm^3
# Si number density = 18.264566 Si / 1000 Ang^3
#
#
#
# Elastic Constant Matrix: (Units=GPa)
#
#
# Indices 1 2 3 4 5 6 
#
# 1 95.6830 60.6115 32.4416 0.0000 0.0000 0.0000
# 2 60.6115 238.8009 98.7858 0.0000 0.0000 0.0000
# 3 32.4416 98.7858 73.4463 0.0000 0.0000 0.0000
# 4 0.0000 0.0000 0.0000 -13.1304 0.0000 0.0000
# 5 0.0000 0.0000 0.0000 0.0000 29.0548 0.0000
# 6 0.0000 0.0000 0.0000 0.0000 0.0000 34.2386
#
#
#
# Elastic Compliance Matrix: (Units=1/GPa)
#
#
# Indices 1 2 3 4 5 6 
#
# 1 0.012717 -0.002038 -0.002876 0.000000 0.000000 0.000000
# 2 -0.002038 0.009767 -0.012236 0.000000 0.000000 0.000000
# 3 -0.002876 -0.012236 0.031343 0.000000 0.000000 0.000000
# 4 0.000000 0.000000 0.000000 -0.076159 0.000000 0.000000
# 5 0.000000 0.000000 0.000000 0.000000 0.034418 0.000000
# 6 0.000000 0.000000 0.000000 0.000000 0.000000 0.029207
#
#
# Mechanical properties :
#
#
# Convention : Reuss Voigt Hill
#
# Bulk Modulus (GPa) = 51.21123 87.95645 69.58384
# Shear Modulus (GPa) = 60.90028 24.43867 42.66948
#
# Velocity S-wave (km/s) = 5.78064 3.66189 4.83866
# Velocity P-wave (km/s) = 8.52372 8.13269 8.33050
#
# Compressibility (1/GPa) = 0.01952697
#
# Stress axis : x y z
#
# Youngs Moduli (GPa) = 78.63249 102.39039 31.90505
#
# Poissons Ratio (x) = 0.20869 0.09176
# Poissons Ratio (y) = 0.16026 0.39038
# Poissons Ratio (z) = 0.22615 1.25283
#
# Static dielectric constant tensor:
#      x y z
#    x 1.625180 0.000000 0.000000 
#    y 0.000000 1.671840 0.000000 
#    z 0.000000 0.000000 1.577500 
# 
# From -- ./inp_files/5989.got.cif
#   From: 2010.05.17/outbox.cif.g08.bks.cpg/sg51_3_cif.got.tgz:5989.got - 2010.06.03 11:52:47.
