data_PCOD9401429
_publ_section_title
;
Structure prediction by ZEFSAII (Michael W. Deem and Ramdas Pophale) SiO2 
 PCOD9401429
Probable space group: P M M A
;
_chemical_formula_sum "Si O2"
_cell_formula_units_Z 44
_cell_length_a 8.553530
_cell_length_b 29.853417
_cell_length_c 9.350811
_cell_angle_alpha 90.000000
_cell_angle_beta 90.000000
_cell_angle_gamma 90.000000
_cell_volume 2387.749206
_symmetry_space_group_name_H-M "P M M A"
_symmetry_group_IT_number 51
_symmetry_cell_setting 'orthorhombic'
loop_
_space_group_symop_operation_xyz
x,y,z
1/2-x,-y,z
1/2+x,-y,-z
-x,y,-z
-x,-y,-z
1/2+x,y,-z
1/2-x,y,z
x,-y,z
loop_
_atom_site_type_symbol
_atom_site_label
_atom_site_fract_x
_atom_site_fract_y
_atom_site_fract_z
Si Si1 0.938343 0.584672 0.161354
Si Si2 0.436971 0.500000 0.338325
Si Si3 0.438980 0.671846 0.662435
Si Si4 0.561482 0.230227 0.337454
Si Si5 0.562434 0.132927 0.338239
Si Si6 0.562843 0.950316 0.839025
O O1 0.750000 0.582885 0.160051
O O2 0.988954 0.630964 0.237656
O O3 0.002120 0.543518 0.254290
O O4 0.000000 0.582107 0.000000
O O5 0.250000 0.500000 0.340579
O O6 0.500000 0.500000 0.500000
O O7 0.500000 0.666480 0.500000
O O8 0.250000 0.671208 0.656061
O O9 0.488765 0.721112 0.720117
O O10 0.500000 0.230057 0.500000
O O11 0.750000 0.230224 0.338674
O O12 0.512455 0.181875 0.275960
O O13 0.500000 0.130537 0.500000
O O14 0.750000 0.131588 0.340461
O O15 0.500493 0.090760 0.251874
O O16 0.750000 0.948547 0.840991
O O17 0.515772 0.000000 0.784326
O O18 0.500000 0.946660 0.000000
#
# Coordination Sequence:
#
# PCOD9401429 Si02
#       6
#     8   4   8   8   8   8
#     4  11  23  39  58  82 113 148 183 222 269 317
#     4  12  25  42  63  86 112 142 180 224 267 318
#     4   9  18  33  55  80 107 139 178 220 261 310
#     4   8  15  29  49  75 105 137 172 213 260 308
#     4  10  19  32  53  79 108 139 174 217 263 312
#     4  10  21  37  55  74  99 133 173 216 264 319
#
# _framework density 18.427396000000002
#
# number of rings (size 3 to 8) (size 9 to 14) (size 15 to 20)
#    0.000    2.182    0.000    3.273    0.000    5.091 
#    0.000    0.909    0.000    2.182    0.000    0.000 
#    0.000    0.000    0.000    0.000    0.000    0.000 
#
# Total GULP energy -245364.145538 kJ/mol
# GULP energy per Si atom -5576.457853 kJ/mol
# Density = 1.838545 g / cm^3
# Si number density = 18.427396 Si / 1000 Ang^3
#
#
#
# Elastic Constant Matrix: (Units=GPa)
#
#
# Indices 1 2 3 4 5 6 
#
# 1 52.9489 53.7868 28.2955 0.0000 0.0000 0.0000
# 2 53.7868 244.5785 97.0727 0.0000 0.0000 0.0000
# 3 28.2955 97.0727 94.1156 0.0000 0.0000 0.0000
# 4 0.0000 0.0000 0.0000 -65.8671 0.0000 0.0000
# 5 0.0000 0.0000 0.0000 0.0000 30.3030 0.0000
# 6 0.0000 0.0000 0.0000 0.0000 0.0000 67.1926
#
#
#
# Elastic Compliance Matrix: (Units=1/GPa)
#
#
# Indices 1 2 3 4 5 6 
#
# 1 0.024843 -0.004231 -0.003105 0.000000 0.000000 0.000000
# 2 -0.004231 0.007643 -0.006611 0.000000 0.000000 0.000000
# 3 -0.003105 -0.006611 0.018378 0.000000 0.000000 0.000000
# 4 0.000000 0.000000 0.000000 -0.015182 0.000000 0.000000
# 5 0.000000 0.000000 0.000000 0.000000 0.033000 0.000000
# 6 0.000000 0.000000 0.000000 0.000000 0.000000 0.014883
#
#
# Mechanical properties :
#
#
# Convention : Reuss Voigt Hill
#
# Bulk Modulus (GPa) = 43.53590 83.32810 63.43200
# Shear Modulus (GPa) = 41.97582 20.49156 31.23369
#
# Velocity S-wave (km/s) = 4.77792 3.33831 4.12145
# Velocity P-wave (km/s) = 7.35628 7.75738 7.55949
#
# Compressibility (1/GPa) = 0.02296955
#
# Stress axis : x y z
#
# Youngs Moduli (GPa) = 40.25199 130.83655 54.41377
#
# Poissons Ratio (x) = 0.55358 0.16896
# Poissons Ratio (y) = 0.17031 0.35974
# Poissons Ratio (z) = 0.12499 0.86499
#
# Static dielectric constant tensor:
#      x y z
#    x 1.626070 0.000000 0.000000 
#    y 0.000000 1.689270 0.000000 
#    z 0.000000 0.000000 1.567100 
# 
# From -- ./inp_files/5885.got.cif
#   From: 2010.05.17/outbox.cif.g08.bks.cpg/sg51_3_cif.got.tgz:5885.got - 2010.06.03 11:52:47.
