data_PCOD9401125
_publ_section_title
;
Structure prediction by ZEFSAII (Michael W. Deem and Ramdas Pophale) SiO2 
 PCOD9401125
Probable space group: P M M A
;
_chemical_formula_sum "Si O2"
_cell_formula_units_Z 52
_cell_length_a 8.616403
_cell_length_b 27.588573
_cell_length_c 13.959453
_cell_angle_alpha 90.000000
_cell_angle_beta 90.000000
_cell_angle_gamma 90.000000
_cell_volume 3318.361084
_symmetry_space_group_name_H-M "P M M A"
_symmetry_group_IT_number 51
_symmetry_cell_setting 'orthorhombic'
loop_
_space_group_symop_operation_xyz
x,y,z
1/2-x,-y,z
1/2+x,-y,-z
-x,y,-z
-x,-y,-z
1/2+x,y,-z
1/2-x,y,z
x,-y,z
loop_
_atom_site_type_symbol
_atom_site_label
_atom_site_fract_x
_atom_site_fract_y
_atom_site_fract_z
Si Si1 0.437474 0.552131 0.608799
Si Si2 0.562860 0.755462 0.288981
Si Si3 0.436337 0.095828 0.208601
Si Si4 0.064761 0.195598 0.105135
Si Si5 0.562084 0.657927 0.391759
Si Si6 0.063757 0.854672 0.605986
Si Si7 0.564884 0.000000 0.108099
O O1 0.500000 0.552093 0.500000
O O2 0.250000 0.552055 0.606562
O O3 0.486981 0.500000 0.652149
O O4 0.485263 0.604804 0.648474
O O5 0.750000 0.755173 0.284546
O O6 0.497999 0.767448 0.184546
O O7 0.509290 0.704212 0.331206
O O8 0.517617 0.800582 0.357601
O O9 0.250000 0.092582 0.210271
O O10 0.481710 0.141962 0.142658
O O11 0.497496 0.108572 0.314587
O O12 0.506037 0.047446 0.163910
O O13 0.250000 0.197435 0.103537
O O14 0.000000 0.204384 0.000000
O O15 0.500000 0.662039 0.500000
O O16 0.750000 0.659212 0.395335
O O17 0.250000 0.857362 0.605754
O O18 0.000000 0.863286 0.500000
O O19 0.750000 0.000000 0.104075
O O20 0.500000 0.000000 0.000000
#
# Coordination Sequence:
#
# PCOD9401125 Si02
#       7
#     8   8   8   8   8   8   4
#     4   8  13  21  33  50  75 109 148 185 220 259
#     4   9  18  30  44  64  91 120 152 188 224 266
#     4  10  21  37  55  76  99 124 154 187 223 266
#     4  10  20  33  51  71  92 118 147 180 221 268
#     4   9  16  25  38  58  85 118 152 187 224 260
#     4  10  19  32  50  71  96 127 159 191 226 266
#     4  12  24  38  57  80 103 126 152 186 228 270
#
# _framework density 15.670386000000001
#
# number of rings (size 3 to 8) (size 9 to 14) (size 15 to 20)
#    0.000    2.462    0.000    3.000    0.000    4.308 
#    0.000    0.385    0.000    0.000    0.000    0.000 
#    0.000    0.615    0.000    1.077    0.000    1.846 
#
# Total GULP energy -289815.184966 kJ/mol
# GULP energy per Si atom -5573.368942 kJ/mol
# Density = 1.563472 g / cm^3
# Si number density = 15.670386 Si / 1000 Ang^3
#
#
#
# Elastic Constant Matrix: (Units=GPa)
#
#
# Indices 1 2 3 4 5 6 
#
# 1 30.9910 34.4987 29.7308 0.0000 0.0000 0.0000
# 2 34.4987 159.6081 77.3375 0.0000 0.0000 0.0000
# 3 29.7308 77.3375 120.7318 0.0000 0.0000 0.0000
# 4 0.0000 0.0000 0.0000 14.4360 0.0000 0.0000
# 5 0.0000 0.0000 0.0000 0.0000 23.7448 0.0000
# 6 0.0000 0.0000 0.0000 0.0000 0.0000 12.6033
#
#
#
# Elastic Compliance Matrix: (Units=1/GPa)
#
#
# Indices 1 2 3 4 5 6 
#
# 1 0.046512 -0.006530 -0.007271 0.000000 0.000000 0.000000
# 2 -0.006530 0.010002 -0.004799 0.000000 0.000000 0.000000
# 3 -0.007271 -0.004799 0.013147 0.000000 0.000000 0.000000
# 4 0.000000 0.000000 0.000000 0.069271 0.000000 0.000000
# 5 0.000000 0.000000 0.000000 0.000000 0.042114 0.000000
# 6 0.000000 0.000000 0.000000 0.000000 0.000000 0.079344
#
#
# Mechanical properties :
#
#
# Convention : Reuss Voigt Hill
#
# Bulk Modulus (GPa) = 30.80577 66.05168 48.42873
# Shear Modulus (GPa) = 16.21209 21.47442 18.84325
#
# Velocity S-wave (km/s) = 3.21996 3.70588 3.47143
# Velocity P-wave (km/s) = 5.79012 7.78162 6.85854
#
# Compressibility (1/GPa) = 0.03246145
#
# Stress axis : x y z
#
# Youngs Moduli (GPa) = 21.49986 99.97783 76.06102
#
# Poissons Ratio (x) = 0.65290 0.55301
# Poissons Ratio (y) = 0.14040 0.36502
# Poissons Ratio (z) = 0.15632 0.47979
#
# Static dielectric constant tensor:
#      x y z
#    x 1.512790 0.000000 0.000000 
#    y 0.000000 1.559630 0.000000 
#    z 0.000000 0.000000 1.483210 
# 
# From -- ./inp_files/14626.got.cif
#   From: 2010.05.17/outbox.cif.g08.bks.cpg/sg51_8_cif.got.tgz:14626.got - 2010.06.03 11:52:47.
