data_PCOD9401497
_publ_section_title
;
Structure prediction by ZEFSAII (Michael W. Deem and Ramdas Pophale) SiO2 
 PCOD9401497
Probable space group: P M M A
;
_chemical_formula_sum "Si O2"
_cell_formula_units_Z 56
_cell_length_a 15.768207
_cell_length_b 15.071394
_cell_length_c 11.733979
_cell_angle_alpha 90.000000
_cell_angle_beta 90.000000
_cell_angle_gamma 90.000000
_cell_volume 2788.566737
_symmetry_space_group_name_H-M "P M M A"
_symmetry_group_IT_number 51
_symmetry_cell_setting 'orthorhombic'
loop_
_space_group_symop_operation_xyz
x,y,z
1/2-x,-y,z
1/2+x,-y,-z
-x,y,-z
-x,-y,-z
1/2+x,y,-z
1/2-x,y,z
x,-y,z
loop_
_atom_site_type_symbol
_atom_site_label
_atom_site_fract_x
_atom_site_fract_y
_atom_site_fract_z
Si Si1 0.051678 0.746861 0.882150
Si Si2 0.849826 0.405574 0.014146
Si Si3 0.345055 0.789404 0.559084
Si Si4 0.897860 0.663587 0.770842
Si Si5 0.537252 0.102142 0.273494
Si Si6 0.157396 0.150665 0.296005
Si Si7 0.898668 0.400996 0.516803
O O1 0.124505 0.678169 0.910922
O O2 0.070095 0.844453 0.836986
O O3 0.993618 0.699367 0.786297
O O4 0.000000 0.753423 0.000000
O O5 0.750000 0.410428 0.013117
O O6 0.886115 0.500000 0.056141
O O7 0.878936 0.391183 0.883916
O O8 0.250000 0.805275 0.606758
O O9 0.418840 0.841679 0.625142
O O10 0.345355 0.825258 0.429765
O O11 0.360927 0.683633 0.549217
O O12 0.845437 0.755133 0.769324
O O13 0.882790 0.614792 0.651907
O O14 0.433901 0.106176 0.271979
O O15 0.562885 0.000000 0.279780
O O16 0.250000 0.108186 0.272769
O O17 0.868825 0.500000 0.484164
O O18 0.000000 0.397947 0.500000
#
# Coordination Sequence:
#
# PCOD9401497 Si02
#       7
#     8   8   8   8   8   8   8
#     4   9  20  37  56  78 107 142 179 227 285 335
#     4  10  20  33  52  80 111 145 187 231 275 327
#     4  10  21  37  55  79 115 153 190 229 269 324
#     4   9  17  32  54  80 113 149 182 217 264 331
#     4  11  23  39  60  82 106 142 190 240 289 342
#     4   9  18  34  57  85 116 145 173 219 283 341
#     4  10  19  32  54  84 118 154 189 226 272 331
#
# _framework density 20.082001000000002
#
# number of rings (size 3 to 8) (size 9 to 14) (size 15 to 20)
#    0.000    2.286    0.000    3.857    0.000    6.571 
#    0.000    2.143    0.000    0.000    0.000    2.000 
#    0.000    0.000    0.000    0.000    0.000    0.000 
#
# Total GULP energy -312121.509793 kJ/mol
# GULP energy per Si atom -5573.598389 kJ/mol
# Density = 2.003629 g / cm^3
# Si number density = 20.082001 Si / 1000 Ang^3
#
#
#
# Elastic Constant Matrix: (Units=GPa)
#
#
# Indices 1 2 3 4 5 6 
#
# 1 72.1102 39.1379 12.6956 0.0000 0.0000 0.0000
# 2 39.1379 151.0023 35.4002 0.0000 0.0000 0.0000
# 3 12.6956 35.4002 28.6622 0.0000 0.0000 0.0000
# 4 0.0000 0.0000 0.0000 13.5714 0.0000 0.0000
# 5 0.0000 0.0000 0.0000 0.0000 15.4319 0.0000
# 6 0.0000 0.0000 0.0000 0.0000 0.0000 10.2140
#
#
#
# Elastic Compliance Matrix: (Units=1/GPa)
#
#
# Indices 1 2 3 4 5 6 
#
# 1 0.016298 -0.003564 -0.002817 0.000000 0.000000 0.000000
# 2 -0.003564 0.010101 -0.010897 0.000000 0.000000 0.000000
# 3 -0.002817 -0.010897 0.049595 0.000000 0.000000 0.000000
# 4 0.000000 0.000000 0.000000 0.073685 0.000000 0.000000
# 5 0.000000 0.000000 0.000000 0.000000 0.064801 0.000000
# 6 0.000000 0.000000 0.000000 0.000000 0.000000 0.097905
#
#
# Mechanical properties :
#
#
# Convention : Reuss Voigt Hill
#
# Bulk Modulus (GPa) = 24.13231 47.36023 35.74627
# Shear Modulus (GPa) = 13.85993 18.81285 16.33639
#
# Velocity S-wave (km/s) = 2.62995 3.06404 2.85526
# Velocity P-wave (km/s) = 4.61142 6.01269 5.35806
#
# Compressibility (1/GPa) = 0.04143822
#
# Stress axis : x y z
#
# Youngs Moduli (GPa) = 61.35758 99.00380 20.16323
#
# Poissons Ratio (x) = 0.35282 0.05681
# Poissons Ratio (y) = 0.21866 0.21971
# Poissons Ratio (z) = 0.17287 1.07880
#
# Static dielectric constant tensor:
#      x y z
#    x 1.742400 0.000000 0.000000 
#    y 0.000000 1.742560 0.000000 
#    z 0.000000 0.000000 1.710080 
# 
# From -- ./inp_files/16623.got.cif
#   From: 2010.05.17/outbox.cif.g08.bks.cpg/sg51_9_cif.got.tgz:16623.got - 2010.06.03 11:52:47.
