data_PCOD9401533
_publ_section_title
;
Structure prediction by ZEFSAII (Michael W. Deem and Ramdas Pophale) SiO2 
 PCOD9401533
Probable space group: P M M A
;
_chemical_formula_sum "Si O2"
_cell_formula_units_Z 64
_cell_length_a 14.547042
_cell_length_b 17.434711
_cell_length_c 12.391950
_cell_angle_alpha 90.000000
_cell_angle_beta 90.000000
_cell_angle_gamma 90.000000
_cell_volume 3142.889398
_symmetry_space_group_name_H-M "P M M A"
_symmetry_group_IT_number 51
_symmetry_cell_setting 'orthorhombic'
loop_
_space_group_symop_operation_xyz
x,y,z
1/2-x,-y,z
1/2+x,-y,-z
-x,y,-z
-x,-y,-z
1/2+x,y,-z
1/2-x,y,z
x,-y,z
loop_
_atom_site_type_symbol
_atom_site_label
_atom_site_fract_x
_atom_site_fract_y
_atom_site_fract_z
Si Si1 0.355315 0.697536 0.740742
Si Si2 0.354617 0.697493 0.414314
Si Si3 0.641559 0.134339 0.538404
Si Si4 0.995052 0.636474 0.885409
Si Si5 0.005049 0.413268 0.650385
Si Si6 0.946069 0.915654 0.760202
Si Si7 0.854763 0.238119 0.832825
Si Si8 0.645727 0.119778 0.293350
O O1 0.250000 0.674851 0.745511
O O2 0.409817 0.677364 0.850013
O O3 0.409775 0.645912 0.653860
O O4 0.360648 0.787684 0.717247
O O5 0.250000 0.678575 0.445638
O O6 0.384123 0.775712 0.473368
O O7 0.423259 0.626424 0.415357
O O8 0.354260 0.727654 0.289533
O O9 0.750000 0.132537 0.570208
O O10 0.583271 0.097983 0.634537
O O11 0.634917 0.098912 0.419980
O O12 0.974498 0.587803 0.777725
O O13 0.919232 0.703133 0.895590
O O14 0.000000 0.595753 0.000000
O O15 0.026698 0.500000 0.620304
O O16 0.899514 0.845754 0.823767
O O17 0.056522 0.911256 0.766960
O O18 0.914069 0.000000 0.793022
O O19 0.750000 0.234797 0.871048
O O20 0.750000 0.098003 0.260235
#
# Coordination Sequence:
#
# PCOD9401533 Si02
#       8
#     8   8   8   8   8   8   8   8
#     4   9  18  33  51  69  93 130 170 199 233 285
#     4   8  14  28  48  68  93 127 168 204 235 276
#     4   9  18  30  48  72  96 128 170 210 242 277
#     4   9  18  33  53  77  97 120 160 204 246 283
#     4   9  18  30  46  71 103 129 154 190 244 303
#     4  11  20  31  47  72 105 132 157 195 245 298
#     4   9  17  32  51  71  96 127 162 197 237 287
#     4  10  19  33  50  68  94 131 174 210 238 278
#
# _framework density 20.363426
#
# number of rings (size 3 to 8) (size 9 to 14) (size 15 to 20)
#    0.750    2.000    1.250    2.250    0.000    3.500 
#    0.000    1.250    0.000    1.875    0.000    3.500 
#    0.000    0.000    0.000    0.000    0.000    0.000 
#
# Total GULP energy -356794.427002 kJ/mol
# GULP energy per Si atom -5574.912922 kJ/mol
# Density = 2.031708 g / cm^3
# Si number density = 20.363426 Si / 1000 Ang^3
#
#
#
# Elastic Constant Matrix: (Units=GPa)
#
#
# Indices 1 2 3 4 5 6 
#
# 1 126.2608 42.0883 0.7743 0.0000 0.0000 0.0000
# 2 42.0883 103.6058 -9.9709 0.0000 0.0000 0.0000
# 3 0.7743 -9.9709 55.6171 0.0000 0.0000 0.0000
# 4 0.0000 0.0000 0.0000 0.8279 0.0000 0.0000
# 5 0.0000 0.0000 0.0000 0.0000 2.7931 0.0000
# 6 0.0000 0.0000 0.0000 0.0000 0.0000 -2.7554
#
#
#
# Elastic Compliance Matrix: (Units=1/GPa)
#
#
# Indices 1 2 3 4 5 6 
#
# 1 0.009196 -0.003814 -0.000812 0.000000 0.000000 0.000000
# 2 -0.003814 0.011403 0.002097 0.000000 0.000000 0.000000
# 3 -0.000812 0.002097 0.018367 0.000000 0.000000 0.000000
# 4 0.000000 0.000000 0.000000 1.207820 0.000000 0.000000
# 5 0.000000 0.000000 0.000000 0.000000 0.358031 0.000000
# 6 0.000000 0.000000 0.000000 0.000000 0.000000 -0.362923
#
#
# Mechanical properties :
#
#
# Convention : Reuss Voigt Hill
#
# Bulk Modulus (GPa) = 29.48960 39.02968 34.25964
# Shear Modulus (GPa) = 3.97376 17.01258 10.49317
#
# Velocity S-wave (km/s) = 1.39845 2.89355 2.27247
# Velocity P-wave (km/s) = 4.13771 5.51105 4.87300
#
# Compressibility (1/GPa) = 0.03391026
#
# Stress axis : x y z
#
# Youngs Moduli (GPa) = 108.73714 87.69439 54.44428
#
# Poissons Ratio (x) = 0.33447 0.04420
# Poissons Ratio (y) = 0.41473 -0.11419
# Poissons Ratio (z) = 0.08827 -0.18393
#
# Static dielectric constant tensor:
#      x y z
#    x 1.731340 0.000000 0.000000 
#    y 0.000000 1.709640 0.000000 
#    z 0.000000 0.000000 1.764140 
# 
# From -- ./inp_files/24446.got.cif
#   From: 2010.05.17/outbox.cif.g08.bks.cpg/sg51_13_cif.got.tgz:24446.got - 2010.06.03 11:52:47.
