data_PCOD9401931
_publ_section_title
;
Structure prediction by ZEFSAII (Michael W. Deem and Ramdas Pophale) SiO2 
 PCOD9401931
Probable space group: P M M A
;
_chemical_formula_sum "Si O2"
_cell_formula_units_Z 64
_cell_length_a 20.778445
_cell_length_b 15.043600
_cell_length_c 9.763323
_cell_angle_alpha 90.000000
_cell_angle_beta 90.000000
_cell_angle_gamma 90.000000
_cell_volume 3051.845036
_symmetry_space_group_name_H-M "P M M A"
_symmetry_group_IT_number 51
_symmetry_cell_setting 'orthorhombic'
loop_
_space_group_symop_operation_xyz
x,y,z
1/2-x,-y,z
1/2+x,-y,-z
-x,y,-z
-x,-y,-z
1/2+x,y,-z
1/2-x,y,z
x,-y,z
loop_
_atom_site_type_symbol
_atom_site_label
_atom_site_fract_x
_atom_site_fract_y
_atom_site_fract_z
Si Si1 0.061776 0.106145 0.081953
Si Si2 0.538893 0.394529 0.138300
Si Si3 0.547505 0.653374 0.611873
Si Si4 0.679723 0.361029 0.501829
Si Si5 0.824422 0.107892 0.113281
Si Si6 0.441042 0.136059 0.407388
Si Si7 0.322518 0.152170 0.576409
Si Si8 0.820892 0.601750 0.184922
O O1 0.057036 0.118839 0.245185
O O2 0.061588 0.000000 0.062011
O O3 0.126734 0.137802 0.005786
O O4 0.000000 0.143172 0.000000
O O5 0.545080 0.500000 0.170172
O O6 0.492401 0.353289 0.250611
O O7 0.611856 0.357564 0.133746
O O8 0.500000 0.385352 0.000000
O O9 0.500000 0.612011 0.500000
O O10 0.619247 0.615337 0.596456
O O11 0.556062 0.757276 0.579999
O O12 0.750000 0.385688 0.557469
O O13 0.680403 0.255178 0.469653
O O14 0.672671 0.400619 0.349770
O O15 0.750000 0.131566 0.084838
O O16 0.842218 0.144983 0.263945
O O17 0.827302 0.000000 0.123795
O O18 0.500000 0.101574 0.500000
O O19 0.374591 0.107146 0.478392
O O20 0.250000 0.115529 0.566507
O O21 0.750000 0.642999 0.155775
O O22 0.818354 0.500000 0.133917
#
# Coordination Sequence:
#
# PCOD9401931 Si02
#       8
#     8   8   8   8   8   8   8   8
#     4  10  21  36  52  73 102 136 171 213 264 314
#     4  10  21  36  53  78 109 139 173 215 264 312
#     4  10  19  34  52  76 102 133 172 214 260 307
#     4   9  17  31  51  75 105 135 171 215 256 302
#     4   9  18  34  55  78 104 134 172 217 263 315
#     4  10  21  34  51  76 104 135 174 218 261 310
#     4   9  18  33  53  75 104 138 170 212 261 308
#     4   9  17  31  53  78 103 134 172 211 251 302
#
# _framework density 20.970921000000001
#
# number of rings (size 3 to 8) (size 9 to 14) (size 15 to 20)
#    0.000    2.500    1.250    0.750    0.000    2.500 
#    2.250    0.625    0.000    0.750    0.000    0.000 
#    0.000    0.000    0.000    0.000    0.000    0.000 
#
# Total GULP energy -356832.085862 kJ/mol
# GULP energy per Si atom -5575.501342 kJ/mol
# Density = 2.092319 g / cm^3
# Si number density = 20.970921 Si / 1000 Ang^3
#
#
#
# Elastic Constant Matrix: (Units=GPa)
#
#
# Indices 1 2 3 4 5 6 
#
# 1 203.3625 20.2655 78.0208 0.0000 0.0000 0.0000
# 2 20.2655 32.8964 -0.9226 0.0000 0.0000 0.0000
# 3 78.0208 -0.9226 83.2902 0.0000 0.0000 0.0000
# 4 0.0000 0.0000 0.0000 19.4763 0.0000 0.0000
# 5 0.0000 0.0000 0.0000 0.0000 32.0592 0.0000
# 6 0.0000 0.0000 0.0000 0.0000 0.0000 -6.3950
#
#
#
# Elastic Compliance Matrix: (Units=1/GPa)
#
#
# Indices 1 2 3 4 5 6 
#
# 1 0.008569 -0.005506 -0.008088 0.000000 0.000000 0.000000
# 2 -0.005506 0.033945 0.005533 0.000000 0.000000 0.000000
# 3 -0.008088 0.005533 0.019644 0.000000 0.000000 0.000000
# 4 0.000000 0.000000 0.000000 0.051344 0.000000 0.000000
# 5 0.000000 0.000000 0.000000 0.000000 0.031192 0.000000
# 6 0.000000 0.000000 0.000000 0.000000 0.000000 -0.156371
#
#
# Mechanical properties :
#
#
# Convention : Reuss Voigt Hill
#
# Bulk Modulus (GPa) = 21.72137 57.14184 39.43160
# Shear Modulus (GPa) = 252.66711 23.84045 138.25378
#
# Velocity S-wave (km/s) = 10.98845 3.37535 8.12832
# Velocity P-wave (km/s) = 13.09103 6.51905 10.34101
#
# Compressibility (1/GPa) = 0.04603761
#
# Stress axis : x y z
#
# Youngs Moduli (GPa) = 116.70170 29.45916 50.90729
#
# Poissons Ratio (x) = 0.16219 0.41172
# Poissons Ratio (y) = 0.64251 -0.28168
# Poissons Ratio (z) = 0.94385 -0.16300
#
# Static dielectric constant tensor:
#      x y z
#    x 1.806670 0.000000 0.000000 
#    y 0.000000 1.817560 0.000000 
#    z 0.000000 0.000000 1.638070 
# 
# From -- ./inp_files/11204.got.cif
#   From: 2010.05.17/outbox.cif.g08.bks.cpg/sg51_6_cif.got.tgz:11204.got - 2010.06.03 11:52:47.
