data_PCOD9401029
_publ_section_title
;
Structure prediction by ZEFSAII (Michael W. Deem and Ramdas Pophale) SiO2 
 PCOD9401029
Probable space group: P M M A
;
_chemical_formula_sum "Si O2"
_cell_formula_units_Z 56
_cell_length_a 19.380879
_cell_length_b 7.726454
_cell_length_c 16.775886
_cell_angle_alpha 90.000000
_cell_angle_beta 90.000000
_cell_angle_gamma 90.000000
_cell_volume 2512.112935
_symmetry_space_group_name_H-M "P M M A"
_symmetry_group_IT_number 51
_symmetry_cell_setting 'orthorhombic'
loop_
_space_group_symop_operation_xyz
x,y,z
1/2-x,-y,z
1/2+x,-y,-z
-x,y,-z
-x,-y,-z
1/2+x,y,-z
1/2-x,y,z
x,-y,z
loop_
_atom_site_type_symbol
_atom_site_label
_atom_site_fract_x
_atom_site_fract_y
_atom_site_fract_z
Si Si1 0.329927 0.790810 0.773249
Si Si2 0.327467 0.212057 0.435313
Si Si3 0.108785 0.211494 0.603497
Si Si4 0.457754 0.700481 0.167088
Si Si5 0.915680 0.697997 0.074846
Si Si6 0.671767 0.200799 0.925258
Si Si7 0.461412 0.797793 0.347696
O O1 0.250000 0.749828 0.785540
O O2 0.353555 0.738076 0.685094
O O3 0.375711 0.706745 0.841430
O O4 0.338223 0.000000 0.779279
O O5 0.250000 0.271713 0.417366
O O6 0.351405 0.263686 0.524085
O O7 0.388012 0.273390 0.376388
O O8 0.325408 0.000000 0.433054
O O9 0.029751 0.274223 0.609824
O O10 0.107669 0.000000 0.602657
O O11 0.476454 0.500000 0.176440
O O12 0.508865 0.770722 0.098009
O O13 0.379446 0.714212 0.138138
O O14 0.469101 0.785171 0.252656
O O15 0.923591 0.500000 0.046577
O O16 0.867418 0.786439 0.009723
O O17 0.750000 0.269924 0.929905
O O18 0.675848 0.000000 0.903130
O O19 0.460316 0.000000 0.369642
#
# Coordination Sequence:
#
# PCOD9401029 Si02
#       7
#     8   8   8   8   8   8   8
#     4  10  19  31  52  82 114 150 191 235 285 341
#     4   9  17  29  49  81 116 146 185 242 297 342
#     4   9  16  29  50  78 113 148 186 234 290 345
#     4  11  24  41  61  86 117 155 196 235 283 343
#     4  11  23  39  59  85 118 153 191 231 281 344
#     4  11  25  43  64  90 117 147 188 238 289 340
#     4  10  19  33  56  83 111 149 195 240 290 344
#
# _framework density 22.291989999999998
#
# number of rings (size 3 to 8) (size 9 to 14) (size 15 to 20)
#    0.000    1.857    1.429    3.000    0.000   10.571 
#    0.000    1.429    0.000    2.571    0.000    0.000 
#    0.000    0.000    0.000    0.000    0.000    0.000 
#
# Total GULP energy -312951.251964 kJ/mol
# GULP energy per Si atom -5588.415214 kJ/mol
# Density = 2.224125 g / cm^3
# Si number density = 22.291990 Si / 1000 Ang^3
#
#
#
# Elastic Constant Matrix: (Units=GPa)
#
#
# Indices 1 2 3 4 5 6 
#
# 1 151.7605 10.0802 3.2485 0.0000 0.0000 0.0000
# 2 10.0802 33.4665 -8.5398 0.0000 0.0000 0.0000
# 3 3.2485 -8.5398 17.2414 0.0000 0.0000 0.0000
# 4 0.0000 0.0000 0.0000 241.4395 0.0000 0.0000
# 5 0.0000 0.0000 0.0000 0.0000 30.7905 0.0000
# 6 0.0000 0.0000 0.0000 0.0000 0.0000 25.1736
#
#
#
# Elastic Compliance Matrix: (Units=1/GPa)
#
#
# Indices 1 2 3 4 5 6 
#
# 1 0.006827 -0.002730 -0.002638 0.000000 0.000000 0.000000
# 2 -0.002730 0.035295 0.017996 0.000000 0.000000 0.000000
# 3 -0.002638 0.017996 0.067411 0.000000 0.000000 0.000000
# 4 0.000000 0.000000 0.000000 0.004142 0.000000 0.000000
# 5 0.000000 0.000000 0.000000 0.000000 0.032478 0.000000
# 6 0.000000 0.000000 0.000000 0.000000 0.000000 0.039724
#
#
# Mechanical properties :
#
#
# Convention : Reuss Voigt Hill
#
# Bulk Modulus (GPa) = 7.41899 23.56071 15.48985
# Shear Modulus (GPa) = 24.32504 72.65934 48.49219
#
# Velocity S-wave (km/s) = 3.30692 5.71534 4.66909
# Velocity P-wave (km/s) = 4.23276 7.35837 6.00258
#
# Compressibility (1/GPa) = 0.13478927
#
# Stress axis : x y z
#
# Youngs Moduli (GPa) = 146.47490 28.33269 14.83444
#
# Poissons Ratio (x) = 0.07734 0.03914
# Poissons Ratio (y) = 0.39981 -0.26696
# Poissons Ratio (z) = 0.38645 -0.50988
#
# Static dielectric constant tensor:
#      x y z
#    x 1.838080 0.000000 0.000000 
#    y 0.000000 1.833690 0.000000 
#    z 0.000000 0.000000 1.772900 
# 
# From -- ./inp_files/25715.got.cif
#   From: 2010.05.17/outbox.cif.g08.bks.cpg/sg51_13_cif.got.tgz:25715.got - 2010.06.03 11:52:47.
