data_PCOD9401184
_publ_section_title
;
Structure prediction by ZEFSAII (Michael W. Deem and Ramdas Pophale) SiO2 
 PCOD9401184
Probable space group: P M M A
;
_chemical_formula_sum "Si O2"
_cell_formula_units_Z 48
_cell_length_a 18.350674
_cell_length_b 7.528235
_cell_length_c 17.227765
_cell_angle_alpha 90.000000
_cell_angle_beta 90.000000
_cell_angle_gamma 90.000000
_cell_volume 2379.984488
_symmetry_space_group_name_H-M "P M M A"
_symmetry_group_IT_number 51
_symmetry_cell_setting 'orthorhombic'
loop_
_space_group_symop_operation_xyz
x,y,z
1/2-x,-y,z
1/2+x,-y,-z
-x,y,-z
-x,-y,-z
1/2+x,y,-z
1/2-x,y,z
x,-y,z
loop_
_atom_site_type_symbol
_atom_site_label
_atom_site_fract_x
_atom_site_fract_y
_atom_site_fract_z
Si Si1 0.965131 0.790161 0.752709
Si Si2 0.387921 0.703183 0.675236
Si Si3 0.332520 0.714172 0.352479
Si Si4 0.981263 0.207909 0.083938
Si Si5 0.831321 0.284417 0.160779
Si Si6 0.915538 0.282274 0.492712
O O1 0.885828 0.763319 0.717666
O O2 0.026273 0.704261 0.697477
O O3 0.977429 0.719457 0.839886
O O4 0.981801 0.000000 0.752871
O O5 0.361803 0.500000 0.669775
O O6 0.349050 0.780209 0.751449
O O7 0.382640 0.780910 0.589323
O O8 0.250000 0.778568 0.344397
O O9 0.330621 0.500000 0.355796
O O10 0.369950 0.775185 0.432593
O O11 0.896024 0.223244 0.104992
O O12 0.001362 0.000000 0.080488
O O13 0.000000 0.286095 0.000000
O O14 0.750000 0.231037 0.138077
O O15 0.834624 0.500000 0.162195
O O16 0.915323 0.500000 0.490777
O O17 0.000000 0.228087 0.500000
#
# Coordination Sequence:
#
# PCOD9401184 Si02
#       6
#     8   8   8   8   8   8
#     4  10  19  32  51  72  95 123 158 201 246 292
#     4   9  16  29  50  71  97 132 166 198 236 285
#     4  10  20  33  49  70  97 131 170 206 241 285
#     4   9  19  36  56  76  96 125 167 204 239 294
#     4   9  18  31  49  77 108 132 157 197 250 298
#     4   9  15  26  47  71  94 125 167 207 236 272
#
# _framework density 20.168198
#
# number of rings (size 3 to 8) (size 9 to 14) (size 15 to 20)
#    0.000    2.667    1.667    0.500    0.000    2.333 
#    0.000    5.833    0.000    5.000    0.000    2.333 
#    0.000    0.000    0.000    0.000    0.000    0.000 
#
# Total GULP energy -267774.669402 kJ/mol
# GULP energy per Si atom -5578.638946 kJ/mol
# Density = 2.012229 g / cm^3
# Si number density = 20.168198 Si / 1000 Ang^3
#
#
#
# Elastic Constant Matrix: (Units=GPa)
#
#
# Indices 1 2 3 4 5 6 
#
# 1 112.7037 -13.5810 71.0672 0.0000 0.0000 0.0000
# 2 -13.5810 53.7800 -0.9998 0.0000 0.0000 0.0000
# 3 71.0672 -0.9998 164.7403 0.0000 0.0000 0.0000
# 4 0.0000 0.0000 0.0000 5.2281 0.0000 0.0000
# 5 0.0000 0.0000 0.0000 0.0000 18.4373 0.0000
# 6 0.0000 0.0000 0.0000 0.0000 0.0000 19.0220
#
#
#
# Elastic Compliance Matrix: (Units=1/GPa)
#
#
# Indices 1 2 3 4 5 6 
#
# 1 0.012685 0.003102 -0.005454 0.000000 0.000000 0.000000
# 2 0.003102 0.019355 -0.001221 0.000000 0.000000 0.000000
# 3 -0.005454 -0.001221 0.008415 0.000000 0.000000 0.000000
# 4 0.000000 0.000000 0.000000 0.191276 0.000000 0.000000
# 5 0.000000 0.000000 0.000000 0.000000 0.054238 0.000000
# 6 0.000000 0.000000 0.000000 0.000000 0.000000 0.052571
#
#
# Mechanical properties :
#
#
# Convention : Reuss Voigt Hill
#
# Bulk Modulus (GPa) = 30.01984 49.35521 39.68753
# Shear Modulus (GPa) = 14.01391 26.85330 20.43361
#
# Velocity S-wave (km/s) = 2.63886 3.65289 3.18647
# Velocity P-wave (km/s) = 4.91954 6.50510 5.76707
#
# Compressibility (1/GPa) = 0.03331130
#
# Stress axis : x y z
#
# Youngs Moduli (GPa) = 78.83044 51.66643 118.83046
#
# Poissons Ratio (x) = -0.16027 0.64805
# Poissons Ratio (y) = -0.24454 0.14506
# Poissons Ratio (z) = 0.42991 0.06307
#
# Static dielectric constant tensor:
#      x y z
#    x 1.683540 0.000000 0.000000 
#    y 0.000000 1.781910 0.000000 
#    z 0.000000 0.000000 1.727490 
# 
# From -- ./inp_files/30062.got.cif
#   From: 2010.05.17/outbox.cif.g08.bks.cpg/sg51_16_cif.got.tgz:30062.got - 2010.06.03 11:52:47.
