data_PCOD9401271
_publ_section_title
;
Structure prediction by ZEFSAII (Michael W. Deem and Ramdas Pophale) SiO2 
 PCOD9401271
Probable space group: P M M A
;
_chemical_formula_sum "Si O2"
_cell_formula_units_Z 64
_cell_length_a 15.314503
_cell_length_b 9.523958
_cell_length_c 21.221034
_cell_angle_alpha 90.000000
_cell_angle_beta 90.000000
_cell_angle_gamma 90.000000
_cell_volume 3095.187195
_symmetry_space_group_name_H-M "P M M A"
_symmetry_group_IT_number 51
_symmetry_cell_setting 'orthorhombic'
loop_
_space_group_symop_operation_xyz
x,y,z
1/2-x,-y,z
1/2+x,-y,-z
-x,y,-z
-x,-y,-z
1/2+x,y,-z
1/2-x,y,z
x,-y,z
loop_
_atom_site_type_symbol
_atom_site_label
_atom_site_fract_x
_atom_site_fract_y
_atom_site_fract_z
Si Si1 0.397104 0.660530 0.121501
Si Si2 0.855229 0.339860 0.737507
Si Si3 0.645664 0.340417 0.358573
Si Si4 0.645198 0.841388 0.242421
Si Si5 0.893099 0.660437 0.118867
Si Si6 0.606976 0.838269 0.998169
Si Si7 0.895951 0.659544 0.499480
Si Si8 0.854317 0.157539 0.620734
O O1 0.363390 0.500000 0.115061
O O2 0.377002 0.710664 0.192174
O O3 0.501726 0.653501 0.115006
O O4 0.365349 0.762079 0.066286
O O5 0.750000 0.345331 0.732956
O O6 0.888457 0.500000 0.731446
O O7 0.888672 0.244000 0.680778
O O8 0.750000 0.349513 0.349814
O O9 0.610098 0.500000 0.353159
O O10 0.611132 0.237906 0.304634
O O11 0.630606 0.290619 0.429896
O O12 0.750000 0.852011 0.248788
O O13 0.628294 0.745902 0.181708
O O14 0.610480 0.000000 0.235329
O O15 0.860502 0.500000 0.120586
O O16 0.862840 0.746824 0.057786
O O17 0.635133 0.000000 0.001772
O O18 0.500000 0.838989 0.000000
O O19 0.861273 0.500000 0.507840
O O20 0.868212 0.757785 0.556463
O O21 0.000000 0.652617 0.500000
O O22 0.750000 0.147147 0.629338
O O23 0.890526 0.000000 0.617328
#
# Coordination Sequence:
#
# PCOD9401271 Si02
#       8
#     8   8   8   8   8   8   8   8
#     4   9  18  32  51  76 102 131 171 215 257 301
#     4   9  18  34  55  76 101 135 173 212 253 300
#     4   9  18  34  55  75  97 131 172 207 244 298
#     4  10  21  36  53  74 101 131 165 208 255 303
#     4  10  19  32  52  75 101 133 169 211 255 303
#     4   9  17  30  49  73 101 134 172 211 253 303
#     4  10  21  36  55  80 108 136 169 212 258 303
#     4  10  21  36  54  76 103 137 175 212 253 305
#
# _framework density 20.677264000000001
#
# number of rings (size 3 to 8) (size 9 to 14) (size 15 to 20)
#    0.000    2.500    0.000    1.875    0.000    6.250 
#    0.000    6.875    0.000    2.250    0.000    0.000 
#    0.000    0.000    0.000    0.000    0.000    0.000 
#
# Total GULP energy -357328.787916 kJ/mol
# GULP energy per Si atom -5583.262311 kJ/mol
# Density = 2.063020 g / cm^3
# Si number density = 20.677264 Si / 1000 Ang^3
#
#
#
# Elastic Constant Matrix: (Units=GPa)
#
#
# Indices 1 2 3 4 5 6 
#
# 1 25.5797 4.1937 -3.2732 0.0000 0.0000 0.0000
# 2 4.1937 170.7423 146.2971 0.0000 0.0000 0.0000
# 3 -3.2732 146.2971 224.7969 0.0000 0.0000 0.0000
# 4 0.0000 0.0000 0.0000 -46.0550 0.0000 0.0000
# 5 0.0000 0.0000 0.0000 0.0000 26.6082 0.0000
# 6 0.0000 0.0000 0.0000 0.0000 0.0000 4.7366
#
#
#
# Elastic Compliance Matrix: (Units=1/GPa)
#
#
# Indices 1 2 3 4 5 6 
#
# 1 0.039996 -0.003349 0.002762 0.000000 0.000000 0.000000
# 2 -0.003349 0.013520 -0.008847 0.000000 0.000000 0.000000
# 3 0.002762 -0.008847 0.010246 0.000000 0.000000 0.000000
# 4 0.000000 0.000000 0.000000 -0.021713 0.000000 0.000000
# 5 0.000000 0.000000 0.000000 0.000000 0.037582 0.000000
# 6 0.000000 0.000000 0.000000 0.000000 0.000000 0.211122
#
#
# Mechanical properties :
#
#
# Convention : Reuss Voigt Hill
#
# Bulk Modulus (GPa) = 22.27495 79.50600 50.89047
# Shear Modulus (GPa) = 15.40422 15.31803 15.36112
#
# Velocity S-wave (km/s) = 2.73240 2.72474 2.72857
# Velocity P-wave (km/s) = 4.55530 6.95941 5.88150
#
# Compressibility (1/GPa) = 0.04489349
#
# Stress axis : x y z
#
# Youngs Moduli (GPa) = 25.00254 73.96631 97.59460
#
# Poissons Ratio (x) = 0.24769 -0.26952
# Poissons Ratio (y) = 0.08372 0.86345
# Poissons Ratio (z) = -0.06905 0.65440
#
# Static dielectric constant tensor:
#      x y z
#    x 1.767650 0.000000 0.000000 
#    y 0.000000 1.739540 0.000000 
#    z 0.000000 0.000000 1.706010 
# 
# From -- ./inp_files/33869.got.cif
#   From: 2010.05.17/outbox.cif.g08.bks.cpg/sg51_17_cif.got.tgz:33869.got - 2010.06.03 11:52:47.
