data_PCOD9401160
_publ_section_title
;
Structure prediction by ZEFSAII (Michael W. Deem and Ramdas Pophale) SiO2 
 PCOD9401160
Probable space group: P M M A
;
_chemical_formula_sum "Si O2"
_cell_formula_units_Z 40
_cell_length_a 8.235556
_cell_length_b 27.392870
_cell_length_c 9.211145
_cell_angle_alpha 90.000000
_cell_angle_beta 90.000000
_cell_angle_gamma 90.000000
_cell_volume 2077.992999
_symmetry_space_group_name_H-M "P M M A"
_symmetry_group_IT_number 51
_symmetry_cell_setting 'orthorhombic'
loop_
_space_group_symop_operation_xyz
x,y,z
1/2-x,-y,z
1/2+x,-y,-z
-x,y,-z
-x,-y,-z
1/2+x,y,-z
1/2-x,y,z
x,-y,z
loop_
_atom_site_type_symbol
_atom_site_label
_atom_site_fract_x
_atom_site_fract_y
_atom_site_fract_z
Si Si1 0.946162 0.395108 0.331500
Si Si2 0.053479 0.500000 0.669166
Si Si3 0.553581 0.096986 0.666078
Si Si4 0.053839 0.000000 0.166118
Si Si5 0.944526 0.288727 0.332698
Si Si6 0.056340 0.193042 0.165289
O O1 0.750000 0.395245 0.325911
O O2 0.002726 0.447506 0.268645
O O3 0.001802 0.342156 0.275229
O O4 0.000000 0.395227 0.500000
O O5 0.250000 0.500000 0.673362
O O6 0.000000 0.500000 0.500000
O O7 0.500000 0.095606 0.500000
O O8 0.750000 0.097177 0.669814
O O9 0.494163 0.146291 0.744407
O O10 0.497089 0.048794 0.751585
O O11 0.250000 0.000000 0.169754
O O12 0.000000 0.000000 0.000000
O O13 0.750000 0.288655 0.331537
O O14 0.000000 0.283600 0.500000
O O15 0.004167 0.243414 0.239578
O O16 0.250000 0.191006 0.167638
O O17 0.000000 0.190462 0.000000
#
# Coordination Sequence:
#
# PCOD9401160 Si02
#       6
#     8   4   8   4   8   8
#     4   8  14  23  38  61  91 125 161 200 246 296
#     4   8  12  20  34  56  87 122 157 196 242 294
#     4  10  22  38  58  83 110 139 175 214 256 304
#     4  10  21  38  58  84 114 144 177 214 254 300
#     4  10  19  32  50  74 103 136 172 212 256 306
#     4  11  23  38  55  77 103 135 173 215 262 313
#
# _framework density 19.249343
#
# number of rings (size 3 to 8) (size 9 to 14) (size 15 to 20)
#    0.000    2.400    0.000    2.700    0.000    4.800 
#    0.000    0.000    0.000    0.000    0.000    0.700 
#    0.000    0.000    0.000    0.000    0.000    0.000 
#
# Total GULP energy -222992.694519 kJ/mol
# GULP energy per Si atom -5574.817363 kJ/mol
# Density = 1.920553 g / cm^3
# Si number density = 19.249343 Si / 1000 Ang^3
#
#
#
# Elastic Constant Matrix: (Units=GPa)
#
#
# Indices 1 2 3 4 5 6 
#
# 1 19.6000 24.6863 9.7646 0.0000 0.0000 0.0000
# 2 24.6863 256.8093 100.3967 0.0000 0.0000 0.0000
# 3 9.7646 100.3967 111.4519 0.0000 0.0000 0.0000
# 4 0.0000 0.0000 0.0000 -7.3955 0.0000 0.0000
# 5 0.0000 0.0000 0.0000 0.0000 27.7860 0.0000
# 6 0.0000 0.0000 0.0000 0.0000 0.0000 20.0381
#
#
#
# Elastic Compliance Matrix: (Units=1/GPa)
#
#
# Indices 1 2 3 4 5 6 
#
# 1 0.058049 -0.005544 -0.000091 0.000000 0.000000 0.000000
# 2 -0.005544 0.006540 -0.005406 0.000000 0.000000 0.000000
# 3 -0.000091 -0.005406 0.013850 0.000000 0.000000 0.000000
# 4 0.000000 0.000000 0.000000 -0.135217 0.000000 0.000000
# 5 0.000000 0.000000 0.000000 0.000000 0.035989 0.000000
# 6 0.000000 0.000000 0.000000 0.000000 0.000000 0.049905
#
#
# Mechanical properties :
#
#
# Convention : Reuss Voigt Hill
#
# Bulk Modulus (GPa) = 17.74423 73.06184 45.40303
# Shear Modulus (GPa) = 71.44412 24.95330 48.19871
#
# Velocity S-wave (km/s) = 6.09883 3.60435 5.00934
# Velocity P-wave (km/s) = 7.67022 7.44041 7.55619
#
# Compressibility (1/GPa) = 0.05635634
#
# Stress axis : x y z
#
# Youngs Moduli (GPa) = 17.22677 152.90049 72.20216
#
# Poissons Ratio (x) = 0.84773 0.00661
# Poissons Ratio (y) = 0.09551 0.39030
# Poissons Ratio (z) = 0.00158 0.82654
#
# Static dielectric constant tensor:
#      x y z
#    x 1.684260 0.000000 0.000000 
#    y 0.000000 1.746550 0.000000 
#    z 0.000000 0.000000 1.603410 
# 
# From -- ./inp_files/5587.got.cif
#   From: 2010.05.17/outbox.cif.g08.bks.cpg/sg51_3_cif.got.tgz:5587.got - 2010.06.03 11:52:47.
