data_PCOD9401885
_publ_section_title
;
Structure prediction by ZEFSAII (Michael W. Deem and Ramdas Pophale) SiO2 
 PCOD9401885
Probable space group: P M M A
;
_chemical_formula_sum "Si O2"
_cell_formula_units_Z 52
_cell_length_a 21.941684
_cell_length_b 25.173780
_cell_length_c 5.218625
_cell_angle_alpha 90.000000
_cell_angle_beta 90.000000
_cell_angle_gamma 90.000000
_cell_volume 2882.534269
_symmetry_space_group_name_H-M "P M M A"
_symmetry_group_IT_number 51
_symmetry_cell_setting 'orthorhombic'
loop_
_space_group_symop_operation_xyz
x,y,z
1/2-x,-y,z
1/2+x,-y,-z
-x,y,-z
-x,-y,-z
1/2+x,y,-z
1/2-x,y,z
x,-y,z
loop_
_atom_site_type_symbol
_atom_site_label
_atom_site_fract_x
_atom_site_fract_y
_atom_site_fract_z
Si Si1 0.177075 0.940181 0.565713
Si Si2 0.682055 0.438086 0.910666
Si Si3 0.926881 0.218740 0.012381
Si Si4 0.428806 0.287856 0.489092
Si Si5 0.123749 0.597886 0.608316
Si Si6 0.540340 0.500000 0.250612
Si Si7 0.824145 0.128735 0.929095
O O1 0.250000 0.944999 0.541590
O O2 0.166394 0.912004 0.836314
O O3 0.151432 0.000000 0.550912
O O4 0.159692 0.901782 0.333073
O O5 0.750000 0.430967 0.808694
O O6 0.674383 0.500000 0.979656
O O7 0.639670 0.424324 0.672099
O O8 0.674240 0.404594 0.168954
O O9 0.917179 0.244081 0.292102
O O10 0.873942 0.175252 0.966361
O O11 0.917523 0.263069 0.790658
O O12 0.000000 0.202440 0.000000
O O13 0.500000 0.301153 0.500000
O O14 0.395375 0.341961 0.560400
O O15 0.076717 0.555542 0.730440
O O16 0.500000 0.500000 0.500000
O O17 0.500000 0.500000 0.000000
O O18 0.750000 0.142901 0.926050
#
# Coordination Sequence:
#
# PCOD9401885 Si02
#       7
#     8   8   8   8   8   4   8
#     4   9  17  30  52  84 119 152 187 226 280 343
#     4  11  22  39  59  80 108 145 182 213 262 343
#     4  10  21  39  59  80 107 153 199 233 281 343
#     4  10  22  39  59  79 107 145 185 230 282 344
#     4  12  22  40  59  84 110 141 178 229 283 336
#     4  12  24  36  55  86 113 134 166 218 286 344
#     4  10  19  33  56  84 113 148 189 240 284 319
#
# _framework density 18.039683
#
# number of rings (size 3 to 8) (size 9 to 14) (size 15 to 20)
#    0.000    1.538    1.538    4.154    0.000    4.923 
#    0.000    4.615    0.000    2.769    0.000    0.000 
#    0.000    0.000    0.000    0.000    0.000    0.000 
#
# Total GULP energy -289748.965726 kJ/mol
# GULP energy per Si atom -5572.095495 kJ/mol
# Density = 1.799862 g / cm^3
# Si number density = 18.039683 Si / 1000 Ang^3
#
#
#
# Elastic Constant Matrix: (Units=GPa)
#
#
# Indices 1 2 3 4 5 6 
#
# 1 55.0090 38.9733 4.1448 0.0000 0.0000 0.0000
# 2 38.9733 66.9952 -5.8349 0.0000 0.0000 0.0000
# 3 4.1448 -5.8349 73.2949 0.0000 0.0000 0.0000
# 4 0.0000 0.0000 0.0000 1.7414 0.0000 0.0000
# 5 0.0000 0.0000 0.0000 0.0000 9.1832 0.0000
# 6 0.0000 0.0000 0.0000 0.0000 0.0000 20.7868
#
#
#
# Elastic Compliance Matrix: (Units=1/GPa)
#
#
# Indices 1 2 3 4 5 6 
#
# 1 0.031690 -0.018721 -0.003282 0.000000 0.000000 0.000000
# 2 -0.018721 0.026090 0.003136 0.000000 0.000000 0.000000
# 3 -0.003282 0.003136 0.014079 0.000000 0.000000 0.000000
# 4 0.000000 0.000000 0.000000 0.574243 0.000000 0.000000
# 5 0.000000 0.000000 0.000000 0.000000 0.108895 0.000000
# 6 0.000000 0.000000 0.000000 0.000000 0.000000 0.048107
#
#
# Mechanical properties :
#
#
# Convention : Reuss Voigt Hill
#
# Bulk Modulus (GPa) = 29.30539 29.98504 29.64521
# Shear Modulus (GPa) = 5.86708 16.87669 11.37188
#
# Velocity S-wave (km/s) = 1.80537 3.06196 2.51346
# Velocity P-wave (km/s) = 4.54159 5.39987 4.98922
#
# Compressibility (1/GPa) = 0.03412342
#
# Stress axis : x y z
#
# Youngs Moduli (GPa) = 31.55610 38.32886 71.02904
#
# Poissons Ratio (x) = 0.71754 0.23314
# Poissons Ratio (y) = 0.59075 -0.22272
# Poissons Ratio (z) = 0.10358 -0.12019
#
# Static dielectric constant tensor:
#      x y z
#    x 1.661320 0.000000 0.000000 
#    y 0.000000 1.622460 0.000000 
#    z 0.000000 0.000000 1.632470 
# 
# From -- ./inp_files/2581.got.cif
#   From: 2010.05.17/outbox.cif.g08.bks.cpg/sg51_2_cif.got.tgz:2581.got - 2010.06.03 11:52:47.
