data_PCOD9401456
_publ_section_title
;
Structure prediction by ZEFSAII (Michael W. Deem and Ramdas Pophale) SiO2 
 PCOD9401456
Probable space group: P M M A
;
_chemical_formula_sum "Si O2"
_cell_formula_units_Z 40
_cell_length_a 25.660907
_cell_length_b 9.858040
_cell_length_c 7.797157
_cell_angle_alpha 90.000000
_cell_angle_beta 90.000000
_cell_angle_gamma 90.000000
_cell_volume 1972.417549
_symmetry_space_group_name_H-M "P M M A"
_symmetry_group_IT_number 51
_symmetry_cell_setting 'orthorhombic'
loop_
_space_group_symop_operation_xyz
x,y,z
1/2-x,-y,z
1/2+x,-y,-z
-x,y,-z
-x,-y,-z
1/2+x,y,-z
1/2-x,y,z
x,-y,z
loop_
_atom_site_type_symbol
_atom_site_label
_atom_site_fract_x
_atom_site_fract_y
_atom_site_fract_z
Si Si1 0.048023 0.140758 0.128822
Si Si2 0.016167 0.354655 0.694752
Si Si3 0.337111 0.155881 0.985824
Si Si4 0.689628 0.840847 0.622060
Si Si5 0.137809 0.334677 0.672246
O O1 0.031226 0.267406 0.235820
O O2 0.050289 0.000000 0.232383
O O3 0.101449 0.153081 0.029302
O O4 0.000000 0.131653 0.000000
O O5 0.016898 0.500000 0.784942
O O6 0.075932 0.304690 0.699279
O O7 0.000000 0.369279 0.500000
O O8 0.331422 0.262170 0.830492
O O9 0.321351 0.000000 0.939484
O O10 0.313539 0.189600 0.173291
O O11 0.750000 0.830818 0.570008
O O12 0.656684 0.739652 0.502265
O O13 0.673335 0.000000 0.602290
O O14 0.143932 0.500000 0.666843
#
# Coordination Sequence:
#
# PCOD9401456 Si02
#       5
#     8   8   8   8   8
#     4  10  19  32  53  82 114 150 191 235 284 336
#     4  10  21  35  52  79 117 158 196 233 280 344
#     4  10  21  39  62  88 121 158 202 251 298 356
#     4  10  23  43  65  87 112 149 198 251 304 356
#     4  11  23  38  60  90 122 157 196 242 298 356
#
# _framework density 20.279681
#
# number of rings (size 3 to 8) (size 9 to 14) (size 15 to 20)
#    0.000    1.800    2.000    1.800    0.000    4.400 
#    0.000    2.000    0.000    0.000    0.000    0.000 
#    0.000    0.000    0.000    0.000    0.000    0.000 
#
# Total GULP energy -222742.071242 kJ/mol
# GULP energy per Si atom -5568.551781 kJ/mol
# Density = 2.023352 g / cm^3
# Si number density = 20.279681 Si / 1000 Ang^3
#
#
#
# Elastic Constant Matrix: (Units=GPa)
#
#
# Indices 1 2 3 4 5 6 
#
# 1 53.6964 20.2429 0.9535 0.0000 0.0000 0.0000
# 2 20.2429 87.9729 54.0034 0.0000 0.0000 0.0000
# 3 0.9535 54.0034 80.2883 0.0000 0.0000 0.0000
# 4 0.0000 0.0000 0.0000 31.5346 0.0000 0.0000
# 5 0.0000 0.0000 0.0000 0.0000 23.8679 0.0000
# 6 0.0000 0.0000 0.0000 0.0000 0.0000 76.3914
#
#
#
# Elastic Compliance Matrix: (Units=1/GPa)
#
#
# Indices 1 2 3 4 5 6 
#
# 1 0.021623 -0.008206 0.005263 0.000000 0.000000 0.000000
# 2 -0.008206 0.022476 -0.015020 0.000000 0.000000 0.000000
# 3 0.005263 -0.015020 0.022495 0.000000 0.000000 0.000000
# 4 0.000000 0.000000 0.000000 0.031711 0.000000 0.000000
# 5 0.000000 0.000000 0.000000 0.000000 0.041897 0.000000
# 6 0.000000 0.000000 0.000000 0.000000 0.000000 0.013090
#
#
# Mechanical properties :
#
#
# Convention : Reuss Voigt Hill
#
# Bulk Modulus (GPa) = 32.60779 41.37304 36.99042
# Shear Modulus (GPa) = 25.06976 36.14264 30.60620
#
# Velocity S-wave (km/s) = 3.51978 4.22620 3.88906
# Velocity P-wave (km/s) = 5.71248 6.65281 6.20050
#
# Compressibility (1/GPa) = 0.03066752
#
# Stress axis : x y z
#
# Youngs Moduli (GPa) = 46.24601 44.49225 44.45342
#
# Poissons Ratio (x) = 0.36512 -0.23396
# Poissons Ratio (y) = 0.37951 0.66770
# Poissons Ratio (z) = -0.24339 0.66828
#
# Static dielectric constant tensor:
#      x y z
#    x 1.718690 0.000000 0.000000 
#    y 0.000000 2.123970 0.000000 
#    z 0.000000 0.000000 1.693100 
# 
# From -- ./inp_files/12096.got.cif
#   From: 2010.05.17/outbox.cif.g08.bks.cpg/sg51_7_cif.got.tgz:12096.got - 2010.06.03 11:52:47.
