data_PCOD9401294
_publ_section_title
;
Structure prediction by ZEFSAII (Michael W. Deem and Ramdas Pophale) SiO2 
 PCOD9401294
Probable space group: P M M A
;
_chemical_formula_sum "Si O2"
_cell_formula_units_Z 48
_cell_length_a 26.673600
_cell_length_b 8.197298
_cell_length_c 12.292984
_cell_angle_alpha 90.000000
_cell_angle_beta 90.000000
_cell_angle_gamma 90.000000
_cell_volume 2687.878751
_symmetry_space_group_name_H-M "P M M A"
_symmetry_group_IT_number 51
_symmetry_cell_setting 'orthorhombic'
loop_
_space_group_symop_operation_xyz
x,y,z
1/2-x,-y,z
1/2+x,-y,-z
-x,y,-z
-x,-y,-z
1/2+x,y,-z
1/2-x,y,z
x,-y,z
loop_
_atom_site_type_symbol
_atom_site_label
_atom_site_fract_x
_atom_site_fract_y
_atom_site_fract_z
Si Si1 0.606933 0.307766 0.824173
Si Si2 0.387459 0.302107 0.511231
Si Si3 0.029091 0.812742 0.346971
Si Si4 0.306754 0.698243 0.334095
Si Si5 0.443629 0.191989 0.970853
Si Si6 0.573311 0.311755 0.268993
O O1 0.599855 0.500000 0.800032
O O2 0.564868 0.210130 0.757506
O O3 0.660302 0.259534 0.772405
O O4 0.596395 0.276229 0.949903
O O5 0.389738 0.500000 0.509535
O O6 0.436323 0.236916 0.448035
O O7 0.339721 0.251021 0.438873
O O8 0.389101 0.250262 0.637028
O O9 0.981008 0.702480 0.326091
O O10 0.012896 0.000000 0.356454
O O11 0.250000 0.759970 0.333252
O O12 0.304524 0.500000 0.337345
O O13 0.431137 0.220174 0.844906
O O14 0.443123 0.000000 0.994232
O O15 0.500000 0.253745 0.000000
O O16 0.584547 0.500000 0.244867
#
# Coordination Sequence:
#
# PCOD9401294 Si02
#       6
#     8   8   8   8   8   8
#     4  10  19  32  52  76 101 132 169 209 252 294
#     4   9  19  33  49  73 100 129 166 205 248 297
#     4  11  20  30  46  70 101 136 169 203 245 292
#     4   8  15  31  56  81 101 122 156 208 261 301
#     4  11  22  34  49  71 101 138 176 209 247 297
#     4  11  21  32  48  69  99 137 174 206 243 295
#
# _framework density 17.857948
#
# number of rings (size 3 to 8) (size 9 to 14) (size 15 to 20)
#    0.000    2.000    1.667    4.500    0.000    4.000 
#    0.000    0.000    0.000   13.500    0.000    4.667 
#    0.000    0.000    0.000    0.000    0.000    0.000 
#
# Total GULP energy -267785.937653 kJ/mol
# GULP energy per Si atom -5578.873701 kJ/mol
# Density = 1.781730 g / cm^3
# Si number density = 17.857948 Si / 1000 Ang^3
#
#
#
# Elastic Constant Matrix: (Units=GPa)
#
#
# Indices 1 2 3 4 5 6 
#
# 1 91.0518 1.4026 50.6381 0.0000 0.0000 0.0000
# 2 1.4026 27.5158 7.7239 0.0000 0.0000 0.0000
# 3 50.6381 7.7239 126.9159 0.0000 0.0000 0.0000
# 4 0.0000 0.0000 0.0000 17.6986 0.0000 0.0000
# 5 0.0000 0.0000 0.0000 0.0000 9.0917 0.0000
# 6 0.0000 0.0000 0.0000 0.0000 0.0000 -0.5773
#
#
#
# Elastic Compliance Matrix: (Units=1/GPa)
#
#
# Indices 1 2 3 4 5 6 
#
# 1 0.014136 0.000878 -0.005693 0.000000 0.000000 0.000000
# 2 0.000878 0.037029 -0.002604 0.000000 0.000000 0.000000
# 3 -0.005693 -0.002604 0.010309 0.000000 0.000000 0.000000
# 4 0.000000 0.000000 0.000000 0.056502 0.000000 0.000000
# 5 0.000000 0.000000 0.000000 0.000000 0.109990 0.000000
# 6 0.000000 0.000000 0.000000 0.000000 0.000000 -1.732084
#
#
# Mechanical properties :
#
#
# Convention : Reuss Voigt Hill
#
# Bulk Modulus (GPa) = 21.44316 40.55697 31.00006
# Shear Modulus (GPa) = -3.39274 17.62386 7.11556
#
# Velocity S-wave (km/s) = -1.37985 3.14489 1.99829
# Velocity P-wave (km/s) = 3.08141 5.99561 4.76667
#
# Compressibility (1/GPa) = 0.04663491
#
# Stress axis : x y z
#
# Youngs Moduli (GPa) = 70.74351 27.00592 97.00002
#
# Poissons Ratio (x) = -0.02370 0.55226
# Poissons Ratio (y) = -0.06208 0.25255
# Poissons Ratio (z) = 0.40277 0.07031
#
# Static dielectric constant tensor:
#      x y z
#    x 1.598740 0.000000 0.000000 
#    y 0.000000 1.609670 0.000000 
#    z 0.000000 0.000000 1.643360 
# 
# From -- ./inp_files/18583.got.cif
#   From: 2010.05.17/outbox.cif.g08.bks.cpg/sg51_10_cif.got.tgz:18583.got - 2010.06.03 11:52:47.
