data_PCOD9401728
_publ_section_title
;
Structure prediction by ZEFSAII (Michael W. Deem and Ramdas Pophale) SiO2 
 PCOD9401728
Probable space group: P M M A
;
_chemical_formula_sum "Si O2"
_cell_formula_units_Z 64
_cell_length_a 19.678422
_cell_length_b 19.879180
_cell_length_c 10.081360
_cell_angle_alpha 90.000000
_cell_angle_beta 90.000000
_cell_angle_gamma 90.000000
_cell_volume 3943.736222
_symmetry_space_group_name_H-M "P M M A"
_symmetry_group_IT_number 51
_symmetry_cell_setting 'orthorhombic'
loop_
_space_group_symop_operation_xyz
x,y,z
1/2-x,-y,z
1/2+x,-y,-z
-x,y,-z
-x,-y,-z
1/2+x,y,-z
1/2-x,y,z
x,-y,z
loop_
_atom_site_type_symbol
_atom_site_label
_atom_site_fract_x
_atom_site_fract_y
_atom_site_fract_z
Si Si1 0.669789 0.080334 0.855348
Si Si2 0.592379 0.671617 0.378215
Si Si3 0.913815 0.170986 0.360918
Si Si4 0.928209 0.420490 0.928743
Si Si5 0.425987 0.170134 0.328222
Si Si6 0.568690 0.328305 0.676826
Si Si7 0.670383 0.421214 0.174316
Si Si8 0.331082 0.922513 0.834489
O O1 0.750000 0.095297 0.830680
O O2 0.619442 0.123654 0.765290
O O3 0.660863 0.000000 0.833965
O O4 0.655492 0.093840 0.010981
O O5 0.605385 0.750353 0.350841
O O6 0.512405 0.663682 0.345627
O O7 0.601766 0.655819 0.534049
O O8 0.636927 0.624667 0.286058
O O9 0.908283 0.155838 0.517726
O O10 0.867997 0.125864 0.267361
O O11 0.992567 0.160680 0.319176
O O12 0.932004 0.500000 0.894427
O O13 0.914353 0.375781 0.799722
O O14 0.869819 0.410388 0.037520
O O15 0.000000 0.402653 0.000000
O O16 0.415475 0.249551 0.298430
O O17 0.750000 0.407345 0.159569
O O18 0.661714 0.500000 0.208925
O O19 0.250000 0.918771 0.816808
O O20 0.351989 0.000000 0.812374
#
# Coordination Sequence:
#
# PCOD9401728 Si02
#       8
#     8   8   8   8   8   8   8   8
#     4   9  19  36  54  73 102 137 173 215 259 307
#     4   9  18  34  54  75 102 137 171 211 260 309
#     4   9  19  34  52  74 104 135 166 210 257 303
#     4  10  19  33  54  80 105 135 177 219 259 307
#     4   9  19  35  51  75 106 135 168 209 258 307
#     4   9  18  34  54  77 105 132 172 221 257 300
#     4  10  21  36  52  75 109 141 171 214 266 315
#     4   9  19  35  52  72  99 130 168 213 256 303
#
# _framework density 16.228266000000001
#
# number of rings (size 3 to 8) (size 9 to 14) (size 15 to 20)
#    0.000    2.750    1.250    2.250    0.000    4.000 
#    0.000    9.375    0.000    1.500    0.000    0.000 
#    0.000    0.000    0.000    0.000    0.000    0.000 
#
# Total GULP energy -356687.539097 kJ/mol
# GULP energy per Si atom -5573.242798 kJ/mol
# Density = 1.619133 g / cm^3
# Si number density = 16.228266 Si / 1000 Ang^3
#
#
#
# Elastic Constant Matrix: (Units=GPa)
#
#
# Indices 1 2 3 4 5 6 
#
# 1 76.0166 70.6456 76.7209 0.0000 0.0000 0.0000
# 2 70.6456 91.8458 105.5670 0.0000 0.0000 0.0000
# 3 76.7209 105.5670 136.7083 0.0000 0.0000 0.0000
# 4 0.0000 0.0000 0.0000 38.4410 0.0000 0.0000
# 5 0.0000 0.0000 0.0000 0.0000 30.8585 0.0000
# 6 0.0000 0.0000 0.0000 0.0000 0.0000 28.5324
#
#
#
# Elastic Compliance Matrix: (Units=1/GPa)
#
#
# Indices 1 2 3 4 5 6 
#
# 1 0.049085 -0.054195 0.014303 0.000000 0.000000 0.000000
# 2 -0.054195 0.156677 -0.090572 0.000000 0.000000 0.000000
# 3 0.014303 -0.090572 0.069229 0.000000 0.000000 0.000000
# 4 0.000000 0.000000 0.000000 0.026014 0.000000 0.000000
# 5 0.000000 0.000000 0.000000 0.000000 0.032406 0.000000
# 6 0.000000 0.000000 0.000000 0.000000 0.000000 0.035048
#
#
# Mechanical properties :
#
#
# Convention : Reuss Voigt Hill
#
# Bulk Modulus (GPa) = 71.11511 90.04864 80.58188
# Shear Modulus (GPa) = 7.88550 23.00886 15.44718
#
# Velocity S-wave (km/s) = 2.20673 3.76949 3.08858
# Velocity P-wave (km/s) = 7.09998 8.63450 7.90457
#
# Compressibility (1/GPa) = 0.01406171
#
# Stress axis : x y z
#
# Youngs Moduli (GPa) = 20.37262 6.38256 14.44491
#
# Poissons Ratio (x) = 0.34590 -0.20661
# Poissons Ratio (y) = 1.10410 1.30831
# Poissons Ratio (z) = -0.29139 0.57808
#
# Static dielectric constant tensor:
#      x y z
#    x 1.528290 0.000000 0.000000 
#    y 0.000000 1.533350 0.000000 
#    z 0.000000 0.000000 1.527830 
# 
# From -- ./inp_files/11188.got.cif
#   From: 2010.05.17/outbox.cif.g08.bks.cpg/sg51_6_cif.got.tgz:11188.got - 2010.06.03 11:52:47.
