data_PCOD9401933
_publ_section_title
;
Structure prediction by ZEFSAII (Michael W. Deem and Ramdas Pophale) SiO2 
 PCOD9401933
Probable space group: P M M A
;
_chemical_formula_sum "Si O2"
_cell_formula_units_Z 64
_cell_length_a 22.790321
_cell_length_b 16.199738
_cell_length_c 9.450696
_cell_angle_alpha 90.000000
_cell_angle_beta 90.000000
_cell_angle_gamma 90.000000
_cell_volume 3489.170777
_symmetry_space_group_name_H-M "P M M A"
_symmetry_group_IT_number 51
_symmetry_cell_setting 'orthorhombic'
loop_
_space_group_symop_operation_xyz
x,y,z
1/2-x,-y,z
1/2+x,-y,-z
-x,y,-z
-x,-y,-z
1/2+x,y,-z
1/2-x,y,z
x,-y,z
loop_
_atom_site_type_symbol
_atom_site_label
_atom_site_fract_x
_atom_site_fract_y
_atom_site_fract_z
Si Si1 0.970547 0.747901 0.855221
Si Si2 0.181965 0.742349 0.734835
Si Si3 0.557467 0.662162 0.579321
Si Si4 0.604944 0.163792 0.487657
Si Si5 0.681273 0.402257 0.468046
Si Si6 0.045091 0.090694 0.769409
Si Si7 0.685269 0.901944 0.734930
Si Si8 0.868114 0.837072 0.008688
O O1 0.960748 0.677353 0.741007
O O2 0.007303 0.826606 0.796060
O O3 0.910640 0.788736 0.903789
O O4 0.000000 0.717625 0.000000
O O5 0.250000 0.756819 0.743686
O O6 0.154983 0.802128 0.616847
O O7 0.172080 0.650350 0.675604
O O8 0.155851 0.768568 0.883897
O O9 0.500000 0.625173 0.500000
O O10 0.566560 0.755378 0.520204
O O11 0.622413 0.621458 0.558899
O O12 0.569874 0.099652 0.389780
O O13 0.635259 0.131833 0.629708
O O14 0.750000 0.381645 0.516125
O O15 0.680363 0.500000 0.447190
O O16 0.095712 0.100661 0.889423
O O17 0.016851 0.000000 0.787066
O O18 0.750000 0.870239 0.692117
O O19 0.684510 0.000000 0.719630
O O20 0.675405 0.880831 0.900056
#
# Coordination Sequence:
#
# PCOD9401933 Si02
#       8
#     8   8   8   8   8   8   8   8
#     4  10  21  35  52  77 111 152 191 246 292 343
#     4   9  18  34  58  82 106 144 191 232 278 347
#     4  11  20  37  61  89 119 151 196 241 288 349
#     4  10  19  34  52  77 109 146 193 249 296 344
#     4   9  20  39  66  98 126 150 184 235 292 352
#     4  10  20  34  52  73 103 149 198 249 307 350
#     4  11  22  33  47  73 111 153 201 254 301 347
#     4  10  20  34  51  74 106 148 193 241 288 350
#
# _framework density 18.342466000000002
#
# number of rings (size 3 to 8) (size 9 to 14) (size 15 to 20)
#    0.000    2.000    2.500    1.500    1.750    3.500 
#    0.000    0.625    0.000    7.125    0.000    1.750 
#    0.000    0.000    0.000    0.000    0.000    0.000 
#
# Total GULP energy -356306.795632 kJ/mol
# GULP energy per Si atom -5567.293682 kJ/mol
# Density = 1.830072 g / cm^3
# Si number density = 18.342466 Si / 1000 Ang^3
#
#
#
# Elastic Constant Matrix: (Units=GPa)
#
#
# Indices 1 2 3 4 5 6 
#
# 1 93.0534 24.7744 41.1783 0.0000 0.0000 0.0000
# 2 24.7744 50.8609 24.0888 0.0000 0.0000 0.0000
# 3 41.1783 24.0888 111.6357 0.0000 0.0000 0.0000
# 4 0.0000 0.0000 0.0000 7.9609 0.0000 0.0000
# 5 0.0000 0.0000 0.0000 0.0000 59.4909 0.0000
# 6 0.0000 0.0000 0.0000 0.0000 0.0000 12.3176
#
#
#
# Elastic Compliance Matrix: (Units=1/GPa)
#
#
# Indices 1 2 3 4 5 6 
#
# 1 0.013824 -0.004810 -0.004061 0.000000 0.000000 0.000000
# 2 -0.004810 0.023573 -0.003312 0.000000 0.000000 0.000000
# 3 -0.004061 -0.003312 0.011171 0.000000 0.000000 0.000000
# 4 0.000000 0.000000 0.000000 0.125614 0.000000 0.000000
# 5 0.000000 0.000000 0.000000 0.000000 0.016809 0.000000
# 6 0.000000 0.000000 0.000000 0.000000 0.000000 0.081185
#
#
# Mechanical properties :
#
#
# Convention : Reuss Voigt Hill
#
# Bulk Modulus (GPa) = 41.32176 48.40366 44.86271
# Shear Modulus (GPa) = 16.41439 26.98779 21.70109
#
# Velocity S-wave (km/s) = 2.99471 3.83995 3.44336
# Velocity P-wave (km/s) = 5.87661 6.79017 6.34984
#
# Compressibility (1/GPa) = 0.02420032
#
# Stress axis : x y z
#
# Youngs Moduli (GPa) = 72.33559 42.42069 89.52127
#
# Poissons Ratio (x) = 0.20406 0.36358
# Poissons Ratio (y) = 0.34796 0.29652
# Poissons Ratio (z) = 0.29378 0.14051
#
# Static dielectric constant tensor:
#      x y z
#    x 1.724000 0.000000 0.000000 
#    y 0.000000 1.646660 0.000000 
#    z 0.000000 0.000000 1.713070 
# 
# From -- ./inp_files/11969.got.cif
#   From: 2010.05.17/outbox.cif.g08.bks.cpg/sg51_6_cif.got.tgz:11969.got - 2010.06.03 11:52:47.
