data_PCOD9401430
_publ_section_title
;
Structure prediction by ZEFSAII (Michael W. Deem and Ramdas Pophale) SiO2 
 PCOD9401430
Probable space group: P M M A
;
_chemical_formula_sum "Si O2"
_cell_formula_units_Z 48
_cell_length_a 8.656636
_cell_length_b 21.068175
_cell_length_c 14.790437
_cell_angle_alpha 90.000000
_cell_angle_beta 90.000000
_cell_angle_gamma 90.000000
_cell_volume 2697.472833
_symmetry_space_group_name_H-M "P M M A"
_symmetry_group_IT_number 51
_symmetry_cell_setting 'orthorhombic'
loop_
_space_group_symop_operation_xyz
x,y,z
1/2-x,-y,z
1/2+x,-y,-z
-x,y,-z
-x,-y,-z
1/2+x,y,-z
1/2-x,y,z
x,-y,z
loop_
_atom_site_type_symbol
_atom_site_label
_atom_site_fract_x
_atom_site_fract_y
_atom_site_fract_z
Si Si1 0.065555 0.071181 0.715356
Si Si2 0.563630 0.306939 0.287769
Si Si3 0.565421 0.886730 0.903907
Si Si4 0.563457 0.427957 0.400246
Si Si5 0.065939 0.187803 0.398922
Si Si6 0.435480 0.743691 0.905802
O O1 0.250000 0.080360 0.717519
O O2 0.001291 0.078027 0.816896
O O3 0.991793 0.125481 0.653860
O O4 0.032436 0.000000 0.681782
O O5 0.750000 0.302569 0.295281
O O6 0.514098 0.373961 0.330069
O O7 0.492875 0.249326 0.344719
O O8 0.525072 0.296925 0.182594
O O9 0.750000 0.889419 0.904675
O O10 0.509599 0.813548 0.894946
O O11 0.500000 0.910232 0.000000
O O12 0.500000 0.413038 0.500000
O O13 0.750000 0.427306 0.404088
O O14 0.514599 0.500000 0.377183
O O15 0.250000 0.188137 0.401781
O O16 0.000000 0.188727 0.500000
O O17 0.250000 0.750844 0.911242
O O18 0.500000 0.717214 0.000000
#
# Coordination Sequence:
#
# PCOD9401430 Si02
#       6
#     8   8   8   8   8   8
#     4  11  24  42  61  81 109 144 183 230 281 334
#     4  10  20  35  57  83 113 147 184 230 277 326
#     4  11  21  35  57  83 112 145 182 226 278 333
#     4   9  18  33  53  80 113 149 187 226 274 329
#     4  12  25  40  60  83 110 143 183 230 278 332
#     4  10  19  32  53  79 111 144 182 228 276 327
#
# _framework density 17.794433000000001
#
# number of rings (size 3 to 8) (size 9 to 14) (size 15 to 20)
#    0.000    1.500    1.667    5.500    0.000    4.667 
#    0.000    0.000    0.000    0.500    0.000    0.000 
#    0.000    0.000    0.000    0.000    0.000    0.667 
#
# Total GULP energy -268200.826174 kJ/mol
# GULP energy per Si atom -5587.517212 kJ/mol
# Density = 1.775393 g / cm^3
# Si number density = 17.794433 Si / 1000 Ang^3
#
#
#
# Elastic Constant Matrix: (Units=GPa)
#
#
# Indices 1 2 3 4 5 6 
#
# 1 60.0230 41.4986 44.3531 0.0000 0.0000 0.0000
# 2 41.4986 112.1299 80.6800 0.0000 0.0000 0.0000
# 3 44.3531 80.6800 145.8568 0.0000 0.0000 0.0000
# 4 0.0000 0.0000 0.0000 1.9944 0.0000 0.0000
# 5 0.0000 0.0000 0.0000 0.0000 33.2449 0.0000
# 6 0.0000 0.0000 0.0000 0.0000 0.0000 30.3506
#
#
#
# Elastic Compliance Matrix: (Units=1/GPa)
#
#
# Indices 1 2 3 4 5 6 
#
# 1 0.023656 -0.005945 -0.003905 0.000000 0.000000 0.000000
# 2 -0.005945 0.016309 -0.007213 0.000000 0.000000 0.000000
# 3 -0.003905 -0.007213 0.012033 0.000000 0.000000 0.000000
# 4 0.000000 0.000000 0.000000 0.501392 0.000000 0.000000
# 5 0.000000 0.000000 0.000000 0.000000 0.030080 0.000000
# 6 0.000000 0.000000 0.000000 0.000000 0.000000 0.032948
#
#
# Mechanical properties :
#
#
# Convention : Reuss Voigt Hill
#
# Bulk Modulus (GPa) = 55.95522 72.34145 64.14834
# Shear Modulus (GPa) = 7.61613 23.21652 15.41632
#
# Velocity S-wave (km/s) = 2.07108 3.61599 2.94659
# Velocity P-wave (km/s) = 6.10186 7.62733 6.90684
#
# Compressibility (1/GPa) = 0.01787143
#
# Stress axis : x y z
#
# Youngs Moduli (GPa) = 42.27212 61.31749 83.10240
#
# Poissons Ratio (x) = 0.36456 0.32451
# Poissons Ratio (y) = 0.25132 0.59942
# Poissons Ratio (z) = 0.16507 0.44229
#
# Static dielectric constant tensor:
#      x y z
#    x 1.596390 0.000000 0.000000 
#    y 0.000000 1.604540 0.000000 
#    z 0.000000 0.000000 1.599630 
# 
# From -- ./inp_files/21385.got.cif
#   From: 2010.05.17/outbox.cif.g08.bks.cpg/sg51_11_cif.got.tgz:21385.got - 2010.06.03 11:52:47.
