data_PCOD9401240
_publ_section_title
;
Structure prediction by ZEFSAII (Michael W. Deem and Ramdas Pophale) SiO2 
 PCOD9401240
Probable space group: P M M A
;
_chemical_formula_sum "Si O2"
_cell_formula_units_Z 58
_cell_length_a 7.428673
_cell_length_b 15.844843
_cell_length_c 25.623527
_cell_angle_alpha 90.000000
_cell_angle_beta 90.000000
_cell_angle_gamma 90.000000
_cell_volume 3016.046902
_symmetry_space_group_name_H-M "P M M A"
_symmetry_group_IT_number 51
_symmetry_cell_setting 'orthorhombic'
loop_
_space_group_symop_operation_xyz
x,y,z
1/2-x,-y,z
1/2+x,-y,-z
-x,y,-z
-x,-y,-z
1/2+x,y,-z
1/2-x,y,z
x,-y,z
loop_
_atom_site_type_symbol
_atom_site_label
_atom_site_fract_x
_atom_site_fract_y
_atom_site_fract_z
Si Si1 0.469839 0.272614 0.145978
Si Si2 0.031749 0.132637 0.308588
Si Si3 0.534809 0.405473 0.938753
Si Si4 0.967803 0.094388 0.813341
Si Si5 0.537607 0.404694 0.442093
Si Si6 0.961028 0.321664 0.666377
Si Si7 0.030475 0.592465 0.232184
Si Si8 0.750000 0.000000 0.347260
O O1 0.250000 0.269327 0.145073
O O2 0.530584 0.327473 0.096190
O O3 0.530855 0.176119 0.154102
O O4 0.522601 0.330151 0.195443
O O5 0.250000 0.123064 0.315891
O O6 0.993061 0.110549 0.247868
O O7 0.975042 0.228187 0.320900
O O8 0.909402 0.072367 0.342963
O O9 0.750000 0.408431 0.930985
O O10 0.466515 0.500000 0.924786
O O11 0.500000 0.392794 0.000000
O O12 0.750000 0.093036 0.817480
O O13 0.032190 0.000000 0.827581
O O14 0.500000 0.370456 0.500000
O O15 0.750000 0.411684 0.437721
O O16 0.459743 0.500000 0.439262
O O17 0.480118 0.350057 0.392959
O O18 0.750000 0.317473 0.677397
O O19 0.030796 0.388294 0.708851
O O20 0.250000 0.590107 0.230043
O O21 0.969257 0.500000 0.214701
#
# Coordination Sequence:
#
# PCOD9401240 Si02
#       8
#     8   8   8   8   8   8   8   2
#     4   9  15  25  43  69  96 127 168 214 257 310
#     4  10  20  34  52  79 111 141 181 225 271 331
#     4   9  17  29  47  68  91 122 165 214 259 310
#     4   9  15  27  47  69  98 130 166 212 260 309
#     4  10  21  36  54  76 106 143 186 229 263 309
#     4  10  19  32  51  76 109 140 172 217 269 323
#     4   9  15  23  41  71 104 136 168 205 256 314
#     4  12  22  32  56  78 108 148 182 228 272 330
#
# _framework density 19.23047
#
# number of rings (size 3 to 8) (size 9 to 14) (size 15 to 20)
#    0.000    2.483    2.069    1.448    0.966    3.034 
#    0.000    0.000    1.517    1.241    0.000    2.414 
#    0.000    0.000    0.000    0.000    0.000    0.000 
#
# Total GULP energy -322875.435759 kJ/mol
# GULP energy per Si atom -5566.817858 kJ/mol
# Density = 1.918670 g / cm^3
# Si number density = 19.230470 Si / 1000 Ang^3
#
#
#
# Elastic Constant Matrix: (Units=GPa)
#
#
# Indices 1 2 3 4 5 6 
#
# 1 61.6287 8.2197 -11.5185 0.0000 0.0000 0.0000
# 2 8.2197 181.1154 69.5752 0.0000 0.0000 0.0000
# 3 -11.5185 69.5752 81.6739 0.0000 0.0000 0.0000
# 4 0.0000 0.0000 0.0000 70.1692 0.0000 0.0000
# 5 0.0000 0.0000 0.0000 0.0000 7.8203 0.0000
# 6 0.0000 0.0000 0.0000 0.0000 0.0000 -27.6509
#
#
#
# Elastic Compliance Matrix: (Units=1/GPa)
#
#
# Indices 1 2 3 4 5 6 
#
# 1 0.017441 -0.002581 0.004658 0.000000 0.000000 0.000000
# 2 -0.002581 0.008589 -0.007681 0.000000 0.000000 0.000000
# 3 0.004658 -0.007681 0.019444 0.000000 0.000000 0.000000
# 4 0.000000 0.000000 0.000000 0.014251 0.000000 0.000000
# 5 0.000000 0.000000 0.000000 0.000000 0.127872 0.000000
# 6 0.000000 0.000000 0.000000 0.000000 0.000000 -0.036165
#
#
# Mechanical properties :
#
#
# Convention : Reuss Voigt Hill
#
# Bulk Modulus (GPa) = 29.18241 50.77455 39.97848
# Shear Modulus (GPa) = 28.72555 27.27717 28.00136
#
# Velocity S-wave (km/s) = 3.86910 3.77030 3.82002
# Velocity P-wave (km/s) = 5.93026 6.73899 6.34752
#
# Compressibility (1/GPa) = 0.03426721
#
# Stress axis : x y z
#
# Youngs Moduli (GPa) = 57.33571 116.42789 51.43052
#
# Poissons Ratio (x) = 0.30051 -0.23959
# Poissons Ratio (y) = 0.14799 0.39502
# Poissons Ratio (z) = -0.26710 0.89425
#
# Static dielectric constant tensor:
#      x y z
#    x 1.731100 0.000000 0.000000 
#    y 0.000000 1.684580 0.000000 
#    z 0.000000 0.000000 1.482100 
# 
# From -- ./inp_files/36378.got.cif
#   From: 2010.05.17/outbox.cif.g08.bks.cpg/sg51_19_cif.got.tgz:36378.got - 2010.06.03 11:52:47.
