data_PCOD9401532
_publ_section_title
;
Structure prediction by ZEFSAII (Michael W. Deem and Ramdas Pophale) SiO2 
 PCOD9401532
Probable space group: P M M A
;
_chemical_formula_sum "Si O2"
_cell_formula_units_Z 52
_cell_length_a 9.843962
_cell_length_b 15.334384
_cell_length_c 20.269622
_cell_angle_alpha 90.000000
_cell_angle_beta 90.000000
_cell_angle_gamma 90.000000
_cell_volume 3059.721603
_symmetry_space_group_name_H-M "P M M A"
_symmetry_group_IT_number 51
_symmetry_cell_setting 'orthorhombic'
loop_
_space_group_symop_operation_xyz
x,y,z
1/2-x,-y,z
1/2+x,-y,-z
-x,y,-z
-x,-y,-z
1/2+x,y,-z
1/2-x,y,z
x,-y,z
loop_
_atom_site_type_symbol
_atom_site_label
_atom_site_fract_x
_atom_site_fract_y
_atom_site_fract_z
Si Si1 0.410600 0.398141 0.064128
Si Si2 0.612582 0.000000 0.448133
Si Si3 0.087782 0.402539 0.710633
Si Si4 0.903070 0.167707 0.358145
Si Si5 0.088369 0.101265 0.239585
Si Si6 0.411455 0.714880 0.192942
Si Si7 0.911548 0.343458 0.434973
O O1 0.250000 0.389184 0.049261
O O2 0.434638 0.500000 0.081871
O O3 0.442815 0.335899 0.125507
O O4 0.500000 0.378289 0.000000
O O5 0.500000 0.000000 0.500000
O O6 0.607465 0.916607 0.402931
O O7 0.750000 0.000000 0.488568
O O8 0.250000 0.388833 0.719983
O O9 0.053322 0.500000 0.734622
O O10 0.063179 0.398822 0.631634
O O11 0.001197 0.330372 0.749660
O O12 0.750000 0.187852 0.331824
O O13 0.942354 0.246910 0.406111
O O14 0.006857 0.139460 0.301820
O O15 0.250000 0.099275 0.252808
O O16 0.065762 0.180556 0.187808
O O17 0.048113 0.000000 0.224994
O O18 0.250000 0.702311 0.207313
O O19 0.750000 0.348775 0.450529
O O20 0.000000 0.362887 0.500000
#
# Coordination Sequence:
#
# PCOD9401532 Si02
#       7
#     8   4   8   8   8   8   8
#     4   9  18  33  54  82 114 144 174 208 248 299
#     4  10  20  30  44  66  90 120 159 206 265 324
#     4  10  21  36  54  77 104 135 174 219 266 317
#     4  10  19  33  50  68  93 127 167 213 266 319
#     4  10  20  33  52  78 104 133 172 215 259 308
#     4  10  20  35  56  81 110 142 175 214 260 307
#     4  10  21  35  50  69  96 131 172 217 266 318
#
# _framework density 16.995009
#
# number of rings (size 3 to 8) (size 9 to 14) (size 15 to 20)
#    0.000    2.154    2.308    0.923    0.000    3.692 
#    0.000    1.538    0.000    0.462    0.000    0.000 
#    0.000    0.000    0.000    0.000    0.000    0.000 
#
# Total GULP energy -289511.433687 kJ/mol
# GULP energy per Si atom -5567.527571 kJ/mol
# Density = 1.695633 g / cm^3
# Si number density = 16.995009 Si / 1000 Ang^3
#
#
#
# Elastic Constant Matrix: (Units=GPa)
#
#
# Indices 1 2 3 4 5 6 
#
# 1 51.2050 37.8317 50.9241 0.0000 0.0000 0.0000
# 2 37.8317 114.1168 44.6203 0.0000 0.0000 0.0000
# 3 50.9241 44.6203 93.6615 0.0000 0.0000 0.0000
# 4 0.0000 0.0000 0.0000 19.0663 0.0000 0.0000
# 5 0.0000 0.0000 0.0000 0.0000 28.6567 0.0000
# 6 0.0000 0.0000 0.0000 0.0000 0.0000 18.5004
#
#
#
# Elastic Compliance Matrix: (Units=1/GPa)
#
#
# Indices 1 2 3 4 5 6 
#
# 1 0.046438 -0.006787 -0.022015 0.000000 0.000000 0.000000
# 2 -0.006787 0.011761 -0.001913 0.000000 0.000000 0.000000
# 3 -0.022015 -0.001913 0.023558 0.000000 0.000000 0.000000
# 4 0.000000 0.000000 0.000000 0.052448 0.000000 0.000000
# 5 0.000000 0.000000 0.000000 0.000000 0.034896 0.000000
# 6 0.000000 0.000000 0.000000 0.000000 0.000000 0.054053
#
#
# Mechanical properties :
#
#
# Convention : Reuss Voigt Hill
#
# Bulk Modulus (GPa) = 49.19614 58.41505 53.80559
# Shear Modulus (GPa) = 17.16090 21.61850 19.38970
#
# Velocity S-wave (km/s) = 3.18112 3.57045 3.38139
# Velocity P-wave (km/s) = 6.51943 7.17245 6.85372
#
# Compressibility (1/GPa) = 0.02032680
#
# Stress axis : x y z
#
# Youngs Moduli (GPa) = 21.53391 85.02786 42.44873
#
# Poissons Ratio (x) = 0.57708 0.93453
# Poissons Ratio (y) = 0.14615 0.08119
# Poissons Ratio (z) = 0.47408 0.16264
#
# Static dielectric constant tensor:
#      x y z
#    x 1.599680 0.000000 0.000000 
#    y 0.000000 1.620950 0.000000 
#    z 0.000000 0.000000 1.540930 
# 
# From -- ./inp_files/31729.got.cif
#   From: 2010.05.17/outbox.cif.g08.bks.cpg/sg51_16_cif.got.tgz:31729.got - 2010.06.03 11:52:47.
