data_PCOD9401610
_publ_section_title
;
Structure prediction by ZEFSAII (Michael W. Deem and Ramdas Pophale) SiO2 
 PCOD9401610
Probable space group: P M M A
;
_chemical_formula_sum "Si O2"
_cell_formula_units_Z 64
_cell_length_a 23.668069
_cell_length_b 9.003990
_cell_length_c 18.642760
_cell_angle_alpha 90.000000
_cell_angle_beta 90.000000
_cell_angle_gamma 90.000000
_cell_volume 3972.903710
_symmetry_space_group_name_H-M "P M M A"
_symmetry_group_IT_number 51
_symmetry_cell_setting 'orthorhombic'
loop_
_space_group_symop_operation_xyz
x,y,z
1/2-x,-y,z
1/2+x,-y,-z
-x,y,-z
-x,-y,-z
1/2+x,y,-z
1/2-x,y,z
x,-y,z
loop_
_atom_site_type_symbol
_atom_site_label
_atom_site_fract_x
_atom_site_fract_y
_atom_site_fract_z
Si Si1 0.181687 0.674586 0.577543
Si Si2 0.818559 0.326772 0.580526
Si Si3 0.684003 0.820974 0.275073
Si Si4 0.183414 0.824886 0.003910
Si Si5 0.182847 0.823249 0.271763
Si Si6 0.007999 0.821244 0.084791
Si Si7 0.114257 0.819470 0.863052
Si Si8 0.623930 0.676819 0.863724
O O1 0.250000 0.687798 0.576931
O O2 0.168466 0.500000 0.584038
O O3 0.161903 0.725258 0.498494
O O4 0.163103 0.760679 0.648341
O O5 0.750000 0.322772 0.578749
O O6 0.834445 0.500000 0.589446
O O7 0.835455 0.232225 0.649401
O O8 0.750000 0.776651 0.264457
O O9 0.645508 0.768601 0.208978
O O10 0.683065 0.000000 0.276594
O O11 0.250000 0.813327 0.990750
O O12 0.149142 0.775553 0.933770
O O13 0.170188 0.000000 0.016900
O O14 0.164749 0.733024 0.072704
O O15 0.250000 0.788682 0.263289
O O16 0.147674 0.742840 0.210193
O O17 0.176541 0.000000 0.265780
O O18 0.062578 0.741554 0.116355
O O19 0.950718 0.776515 0.125888
O O20 0.015125 0.000000 0.090573
O O21 0.000000 0.788650 0.000000
O O22 0.115542 0.000000 0.861863
O O23 0.622601 0.500000 0.860707
#
# Coordination Sequence:
#
# PCOD9401610 Si02
#       8
#     8   8   8   8   8   8   8   8
#     4   8  14  25  41  63  95 134 166 189 224 279
#     4   8  14  26  44  66  95 130 163 194 232 278
#     4   9  16  26  43  70 101 128 157 195 237 282
#     4  10  19  33  53  73  95 126 164 199 237 291
#     4  10  20  33  50  73 100 129 163 200 239 288
#     4  10  19  36  58  72  88 120 166 212 250 291
#     4   9  17  31  51  73  94 122 160 204 249 285
#     4  12  24  35  49  70  99 128 160 201 247 294
#
# _framework density 16.109124999999999
#
# number of rings (size 3 to 8) (size 9 to 14) (size 15 to 20)
#    0.000    2.500    1.250    3.000    0.000    4.750 
#    0.000    3.750    0.000    1.500    0.000    0.875 
#    0.000    7.000    0.000    0.000    0.000    0.000 
#
# Total GULP energy -356711.277303 kJ/mol
# GULP energy per Si atom -5573.613708 kJ/mol
# Density = 1.607246 g / cm^3
# Si number density = 16.109125 Si / 1000 Ang^3
#
#
#
# Elastic Constant Matrix: (Units=GPa)
#
#
# Indices 1 2 3 4 5 6 
#
# 1 45.1689 23.6892 23.7220 0.0000 0.0000 0.0000
# 2 23.6892 38.8989 37.5313 0.0000 0.0000 0.0000
# 3 23.7220 37.5313 110.1865 0.0000 0.0000 0.0000
# 4 0.0000 0.0000 0.0000 80.8293 0.0000 0.0000
# 5 0.0000 0.0000 0.0000 0.0000 1.8579 0.0000
# 6 0.0000 0.0000 0.0000 0.0000 0.0000 10.7766
#
#
#
# Elastic Compliance Matrix: (Units=1/GPa)
#
#
# Indices 1 2 3 4 5 6 
#
# 1 0.032539 -0.019449 -0.000381 0.000000 0.000000 0.000000
# 2 -0.019449 0.049917 -0.012815 0.000000 0.000000 0.000000
# 3 -0.000381 -0.012815 0.013523 0.000000 0.000000 0.000000
# 4 0.000000 0.000000 0.000000 0.012372 0.000000 0.000000
# 5 0.000000 0.000000 0.000000 0.000000 0.538230 0.000000
# 6 0.000000 0.000000 0.000000 0.000000 0.000000 0.092794
#
#
# Mechanical properties :
#
#
# Convention : Reuss Voigt Hill
#
# Bulk Modulus (GPa) = 32.58530 40.45992 36.52261
# Shear Modulus (GPa) = 6.13577 25.98023 16.05800
#
# Velocity S-wave (km/s) = 1.95375 4.02028 3.16068
# Velocity P-wave (km/s) = 5.03600 6.83527 6.00342
#
# Compressibility (1/GPa) = 0.03068869
#
# Stress axis : x y z
#
# Youngs Moduli (GPa) = 30.73218 20.03341 73.95031
#
# Poissons Ratio (x) = 0.38963 0.02816
# Poissons Ratio (y) = 0.59770 0.94770
# Poissons Ratio (z) = 0.01170 0.25673
#
# Static dielectric constant tensor:
#      x y z
#    x 1.543370 0.000000 0.000000 
#    y 0.000000 1.538950 0.000000 
#    z 0.000000 0.000000 1.547440 
# 
# From -- ./inp_files/30877.got.cif
#   From: 2010.05.17/outbox.cif.g08.bks.cpg/sg51_16_cif.got.tgz:30877.got - 2010.06.03 11:52:47.
