data_PCOD9401425
_publ_section_title
;
Structure prediction by ZEFSAII (Michael W. Deem and Ramdas Pophale) SiO2 
 PCOD9401425
Probable space group: P M M A
;
_chemical_formula_sum "Si O2"
_cell_formula_units_Z 64
_cell_length_a 8.838813
_cell_length_b 22.166746
_cell_length_c 16.891472
_cell_angle_alpha 90.000000
_cell_angle_beta 90.000000
_cell_angle_gamma 90.000000
_cell_volume 3309.507642
_symmetry_space_group_name_H-M "P M M A"
_symmetry_group_IT_number 51
_symmetry_cell_setting 'orthorhombic'
loop_
_space_group_symop_operation_xyz
x,y,z
1/2-x,-y,z
1/2+x,-y,-z
-x,y,-z
-x,-y,-z
1/2+x,y,-z
1/2-x,y,z
x,-y,z
loop_
_atom_site_type_symbol
_atom_site_label
_atom_site_fract_x
_atom_site_fract_y
_atom_site_fract_z
Si Si1 0.576551 0.093595 0.916368
Si Si2 0.431683 0.435077 0.746953
Si Si3 0.072384 0.070512 0.744097
Si Si4 0.425310 0.737012 0.383750
Si Si5 0.569940 0.137748 0.417109
Si Si6 0.928592 0.302291 0.223400
Si Si7 0.924340 0.238872 0.919258
Si Si8 0.927166 0.402742 0.580058
O O1 0.750000 0.072831 0.916219
O O2 0.502338 0.077974 0.831154
O O3 0.575670 0.166388 0.918703
O O4 0.500000 0.073661 0.000000
O O5 0.250000 0.436332 0.745932
O O6 0.485643 0.500000 0.778529
O O7 0.473733 0.372399 0.788960
O O8 0.490647 0.427270 0.657607
O O9 0.250000 0.086077 0.754014
O O10 0.015973 0.108514 0.667107
O O11 0.060018 0.000000 0.722798
O O12 0.250000 0.754842 0.392182
O O13 0.528569 0.791264 0.413899
O O14 0.472394 0.725180 0.293566
O O15 0.444147 0.670283 0.419803
O O16 0.500000 0.113810 0.500000
O O17 0.750000 0.129475 0.420311
O O18 0.750000 0.299804 0.243656
O O19 0.968158 0.263228 0.148465
O O20 0.750000 0.258740 0.910019
O O21 0.000000 0.259898 0.000000
O O22 0.750000 0.416455 0.584320
O O23 0.000000 0.426343 0.500000
#
# Coordination Sequence:
#
# PCOD9401425 Si02
#       8
#     8   8   8   8   8   8   8   8
#     4  10  21  37  60  89 118 148 180 218 268 327
#     4   9  19  35  52  70  95 131 174 215 255 303
#     4  10  23  42  60  80 110 148 189 231 273 321
#     4  10  20  34  53  78 107 137 173 217 267 323
#     4  11  23  38  58  82 109 144 186 233 284 333
#     4  10  19  32  53  79 107 139 174 215 265 317
#     4  10  20  34  54  82 114 142 171 209 257 314
#     4  10  20  32  48  71  99 131 166 208 258 311
#
# _framework density 19.338224
#
# number of rings (size 3 to 8) (size 9 to 14) (size 15 to 20)
#    0.000    2.000    0.000    3.375    0.000    8.750 
#    0.000    0.000    0.000    0.375    0.000    0.000 
#    0.000    0.000    0.000    0.000    0.000    0.000 
#
# Total GULP energy -356955.294651 kJ/mol
# GULP energy per Si atom -5577.426479 kJ/mol
# Density = 1.929421 g / cm^3
# Si number density = 19.338224 Si / 1000 Ang^3
#
#
#
# Elastic Constant Matrix: (Units=GPa)
#
#
# Indices 1 2 3 4 5 6 
#
# 1 26.2813 16.1680 29.6356 0.0000 0.0000 0.0000
# 2 16.1680 48.8854 22.0970 0.0000 0.0000 0.0000
# 3 29.6356 22.0970 94.3799 0.0000 0.0000 0.0000
# 4 0.0000 0.0000 0.0000 -17.6003 0.0000 0.0000
# 5 0.0000 0.0000 0.0000 0.0000 32.0797 0.0000
# 6 0.0000 0.0000 0.0000 0.0000 0.0000 11.2922
#
#
#
# Elastic Compliance Matrix: (Units=1/GPa)
#
#
# Indices 1 2 3 4 5 6 
#
# 1 0.066547 -0.014051 -0.017606 0.000000 0.000000 0.000000
# 2 -0.014051 0.025844 -0.001639 0.000000 0.000000 0.000000
# 3 -0.017606 -0.001639 0.016508 0.000000 0.000000 0.000000
# 4 0.000000 0.000000 0.000000 -0.056817 0.000000 0.000000
# 5 0.000000 0.000000 0.000000 0.000000 0.031172 0.000000
# 6 0.000000 0.000000 0.000000 0.000000 0.000000 0.088557
#
#
# Mechanical properties :
#
#
# Convention : Reuss Voigt Hill
#
# Bulk Modulus (GPa) = 23.63693 33.92751 28.78222
# Shear Modulus (GPa) = 19.80159 11.93072 15.86616
#
# Velocity S-wave (km/s) = 3.20341 2.48654 2.86747
# Velocity P-wave (km/s) = 5.09234 5.08195 5.08715
#
# Compressibility (1/GPa) = 0.04230668
#
# Stress axis : x y z
#
# Youngs Moduli (GPa) = 15.02691 38.69389 60.57822
#
# Poissons Ratio (x) = 0.54369 1.06656
# Poissons Ratio (y) = 0.21114 0.09927
# Poissons Ratio (z) = 0.26457 0.06341
#
# Static dielectric constant tensor:
#      x y z
#    x 1.651710 0.000000 0.000000 
#    y 0.000000 1.707890 0.000000 
#    z 0.000000 0.000000 1.642240 
# 
# From -- ./inp_files/22342.got.cif
#   From: 2010.05.17/outbox.cif.g08.bks.cpg/sg51_12_cif.got.tgz:22342.got - 2010.06.03 11:52:47.
