data_PCOD9401596
_publ_section_title
;
Structure prediction by ZEFSAII (Michael W. Deem and Ramdas Pophale) SiO2 
 PCOD9401596
Probable space group: P M M A
;
_chemical_formula_sum "Si O2"
_cell_formula_units_Z 52
_cell_length_a 8.415846
_cell_length_b 24.232678
_cell_length_c 14.819191
_cell_angle_alpha 90.000000
_cell_angle_beta 90.000000
_cell_angle_gamma 90.000000
_cell_volume 3022.203379
_symmetry_space_group_name_H-M "P M M A"
_symmetry_group_IT_number 51
_symmetry_cell_setting 'orthorhombic'
loop_
_space_group_symop_operation_xyz
x,y,z
1/2-x,-y,z
1/2+x,-y,-z
-x,y,-z
-x,-y,-z
1/2+x,y,-z
1/2-x,y,z
x,-y,z
loop_
_atom_site_type_symbol
_atom_site_label
_atom_site_fract_x
_atom_site_fract_y
_atom_site_fract_z
Si Si1 0.442432 0.879320 0.103232
Si Si2 0.058417 0.000000 0.103179
Si Si3 0.441239 0.606062 0.596884
Si Si4 0.440283 0.226802 0.214922
Si Si5 0.059922 0.734522 0.597341
Si Si6 0.559353 0.668394 0.101914
Si Si7 0.944035 0.438930 0.211235
O O1 0.250000 0.878487 0.101501
O O2 0.497324 0.828614 0.164648
O O3 0.493818 0.940032 0.138932
O O4 0.500000 0.872779 0.000000
O O5 0.250000 0.000000 0.105159
O O6 0.000000 0.000000 0.000000
O O7 0.500000 0.585323 0.500000
O O8 0.250000 0.605373 0.595598
O O9 0.492713 0.670193 0.606736
O O10 0.493761 0.573430 0.685656
O O11 0.250000 0.227232 0.212550
O O12 0.496123 0.231981 0.317755
O O13 0.501897 0.280082 0.160970
O O14 0.250000 0.734906 0.598958
O O15 0.000000 0.754123 0.500000
O O16 0.750000 0.668444 0.102644
O O17 0.503339 0.611225 0.147814
O O18 0.500000 0.673146 0.000000
O O19 0.750000 0.438345 0.210644
O O20 0.995995 0.500000 0.183000
#
# Coordination Sequence:
#
# PCOD9401596 Si02
#       7
#     8   4   8   8   8   8   8
#     4   9  18  30  47  72 102 136 172 205 244 287
#     4   8  14  28  46  66  97 134 169 206 241 284
#     4   9  17  31  50  73  96 122 153 189 239 294
#     4  11  21  33  51  77 104 133 166 204 246 295
#     4  10  19  33  52  76 102 132 163 201 248 298
#     4  11  22  37  53  72  96 128 166 207 255 299
#     4   9  18  34  53  70  93 126 162 200 246 300
#
# _framework density 17.20599
#
# number of rings (size 3 to 8) (size 9 to 14) (size 15 to 20)
#    0.000    2.308    1.538    1.846    0.000    3.692 
#    0.000    0.000    0.000    3.231    0.000    0.538 
#    0.000    0.000    0.000    0.000    0.000    0.000 
#
# Total GULP energy -290009.475931 kJ/mol
# GULP energy per Si atom -5577.105306 kJ/mol
# Density = 1.716683 g / cm^3
# Si number density = 17.205990 Si / 1000 Ang^3
#
#
#
# Elastic Constant Matrix: (Units=GPa)
#
#
# Indices 1 2 3 4 5 6 
#
# 1 20.6911 20.8965 18.6620 0.0000 0.0000 0.0000
# 2 20.8965 147.4422 74.0389 0.0000 0.0000 0.0000
# 3 18.6620 74.0389 121.0117 0.0000 0.0000 0.0000
# 4 0.0000 0.0000 0.0000 21.8230 0.0000 0.0000
# 5 0.0000 0.0000 0.0000 0.0000 26.8285 0.0000
# 6 0.0000 0.0000 0.0000 0.0000 0.0000 15.8744
#
#
#
# Elastic Compliance Matrix: (Units=1/GPa)
#
#
# Indices 1 2 3 4 5 6 
#
# 1 0.059054 -0.005480 -0.005754 0.000000 0.000000 0.000000
# 2 -0.005480 0.010299 -0.005456 0.000000 0.000000 0.000000
# 3 -0.005754 -0.005456 0.012489 0.000000 0.000000 0.000000
# 4 0.000000 0.000000 0.000000 0.045823 0.000000 0.000000
# 5 0.000000 0.000000 0.000000 0.000000 0.037274 0.000000
# 6 0.000000 0.000000 0.000000 0.000000 0.000000 0.062994
#
#
# Mechanical properties :
#
#
# Convention : Reuss Voigt Hill
#
# Bulk Modulus (GPa) = 20.63489 57.37109 39.00299
# Shear Modulus (GPa) = 18.02009 24.60837 21.31423
#
# Velocity S-wave (km/s) = 3.23974 3.78593 3.52343
# Velocity P-wave (km/s) = 5.10033 7.24756 6.26660
#
# Compressibility (1/GPa) = 0.04846162
#
# Stress axis : x y z
#
# Youngs Moduli (GPa) = 16.93357 97.09930 80.06900
#
# Poissons Ratio (x) = 0.53211 0.46074
# Poissons Ratio (y) = 0.09280 0.43686
# Poissons Ratio (z) = 0.09744 0.52977
#
# Static dielectric constant tensor:
#      x y z
#    x 1.593570 0.000000 0.000000 
#    y 0.000000 1.611310 0.000000 
#    z 0.000000 0.000000 1.557630 
# 
# From -- ./inp_files/21574.got.cif
#   From: 2010.05.17/outbox.cif.g08.bks.cpg/sg51_11_cif.got.tgz:21574.got - 2010.06.03 11:52:47.
