data_PCOD9401001
_publ_section_title
;
Structure prediction by ZEFSAII (Michael W. Deem and Ramdas Pophale) SiO2 
 PCOD9401001
Probable space group: P M M A
;
_chemical_formula_sum "Si O2"
_cell_formula_units_Z 56
_cell_length_a 8.945656
_cell_length_b 14.568581
_cell_length_c 23.916487
_cell_angle_alpha 90.000000
_cell_angle_beta 90.000000
_cell_angle_gamma 90.000000
_cell_volume 3116.928462
_symmetry_space_group_name_H-M "P M M A"
_symmetry_group_IT_number 51
_symmetry_cell_setting 'orthorhombic'
loop_
_space_group_symop_operation_xyz
x,y,z
1/2-x,-y,z
1/2+x,-y,-z
-x,y,-z
-x,-y,-z
1/2+x,y,-z
1/2-x,y,z
x,-y,z
loop_
_atom_site_type_symbol
_atom_site_label
_atom_site_fract_x
_atom_site_fract_y
_atom_site_fract_z
Si Si1 0.929252 0.216153 0.839021
Si Si2 0.929349 0.394384 0.777582
Si Si3 0.924838 0.389913 0.341503
Si Si4 0.071452 0.893309 0.939995
Si Si5 0.927081 0.892480 0.391860
Si Si6 0.072575 0.720103 0.442313
Si Si7 0.923632 0.109323 0.725576
O O1 0.750000 0.208790 0.846974
O O2 0.968005 0.321627 0.825475
O O3 0.966323 0.161143 0.782048
O O4 0.010092 0.171453 0.891418
O O5 0.750000 0.389000 0.769038
O O6 0.967702 0.500000 0.790669
O O7 0.007734 0.368230 0.719373
O O8 0.750000 0.365105 0.343785
O O9 0.938009 0.500000 0.348515
O O10 0.012722 0.338817 0.390276
O O11 0.250000 0.886972 0.943659
O O12 0.032004 0.000000 0.927238
O O13 0.000000 0.870930 0.000000
O O14 0.750000 0.879259 0.398867
O O15 0.016942 0.823781 0.431067
O O16 0.975484 0.870198 0.328110
O O17 0.962244 0.000000 0.401307
O O18 0.250000 0.716309 0.445519
O O19 0.000000 0.686734 0.500000
O O20 0.750000 0.132907 0.712368
O O21 0.930851 0.000000 0.735457
#
# Coordination Sequence:
#
# PCOD9401001 Si02
#       7
#     8   8   8   8   8   8   8
#     4  10  19  31  51  78 108 143 180 219 261 305
#     4   9  18  33  54  82 114 146 179 215 260 314
#     4  10  21  38  60  85 112 140 172 215 268 323
#     4  10  21  36  54  77 107 143 181 221 265 314
#     4  10  21  37  56  78 106 139 175 218 267 318
#     4  12  25  40  58  78 103 136 176 221 266 318
#     4   9  17  29  47  74 106 138 173 213 260 315
#
# _framework density 17.966405000000002
#
# number of rings (size 3 to 8) (size 9 to 14) (size 15 to 20)
#    0.000    2.000    0.000    3.857    0.000    6.000 
#    0.000    1.429    0.000    0.429    0.000    0.000 
#    0.000    0.000    0.000    0.000    0.000    0.000 
#
# Total GULP energy -312865.801950 kJ/mol
# GULP energy per Si atom -5586.889321 kJ/mol
# Density = 1.792551 g / cm^3
# Si number density = 17.966405 Si / 1000 Ang^3
#
#
#
# Elastic Constant Matrix: (Units=GPa)
#
#
# Indices 1 2 3 4 5 6 
#
# 1 80.4012 46.2691 53.8952 0.0000 0.0000 0.0000
# 2 46.2691 71.7943 63.6690 0.0000 0.0000 0.0000
# 3 53.8952 63.6690 102.2393 0.0000 0.0000 0.0000
# 4 0.0000 0.0000 0.0000 22.0501 0.0000 0.0000
# 5 0.0000 0.0000 0.0000 0.0000 34.8631 0.0000
# 6 0.0000 0.0000 0.0000 0.0000 0.0000 23.5456
#
#
#
# Elastic Compliance Matrix: (Units=1/GPa)
#
#
# Indices 1 2 3 4 5 6 
#
# 1 0.021291 -0.008416 -0.005983 0.000000 0.000000 0.000000
# 2 -0.008416 0.034436 -0.017008 0.000000 0.000000 0.000000
# 3 -0.005983 -0.017008 0.023527 0.000000 0.000000 0.000000
# 4 0.000000 0.000000 0.000000 0.045351 0.000000 0.000000
# 5 0.000000 0.000000 0.000000 0.000000 0.028684 0.000000
# 6 0.000000 0.000000 0.000000 0.000000 0.000000 0.042471
#
#
# Mechanical properties :
#
#
# Convention : Reuss Voigt Hill
#
# Bulk Modulus (GPa) = 60.82786 64.67795 62.75290
# Shear Modulus (GPa) = 18.93559 22.13186 20.53373
#
# Velocity S-wave (km/s) = 3.24997 3.51358 3.38434
# Velocity P-wave (km/s) = 6.92914 7.24830 7.09052
#
# Compressibility (1/GPa) = 0.01643984
#
# Stress axis : x y z
#
# Youngs Moduli (GPa) = 46.96800 29.03942 42.50512
#
# Poissons Ratio (x) = 0.24439 0.25429
# Poissons Ratio (y) = 0.39528 0.72294
# Poissons Ratio (z) = 0.28099 0.49391
#
# Static dielectric constant tensor:
#      x y z
#    x 1.602610 0.000000 0.000000 
#    y 0.000000 1.641180 0.000000 
#    z 0.000000 0.000000 1.575340 
# 
# From -- ./inp_files/31891.got.cif
#   From: 2010.05.17/outbox.cif.g08.bks.cpg/sg51_16_cif.got.tgz:31891.got - 2010.06.03 11:52:47.
