data_PCOD9401355
_publ_section_title
;
Structure prediction by ZEFSAII (Michael W. Deem and Ramdas Pophale) SiO2 
 PCOD9401355
Probable space group: P M M A
;
_chemical_formula_sum "Si O2"
_cell_formula_units_Z 64
_cell_length_a 8.959336
_cell_length_b 29.118681
_cell_length_c 14.129319
_cell_angle_alpha 90.000000
_cell_angle_beta 90.000000
_cell_angle_gamma 90.000000
_cell_volume 3686.113921
_symmetry_space_group_name_H-M "P M M A"
_symmetry_group_IT_number 51
_symmetry_cell_setting 'orthorhombic'
loop_
_space_group_symop_operation_xyz
x,y,z
1/2-x,-y,z
1/2+x,-y,-z
-x,y,-z
-x,-y,-z
1/2+x,y,-z
1/2-x,y,z
x,-y,z
loop_
_atom_site_type_symbol
_atom_site_label
_atom_site_fract_x
_atom_site_fract_y
_atom_site_fract_z
Si Si1 0.419863 0.055894 0.405338
Si Si2 0.570170 0.552735 0.601978
Si Si3 0.928158 0.220006 0.226165
Si Si4 0.428329 0.271864 0.396693
Si Si5 0.432004 0.947962 0.196256
Si Si6 0.429041 0.856030 0.099354
Si Si7 0.427072 0.688679 0.897092
Si Si8 0.571629 0.637578 0.727437
O O1 0.500000 0.072221 0.500000
O O2 0.250000 0.072347 0.407700
O O3 0.485369 0.066128 0.301813
O O4 0.417277 0.000000 0.408543
O O5 0.500000 0.563751 0.500000
O O6 0.750000 0.555352 0.593673
O O7 0.530230 0.500000 0.625446
O O8 0.523635 0.589819 0.680032
O O9 0.750000 0.214019 0.233845
O O10 0.957217 0.262319 0.153644
O O11 0.998251 0.235033 0.325901
O O12 0.006613 0.175860 0.181808
O O13 0.500000 0.270100 0.500000
O O14 0.250000 0.265556 0.401488
O O15 0.457558 0.321427 0.347702
O O16 0.250000 0.949217 0.201732
O O17 0.471971 0.908689 0.122639
O O18 0.481532 0.000000 0.174814
O O19 0.250000 0.852389 0.095688
O O20 0.500000 0.841733 0.000000
O O21 0.250000 0.683535 0.905476
O O22 0.492009 0.651099 0.824628
O O23 0.500000 0.686842 0.000000
O O24 0.750000 0.636407 0.743388
#
# Coordination Sequence:
#
# PCOD9401355 Si02
#       8
#     8   8   8   8   8   8   8   8
#     4   8  13  24  44  68  92 118 148 182 221 265
#     4   9  17  29  46  70 101 137 174 211 252 298
#     4  10  21  37  55  76 102 132 167 205 248 299
#     4  10  19  32  52  78 108 140 172 207 250 299
#     4   8  16  32  52  73  99 131 164 197 237 288
#     4  11  22  36  55  76  99 129 165 205 251 300
#     4  10  20  33  52  75  98 126 162 208 258 307
#     4   9  18  31  48  72 103 137 172 212 255 299
#
# _framework density 17.362458
#
# number of rings (size 3 to 8) (size 9 to 14) (size 15 to 20)
#    0.000    2.625    0.000    3.000    0.000    3.750 
#    0.000    1.875    0.000    4.500    0.000    0.000 
#    0.000    0.000    0.000    0.000    0.000    0.000 
#
# Total GULP energy -356865.048595 kJ/mol
# GULP energy per Si atom -5576.016384 kJ/mol
# Density = 1.732294 g / cm^3
# Si number density = 17.362458 Si / 1000 Ang^3
#
#
#
# Elastic Constant Matrix: (Units=GPa)
#
#
# Indices 1 2 3 4 5 6 
#
# 1 46.1848 35.2377 51.4305 0.0000 0.0000 0.0000
# 2 35.2377 73.1627 45.5105 0.0000 0.0000 0.0000
# 3 51.4305 45.5105 127.6438 0.0000 0.0000 0.0000
# 4 0.0000 0.0000 0.0000 24.2856 0.0000 0.0000
# 5 0.0000 0.0000 0.0000 0.0000 31.0692 0.0000
# 6 0.0000 0.0000 0.0000 0.0000 0.0000 17.7382
#
#
#
# Elastic Compliance Matrix: (Units=1/GPa)
#
#
# Indices 1 2 3 4 5 6 
#
# 1 0.048910 -0.014518 -0.014531 0.000000 0.000000 0.000000
# 2 -0.014518 0.021873 -0.001949 0.000000 0.000000 0.000000
# 3 -0.014531 -0.001949 0.014384 0.000000 0.000000 0.000000
# 4 0.000000 0.000000 0.000000 0.041177 0.000000 0.000000
# 5 0.000000 0.000000 0.000000 0.000000 0.032186 0.000000
# 6 0.000000 0.000000 0.000000 0.000000 0.000000 0.056376
#
#
# Mechanical properties :
#
#
# Convention : Reuss Voigt Hill
#
# Bulk Modulus (GPa) = 43.15641 56.81651 49.98646
# Shear Modulus (GPa) = 17.56698 22.27275 19.91986
#
# Velocity S-wave (km/s) = 3.18430 3.58552 3.39085
# Velocity P-wave (km/s) = 6.19918 7.06655 6.64703
#
# Compressibility (1/GPa) = 0.02317153
#
# Stress axis : x y z
#
# Youngs Moduli (GPa) = 20.44565 45.71855 69.52209
#
# Poissons Ratio (x) = 0.66375 1.01020
# Poissons Ratio (y) = 0.29683 0.13550
# Poissons Ratio (z) = 0.29709 0.08910
#
# Static dielectric constant tensor:
#      x y z
#    x 1.580260 0.000000 0.000000 
#    y 0.000000 1.596420 0.000000 
#    z 0.000000 0.000000 1.578650 
# 
# From -- ./inp_files/14804.got.cif
#   From: 2010.05.17/outbox.cif.g08.bks.cpg/sg51_8_cif.got.tgz:14804.got - 2010.06.03 11:52:47.
