data_PCOD9401598
_publ_section_title
;
Structure prediction by ZEFSAII (Michael W. Deem and Ramdas Pophale) SiO2 
 PCOD9401598
Probable space group: P M M A
;
_chemical_formula_sum "Si O2"
_cell_formula_units_Z 52
_cell_length_a 8.661705
_cell_length_b 23.538448
_cell_length_c 14.638898
_cell_angle_alpha 90.000000
_cell_angle_beta 90.000000
_cell_angle_gamma 90.000000
_cell_volume 2984.623798
_symmetry_space_group_name_H-M "P M M A"
_symmetry_group_IT_number 51
_symmetry_cell_setting 'orthorhombic'
loop_
_space_group_symop_operation_xyz
x,y,z
1/2-x,-y,z
1/2+x,-y,-z
-x,y,-z
-x,-y,-z
1/2+x,y,-z
1/2-x,y,z
x,-y,z
loop_
_atom_site_type_symbol
_atom_site_label
_atom_site_fract_x
_atom_site_fract_y
_atom_site_fract_z
Si Si1 0.434991 0.279775 0.101542
Si Si2 0.935201 0.356620 0.401625
Si Si3 0.435596 0.776357 0.597377
Si Si4 0.936472 0.935410 0.100759
Si Si5 0.563053 0.826700 0.212203
Si Si6 0.435082 0.393341 0.213068
Si Si7 0.065787 0.500000 0.897541
O O1 0.250000 0.276078 0.098051
O O2 0.501970 0.223184 0.147309
O O3 0.477589 0.334224 0.163041
O O4 0.500000 0.286802 0.000000
O O5 0.750000 0.359907 0.401522
O O6 0.980788 0.289936 0.389728
O O7 0.000000 0.374926 0.500000
O O8 0.003119 0.390453 0.316244
O O9 0.500000 0.795609 0.500000
O O10 0.250000 0.777900 0.593742
O O11 0.487890 0.812410 0.684718
O O12 0.750000 0.934530 0.096689
O O13 0.986313 0.887476 0.172340
O O14 0.984690 0.000000 0.123609
O O15 0.000000 0.921866 0.000000
O O16 0.750000 0.824883 0.211056
O O17 0.250000 0.398260 0.213257
O O18 0.506592 0.444850 0.156466
O O19 0.250000 0.500000 0.901383
O O20 0.000000 0.500000 0.000000
#
# Coordination Sequence:
#
# PCOD9401598 Si02
#       7
#     8   8   8   8   8   8   4
#     4  11  23  35  52  78 109 141 175 218 270 321
#     4  10  19  34  57  84 114 146 181 224 273 329
#     4   9  18  31  50  76 106 140 175 217 266 322
#     4   9  18  32  50  72 101 139 181 222 266 319
#     4  10  19  33  52  76 106 138 177 222 271 321
#     4  11  23  40  60  84 112 146 185 226 272 327
#     4  12  26  44  65  86 111 148 190 230 272 324
#
# _framework density 17.422630000000002
#
# number of rings (size 3 to 8) (size 9 to 14) (size 15 to 20)
#    0.000    1.846    1.538    3.000    0.000    6.154 
#    0.000    0.385    0.000    0.462    0.000    0.000 
#    0.000    0.000    0.000    0.000    0.000    0.000 
#
# Total GULP energy -290390.261867 kJ/mol
# GULP energy per Si atom -5584.428113 kJ/mol
# Density = 1.738297 g / cm^3
# Si number density = 17.422630 Si / 1000 Ang^3
#
#
#
# Elastic Constant Matrix: (Units=GPa)
#
#
# Indices 1 2 3 4 5 6 
#
# 1 34.4506 33.9191 42.4306 0.0000 0.0000 0.0000
# 2 33.9191 100.5197 78.5495 0.0000 0.0000 0.0000
# 3 42.4306 78.5495 178.4746 0.0000 0.0000 0.0000
# 4 0.0000 0.0000 0.0000 29.9195 0.0000 0.0000
# 5 0.0000 0.0000 0.0000 0.0000 33.0263 0.0000
# 6 0.0000 0.0000 0.0000 0.0000 0.0000 18.7950
#
#
#
# Elastic Compliance Matrix: (Units=1/GPa)
#
#
# Indices 1 2 3 4 5 6 
#
# 1 0.047987 -0.011093 -0.006526 0.000000 0.000000 0.000000
# 2 -0.011093 0.017727 -0.005165 0.000000 0.000000 0.000000
# 3 -0.006526 -0.005165 0.009428 0.000000 0.000000 0.000000
# 4 0.000000 0.000000 0.000000 0.033423 0.000000 0.000000
# 5 0.000000 0.000000 0.000000 0.000000 0.030279 0.000000
# 6 0.000000 0.000000 0.000000 0.000000 0.000000 0.053206
#
#
# Mechanical properties :
#
#
# Convention : Reuss Voigt Hill
#
# Bulk Modulus (GPa) = 33.81339 69.24926 51.53132
# Shear Modulus (GPa) = 20.20404 26.91787 23.56096
#
# Velocity S-wave (km/s) = 3.40905 3.93491 3.68138
# Velocity P-wave (km/s) = 5.91146 7.77674 6.90735
#
# Compressibility (1/GPa) = 0.02957408
#
# Stress axis : x y z
#
# Youngs Moduli (GPa) = 20.83915 56.40981 106.06936
#
# Poissons Ratio (x) = 0.62573 0.69224
# Poissons Ratio (y) = 0.23116 0.54784
# Poissons Ratio (z) = 0.13600 0.29135
#
# Static dielectric constant tensor:
#      x y z
#    x 1.588110 0.000000 0.000000 
#    y 0.000000 1.583750 0.000000 
#    z 0.000000 0.000000 1.574720 
# 
# From -- ./inp_files/21611.got.cif
#   From: 2010.05.17/outbox.cif.g08.bks.cpg/sg51_11_cif.got.tgz:21611.got - 2010.06.03 11:52:47.
