data_PCOD9401434
_publ_section_title
;
Structure prediction by ZEFSAII (Michael W. Deem and Ramdas Pophale) SiO2 
 PCOD9401434
Probable space group: P M M A
;
_chemical_formula_sum "Si O2"
_cell_formula_units_Z 40
_cell_length_a 27.001774
_cell_length_b 8.533774
_cell_length_c 9.371881
_cell_angle_alpha 90.000000
_cell_angle_beta 90.000000
_cell_angle_gamma 90.000000
_cell_volume 2159.534769
_symmetry_space_group_name_H-M "P M M A"
_symmetry_group_IT_number 51
_symmetry_cell_setting 'orthorhombic'
loop_
_space_group_symop_operation_xyz
x,y,z
1/2-x,-y,z
1/2+x,-y,-z
-x,y,-z
-x,-y,-z
1/2+x,y,-z
1/2-x,y,z
x,-y,z
loop_
_atom_site_type_symbol
_atom_site_label
_atom_site_fract_x
_atom_site_fract_y
_atom_site_fract_z
Si Si1 0.047736 0.310619 0.090556
Si Si2 0.855900 0.812481 0.411071
Si Si3 0.357032 0.309501 0.910852
Si Si4 0.750000 0.681264 0.074108
Si Si5 0.250000 0.319786 0.578553
Si Si6 0.951717 0.810687 0.588743
O O1 0.047601 0.500000 0.094027
O O2 0.045808 0.249095 0.250561
O O3 0.097591 0.259905 0.009266
O O4 0.000000 0.259160 0.000000
O O5 0.863627 0.746274 0.251580
O O6 0.801694 0.758981 0.464306
O O7 0.901104 0.759292 0.510906
O O8 0.856463 0.000000 0.403128
O O9 0.355215 0.500000 0.907970
O O10 0.303349 0.250377 0.966020
O O11 0.750000 0.500000 0.026654
O O12 0.750000 0.683020 0.247538
O O13 0.250000 0.500000 0.533280
O O14 0.000000 0.758550 0.500000
O O15 0.951865 0.000000 0.590152
#
# Coordination Sequence:
#
# PCOD9401434 Si02
#       6
#     8   8   8   4   4   8
#     4  10  21  35  52  76 103 133 173 219 263 309
#     4  10  19  32  53  80 107 137 177 219 256 303
#     4   9  17  31  51  75 103 134 170 212 259 307
#     4   7  12  25  46  69  94 126 160 196 240 295
#     4   9  17  31  52  77 106 140 174 210 260 313
#     4  10  22  38  54  75 105 141 178 216 262 315
#
# _framework density 18.522508999999999
#
# number of rings (size 3 to 8) (size 9 to 14) (size 15 to 20)
#    0.000    2.600    0.000    3.300    0.000    3.200 
#    0.000    1.000    0.000    1.200    0.000    0.000 
#    0.000    0.000    0.000    0.000    0.000    0.000 
#
# Total GULP energy -223055.703536 kJ/mol
# GULP energy per Si atom -5576.392588 kJ/mol
# Density = 1.848035 g / cm^3
# Si number density = 18.522509 Si / 1000 Ang^3
#
#
#
# Elastic Constant Matrix: (Units=GPa)
#
#
# Indices 1 2 3 4 5 6 
#
# 1 230.5649 31.5846 108.4491 0.0000 0.0000 0.0000
# 2 31.5846 15.8941 15.8770 0.0000 0.0000 0.0000
# 3 108.4491 15.8770 116.4456 0.0000 0.0000 0.0000
# 4 0.0000 0.0000 0.0000 27.6329 0.0000 0.0000
# 5 0.0000 0.0000 0.0000 0.0000 32.6659 0.0000
# 6 0.0000 0.0000 0.0000 0.0000 0.0000 -19.6257
#
#
#
# Elastic Compliance Matrix: (Units=1/GPa)
#
#
# Indices 1 2 3 4 5 6 
#
# 1 0.009173 -0.011224 -0.007013 0.000000 0.000000 0.000000
# 2 -0.011224 0.086569 -0.001350 0.000000 0.000000 0.000000
# 3 -0.007013 -0.001350 0.015303 0.000000 0.000000 0.000000
# 4 0.000000 0.000000 0.000000 0.036189 0.000000 0.000000
# 5 0.000000 0.000000 0.000000 0.000000 0.030613 0.000000
# 6 0.000000 0.000000 0.000000 0.000000 0.000000 -0.050953
#
#
# Mechanical properties :
#
#
# Convention : Reuss Voigt Hill
#
# Bulk Modulus (GPa) = 13.91375 74.96954 44.44165
# Shear Modulus (GPa) = 26.31219 21.93421 24.12320
#
# Velocity S-wave (km/s) = 3.77311 3.44494 3.61275
# Velocity P-wave (km/s) = 5.14878 7.50907 6.43802
#
# Compressibility (1/GPa) = 0.07187137
#
# Stress axis : x y z
#
# Youngs Moduli (GPa) = 109.01086 11.55144 65.34518
#
# Poissons Ratio (x) = 0.12965 0.45827
# Poissons Ratio (y) = 1.22351 0.08825
# Poissons Ratio (z) = 0.76451 0.01560
#
# Static dielectric constant tensor:
#      x y z
#    x 1.677940 0.000000 0.000000 
#    y 0.000000 1.631190 0.000000 
#    z 0.000000 0.000000 1.590500 
# 
# From -- ./inp_files/12132.got.cif
#   From: 2010.05.17/outbox.cif.g08.bks.cpg/sg51_7_cif.got.tgz:12132.got - 2010.06.03 11:52:47.
