data_PCOD9401804
_publ_section_title
;
Structure prediction by ZEFSAII (Michael W. Deem and Ramdas Pophale) SiO2 
 PCOD9401804
Probable space group: P M M A
;
_chemical_formula_sum "Si O2"
_cell_formula_units_Z 48
_cell_length_a 15.900666
_cell_length_b 7.488285
_cell_length_c 18.564952
_cell_angle_alpha 90.000000
_cell_angle_beta 90.000000
_cell_angle_gamma 90.000000
_cell_volume 2210.505047
_symmetry_space_group_name_H-M "P M M A"
_symmetry_group_IT_number 51
_symmetry_cell_setting 'orthorhombic'
loop_
_space_group_symop_operation_xyz
x,y,z
1/2-x,-y,z
1/2+x,-y,-z
-x,y,-z
-x,-y,-z
1/2+x,y,-z
1/2-x,y,z
x,-y,z
loop_
_atom_site_type_symbol
_atom_site_label
_atom_site_fract_x
_atom_site_fract_y
_atom_site_fract_z
Si Si1 0.419255 0.211789 0.542647
Si Si2 0.250000 0.782026 0.793822
Si Si3 0.421506 0.211375 0.207527
Si Si4 0.750000 0.712969 0.544840
Si Si5 0.750000 0.781786 0.040365
Si Si6 0.084825 0.219061 0.706560
Si Si7 0.417086 0.218545 0.043438
Si Si8 0.750000 0.712914 0.708714
O O1 0.500000 0.285523 0.500000
O O2 0.333874 0.234393 0.497912
O O3 0.411469 0.281113 0.623986
O O4 0.433496 0.000000 0.550319
O O5 0.250000 0.724000 0.876704
O O6 0.333525 0.725656 0.751587
O O7 0.250000 0.000000 0.794379
O O8 0.499516 0.280163 0.254469
O O9 0.418216 0.281390 0.126013
O O10 0.333710 0.234296 0.248532
O O11 0.436362 0.000000 0.200446
O O12 0.750000 0.500000 0.548703
O O13 0.750000 0.783701 0.626771
O O14 0.750000 0.000000 0.040863
O O15 0.833331 0.724723 0.998199
O O16 0.085227 0.000000 0.705950
O O17 0.416126 0.000000 0.044210
O O18 0.500000 0.272778 0.000000
O O19 0.750000 0.500000 0.704681
#
# Coordination Sequence:
#
# PCOD9401804 Si02
#       8
#     8   4   8   4   4   8   8   4
#     4  10  20  35  56  80 105 134 172 220 268 316
#     4   9  15  24  40  66 104 141 166 198 250 307
#     4  10  19  33  55  80 105 137 177 216 256 309
#     4  11  24  39  55  77 106 141 178 218 268 321
#     4   9  15  22  34  58  96 137 166 192 238 293
#     4   9  17  29  48  75 103 132 168 210 257 307
#     4   9  16  26  43  72 107 135 163 205 252 295
#     4  11  24  39  53  73 104 139 174 218 268 311
#
# _framework density 21.714493000000001
#
# number of rings (size 3 to 8) (size 9 to 14) (size 15 to 20)
#    0.000    2.333    0.000    3.500    0.000    9.667 
#    0.000    0.833    0.000    0.500    0.000    0.000 
#    0.000    4.000    0.000    0.000    0.000    0.000 
#
# Total GULP energy -268315.193287 kJ/mol
# GULP energy per Si atom -5589.899860 kJ/mol
# Density = 2.166507 g / cm^3
# Si number density = 21.714493 Si / 1000 Ang^3
#
#
#
# Elastic Constant Matrix: (Units=GPa)
#
#
# Indices 1 2 3 4 5 6 
#
# 1 236.4240 -11.7633 152.3459 0.0000 0.0000 0.0000
# 2 -11.7633 56.6684 1.1808 0.0000 0.0000 0.0000
# 3 152.3459 1.1808 271.9922 0.0000 0.0000 0.0000
# 4 0.0000 0.0000 0.0000 95.5974 0.0000 0.0000
# 5 0.0000 0.0000 0.0000 0.0000 52.5224 0.0000
# 6 0.0000 0.0000 0.0000 0.0000 0.0000 -32.7423
#
#
#
# Elastic Compliance Matrix: (Units=1/GPa)
#
#
# Indices 1 2 3 4 5 6 
#
# 1 0.006740 0.001478 -0.003782 0.000000 0.000000 0.000000
# 2 0.001478 0.017972 -0.000906 0.000000 0.000000 0.000000
# 3 -0.003782 -0.000906 0.005799 0.000000 0.000000 0.000000
# 4 0.000000 0.000000 0.000000 0.010461 0.000000 0.000000
# 5 0.000000 0.000000 0.000000 0.000000 0.019039 0.000000
# 6 0.000000 0.000000 0.000000 0.000000 0.000000 -0.030542
#
#
# Mechanical properties :
#
#
# Convention : Reuss Voigt Hill
#
# Bulk Modulus (GPa) = 41.50786 94.29016 67.89901
# Shear Modulus (GPa) = 113.84669 51.29692 82.57180
#
# Velocity S-wave (km/s) = 7.24864 4.86566 6.17322
# Velocity P-wave (km/s) = 9.44530 8.66505 9.06358
#
# Compressibility (1/GPa) = 0.02409182
#
# Stress axis : x y z
#
# Youngs Moduli (GPa) = 148.36891 55.64151 172.45562
#
# Poissons Ratio (x) = -0.08223 0.65215
# Poissons Ratio (y) = -0.21927 0.15621
# Poissons Ratio (z) = 0.56106 0.05040
#
# Static dielectric constant tensor:
#      x y z
#    x 1.669540 0.000000 0.000000 
#    y 0.000000 1.823930 0.000000 
#    z 0.000000 0.000000 1.758240 
# 
# From -- ./inp_files/29680.got.cif
#   From: 2010.05.17/outbox.cif.g08.bks.cpg/sg51_15_cif.got.tgz:29680.got - 2010.06.03 11:52:47.
