data_PCOD9401702
_publ_section_title
;
Structure prediction by ZEFSAII (Michael W. Deem and Ramdas Pophale) SiO2 
 PCOD9401702
Probable space group: P M M A
;
_chemical_formula_sum "Si O2"
_cell_formula_units_Z 48
_cell_length_a 9.173666
_cell_length_b 20.827197
_cell_length_c 14.754404
_cell_angle_alpha 90.000000
_cell_angle_beta 90.000000
_cell_angle_gamma 90.000000
_cell_volume 2819.002234
_symmetry_space_group_name_H-M "P M M A"
_symmetry_group_IT_number 51
_symmetry_cell_setting 'orthorhombic'
loop_
_space_group_symop_operation_xyz
x,y,z
1/2-x,-y,z
1/2+x,-y,-z
-x,y,-z
-x,-y,-z
1/2+x,y,-z
1/2-x,y,z
x,-y,z
loop_
_atom_site_type_symbol
_atom_site_label
_atom_site_fract_x
_atom_site_fract_y
_atom_site_fract_z
Si Si1 0.925010 0.688744 0.725884
Si Si2 0.924898 0.809618 0.597053
Si Si3 0.578447 0.267507 0.093281
Si Si4 0.575137 0.574252 0.594904
Si Si5 0.576183 0.072272 0.723955
Si Si6 0.921482 0.887134 0.093261
O O1 0.750000 0.689332 0.740603
O O2 0.960088 0.748056 0.659046
O O3 0.965648 0.623406 0.674016
O O4 0.005589 0.699538 0.820235
O O5 0.750000 0.810971 0.585083
O O6 0.968896 0.873374 0.652468
O O7 0.000000 0.805925 0.500000
O O8 0.750000 0.281037 0.088709
O O9 0.560811 0.190181 0.102607
O O10 0.500000 0.286383 0.000000
O O11 0.500000 0.591980 0.500000
O O12 0.750000 0.578385 0.583437
O O13 0.537790 0.500000 0.615065
O O14 0.750000 0.080195 0.739701
O O15 0.494608 0.082191 0.818767
O O16 0.550706 0.000000 0.690211
O O17 0.750000 0.901605 0.088720
O O18 0.000000 0.906666 0.000000
#
# Coordination Sequence:
#
# PCOD9401702 Si02
#       6
#     8   8   8   8   8   8
#     4  10  19  33  54  78 106 139 172 212 257 301
#     4  10  21  35  52  74 100 131 170 213 257 302
#     4  10  20  33  53  80 107 135 169 211 258 308
#     4   9  18  32  51  78 111 145 178 212 255 305
#     4  10  21  37  54  72  99 135 172 212 258 307
#     4  10  20  34  54  78 103 132 166 209 259 311
#
# _framework density 17.027301000000001
#
# number of rings (size 3 to 8) (size 9 to 14) (size 15 to 20)
#    0.000    2.167    1.667    1.500    0.000    4.333 
#    0.000    0.000    0.000    0.500    0.000    0.000 
#    0.000    0.000    0.000    0.000    0.000    0.000 
#
# Total GULP energy -267954.294625 kJ/mol
# GULP energy per Si atom -5582.381138 kJ/mol
# Density = 1.698855 g / cm^3
# Si number density = 17.027301 Si / 1000 Ang^3
#
#
#
# Elastic Constant Matrix: (Units=GPa)
#
#
# Indices 1 2 3 4 5 6 
#
# 1 41.1150 42.8028 55.8462 0.0000 0.0000 0.0000
# 2 42.8028 81.6251 67.3342 0.0000 0.0000 0.0000
# 3 55.8462 67.3342 147.3173 0.0000 0.0000 0.0000
# 4 0.0000 0.0000 0.0000 18.3537 0.0000 0.0000
# 5 0.0000 0.0000 0.0000 0.0000 39.2790 0.0000
# 6 0.0000 0.0000 0.0000 0.0000 0.0000 4.5320
#
#
#
# Elastic Compliance Matrix: (Units=1/GPa)
#
#
# Indices 1 2 3 4 5 6 
#
# 1 0.071053 -0.024142 -0.015901 0.000000 0.000000 0.000000
# 2 -0.024142 0.027869 -0.003586 0.000000 0.000000 0.000000
# 3 -0.015901 -0.003586 0.014455 0.000000 0.000000 0.000000
# 4 0.000000 0.000000 0.000000 0.054485 0.000000 0.000000
# 5 0.000000 0.000000 0.000000 0.000000 0.025459 0.000000
# 6 0.000000 0.000000 0.000000 0.000000 0.000000 0.220652
#
#
# Mechanical properties :
#
#
# Convention : Reuss Voigt Hill
#
# Bulk Modulus (GPa) = 38.28604 66.89154 52.58879
# Shear Modulus (GPa) = 9.80511 19.37122 14.58816
#
# Velocity S-wave (km/s) = 2.40228 3.37658 2.93021
# Velocity P-wave (km/s) = 5.49805 7.38728 6.51154
#
# Compressibility (1/GPa) = 0.02611918
#
# Stress axis : x y z
#
# Youngs Moduli (GPa) = 14.07392 35.88192 69.18043
#
# Poissons Ratio (x) = 0.86627 1.10002
# Poissons Ratio (y) = 0.33978 0.24809
# Poissons Ratio (z) = 0.22379 0.12868
#
# Static dielectric constant tensor:
#      x y z
#    x 1.565320 0.000000 0.000000 
#    y 0.000000 1.585390 0.000000 
#    z 0.000000 0.000000 1.531320 
# 
# From -- ./inp_files/14420.got.cif
#   From: 2010.05.17/outbox.cif.g08.bks.cpg/sg51_8_cif.got.tgz:14420.got - 2010.06.03 11:52:47.
