data_PCOD9401346
_publ_section_title
;
Structure prediction by ZEFSAII (Michael W. Deem and Ramdas Pophale) SiO2 
 PCOD9401346
Probable space group: P M M A
;
_chemical_formula_sum "Si O2"
_cell_formula_units_Z 44
_cell_length_a 8.133015
_cell_length_b 30.185209
_cell_length_c 9.307078
_cell_angle_alpha 90.000000
_cell_angle_beta 90.000000
_cell_angle_gamma 90.000000
_cell_volume 2284.857471
_symmetry_space_group_name_H-M "P M M A"
_symmetry_group_IT_number 51
_symmetry_cell_setting 'orthorhombic'
loop_
_space_group_symop_operation_xyz
x,y,z
1/2-x,-y,z
1/2+x,-y,-z
-x,y,-z
-x,-y,-z
1/2+x,y,-z
1/2-x,y,z
x,-y,z
loop_
_atom_site_type_symbol
_atom_site_label
_atom_site_fract_x
_atom_site_fract_y
_atom_site_fract_z
Si Si1 0.554375 0.230693 0.335665
Si Si2 0.551382 0.952464 0.832400
Si Si3 0.553328 0.856010 0.833842
Si Si4 0.448890 0.596407 0.666539
Si Si5 0.051004 0.683092 0.835076
Si Si6 0.448194 0.500000 0.667084
O O1 0.500000 0.231702 0.500000
O O2 0.750000 0.233301 0.332289
O O3 0.504699 0.185233 0.258855
O O4 0.489399 0.273447 0.249144
O O5 0.750000 0.952605 0.824551
O O6 0.493359 0.904418 0.777901
O O7 0.492946 0.000000 0.770862
O O8 0.500000 0.952584 0.000000
O O9 0.750000 0.856579 0.831448
O O10 0.500000 0.850984 0.000000
O O11 0.500000 0.601022 0.500000
O O12 0.250000 0.596445 0.670287
O O13 0.508282 0.638124 0.758145
O O14 0.506079 0.547944 0.722885
O O15 0.250000 0.683010 0.828598
O O16 0.000000 0.684681 0.000000
O O17 0.250000 0.500000 0.676030
O O18 0.500000 0.500000 0.500000
#
# Coordination Sequence:
#
# PCOD9401346 Si02
#       6
#     8   8   8   8   8   4
#     4  11  23  38  55  75  99 130 168 210 256 306
#     4   8  14  25  43  69 100 132 165 201 242 288
#     4  10  19  32  52  78 107 137 169 208 251 296
#     4   9  17  31  51  76 102 131 167 205 246 291
#     4  10  22  37  53  74 101 132 166 204 249 299
#     4   8  14  26  47  72 100 130 162 202 243 286
#
# _framework density 19.257217000000001
#
# number of rings (size 3 to 8) (size 9 to 14) (size 15 to 20)
#    0.000    2.545    0.000    2.182    0.000    4.364 
#    0.000    0.455    0.000    0.545    0.000    0.000 
#    0.000    0.000    0.000    0.000    0.000    0.000 
#
# Total GULP energy -245209.768864 kJ/mol
# GULP energy per Si atom -5572.949292 kJ/mol
# Density = 1.921339 g / cm^3
# Si number density = 19.257217 Si / 1000 Ang^3
#
#
#
# Elastic Constant Matrix: (Units=GPa)
#
#
# Indices 1 2 3 4 5 6 
#
# 1 18.3728 22.0199 6.8681 0.0000 0.0000 0.0000
# 2 22.0199 263.7742 101.0756 0.0000 0.0000 0.0000
# 3 6.8681 101.0756 95.9558 0.0000 0.0000 0.0000
# 4 0.0000 0.0000 0.0000 35.4496 0.0000 0.0000
# 5 0.0000 0.0000 0.0000 0.0000 26.4117 0.0000
# 6 0.0000 0.0000 0.0000 0.0000 0.0000 18.9034
#
#
#
# Elastic Compliance Matrix: (Units=1/GPa)
#
#
# Indices 1 2 3 4 5 6 
#
# 1 0.060637 -0.005699 0.001663 0.000000 0.000000 0.000000
# 2 -0.005699 0.006893 -0.006853 0.000000 0.000000 0.000000
# 3 0.001663 -0.006853 0.017521 0.000000 0.000000 0.000000
# 4 0.000000 0.000000 0.000000 0.028209 0.000000 0.000000
# 5 0.000000 0.000000 0.000000 0.000000 0.037862 0.000000
# 6 0.000000 0.000000 0.000000 0.000000 0.000000 0.052900
#
#
# Mechanical properties :
#
#
# Convention : Reuss Voigt Hill
#
# Bulk Modulus (GPa) = 15.80449 70.89221 43.34835
# Shear Modulus (GPa) = 20.25191 32.69556 26.47373
#
# Velocity S-wave (km/s) = 3.24644 4.12495 3.71178
# Velocity P-wave (km/s) = 4.71989 7.71882 6.39756
#
# Compressibility (1/GPa) = 0.06327315
#
# Stress axis : x y z
#
# Youngs Moduli (GPa) = 16.49157 145.08023 57.07562
#
# Poissons Ratio (x) = 0.82686 -0.09493
# Poissons Ratio (y) = 0.09399 0.39111
# Poissons Ratio (z) = -0.02743 0.99417
#
# Static dielectric constant tensor:
#      x y z
#    x 1.694260 0.000000 0.000000 
#    y 0.000000 1.756430 0.000000 
#    z 0.000000 0.000000 1.607210 
# 
# From -- ./inp_files/5737.got.cif
#   From: 2010.05.17/outbox.cif.g08.bks.cpg/sg51_3_cif.got.tgz:5737.got - 2010.06.03 11:52:47.
