data_PCOD9401390
_publ_section_title
;
Structure prediction by ZEFSAII (Michael W. Deem and Ramdas Pophale) SiO2 
 PCOD9401390
Probable space group: P M M A
;
_chemical_formula_sum "Si O2"
_cell_formula_units_Z 48
_cell_length_a 14.840721
_cell_length_b 14.813040
_cell_length_c 10.423729
_cell_angle_alpha 90.000000
_cell_angle_beta 90.000000
_cell_angle_gamma 90.000000
_cell_volume 2291.512909
_symmetry_space_group_name_H-M "P M M A"
_symmetry_group_IT_number 51
_symmetry_cell_setting 'orthorhombic'
loop_
_space_group_symop_operation_xyz
x,y,z
1/2-x,-y,z
1/2+x,-y,-z
-x,y,-z
-x,-y,-z
1/2+x,y,-z
1/2-x,y,z
x,-y,z
loop_
_atom_site_type_symbol
_atom_site_label
_atom_site_fract_x
_atom_site_fract_y
_atom_site_fract_z
Si Si1 0.145304 0.900234 0.794061
Si Si2 0.140957 0.600512 0.663345
Si Si3 0.360583 0.214152 0.554597
Si Si4 0.359426 0.104823 0.303195
Si Si5 0.396545 0.209459 0.042458
Si Si6 0.605149 0.600207 0.035548
O O1 0.250000 0.910275 0.759030
O O2 0.106543 0.839483 0.680582
O O3 0.104283 0.000000 0.802417
O O4 0.144247 0.851036 0.929736
O O5 0.250000 0.599650 0.660924
O O6 0.108967 0.500000 0.628116
O O7 0.110271 0.682313 0.573441
O O8 0.115108 0.617678 0.811998
O O9 0.250000 0.215534 0.553670
O O10 0.389050 0.160829 0.428182
O O11 0.250000 0.103320 0.303916
O O12 0.387820 0.158218 0.175954
O O13 0.388983 0.000000 0.305188
O O14 0.500000 0.217010 0.000000
O O15 0.358512 0.311558 0.037752
O O16 0.644112 0.500000 0.009770
O O17 0.500000 0.594273 0.000000
#
# Coordination Sequence:
#
# PCOD9401390 Si02
#       6
#     8   8   8   8   8   8
#     4  10  19  32  53  77 100 133 181 224 258 314
#     4   9  16  28  52  84 110 134 172 225 276 317
#     4   9  17  32  53  77 104 136 174 215 261 315
#     4  10  21  37  56  78 108 145 179 214 263 321
#     4  11  22  35  53  78 107 141 175 224 271 311
#     4   9  18  33  53  76 105 142 179 215 261 319
#
# _framework density 20.946859
#
# number of rings (size 3 to 8) (size 9 to 14) (size 15 to 20)
#    0.000    2.333    1.667    1.500    0.000    5.333 
#    0.000    1.667    0.000    3.000    0.000    5.833 
#    0.000    0.000    0.000    0.000    0.000    0.000 
#
# Total GULP energy -267848.513992 kJ/mol
# GULP energy per Si atom -5580.177375 kJ/mol
# Density = 2.089918 g / cm^3
# Si number density = 20.946859 Si / 1000 Ang^3
#
#
#
# Elastic Constant Matrix: (Units=GPa)
#
#
# Indices 1 2 3 4 5 6 
#
# 1 37.7276 8.5210 -4.7055 0.0000 0.0000 0.0000
# 2 8.5210 247.8624 114.0105 0.0000 0.0000 0.0000
# 3 -4.7055 114.0105 149.2128 0.0000 0.0000 0.0000
# 4 0.0000 0.0000 0.0000 42.7920 0.0000 0.0000
# 5 0.0000 0.0000 0.0000 0.0000 2406.3180 0.0000
# 6 0.0000 0.0000 0.0000 0.0000 0.0000 -322.1112
#
#
#
# Elastic Compliance Matrix: (Units=1/GPa)
#
#
# Indices 1 2 3 4 5 6 
#
# 1 0.027273 -0.002056 0.002431 0.000000 0.000000 0.000000
# 2 -0.002056 0.006376 -0.004936 0.000000 0.000000 0.000000
# 3 0.002431 -0.004936 0.010550 0.000000 0.000000 0.000000
# 4 0.000000 0.000000 0.000000 0.023369 0.000000 0.000000
# 5 0.000000 0.000000 0.000000 0.000000 0.000416 0.000000
# 6 0.000000 0.000000 0.000000 0.000000 0.000000 -0.003105
#
#
# Mechanical properties :
#
#
# Convention : Reuss Voigt Hill
#
# Bulk Modulus (GPa) = 28.50897 74.49498 51.50198
# Shear Modulus (GPa) = 58.34694 446.53155 252.43925
#
# Velocity S-wave (km/s) = 5.28348 14.61630 10.98980
# Velocity P-wave (km/s) = 7.13162 17.90222 13.62625
#
# Compressibility (1/GPa) = 0.03507668
#
# Stress axis : x y z
#
# Youngs Moduli (GPa) = 36.66595 156.84258 94.78356
#
# Poissons Ratio (x) = 0.32242 -0.23040
# Poissons Ratio (y) = 0.07537 0.46790
# Poissons Ratio (z) = -0.08913 0.77425
#
# Static dielectric constant tensor:
#      x y z
#    x 1.836260 0.000000 0.000000 
#    y 0.000000 1.803770 0.000000 
#    z 0.000000 0.000000 1.688490 
# 
# From -- ./inp_files/9581.got.cif
#   From: 2010.05.17/outbox.cif.g08.bks.cpg/sg51_5_cif.got.tgz:9581.got - 2010.06.03 11:52:47.
