data_PCOD9401328
_publ_section_title
;
Structure prediction by ZEFSAII (Michael W. Deem and Ramdas Pophale) SiO2 
 PCOD9401328
Probable space group: P M M A
;
_chemical_formula_sum "Si O2"
_cell_formula_units_Z 64
_cell_length_a 19.349865
_cell_length_b 8.952171
_cell_length_c 19.517578
_cell_angle_alpha 90.000000
_cell_angle_beta 90.000000
_cell_angle_gamma 90.000000
_cell_volume 3380.899275
_symmetry_space_group_name_H-M "P M M A"
_symmetry_group_IT_number 51
_symmetry_cell_setting 'orthorhombic'
loop_
_space_group_symop_operation_xyz
x,y,z
1/2-x,-y,z
1/2+x,-y,-z
-x,y,-z
-x,-y,-z
1/2+x,y,-z
1/2-x,y,z
x,-y,z
loop_
_atom_site_type_symbol
_atom_site_label
_atom_site_fract_x
_atom_site_fract_y
_atom_site_fract_z
Si Si1 0.530299 0.669945 0.721873
Si Si2 0.669532 0.180656 0.500011
Si Si3 0.428007 0.821482 0.142601
Si Si4 0.956096 0.319913 0.566389
Si Si5 0.830892 0.834227 0.351155
Si Si6 0.375107 0.666776 0.779299
Si Si7 0.668978 0.679257 0.966177
Si Si8 0.417996 0.822846 0.911191
O O1 0.558699 0.500000 0.720279
O O2 0.569155 0.768728 0.778401
O O3 0.524023 0.726978 0.643769
O O4 0.453446 0.660501 0.752247
O O5 0.750000 0.219718 0.509055
O O6 0.620846 0.260519 0.553711
O O7 0.642925 0.226547 0.423759
O O8 0.663787 0.000000 0.502930
O O9 0.365515 0.744430 0.102508
O O10 0.501742 0.780661 0.105218
O O11 0.422670 0.000000 0.138933
O O12 0.959374 0.500000 0.565368
O O13 0.000000 0.265955 0.500000
O O14 0.750000 0.853016 0.365176
O O15 0.836412 0.730220 0.286121
O O16 0.860657 0.000000 0.336884
O O17 0.352687 0.500000 0.799067
O O18 0.375389 0.776782 0.843444
O O19 0.750000 0.722979 0.974378
O O20 0.666016 0.500000 0.965657
O O21 0.619543 0.740899 0.026469
O O22 0.416661 0.000000 0.922864
#
# Coordination Sequence:
#
# PCOD9401328 Si02
#       8
#     8   8   8   8   8   8   8   8
#     4   9  19  35  54  78 109 142 176 219 271 323
#     4   9  19  35  52  72 101 138 181 225 269 323
#     4  10  21  38  61  86 110 141 184 227 268 320
#     4  10  20  34  54  82 113 142 177 224 275 326
#     4   9  18  32  48  67  97 138 178 217 266 323
#     4  10  19  32  52  77 105 138 176 219 265 315
#     4  11  24  40  59  85 115 146 182 224 270 321
#     4  10  21  37  58  84 113 145 181 221 267 322
#
# _framework density 18.929874000000002
#
# number of rings (size 3 to 8) (size 9 to 14) (size 15 to 20)
#    0.000    2.250    0.000    3.375    0.000    7.750 
#    0.000    1.875    0.000    0.750    0.000    0.000 
#    0.000    0.000    0.000    0.000    0.000    0.000 
#
# Total GULP energy -356724.564355 kJ/mol
# GULP energy per Si atom -5573.821318 kJ/mol
# Density = 1.888679 g / cm^3
# Si number density = 18.929874 Si / 1000 Ang^3
#
#
#
# Elastic Constant Matrix: (Units=GPa)
#
#
# Indices 1 2 3 4 5 6 
#
# 1 54.6571 26.2740 37.0506 0.0000 0.0000 0.0000
# 2 26.2740 35.5062 29.8771 0.0000 0.0000 0.0000
# 3 37.0506 29.8771 116.6693 0.0000 0.0000 0.0000
# 4 0.0000 0.0000 0.0000 12.5900 0.0000 0.0000
# 5 0.0000 0.0000 0.0000 0.0000 25.3265 0.0000
# 6 0.0000 0.0000 0.0000 0.0000 0.0000 25.0614
#
#
#
# Elastic Compliance Matrix: (Units=1/GPa)
#
#
# Indices 1 2 3 4 5 6 
#
# 1 0.030511 -0.018386 -0.004981 0.000000 0.000000 0.000000
# 2 -0.018386 0.046980 -0.006192 0.000000 0.000000 0.000000
# 3 -0.004981 -0.006192 0.011739 0.000000 0.000000 0.000000
# 4 0.000000 0.000000 0.000000 0.079428 0.000000 0.000000
# 5 0.000000 0.000000 0.000000 0.000000 0.039484 0.000000
# 6 0.000000 0.000000 0.000000 0.000000 0.000000 0.039902
#
#
# Mechanical properties :
#
#
# Convention : Reuss Voigt Hill
#
# Bulk Modulus (GPa) = 33.21018 43.69291 38.45155
# Shear Modulus (GPa) = 15.76301 20.17097 17.96699
#
# Velocity S-wave (km/s) = 2.88879 3.26784 3.08414
# Velocity P-wave (km/s) = 5.35805 6.11309 5.74798
#
# Compressibility (1/GPa) = 0.03011125
#
# Stress axis : x y z
#
# Youngs Moduli (GPa) = 32.77554 21.28581 85.18875
#
# Poissons Ratio (x) = 0.39136 0.42431
# Poissons Ratio (y) = 0.60261 0.52748
# Poissons Ratio (z) = 0.16325 0.13180
#
# Static dielectric constant tensor:
#      x y z
#    x 1.677180 0.000000 0.000000 
#    y 0.000000 1.662970 0.000000 
#    z 0.000000 0.000000 1.670320 
# 
# From -- ./inp_files/30504.got.cif
#   From: 2010.05.17/outbox.cif.g08.bks.cpg/sg51_16_cif.got.tgz:30504.got - 2010.06.03 11:52:47.
