data_PCOD9401764
_publ_section_title
;
Structure prediction by ZEFSAII (Michael W. Deem and Ramdas Pophale) SiO2 
 PCOD9401764
Probable space group: P M M A
;
_chemical_formula_sum "Si O2"
_cell_formula_units_Z 64
_cell_length_a 8.814157
_cell_length_b 24.951971
_cell_length_c 15.726738
_cell_angle_alpha 90.000000
_cell_angle_beta 90.000000
_cell_angle_gamma 90.000000
_cell_volume 3458.790765
_symmetry_space_group_name_H-M "P M M A"
_symmetry_group_IT_number 51
_symmetry_cell_setting 'orthorhombic'
loop_
_space_group_symop_operation_xyz
x,y,z
1/2-x,-y,z
1/2+x,-y,-z
-x,y,-z
-x,-y,-z
1/2+x,y,-z
1/2-x,y,z
x,-y,z
loop_
_atom_site_type_symbol
_atom_site_label
_atom_site_fract_x
_atom_site_fract_y
_atom_site_fract_z
Si Si1 0.932860 0.852890 0.221045
Si Si2 0.428271 0.561975 0.764023
Si Si3 0.068629 0.738812 0.189543
Si Si4 0.070213 0.596309 0.413115
Si Si5 0.569323 0.063538 0.908061
Si Si6 0.931029 0.292047 0.367683
Si Si7 0.570123 0.635682 0.909730
Si Si8 0.068912 0.170193 0.587501
O O1 0.750000 0.849394 0.218208
O O2 0.978639 0.854401 0.321262
O O3 0.003661 0.798493 0.182184
O O4 0.992353 0.902298 0.166235
O O5 0.250000 0.574407 0.756198
O O6 0.445433 0.500000 0.789415
O O7 0.504164 0.570466 0.672279
O O8 0.501590 0.600144 0.834222
O O9 0.250000 0.740645 0.205635
O O10 0.041135 0.698225 0.112287
O O11 0.982896 0.713022 0.270082
O O12 0.250000 0.591518 0.414857
O O13 0.000000 0.573873 0.500000
O O14 0.021148 0.658739 0.407142
O O15 0.750000 0.072807 0.908788
O O16 0.542487 0.000000 0.895895
O O17 0.500000 0.078319 0.000000
O O18 0.750000 0.300921 0.374308
O O19 0.967779 0.233666 0.405694
O O20 0.750000 0.627755 0.911131
O O21 0.500000 0.621345 0.000000
O O22 0.250000 0.165510 0.582707
O O23 0.000000 0.148504 0.500000
#
# Coordination Sequence:
#
# PCOD9401764 Si02
#       8
#     8   8   8   8   8   8   8   8
#     4  10  21  36  56  85 121 160 200 243 293 347
#     4  11  25  45  67  88 113 147 188 240 297 352
#     4  10  20  35  56  85 119 156 195 235 287 345
#     4  12  24  38  59  87 117 152 191 235 288 348
#     4  10  21  38  61  88 117 152 196 246 299 354
#     4  10  19  33  54  81 115 153 192 236 285 342
#     4  11  24  41  64  91 118 152 192 236 290 351
#     4   9  19  32  49  78 114 155 196 237 285 333
#
# _framework density 18.503577
#
# number of rings (size 3 to 8) (size 9 to 14) (size 15 to 20)
#    0.000    1.625    1.250    4.500    0.000    8.250 
#    0.000    1.250    0.000    0.375    0.000    0.000 
#    0.000    0.000    0.000    0.000    0.000    0.000 
#
# Total GULP energy -357510.875430 kJ/mol
# GULP energy per Si atom -5586.107429 kJ/mol
# Density = 1.846146 g / cm^3
# Si number density = 18.503577 Si / 1000 Ang^3
#
#
#
# Elastic Constant Matrix: (Units=GPa)
#
#
# Indices 1 2 3 4 5 6 
#
# 1 93.1369 42.4641 62.0367 0.0000 0.0000 0.0000
# 2 42.4641 61.3752 56.2578 0.0000 0.0000 0.0000
# 3 62.0367 56.2578 138.9115 0.0000 0.0000 0.0000
# 4 0.0000 0.0000 0.0000 -21.0550 0.0000 0.0000
# 5 0.0000 0.0000 0.0000 0.0000 34.0200 0.0000
# 6 0.0000 0.0000 0.0000 0.0000 0.0000 23.8278
#
#
#
# Elastic Compliance Matrix: (Units=1/GPa)
#
#
# Indices 1 2 3 4 5 6 
#
# 1 0.017349 -0.007795 -0.004591 0.000000 0.000000 0.000000
# 2 -0.007795 0.029415 -0.008432 0.000000 0.000000 0.000000
# 3 -0.004591 -0.008432 0.012664 0.000000 0.000000 0.000000
# 4 0.000000 0.000000 0.000000 -0.047495 0.000000 0.000000
# 5 0.000000 0.000000 0.000000 0.000000 0.029394 0.000000
# 6 0.000000 0.000000 0.000000 0.000000 0.000000 0.041968
#
#
# Mechanical properties :
#
#
# Convention : Reuss Voigt Hill
#
# Bulk Modulus (GPa) = 56.20356 68.32674 62.26515
# Shear Modulus (GPa) = 38.20840 16.20290 27.20565
#
# Velocity S-wave (km/s) = 4.54907 2.96237 3.83860
# Velocity P-wave (km/s) = 7.61790 6.97906 7.30547
#
# Compressibility (1/GPa) = 0.01779247
#
# Stress axis : x y z
#
# Youngs Moduli (GPa) = 57.64066 33.99618 78.96552
#
# Poissons Ratio (x) = 0.26501 0.36252
# Poissons Ratio (y) = 0.44932 0.66580
# Poissons Ratio (z) = 0.26462 0.28664
#
# Static dielectric constant tensor:
#      x y z
#    x 1.616120 0.000000 0.000000 
#    y 0.000000 1.635520 0.000000 
#    z 0.000000 0.000000 1.617770 
# 
# From -- ./inp_files/22355.got.cif
#   From: 2010.05.17/outbox.cif.g08.bks.cpg/sg51_12_cif.got.tgz:22355.got - 2010.06.03 11:52:47.
