data_PCOD9401708
_publ_section_title
;
Structure prediction by ZEFSAII (Michael W. Deem and Ramdas Pophale) SiO2 
 PCOD9401708
Probable space group: P M M A
;
_chemical_formula_sum "Si O2"
_cell_formula_units_Z 48
_cell_length_a 7.485502
_cell_length_b 8.354174
_cell_length_c 34.235881
_cell_angle_alpha 90.000000
_cell_angle_beta 90.000000
_cell_angle_gamma 90.000000
_cell_volume 2140.947193
_symmetry_space_group_name_H-M "P M M A"
_symmetry_group_IT_number 51
_symmetry_cell_setting 'orthorhombic'
loop_
_space_group_symop_operation_xyz
x,y,z
1/2-x,-y,z
1/2+x,-y,-z
-x,y,-z
-x,-y,-z
1/2+x,y,-z
1/2-x,y,z
x,-y,z
loop_
_atom_site_type_symbol
_atom_site_label
_atom_site_fract_x
_atom_site_fract_y
_atom_site_fract_z
Si Si1 0.464135 0.500000 0.454154
Si Si2 0.463528 0.679302 0.168489
Si Si3 0.036596 0.500000 0.045836
Si Si4 0.533706 0.680193 0.335214
Si Si5 0.968381 0.176555 0.911332
Si Si6 0.459489 0.174415 0.415746
Si Si7 0.964071 0.180866 0.253299
O O1 0.250000 0.500000 0.447346
O O2 0.500000 0.500000 0.500000
O O3 0.535866 0.335130 0.435399
O O4 0.250000 0.672045 0.164494
O O5 0.534011 0.500000 0.162338
O O6 0.524117 0.794694 0.133714
O O7 0.499772 0.735641 0.212222
O O8 0.250000 0.500000 0.052355
O O9 0.970760 0.333800 0.065024
O O10 0.000000 0.500000 0.000000
O O11 0.750000 0.680811 0.335153
O O12 0.473684 0.500000 0.344596
O O13 0.474319 0.798092 0.369304
O O14 0.471335 0.729171 0.292050
O O15 0.750000 0.175441 0.912940
O O16 0.027107 0.000000 0.924835
O O17 0.250000 0.169857 0.426084
O O18 0.536085 0.000000 0.426216
O O19 0.750000 0.173887 0.257030
O O20 0.033516 0.000000 0.252424
#
# Coordination Sequence:
#
# PCOD9401708 Si02
#       7
#     4   8   4   8   8   8   8
#     4  10  22  40  60  85 116 145 179 224 273 330
#     4  10  19  33  54  79 104 136 183 229 266 315
#     4  10  20  36  56  79 106 135 171 212 263 322
#     4  10  20  35  56  80 108 146 190 229 270 323
#     4   9  17  32  55  79 105 138 174 216 264 314
#     4  10  21  38  60  85 114 148 184 226 276 323
#     4  10  21  35  50  74 110 148 185 226 272 320
#
# _framework density 22.419982000000001
#
# number of rings (size 3 to 8) (size 9 to 14) (size 15 to 20)
#    0.000    2.167    1.667    1.500    0.000    5.000 
#    0.000    0.833    0.000    1.000    0.000    0.000 
#    0.000    0.000    0.000    0.000    0.000    0.000 
#
# Total GULP energy -268124.196943 kJ/mol
# GULP energy per Si atom -5585.920770 kJ/mol
# Density = 2.236895 g / cm^3
# Si number density = 22.419982 Si / 1000 Ang^3
#
#
#
# Elastic Constant Matrix: (Units=GPa)
#
#
# Indices 1 2 3 4 5 6 
#
# 1 62.7080 10.6487 -10.3924 0.0000 0.0000 0.0000
# 2 10.6487 217.9148 75.1209 0.0000 0.0000 0.0000
# 3 -10.3924 75.1209 125.1933 0.0000 0.0000 0.0000
# 4 0.0000 0.0000 0.0000 6.3714 0.0000 0.0000
# 5 0.0000 0.0000 0.0000 0.0000 24.3912 0.0000
# 6 0.0000 0.0000 0.0000 0.0000 0.0000 2.3114
#
#
#
# Elastic Compliance Matrix: (Units=1/GPa)
#
#
# Indices 1 2 3 4 5 6 
#
# 1 0.016612 -0.001623 0.002353 0.000000 0.000000 0.000000
# 2 -0.001623 0.005944 -0.003702 0.000000 0.000000 0.000000
# 3 0.002353 -0.003702 0.010404 0.000000 0.000000 0.000000
# 4 0.000000 0.000000 0.000000 0.156953 0.000000 0.000000
# 5 0.000000 0.000000 0.000000 0.000000 0.040998 0.000000
# 6 0.000000 0.000000 0.000000 0.000000 0.000000 0.432641
#
#
# Mechanical properties :
#
#
# Convention : Reuss Voigt Hill
#
# Bulk Modulus (GPa) = 37.01298 61.84116 49.42707
# Shear Modulus (GPa) = 7.36918 28.64404 18.00661
#
# Velocity S-wave (km/s) = 1.81494 3.57825 2.83706
# Velocity P-wave (km/s) = 4.57567 6.68691 5.72938
#
# Compressibility (1/GPa) = 0.02701755
#
# Stress axis : x y z
#
# Youngs Moduli (GPa) = 60.19586 168.22962 96.11687
#
# Poissons Ratio (x) = 0.27301 -0.22614
# Poissons Ratio (y) = 0.09769 0.35578
# Poissons Ratio (z) = -0.14163 0.62270
#
# Static dielectric constant tensor:
#      x y z
#    x 1.848020 0.000000 0.000000 
#    y 0.000000 1.844960 0.000000 
#    z 0.000000 0.000000 1.781400 
# 
# From -- ./inp_files/37069.got.cif
#   From: 2010.05.17/outbox.cif.g08.bks.cpg/sg51_19_cif.got.tgz:37069.got - 2010.06.03 11:52:47.
