data_PCOD9401476
_publ_section_title
;
Structure prediction by ZEFSAII (Michael W. Deem and Ramdas Pophale) SiO2 
 PCOD9401476
Probable space group: P M M A
;
_chemical_formula_sum "Si O2"
_cell_formula_units_Z 64
_cell_length_a 25.482968
_cell_length_b 9.680403
_cell_length_c 15.211216
_cell_angle_alpha 90.000000
_cell_angle_beta 90.000000
_cell_angle_gamma 90.000000
_cell_volume 3752.384902
_symmetry_space_group_name_H-M "P M M A"
_symmetry_group_IT_number 51
_symmetry_cell_setting 'orthorhombic'
loop_
_space_group_symop_operation_xyz
x,y,z
1/2-x,-y,z
1/2+x,-y,-z
-x,y,-z
-x,-y,-z
1/2+x,y,-z
1/2-x,y,z
x,-y,z
loop_
_atom_site_type_symbol
_atom_site_label
_atom_site_fract_x
_atom_site_fract_y
_atom_site_fract_z
Si Si1 0.310817 0.335672 0.863257
Si Si2 0.132257 0.835237 0.532961
Si Si3 0.307346 0.833672 0.365824
Si Si4 0.689205 0.664437 0.928891
Si Si5 0.619784 0.835883 0.795720
Si Si6 0.885492 0.164112 0.263000
Si Si7 0.047289 0.653431 0.433144
Si Si8 0.508564 0.162503 0.726599
O O1 0.250000 0.301445 0.842556
O O2 0.317529 0.500000 0.849198
O O3 0.350584 0.250162 0.804131
O O4 0.318635 0.309546 0.967210
O O5 0.181390 0.805298 0.468698
O O6 0.131569 0.801825 0.636311
O O7 0.088209 0.747541 0.484535
O O8 0.121527 0.000000 0.526746
O O9 0.250000 0.779310 0.339415
O O10 0.353547 0.792294 0.298128
O O11 0.305994 0.000000 0.359305
O O12 0.750000 0.699711 0.907904
O O13 0.682826 0.500000 0.914455
O O14 0.649459 0.750798 0.870078
O O15 0.556762 0.817427 0.794431
O O16 0.629463 0.000000 0.806351
O O17 0.947957 0.189657 0.249448
O O18 0.877052 0.000000 0.251071
O O19 0.067617 0.500000 0.409635
O O20 0.024567 0.736740 0.351447
O O21 0.000000 0.636679 0.500000
O O22 0.511104 0.000000 0.699407
#
# Coordination Sequence:
#
# PCOD9401476 Si02
#       8
#     8   8   8   8   8   8   8   8
#     4   9  20  40  62  80 104 140 176 215 269 327
#     4  10  19  33  52  73 103 144 180 218 266 316
#     4   9  17  29  47  74 106 138 175 217 263 315
#     4   9  19  37  59  81 105 137 177 219 267 323
#     4  10  19  32  54  80 106 141 179 218 267 318
#     4  10  21  34  55  83 107 139 182 226 268 311
#     4  11  21  31  48  75 103 137 184 231 263 298
#     4  10  20  35  53  76 109 145 181 218 264 322
#
# _framework density 17.055820000000001
#
# number of rings (size 3 to 8) (size 9 to 14) (size 15 to 20)
#    0.000    2.250    2.500    1.500    0.000    4.000 
#    0.000    3.125    0.000    4.125    0.000    0.000 
#    0.000    0.000    0.000    0.000    0.000    0.000 
#
# Total GULP energy -356414.810261 kJ/mol
# GULP energy per Si atom -5568.981410 kJ/mol
# Density = 1.701700 g / cm^3
# Si number density = 17.055820 Si / 1000 Ang^3
#
#
#
# Elastic Constant Matrix: (Units=GPa)
#
#
# Indices 1 2 3 4 5 6 
#
# 1 109.0267 47.6176 73.8187 0.0000 0.0000 0.0000
# 2 47.6176 49.2131 57.0095 0.0000 0.0000 0.0000
# 3 73.8187 57.0095 95.4719 0.0000 0.0000 0.0000
# 4 0.0000 0.0000 0.0000 40.4815 0.0000 0.0000
# 5 0.0000 0.0000 0.0000 0.0000 33.2740 0.0000
# 6 0.0000 0.0000 0.0000 0.0000 0.0000 26.3967
#
#
#
# Elastic Compliance Matrix: (Units=1/GPa)
#
#
# Indices 1 2 3 4 5 6 
#
# 1 0.019560 -0.004562 -0.012400 0.000000 0.000000 0.000000
# 2 -0.004562 0.066980 -0.036469 0.000000 0.000000 0.000000
# 3 -0.012400 -0.036469 0.041839 0.000000 0.000000 0.000000
# 4 0.000000 0.000000 0.000000 0.024703 0.000000 0.000000
# 5 0.000000 0.000000 0.000000 0.000000 0.030053 0.000000
# 6 0.000000 0.000000 0.000000 0.000000 0.000000 0.037884
#
#
# Mechanical properties :
#
#
# Convention : Reuss Voigt Hill
#
# Bulk Modulus (GPa) = 46.47318 67.84481 57.15900
# Shear Modulus (GPa) = 14.92306 25.04817 19.98561
#
# Velocity S-wave (km/s) = 2.96117 3.83639 3.42684
# Velocity P-wave (km/s) = 6.24486 7.71287 7.01735
#
# Compressibility (1/GPa) = 0.02151779
#
# Stress axis : x y z
#
# Youngs Moduli (GPa) = 51.12516 14.92979 23.90131
#
# Poissons Ratio (x) = 0.06810 0.29637
# Poissons Ratio (y) = 0.23321 0.87166
# Poissons Ratio (z) = 0.63394 0.54448
#
# Static dielectric constant tensor:
#      x y z
#    x 1.612280 0.000000 0.000000 
#    y 0.000000 1.578490 0.000000 
#    z 0.000000 0.000000 1.573420 
# 
# From -- ./inp_files/26181.got.cif
#   From: 2010.05.17/outbox.cif.g08.bks.cpg/sg51_14_cif.got.tgz:26181.got - 2010.06.03 11:52:47.
