data_PCOD9401259
_publ_section_title
;
Structure prediction by ZEFSAII (Michael W. Deem and Ramdas Pophale) SiO2 
 PCOD9401259
Probable space group: P M M A
;
_chemical_formula_sum "Si O2"
_cell_formula_units_Z 64
_cell_length_a 31.979592
_cell_length_b 9.370539
_cell_length_c 12.377415
_cell_angle_alpha 90.000000
_cell_angle_beta 90.000000
_cell_angle_gamma 90.000000
_cell_volume 3709.090617
_symmetry_space_group_name_H-M "P M M A"
_symmetry_group_IT_number 51
_symmetry_cell_setting 'orthorhombic'
loop_
_space_group_symop_operation_xyz
x,y,z
1/2-x,-y,z
1/2+x,-y,-z
-x,y,-z
-x,-y,-z
1/2+x,y,-z
1/2-x,y,z
x,-y,z
loop_
_atom_site_type_symbol
_atom_site_label
_atom_site_fract_x
_atom_site_fract_y
_atom_site_fract_z
Si Si1 0.446616 0.669845 0.241435
Si Si2 0.201522 0.170166 0.246692
Si Si3 0.394371 0.670120 0.868469
Si Si4 0.864447 0.329997 0.898056
Si Si5 0.981733 0.831960 0.120681
Si Si6 0.371710 0.671356 0.625641
Si Si7 0.201244 0.171739 0.497813
Si Si8 0.451944 0.327993 0.488866
O O1 0.455266 0.500000 0.233256
O O2 0.407994 0.703505 0.163008
O O3 0.486587 0.756944 0.202817
O O4 0.437131 0.701320 0.366576
O O5 0.250000 0.202903 0.225214
O O6 0.171718 0.249789 0.164696
O O7 0.193084 0.208324 0.371872
O O8 0.195959 0.000000 0.237449
O O9 0.403484 0.500000 0.874172
O O10 0.437344 0.755857 0.872540
O O11 0.372780 0.697721 0.753830
O O12 0.368389 0.707247 0.975761
O O13 0.858306 0.500000 0.889346
O O14 0.978382 0.000000 0.142220
O O15 0.000000 0.812797 0.000000
O O16 0.368514 0.500000 0.608353
O O17 0.332808 0.749049 0.570015
O O18 0.416120 0.719964 0.572549
O O19 0.250000 0.207985 0.521550
O O20 0.197438 0.000000 0.508573
O O21 0.500000 0.274907 0.500000
O O22 0.454309 0.500000 0.502308
#
# Coordination Sequence:
#
# PCOD9401259 Si02
#       8
#     8   8   8   8   8   8   8   8
#     4  10  19  32  52  74 101 137 174 216 268 321
#     4   9  19  36  57  80 107 139 172 210 263 323
#     4  10  21  37  55  76 106 145 182 220 267 317
#     4  10  20  33  52  79 105 134 177 220 261 311
#     4  11  22  34  50  75 105 139 182 226 264 308
#     4  10  20  35  57  82 108 141 184 229 273 321
#     4   9  19  37  59  82 109 141 176 217 271 332
#     4   9  17  30  49  75 105 137 174 217 265 318
#
# _framework density 17.254902999999999
#
# number of rings (size 3 to 8) (size 9 to 14) (size 15 to 20)
#    0.000    2.250    1.250    2.625    0.000    6.000 
#    0.000    2.500    0.000    5.250    0.000    0.000 
#    0.000    0.000    0.000    0.000    0.000    0.000 
#
# Total GULP energy -357066.961881 kJ/mol
# GULP energy per Si atom -5579.171279 kJ/mol
# Density = 1.721563 g / cm^3
# Si number density = 17.254903 Si / 1000 Ang^3
#
#
#
# Elastic Constant Matrix: (Units=GPa)
#
#
# Indices 1 2 3 4 5 6 
#
# 1 126.9003 54.7156 93.1657 0.0000 0.0000 0.0000
# 2 54.7156 29.0931 53.4768 0.0000 0.0000 0.0000
# 3 93.1657 53.4768 134.2367 0.0000 0.0000 0.0000
# 4 0.0000 0.0000 0.0000 22.0553 0.0000 0.0000
# 5 0.0000 0.0000 0.0000 0.0000 32.2989 0.0000
# 6 0.0000 0.0000 0.0000 0.0000 0.0000 47.6835
#
#
#
# Elastic Compliance Matrix: (Units=1/GPa)
#
#
# Indices 1 2 3 4 5 6 
#
# 1 0.044506 -0.100567 0.009174 0.000000 0.000000 0.000000
# 2 -0.100567 0.355626 -0.071876 0.000000 0.000000 0.000000
# 3 0.009174 -0.071876 0.029716 0.000000 0.000000 0.000000
# 4 0.000000 0.000000 0.000000 0.045341 0.000000 0.000000
# 5 0.000000 0.000000 0.000000 0.000000 0.030961 0.000000
# 6 0.000000 0.000000 0.000000 0.000000 0.000000 0.020972
#
#
# Mechanical properties :
#
#
# Convention : Reuss Voigt Hill
#
# Bulk Modulus (GPa) = 9.67945 76.99404 43.33674
# Shear Modulus (GPa) = 5.63004 26.33232 15.98118
#
# Velocity S-wave (km/s) = 1.80830 3.91074 3.04663
# Velocity P-wave (km/s) = 3.15940 8.06909 6.12748
#
# Compressibility (1/GPa) = 0.10331169
#
# Stress axis : x y z
#
# Youngs Moduli (GPa) = 22.46891 2.81195 33.65222
#
# Poissons Ratio (x) = 0.28279 -0.30874
# Poissons Ratio (y) = 2.25962 2.41878
# Poissons Ratio (z) = -0.20614 0.20211
#
# Static dielectric constant tensor:
#      x y z
#    x 1.597800 0.000000 0.000000 
#    y 0.000000 1.568830 0.000000 
#    z 0.000000 0.000000 1.591350 
# 
# From -- ./inp_files/19570.got.cif
#   From: 2010.05.17/outbox.cif.g08.bks.cpg/sg51_10_cif.got.tgz:19570.got - 2010.06.03 11:52:47.
