data_PCOD9401438
_publ_section_title
;
Structure prediction by ZEFSAII (Michael W. Deem and Ramdas Pophale) SiO2 
 PCOD9401438
Probable space group: P M M A
;
_chemical_formula_sum "Si O2"
_cell_formula_units_Z 56
_cell_length_a 20.779455
_cell_length_b 7.591806
_cell_length_c 15.303805
_cell_angle_alpha 90.000000
_cell_angle_beta 90.000000
_cell_angle_gamma 90.000000
_cell_volume 2414.230197
_symmetry_space_group_name_H-M "P M M A"
_symmetry_group_IT_number 51
_symmetry_cell_setting 'orthorhombic'
loop_
_space_group_symop_operation_xyz
x,y,z
1/2-x,-y,z
1/2+x,-y,-z
-x,y,-z
-x,-y,-z
1/2+x,y,-z
1/2-x,y,z
x,-y,z
loop_
_atom_site_type_symbol
_atom_site_label
_atom_site_fract_x
_atom_site_fract_y
_atom_site_fract_z
Si Si1 0.822873 0.787070 0.488088
Si Si2 0.960549 0.294035 0.416565
Si Si3 0.179654 0.708671 0.002754
Si Si4 0.177182 0.785488 0.310951
Si Si5 0.043256 0.202749 0.773650
Si Si6 0.085091 0.211794 0.157131
Si Si7 0.319671 0.797658 0.803159
O O1 0.750000 0.730330 0.463033
O O2 0.884236 0.727336 0.433191
O O3 0.834622 0.731170 0.588953
O O4 0.822582 0.000000 0.485598
O O5 0.975668 0.500000 0.407744
O O6 0.980076 0.204644 0.326168
O O7 0.000000 0.224468 0.500000
O O8 0.250000 0.756915 0.041551
O O9 0.179313 0.500000 0.986800
O O10 0.122733 0.751338 0.068508
O O11 0.175647 0.797931 0.908453
O O12 0.250000 0.732837 0.287754
O O13 0.127356 0.721717 0.238784
O O14 0.175560 0.000000 0.310914
O O15 0.113735 0.287723 0.773740
O O16 0.987498 0.280662 0.833812
O O17 0.053026 0.000000 0.802013
O O18 0.081137 0.000000 0.165954
O O19 0.250000 0.718220 0.780399
O O20 0.318038 0.000000 0.770107
#
# Coordination Sequence:
#
# PCOD9401438 Si02
#       7
#     8   8   8   8   8   8   8
#     4   9  18  34  57  82 106 137 183 237 285 329
#     4  11  24  39  55  79 114 153 188 224 274 337
#     4  10  21  36  55  81 112 146 182 217 260 321
#     4   8  14  26  47  75 103 133 172 217 267 321
#     4  10  22  38  58  84 108 138 185 235 279 323
#     4  10  19  32  53  80 110 142 179 226 275 323
#     4   9  19  38  61  82 107 140 180 227 275 321
#
# _framework density 23.195800999999999
#
# number of rings (size 3 to 8) (size 9 to 14) (size 15 to 20)
#    0.000    2.429    0.000    3.000    0.000    6.286 
#    0.000    5.000    0.000    0.857    0.000    0.000 
#    0.000    0.000    0.000    0.000    0.000    0.000 
#
# Total GULP energy -312796.622892 kJ/mol
# GULP energy per Si atom -5585.653980 kJ/mol
# Density = 2.314301 g / cm^3
# Si number density = 23.195801 Si / 1000 Ang^3
#
#
#
# Elastic Constant Matrix: (Units=GPa)
#
#
# Indices 1 2 3 4 5 6 
#
# 1 113.0990 7.1827 25.7882 0.0000 0.0000 0.0000
# 2 7.1827 57.9190 -9.1808 0.0000 0.0000 0.0000
# 3 25.7882 -9.1808 43.0802 0.0000 0.0000 0.0000
# 4 0.0000 0.0000 0.0000 51.5858 0.0000 0.0000
# 5 0.0000 0.0000 0.0000 0.0000 37.6136 0.0000
# 6 0.0000 0.0000 0.0000 0.0000 0.0000 -7.6984
#
#
#
# Elastic Compliance Matrix: (Units=1/GPa)
#
#
# Indices 1 2 3 4 5 6 
#
# 1 0.010550 -0.002390 -0.006824 0.000000 0.000000 0.000000
# 2 -0.002390 0.018411 0.005354 0.000000 0.000000 0.000000
# 3 -0.006824 0.005354 0.028439 0.000000 0.000000 0.000000
# 4 0.000000 0.000000 0.000000 0.019385 0.000000 0.000000
# 5 0.000000 0.000000 0.000000 0.000000 0.026586 0.000000
# 6 0.000000 0.000000 0.000000 0.000000 0.000000 -0.129897
#
#
# Mechanical properties :
#
#
# Convention : Reuss Voigt Hill
#
# Bulk Modulus (GPa) = 20.12953 29.07538 24.60246
# Shear Modulus (GPa) = -2226.02904 28.98741 -1098.52082
#
# Velocity S-wave (km/s) = -31.01213 3.53892 -21.78564
# Velocity P-wave (km/s) = 35.68809 5.40931 24.94373
#
# Compressibility (1/GPa) = 0.04967827
#
# Stress axis : x y z
#
# Youngs Moduli (GPa) = 94.78958 54.31661 35.16328
#
# Poissons Ratio (x) = 0.12982 0.23997
# Poissons Ratio (y) = 0.22655 -0.18827
# Poissons Ratio (z) = 0.64689 -0.29082
#
# Static dielectric constant tensor:
#      x y z
#    x 1.920090 0.000000 0.000000 
#    y 0.000000 1.888450 0.000000 
#    z 0.000000 0.000000 1.831290 
# 
# From -- ./inp_files/25640.got.cif
#   From: 2010.05.17/outbox.cif.g08.bks.cpg/sg51_13_cif.got.tgz:25640.got - 2010.06.03 11:52:47.
