data_PCOD9401656
_publ_section_title
;
Structure prediction by ZEFSAII (Michael W. Deem and Ramdas Pophale) SiO2 
 PCOD9401656
Probable space group: P M M A
;
_chemical_formula_sum "Si O2"
_cell_formula_units_Z 40
_cell_length_a 8.512737
_cell_length_b 27.091062
_cell_length_c 9.311556
_cell_angle_alpha 90.000000
_cell_angle_beta 90.000000
_cell_angle_gamma 90.000000
_cell_volume 2147.422533
_symmetry_space_group_name_H-M "P M M A"
_symmetry_group_IT_number 51
_symmetry_cell_setting 'orthorhombic'
loop_
_space_group_symop_operation_xyz
x,y,z
1/2-x,-y,z
1/2+x,-y,-z
-x,y,-z
-x,-y,-z
1/2+x,y,-z
1/2-x,y,z
x,-y,z
loop_
_atom_site_type_symbol
_atom_site_label
_atom_site_fract_x
_atom_site_fract_y
_atom_site_fract_z
Si Si1 0.938014 0.403777 0.336875
Si Si2 0.560087 0.500000 0.161472
Si Si3 0.559967 0.096664 0.838301
Si Si4 0.939760 0.000000 0.661978
Si Si5 0.438181 0.300800 0.336111
Si Si6 0.060251 0.192376 0.336880
O O1 0.750000 0.403368 0.342488
O O2 0.991889 0.450797 0.245493
O O3 0.000000 0.408046 0.500000
O O4 0.994486 0.351369 0.272812
O O5 0.750000 0.500000 0.160903
O O6 0.500000 0.500000 0.000000
O O7 0.750000 0.096864 0.840282
O O8 0.506266 0.146908 0.760240
O O9 0.508655 0.049021 0.746824
O O10 0.500000 0.093730 0.000000
O O11 0.000000 0.000000 0.500000
O O12 0.750000 0.000000 0.658996
O O13 0.500000 0.300293 0.500000
O O14 0.250000 0.304030 0.336492
O O15 0.485560 0.246794 0.278397
O O16 0.250000 0.191380 0.342398
O O17 0.000000 0.187079 0.500000
#
# Coordination Sequence:
#
# PCOD9401656 Si02
#       6
#     8   4   8   4   8   8
#     4  10  19  33  53  78 102 128 165 207 248 297
#     4  10  23  38  52  72 100 132 167 204 248 300
#     4  10  21  36  52  75 105 137 171 209 250 299
#     4  10  21  36  56  80 104 130 169 214 256 302
#     4   9  16  28  48  74 101 130 163 205 250 292
#     4   9  18  32  51  75 103 132 168 208 248 295
#
# _framework density 18.626982000000002
#
# number of rings (size 3 to 8) (size 9 to 14) (size 15 to 20)
#    0.000    2.400    0.000    3.600    0.000    4.000 
#    0.000    1.000    0.000    4.800    0.000    0.000 
#    0.000    0.000    0.000    0.000    0.000    0.000 
#
# Total GULP energy -223097.847251 kJ/mol
# GULP energy per Si atom -5577.446181 kJ/mol
# Density = 1.858459 g / cm^3
# Si number density = 18.626982 Si / 1000 Ang^3
#
#
#
# Elastic Constant Matrix: (Units=GPa)
#
#
# Indices 1 2 3 4 5 6 
#
# 1 21.8093 36.0743 15.3814 0.0000 0.0000 0.0000
# 2 36.0743 238.6173 99.5534 0.0000 0.0000 0.0000
# 3 15.3814 99.5534 108.3877 0.0000 0.0000 0.0000
# 4 0.0000 0.0000 0.0000 -1.7127 0.0000 0.0000
# 5 0.0000 0.0000 0.0000 0.0000 27.5017 0.0000
# 6 0.0000 0.0000 0.0000 0.0000 0.0000 15.4443
#
#
#
# Elastic Compliance Matrix: (Units=1/GPa)
#
#
# Indices 1 2 3 4 5 6 
#
# 1 0.061148 -0.009118 -0.000303 0.000000 0.000000 0.000000
# 2 -0.009118 0.008154 -0.006196 0.000000 0.000000 0.000000
# 3 -0.000303 -0.006196 0.014960 0.000000 0.000000 0.000000
# 4 0.000000 0.000000 0.000000 -0.583871 0.000000 0.000000
# 5 0.000000 0.000000 0.000000 0.000000 0.036361 0.000000
# 6 0.000000 0.000000 0.000000 0.000000 0.000000 0.064749
#
#
# Mechanical properties :
#
#
# Convention : Reuss Voigt Hill
#
# Bulk Modulus (GPa) = 18.85764 74.53693 46.69729
# Shear Modulus (GPa) = -14.30246 22.76700 4.23227
#
# Velocity S-wave (km/s) = -2.77399 3.49988 1.50899
# Velocity P-wave (km/s) = 0.33797 7.51230 5.30662
#
# Compressibility (1/GPa) = 0.05302890
#
# Stress axis : x y z
#
# Youngs Moduli (GPa) = 16.35388 122.63711 66.84646
#
# Poissons Ratio (x) = 1.11822 0.02023
# Poissons Ratio (y) = 0.14912 0.41415
# Poissons Ratio (z) = 0.00495 0.75981
#
# Static dielectric constant tensor:
#      x y z
#    x 1.641610 0.000000 0.000000 
#    y 0.000000 1.697770 0.000000 
#    z 0.000000 0.000000 1.581090 
# 
# From -- ./inp_files/5596.got.cif
#   From: 2010.05.17/outbox.cif.g08.bks.cpg/sg51_3_cif.got.tgz:5596.got - 2010.06.03 11:52:47.
