data_PCOD9401396
_publ_section_title
;
Structure prediction by ZEFSAII (Michael W. Deem and Ramdas Pophale) SiO2 
 PCOD9401396
Probable space group: P M M A
;
_chemical_formula_sum "Si O2"
_cell_formula_units_Z 64
_cell_length_a 23.510984
_cell_length_b 9.542355
_cell_length_c 16.816469
_cell_angle_alpha 90.000000
_cell_angle_beta 90.000000
_cell_angle_gamma 90.000000
_cell_volume 3772.777439
_symmetry_space_group_name_H-M "P M M A"
_symmetry_group_IT_number 51
_symmetry_cell_setting 'orthorhombic'
loop_
_space_group_symop_operation_xyz
x,y,z
1/2-x,-y,z
1/2+x,-y,-z
-x,y,-z
-x,-y,-z
1/2+x,y,-z
1/2-x,y,z
x,-y,z
loop_
_atom_site_type_symbol
_atom_site_label
_atom_site_fract_x
_atom_site_fract_y
_atom_site_fract_z
Si Si1 0.901143 0.834783 0.210999
Si Si2 0.518047 0.666880 0.331244
Si Si3 0.186226 0.835634 0.438426
Si Si4 0.923606 0.333882 0.787217
Si Si5 0.815298 0.662932 0.298575
Si Si6 0.314650 0.836979 0.247214
Si Si7 0.604741 0.662332 0.454794
Si Si8 0.495420 0.165996 0.907184
O O1 0.944767 0.762347 0.272595
O O2 0.842411 0.758670 0.230348
O O3 0.931435 0.813208 0.126286
O O4 0.896747 0.000000 0.225996
O O5 0.530620 0.500000 0.319162
O O6 0.454264 0.688165 0.299407
O O7 0.542411 0.698682 0.418956
O O8 0.250000 0.784299 0.462717
O O9 0.183610 0.825129 0.343128
O O10 0.134316 0.755046 0.478638
O O11 0.183084 0.000000 0.459370
O O12 0.921590 0.500000 0.800738
O O13 0.862226 0.263695 0.787263
O O14 0.962806 0.258745 0.853190
O O15 0.750000 0.698553 0.314902
O O16 0.818695 0.500000 0.274814
O O17 0.852871 0.675931 0.378570
O O18 0.250000 0.804676 0.222237
O O19 0.326530 0.000000 0.227712
O O20 0.603412 0.500000 0.480198
O O21 0.508655 0.000000 0.895685
O O22 0.500000 0.198723 0.000000
#
# Coordination Sequence:
#
# PCOD9401396 Si02
#       8
#     8   8   8   8   8   8   8   8
#     4   9  16  26  43  67  91 116 151 192 223 255
#     4   8  16  30  44  62  93 128 155 184 232 288
#     4   9  18  31  45  63  89 121 159 205 252 290
#     4  10  19  32  53  78 100 123 156 199 239 278
#     4   9  17  28  41  59  88 127 162 189 227 279
#     4   9  19  36  54  70  93 127 162 197 243 295
#     4   9  16  27  43  62  87 121 160 198 235 280
#     4   9  18  33  53  76 101 127 152 180 223 281
#
# _framework density 16.963629999999998
#
# number of rings (size 3 to 8) (size 9 to 14) (size 15 to 20)
#    0.000    3.000    0.000    2.625    0.000    5.000 
#    0.000    1.875    0.000    4.500    0.000    1.750 
#    0.000    0.000    0.000    0.000    0.000    0.000 
#
# Total GULP energy -356304.614675 kJ/mol
# GULP energy per Si atom -5567.259604 kJ/mol
# Density = 1.692502 g / cm^3
# Si number density = 16.963630 Si / 1000 Ang^3
#
#
#
# Elastic Constant Matrix: (Units=GPa)
#
#
# Indices 1 2 3 4 5 6 
#
# 1 71.6608 37.8549 16.5869 0.0000 0.0000 0.0000
# 2 37.8549 48.0601 23.7441 0.0000 0.0000 0.0000
# 3 16.5869 23.7441 34.2941 0.0000 0.0000 0.0000
# 4 0.0000 0.0000 0.0000 -3.3988 0.0000 0.0000
# 5 0.0000 0.0000 0.0000 0.0000 20.3639 0.0000
# 6 0.0000 0.0000 0.0000 0.0000 0.0000 25.6641
#
#
#
# Elastic Compliance Matrix: (Units=1/GPa)
#
#
# Indices 1 2 3 4 5 6 
#
# 1 0.024012 -0.020025 0.002251 0.000000 0.000000 0.000000
# 2 -0.020025 0.048326 -0.023774 0.000000 0.000000 0.000000
# 3 0.002251 -0.023774 0.044531 0.000000 0.000000 0.000000
# 4 0.000000 0.000000 0.000000 -0.294220 0.000000 0.000000
# 5 0.000000 0.000000 0.000000 0.000000 0.049107 0.000000
# 6 0.000000 0.000000 0.000000 0.000000 0.000000 0.038965
#
#
# Mechanical properties :
#
#
# Convention : Reuss Voigt Hill
#
# Bulk Modulus (GPa) = 29.60959 34.48743 32.04851
# Shear Modulus (GPa) = 985.50145 13.58109 499.54127
#
# Velocity S-wave (km/s) = 24.12905 2.83256 17.17897
# Velocity P-wave (km/s) = 28.17399 5.57424 20.30820
#
# Compressibility (1/GPa) = 0.03377284
#
# Stress axis : x y z
#
# Youngs Moduli (GPa) = 41.64580 20.69290 22.45642
#
# Poissons Ratio (x) = 0.41438 -0.05055
# Poissons Ratio (y) = 0.83397 0.53387
# Poissons Ratio (z) = -0.09375 0.49194
#
# Static dielectric constant tensor:
#      x y z
#    x 1.608420 0.000000 0.000000 
#    y 0.000000 1.562560 0.000000 
#    z 0.000000 0.000000 1.570590 
# 
# From -- ./inp_files/30815.got.cif
#   From: 2010.05.17/outbox.cif.g08.bks.cpg/sg51_16_cif.got.tgz:30815.got - 2010.06.03 11:52:47.
