data_PCOD9401249
_publ_section_title
;
Structure prediction by ZEFSAII (Michael W. Deem and Ramdas Pophale) SiO2 
 PCOD9401249
Probable space group: P M M A
;
_chemical_formula_sum "Si O2"
_cell_formula_units_Z 64
_cell_length_a 22.988577
_cell_length_b 8.788255
_cell_length_c 18.022011
_cell_angle_alpha 90.000000
_cell_angle_beta 90.000000
_cell_angle_gamma 90.000000
_cell_volume 3640.977453
_symmetry_space_group_name_H-M "P M M A"
_symmetry_group_IT_number 51
_symmetry_cell_setting 'orthorhombic'
loop_
_space_group_symop_operation_xyz
x,y,z
1/2-x,-y,z
1/2+x,-y,-z
-x,y,-z
-x,-y,-z
1/2+x,y,-z
1/2-x,y,z
x,-y,z
loop_
_atom_site_type_symbol
_atom_site_label
_atom_site_fract_x
_atom_site_fract_y
_atom_site_fract_z
Si Si1 0.974010 0.179294 0.917807
Si Si2 0.581601 0.680590 0.649334
Si Si3 0.452488 0.815192 0.665945
Si Si4 0.185076 0.316748 0.930490
Si Si5 0.349731 0.680428 0.096144
Si Si6 0.070438 0.825147 0.505287
Si Si7 0.087872 0.181929 0.824133
Si Si8 0.684595 0.818102 0.748860
O O1 0.918118 0.281406 0.904270
O O2 0.025306 0.214046 0.860745
O O3 0.957990 0.000000 0.910645
O O4 0.000000 0.201350 0.000000
O O5 0.578561 0.500000 0.656635
O O6 0.518182 0.750789 0.668995
O O7 0.592719 0.728095 0.563621
O O8 0.632767 0.745002 0.701033
O O9 0.420883 0.769213 0.589341
O O10 0.416752 0.770044 0.738698
O O11 0.457534 0.000000 0.664317
O O12 0.250000 0.268958 0.908902
O O13 0.182319 0.500000 0.930591
O O14 0.137221 0.255739 0.874223
O O15 0.173142 0.268109 0.015492
O O16 0.339534 0.500000 0.103251
O O17 0.322130 0.764189 0.166179
O O18 0.000000 0.827515 0.500000
O O19 0.090619 0.000000 0.497417
O O20 0.095904 0.000000 0.826768
O O21 0.750000 0.776351 0.723101
O O22 0.678846 0.000000 0.745320
#
# Coordination Sequence:
#
# PCOD9401249 Si02
#       8
#     8   8   8   8   8   8   8   8
#     4  10  19  32  51  77 109 141 175 216 264 315
#     4  11  21  33  54  83 112 141 172 213 267 320
#     4   9  18  33  54  81 112 145 178 217 265 316
#     4  10  22  38  53  71 100 138 175 215 265 315
#     4  11  22  36  56  79 106 138 176 222 269 318
#     4   8  15  30  52  77 108 143 174 205 249 307
#     4  10  20  34  53  77 104 136 177 222 260 301
#     4  11  24  40  57  76 102 141 185 225 267 320
#
# _framework density 17.577698999999999
#
# number of rings (size 3 to 8) (size 9 to 14) (size 15 to 20)
#    0.000    2.000    1.250    3.750    0.000    6.750 
#    0.000    0.000    0.000    0.750    0.000    1.750 
#    0.000    0.000    0.000    0.000    0.000    0.000 
#
# Total GULP energy -357188.031063 kJ/mol
# GULP energy per Si atom -5581.062985 kJ/mol
# Density = 1.753769 g / cm^3
# Si number density = 17.577699 Si / 1000 Ang^3
#
#
#
# Elastic Constant Matrix: (Units=GPa)
#
#
# Indices 1 2 3 4 5 6 
#
# 1 69.3355 27.7576 38.3418 0.0000 0.0000 0.0000
# 2 27.7576 35.3464 27.1517 0.0000 0.0000 0.0000
# 3 38.3418 27.1517 127.4563 0.0000 0.0000 0.0000
# 4 0.0000 0.0000 0.0000 20.3655 0.0000 0.0000
# 5 0.0000 0.0000 0.0000 0.0000 6.6482 0.0000
# 6 0.0000 0.0000 0.0000 0.0000 0.0000 16.2765
#
#
#
# Elastic Compliance Matrix: (Units=1/GPa)
#
#
# Indices 1 2 3 4 5 6 
#
# 1 0.022311 -0.014785 -0.003562 0.000000 0.000000 0.000000
# 2 -0.014785 0.043624 -0.004845 0.000000 0.000000 0.000000
# 3 -0.003562 -0.004845 0.009950 0.000000 0.000000 0.000000
# 4 0.000000 0.000000 0.000000 0.049103 0.000000 0.000000
# 5 0.000000 0.000000 0.000000 0.000000 0.150416 0.000000
# 6 0.000000 0.000000 0.000000 0.000000 0.000000 0.061438
#
#
# Mechanical properties :
#
#
# Convention : Reuss Voigt Hill
#
# Bulk Modulus (GPa) = 33.89823 46.51559 40.20691
# Shear Modulus (GPa) = 12.72067 17.91718 15.31892
#
# Velocity S-wave (km/s) = 2.69305 3.19613 2.95532
# Velocity P-wave (km/s) = 5.38486 6.33566 5.87951
#
# Compressibility (1/GPa) = 0.02950006
#
# Stress axis : x y z
#
# Youngs Moduli (GPa) = 44.82000 22.92305 100.50610
#
# Poissons Ratio (x) = 0.33892 0.35802
# Poissons Ratio (y) = 0.66266 0.48700
# Poissons Ratio (z) = 0.15966 0.11107
#
# Static dielectric constant tensor:
#      x y z
#    x 1.573350 0.000000 0.000000 
#    y 0.000000 1.596540 0.000000 
#    z 0.000000 0.000000 1.626080 
# 
# From -- ./inp_files/30583.got.cif
#   From: 2010.05.17/outbox.cif.g08.bks.cpg/sg51_16_cif.got.tgz:30583.got - 2010.06.03 11:52:47.
