data_PCOD9401595
_publ_section_title
;
Structure prediction by ZEFSAII (Michael W. Deem and Ramdas Pophale) SiO2 
 PCOD9401595
Probable space group: P M M A
;
_chemical_formula_sum "Si O2"
_cell_formula_units_Z 56
_cell_length_a 16.540980
_cell_length_b 7.540336
_cell_length_c 20.113140
_cell_angle_alpha 90.000000
_cell_angle_beta 90.000000
_cell_angle_gamma 90.000000
_cell_volume 2508.602275
_symmetry_space_group_name_H-M "P M M A"
_symmetry_group_IT_number 51
_symmetry_cell_setting 'orthorhombic'
loop_
_space_group_symop_operation_xyz
x,y,z
1/2-x,-y,z
1/2+x,-y,-z
-x,y,-z
-x,-y,-z
1/2+x,y,-z
1/2-x,y,z
x,-y,z
loop_
_atom_site_type_symbol
_atom_site_label
_atom_site_fract_x
_atom_site_fract_y
_atom_site_fract_z
Si Si1 0.001256 0.283191 0.922741
Si Si2 0.083831 0.285335 0.709135
Si Si3 0.842908 0.212903 0.572549
Si Si4 0.838064 0.294885 0.854162
Si Si5 0.657663 0.711376 0.427600
Si Si6 0.899597 0.793998 0.714397
Si Si7 0.160944 0.283705 0.844671
O O1 0.001515 0.500000 0.917926
O O2 0.919191 0.218485 0.887130
O O3 0.083888 0.223530 0.887312
O O4 0.000000 0.235979 0.000000
O O5 0.081209 0.500000 0.708061
O O6 0.109838 0.220270 0.636307
O O7 0.144555 0.234163 0.767919
O O8 0.994589 0.222863 0.727266
O O9 0.750000 0.276903 0.572335
O O10 0.879027 0.257878 0.500575
O O11 0.883534 0.278355 0.640262
O O12 0.842326 0.000000 0.575416
O O13 0.750000 0.215420 0.869699
O O14 0.835180 0.500000 0.875817
O O15 0.851859 0.292212 0.774855
O O16 0.750000 0.781747 0.427561
O O17 0.662818 0.500000 0.419392
O O18 0.875713 0.000000 0.714905
O O19 0.250000 0.224301 0.866461
O O20 0.161019 0.500000 0.847311
#
# Coordination Sequence:
#
# PCOD9401595 Si02
#       7
#     8   8   8   8   8   8   8
#     4   9  17  30  50  81 118 145 171 213 263 319
#     4  10  19  33  52  75 105 136 176 225 272 320
#     4   9  19  35  51  68  96 134 175 221 269 320
#     4  10  20  35  56  82 112 145 179 221 272 318
#     4   9  18  32  51  75 101 132 174 224 274 326
#     4  11  22  35  53  76 104 140 185 228 268 317
#     4   9  16  28  50  77 105 140 178 215 260 312
#
# _framework density 22.323186
#
# number of rings (size 3 to 8) (size 9 to 14) (size 15 to 20)
#    0.000    2.429    1.429    1.286    0.000    5.429 
#    0.000    7.143    0.000    1.714    0.000    0.000 
#    0.000    0.000    0.000    0.000    0.000    0.000 
#
# Total GULP energy -312650.081206 kJ/mol
# GULP energy per Si atom -5583.037164 kJ/mol
# Density = 2.227238 g / cm^3
# Si number density = 22.323186 Si / 1000 Ang^3
#
#
#
# Elastic Constant Matrix: (Units=GPa)
#
#
# Indices 1 2 3 4 5 6 
#
# 1 163.8066 0.6717 75.6080 0.0000 0.0000 0.0000
# 2 0.6717 54.8803 1.2079 0.0000 0.0000 0.0000
# 3 75.6080 1.2079 134.3420 0.0000 0.0000 0.0000
# 4 0.0000 0.0000 0.0000 40.7561 0.0000 0.0000
# 5 0.0000 0.0000 0.0000 0.0000 14.9061 0.0000
# 6 0.0000 0.0000 0.0000 0.0000 0.0000 -8.1685
#
#
#
# Elastic Compliance Matrix: (Units=1/GPa)
#
#
# Indices 1 2 3 4 5 6 
#
# 1 0.008247 0.000001 -0.004642 0.000000 0.000000 0.000000
# 2 0.000001 0.018225 -0.000165 0.000000 0.000000 0.000000
# 3 -0.004642 -0.000165 0.010057 0.000000 0.000000 0.000000
# 4 0.000000 0.000000 0.000000 0.024536 0.000000 0.000000
# 5 0.000000 0.000000 0.000000 0.000000 0.067087 0.000000
# 6 0.000000 0.000000 0.000000 0.000000 0.000000 -0.122422
#
#
# Mechanical properties :
#
#
# Convention : Reuss Voigt Hill
#
# Bulk Modulus (GPa) = 37.14720 56.44489 46.79604
# Shear Modulus (GPa) = 205.64797 27.86818 116.75807
#
# Velocity S-wave (km/s) = 9.60849 3.53710 7.23996
# Velocity P-wave (km/s) = 11.82261 6.48241 9.53404
#
# Compressibility (1/GPa) = 0.02691993
#
# Stress axis : x y z
#
# Youngs Moduli (GPa) = 121.25425 54.86948 99.42908
#
# Poissons Ratio (x) = -0.00007 0.46150
# Poissons Ratio (y) = -0.00015 0.01636
# Poissons Ratio (z) = 0.56280 0.00903
#
# Static dielectric constant tensor:
#      x y z
#    x 1.809320 0.000000 0.000000 
#    y 0.000000 1.845350 0.000000 
#    z 0.000000 0.000000 1.811300 
# 
# From -- ./inp_files/33368.got.cif
#   From: 2010.05.17/outbox.cif.g08.bks.cpg/sg51_17_cif.got.tgz:33368.got - 2010.06.03 11:52:47.
