data_PCOD9401984
_publ_section_title
;
Structure prediction by ZEFSAII (Michael W. Deem and Ramdas Pophale) SiO2 
 PCOD9401984
Probable space group: P M M A
;
_chemical_formula_sum "Si O2"
_cell_formula_units_Z 56
_cell_length_a 7.597001
_cell_length_b 16.569191
_cell_length_c 20.022716
_cell_angle_alpha 90.000000
_cell_angle_beta 90.000000
_cell_angle_gamma 90.000000
_cell_volume 2520.382615
_symmetry_space_group_name_H-M "P M M A"
_symmetry_group_IT_number 51
_symmetry_cell_setting 'orthorhombic'
loop_
_space_group_symop_operation_xyz
x,y,z
1/2-x,-y,z
1/2+x,-y,-z
-x,y,-z
-x,-y,-z
1/2+x,y,-z
1/2-x,y,z
x,-y,z
loop_
_atom_site_type_symbol
_atom_site_label
_atom_site_fract_x
_atom_site_fract_y
_atom_site_fract_z
Si Si1 0.539158 0.592462 0.572422
Si Si2 0.537033 0.166585 0.289631
Si Si3 0.464781 0.088818 0.846215
Si Si4 0.960931 0.907548 0.426856
Si Si5 0.454295 0.587804 0.855132
Si Si6 0.538494 0.751008 0.078142
Si Si7 0.955191 0.350315 0.714991
O O1 0.500000 0.630042 0.500000
O O2 0.750000 0.590310 0.576682
O O3 0.472619 0.500000 0.571570
O O4 0.473705 0.633317 0.640372
O O5 0.750000 0.169097 0.290884
O O6 0.486782 0.105445 0.230896
O O7 0.472601 0.140523 0.362702
O O8 0.474618 0.255628 0.271568
O O9 0.250000 0.088406 0.849215
O O10 0.526906 0.165950 0.888416
O O11 0.524781 0.000000 0.868052
O O12 0.750000 0.911194 0.420789
O O13 0.000000 0.872843 0.500000
O O14 0.028087 0.000000 0.425355
O O15 0.250000 0.585047 0.875910
O O16 0.533132 0.500000 0.871332
O O17 0.531887 0.668492 0.888462
O O18 0.459156 0.601413 0.775438
O O19 0.750000 0.751033 0.088714
O O20 0.500000 0.750724 0.000000
O O21 0.750000 0.372818 0.715901
#
# Coordination Sequence:
#
# PCOD9401984 Si02
#       7
#     8   8   8   8   8   8   8
#     4   9  19  35  52  72 101 138 181 228 276 328
#     4  10  19  34  55  78 106 143 191 236 277 331
#     4   9  17  33  59  85 110 145 189 233 275 323
#     4   9  18  32  51  75 104 142 188 238 290 343
#     4  10  21  39  62  86 113 149 192 232 272 327
#     4  10  21  38  59  87 119 149 184 225 273 330
#     4  11  22  35  54  81 114 146 183 233 289 336
#
# _framework density 22.218848999999999
#
# number of rings (size 3 to 8) (size 9 to 14) (size 15 to 20)
#    0.000    2.286    1.429    1.286    0.000    6.000 
#    0.000    4.286    0.000    2.143    0.000    0.000 
#    0.000    0.000    0.000    0.000    0.000    0.000 
#
# Total GULP energy -312674.032020 kJ/mol
# GULP energy per Si atom -5583.464857 kJ/mol
# Density = 2.216828 g / cm^3
# Si number density = 22.218849 Si / 1000 Ang^3
#
#
#
# Elastic Constant Matrix: (Units=GPa)
#
#
# Indices 1 2 3 4 5 6 
#
# 1 48.1474 3.5103 -3.1253 0.0000 0.0000 0.0000
# 2 3.5103 164.8998 71.2507 0.0000 0.0000 0.0000
# 3 -3.1253 71.2507 129.1292 0.0000 0.0000 0.0000
# 4 0.0000 0.0000 0.0000 14.8698 0.0000 0.0000
# 5 0.0000 0.0000 0.0000 0.0000 24.4708 0.0000
# 6 0.0000 0.0000 0.0000 0.0000 0.0000 76.6936
#
#
#
# Elastic Compliance Matrix: (Units=1/GPa)
#
#
# Indices 1 2 3 4 5 6 
#
# 1 0.020897 -0.000871 0.000986 0.000000 0.000000 0.000000
# 2 -0.000871 0.007999 -0.004435 0.000000 0.000000 0.000000
# 3 0.000986 -0.004435 0.010215 0.000000 0.000000 0.000000
# 4 0.000000 0.000000 0.000000 0.067250 0.000000 0.000000
# 5 0.000000 0.000000 0.000000 0.000000 0.040865 0.000000
# 6 0.000000 0.000000 0.000000 0.000000 0.000000 0.013039
#
#
# Mechanical properties :
#
#
# Convention : Reuss Voigt Hill
#
# Bulk Modulus (GPa) = 32.81665 53.93864 43.37765
# Shear Modulus (GPa) = 27.92335 41.24290 34.58312
#
# Velocity S-wave (km/s) = 3.54890 4.31305 3.94950
# Velocity P-wave (km/s) = 5.62092 7.00942 6.35322
#
# Compressibility (1/GPa) = 0.03047233
#
# Stress axis : x y z
#
# Youngs Moduli (GPa) = 47.85357 125.01515 97.89461
#
# Poissons Ratio (x) = 0.10889 -0.09656
# Poissons Ratio (y) = 0.04168 0.43414
# Poissons Ratio (z) = -0.04720 0.55441
#
# Static dielectric constant tensor:
#      x y z
#    x 1.830880 0.000000 0.000000 
#    y 0.000000 1.815540 0.000000 
#    z 0.000000 0.000000 1.803170 
# 
# From -- ./inp_files/31933.got.cif
#   From: 2010.05.17/outbox.cif.g08.bks.cpg/sg51_16_cif.got.tgz:31933.got - 2010.06.03 11:52:47.
