data_PCOD9401157
_publ_section_title
;
Structure prediction by ZEFSAII (Michael W. Deem and Ramdas Pophale) SiO2 
 PCOD9401157
Probable space group: P M M A
;
_chemical_formula_sum "Si O2"
_cell_formula_units_Z 52
_cell_length_a 8.613640
_cell_length_b 18.905630
_cell_length_c 18.959973
_cell_angle_alpha 90.000000
_cell_angle_beta 90.000000
_cell_angle_gamma 90.000000
_cell_volume 3087.561277
_symmetry_space_group_name_H-M "P M M A"
_symmetry_group_IT_number 51
_symmetry_cell_setting 'orthorhombic'
loop_
_space_group_symop_operation_xyz
x,y,z
1/2-x,-y,z
1/2+x,-y,-z
-x,y,-z
-x,-y,-z
1/2+x,y,-z
1/2-x,y,z
x,-y,z
loop_
_atom_site_type_symbol
_atom_site_label
_atom_site_fract_x
_atom_site_fract_y
_atom_site_fract_z
Si Si1 0.428185 0.858234 0.209426
Si Si2 0.561615 0.642448 0.851207
Si Si3 0.563093 0.217198 0.577823
Si Si4 0.928169 0.706047 0.711144
Si Si5 0.564617 0.920764 0.346335
Si Si6 0.935984 0.500000 0.079294
Si Si7 0.564660 0.214805 0.077577
O O1 0.250000 0.880610 0.199620
O O2 0.425318 0.781746 0.248671
O O3 0.514377 0.907896 0.265204
O O4 0.509421 0.842798 0.135179
O O5 0.750000 0.643681 0.851717
O O6 0.504834 0.654136 0.770294
O O7 0.499164 0.570084 0.882716
O O8 0.502647 0.709441 0.896469
O O9 0.500000 0.228976 0.500000
O O10 0.750000 0.219362 0.578305
O O11 0.502814 0.274946 0.635085
O O12 0.511758 0.140374 0.606620
O O13 0.750000 0.683606 0.699280
O O14 0.750000 0.914124 0.351571
O O15 0.518637 0.000000 0.368000
O O16 0.750000 0.500000 0.078617
O O17 0.000000 0.500000 0.000000
O O18 0.750000 0.218696 0.076580
O O19 0.500000 0.199564 0.000000
#
# Coordination Sequence:
#
# PCOD9401157 Si02
#       7
#     8   8   8   8   8   4   8
#     4   9  17  31  49  69  92 121 159 201 243 289
#     4  10  19  34  52  71  96 130 168 204 243 290
#     4  10  19  32  50  74 102 130 160 199 245 292
#     4   7  14  29  49  69  91 120 157 197 237 283
#     4  10  20  33  49  70  96 128 164 199 239 292
#     4  12  24  36  48  70 103 138 171 204 245 292
#     4  11  20  31  48  71  97 125 159 202 248 291
#
# _framework density 16.841771000000001
#
# number of rings (size 3 to 8) (size 9 to 14) (size 15 to 20)
#    0.000    2.308    0.000    6.231    0.000    1.538 
#    0.000    2.308    0.000    0.462    0.000    0.538 
#    0.000    0.000    0.000    0.000    0.000    0.000 
#
# Total GULP energy -289841.418865 kJ/mol
# GULP energy per Si atom -5573.873440 kJ/mol
# Density = 1.680344 g / cm^3
# Si number density = 16.841771 Si / 1000 Ang^3
#
#
#
# Elastic Constant Matrix: (Units=GPa)
#
#
# Indices 1 2 3 4 5 6 
#
# 1 78.7133 9.8342 34.3105 0.0000 0.0000 0.0000
# 2 9.8342 38.5934 35.0360 0.0000 0.0000 0.0000
# 3 34.3105 35.0360 156.5109 0.0000 0.0000 0.0000
# 4 0.0000 0.0000 0.0000 19.5965 0.0000 0.0000
# 5 0.0000 0.0000 0.0000 0.0000 27.7043 0.0000
# 6 0.0000 0.0000 0.0000 0.0000 0.0000 20.1650
#
#
#
# Elastic Compliance Matrix: (Units=1/GPa)
#
#
# Indices 1 2 3 4 5 6 
#
# 1 0.014076 -0.000986 -0.002865 0.000000 0.000000 0.000000
# 2 -0.000986 0.032589 -0.007079 0.000000 0.000000 0.000000
# 3 -0.002865 -0.007079 0.008602 0.000000 0.000000 0.000000
# 4 0.000000 0.000000 0.000000 0.051029 0.000000 0.000000
# 5 0.000000 0.000000 0.000000 0.000000 0.036095 0.000000
# 6 0.000000 0.000000 0.000000 0.000000 0.000000 0.049591
#
#
# Mechanical properties :
#
#
# Convention : Reuss Voigt Hill
#
# Bulk Modulus (GPa) = 29.93358 48.01986 38.97672
# Shear Modulus (GPa) = 22.22426 26.46897 24.34661
#
# Velocity S-wave (km/s) = 3.63656 3.96867 3.80624
# Velocity P-wave (km/s) = 5.95355 7.04093 6.51995
#
# Compressibility (1/GPa) = 0.03340729
#
# Stress axis : x y z
#
# Youngs Moduli (GPa) = 71.04087 30.68521 116.25009
#
# Poissons Ratio (x) = 0.03025 0.33308
# Poissons Ratio (y) = 0.07003 0.82295
# Poissons Ratio (z) = 0.20354 0.21722
#
# Static dielectric constant tensor:
#      x y z
#    x 1.572940 0.000000 0.000000 
#    y 0.000000 1.554750 0.000000 
#    z 0.000000 0.000000 1.592270 
# 
# From -- ./inp_files/27932.got.cif
#   From: 2010.05.17/outbox.cif.g08.bks.cpg/sg51_14_cif.got.tgz:27932.got - 2010.06.03 11:52:47.
