data_PCOD9401914
_publ_section_title
;
Structure prediction by ZEFSAII (Michael W. Deem and Ramdas Pophale) SiO2 
 PCOD9401914
Probable space group: P M M A
;
_chemical_formula_sum "Si O2"
_cell_formula_units_Z 64
_cell_length_a 21.466272
_cell_length_b 17.284145
_cell_length_c 9.627000
_cell_angle_alpha 90.000000
_cell_angle_beta 90.000000
_cell_angle_gamma 90.000000
_cell_volume 3571.868822
_symmetry_space_group_name_H-M "P M M A"
_symmetry_group_IT_number 51
_symmetry_cell_setting 'orthorhombic'
loop_
_space_group_symop_operation_xyz
x,y,z
1/2-x,-y,z
1/2+x,-y,-z
-x,y,-z
-x,-y,-z
1/2+x,y,-z
1/2-x,y,z
x,-y,z
loop_
_atom_site_type_symbol
_atom_site_label
_atom_site_fract_x
_atom_site_fract_y
_atom_site_fract_z
Si Si1 0.075017 0.089053 0.502135
Si Si2 0.177980 0.311208 0.552609
Si Si3 0.873402 0.778955 0.699883
Si Si4 0.821449 0.236367 0.980595
Si Si5 0.084513 0.413934 0.700293
Si Si6 0.998085 0.709843 0.830464
Si Si7 0.175814 0.414286 0.964501
Si Si8 0.885997 0.812595 0.249298
O O1 0.102529 0.149145 0.390796
O O2 0.102213 0.114184 0.652696
O O3 0.000000 0.097438 0.500000
O O4 0.090044 0.000000 0.471811
O O5 0.250000 0.335683 0.570756
O O6 0.166378 0.274917 0.402266
O O7 0.123974 0.374120 0.578340
O O8 0.159244 0.245431 0.665094
O O9 0.832299 0.800663 0.831531
O O10 0.932260 0.734082 0.766744
O O11 0.750000 0.235439 0.021673
O O12 0.838927 0.329032 0.972281
O O13 0.858472 0.187886 0.095403
O O14 0.066244 0.500000 0.663102
O O15 0.025848 0.367421 0.760640
O O16 0.135049 0.414710 0.825361
O O17 0.047143 0.773045 0.774582
O O18 0.000000 0.706182 0.000000
O O19 0.250000 0.413510 0.937249
O O20 0.163232 0.500000 0.033020
#
# Coordination Sequence:
#
# PCOD9401914 Si02
#       8
#     8   8   8   8   8   8   8   8
#     4  10  21  38  61  89 116 144 181 230 289 349
#     4  10  20  35  54  79 108 147 197 242 282 329
#     4  11  22  36  59  83 116 150 184 234 288 353
#     4  11  20  35  58  86 113 152 201 238 277 335
#     4  10  20  32  51  78 111 153 196 240 286 335
#     4  11  19  34  55  83 116 151 187 235 293 342
#     4   9  16  28  49  78 110 144 189 242 282 311
#     4  10  19  33  59  84 112 143 184 237 280 337
#
# _framework density 17.91779
#
# number of rings (size 3 to 8) (size 9 to 14) (size 15 to 20)
#    0.000    1.750    5.000    1.125    0.000    1.000 
#    0.000    3.125    0.000   18.000    0.000    0.000 
#    0.000    0.000    0.000    0.000    0.000    0.000 
#
# Total GULP energy -356386.315235 kJ/mol
# GULP energy per Si atom -5568.536176 kJ/mol
# Density = 1.787701 g / cm^3
# Si number density = 17.917790 Si / 1000 Ang^3
#
#
#
# Elastic Constant Matrix: (Units=GPa)
#
#
# Indices 1 2 3 4 5 6 
#
# 1 44.2208 18.1746 5.4639 0.0000 0.0000 0.0000
# 2 18.1746 87.8147 23.8866 0.0000 0.0000 0.0000
# 3 5.4639 23.8866 71.7893 0.0000 0.0000 0.0000
# 4 0.0000 0.0000 0.0000 11.4127 0.0000 0.0000
# 5 0.0000 0.0000 0.0000 0.0000 17.0642 0.0000
# 6 0.0000 0.0000 0.0000 0.0000 0.0000 -1.9827
#
#
#
# Elastic Compliance Matrix: (Units=1/GPa)
#
#
# Indices 1 2 3 4 5 6 
#
# 1 0.024719 -0.005062 -0.000197 0.000000 0.000000 0.000000
# 2 -0.005062 0.013558 -0.004126 0.000000 0.000000 0.000000
# 3 -0.000197 -0.004126 0.015317 0.000000 0.000000 0.000000
# 4 0.000000 0.000000 0.000000 0.087621 0.000000 0.000000
# 5 0.000000 0.000000 0.000000 0.000000 0.058602 0.000000
# 6 0.000000 0.000000 0.000000 0.000000 0.000000 -0.504356
#
#
# Mechanical properties :
#
#
# Convention : Reuss Voigt Hill
#
# Bulk Modulus (GPa) = 28.71609 33.20832 30.96220
# Shear Modulus (GPa) = -18.23748 15.71882 -1.25933
#
# Velocity S-wave (km/s) = -3.19382 2.96509 -0.83926
# Velocity P-wave (km/s) = 1.56866 5.50421 4.04704
#
# Compressibility (1/GPa) = 0.03482369
#
# Stress axis : x y z
#
# Youngs Moduli (GPa) = 40.45511 73.75934 65.28521
#
# Poissons Ratio (x) = 0.37340 0.01286
# Poissons Ratio (y) = 0.20480 0.26935
# Poissons Ratio (z) = 0.00797 0.30431
#
# Static dielectric constant tensor:
#      x y z
#    x 1.636230 0.000000 0.000000 
#    y 0.000000 1.629970 0.000000 
#    z 0.000000 0.000000 1.617290 
# 
# From -- ./inp_files/11200.got.cif
#   From: 2010.05.17/outbox.cif.g08.bks.cpg/sg51_6_cif.got.tgz:11200.got - 2010.06.03 11:52:47.
