data_PCOD9401905
_publ_section_title
;
Structure prediction by ZEFSAII (Michael W. Deem and Ramdas Pophale) SiO2 
 PCOD9401905
Probable space group: P M M A
;
_chemical_formula_sum "Si O2"
_cell_formula_units_Z 64
_cell_length_a 25.668478
_cell_length_b 7.705366
_cell_length_c 15.011900
_cell_angle_alpha 90.000000
_cell_angle_beta 90.000000
_cell_angle_gamma 90.000000
_cell_volume 2969.128907
_symmetry_space_group_name_H-M "P M M A"
_symmetry_group_IT_number 51
_symmetry_cell_setting 'orthorhombic'
loop_
_space_group_symop_operation_xyz
x,y,z
1/2-x,-y,z
1/2+x,-y,-z
-x,y,-z
-x,-y,-z
1/2+x,y,-z
1/2-x,y,z
x,-y,z
loop_
_atom_site_type_symbol
_atom_site_label
_atom_site_fract_x
_atom_site_fract_y
_atom_site_fract_z
Si Si1 0.308792 0.287783 0.259417
Si Si2 0.367010 0.289008 0.081003
Si Si3 0.985642 0.799031 0.904956
Si Si4 0.093270 0.700401 0.589325
Si Si5 0.897697 0.297098 0.608691
Si Si6 0.809691 0.795043 0.298159
Si Si7 0.689972 0.709613 0.097172
Si Si8 0.500000 0.798271 0.713337
O O1 0.250000 0.230375 0.276698
O O2 0.309152 0.500000 0.261385
O O3 0.328024 0.240347 0.160566
O O4 0.350776 0.224621 0.331583
O O5 0.371341 0.500000 0.080747
O O6 0.423422 0.213010 0.101541
O O7 0.345553 0.232569 0.984880
O O8 0.007741 0.723734 0.812815
O O9 0.003442 0.000000 0.908875
O O10 0.000000 0.716839 0.000000
O O11 0.076416 0.500000 0.582418
O O12 0.095196 0.777975 0.490090
O O13 0.149610 0.710414 0.635091
O O14 0.051263 0.786429 0.653849
O O15 0.885040 0.500000 0.594893
O O16 0.951232 0.285737 0.663241
O O17 0.750000 0.730056 0.305752
O O18 0.826498 0.767760 0.195495
O O19 0.809559 0.000000 0.315987
O O20 0.750000 0.766845 0.083859
O O21 0.689870 0.500000 0.096635
O O22 0.514260 0.000000 0.724258
#
# Coordination Sequence:
#
# PCOD9401905 Si02
#       8
#     8   8   8   8   8   8   8   8
#     4   9  17  32  57  87 118 152 190 234 286 346
#     4  10  19  33  57  86 114 148 189 235 285 339
#     4  10  23  40  56  80 115 154 189 231 289 347
#     4  11  24  39  61  89 116 150 195 246 296 348
#     4  10  21  39  61  87 117 151 193 244 297 348
#     4  10  22  40  60  84 117 157 196 236 288 347
#     4   9  18  33  54  83 116 148 186 231 278 332
#     4  11  23  40  62  86 116 155 195 239 292 351
#
# _framework density 21.555143000000001
#
# number of rings (size 3 to 8) (size 9 to 14) (size 15 to 20)
#    0.000    2.000    1.250    1.875    1.750    6.500 
#    0.000    1.250    0.000    2.250    0.000    0.000 
#    0.000    0.000    0.000    0.000    0.000    0.000 
#
# Total GULP energy -357548.456968 kJ/mol
# GULP energy per Si atom -5586.694640 kJ/mol
# Density = 2.150608 g / cm^3
# Si number density = 21.555143 Si / 1000 Ang^3
#
#
#
# Elastic Constant Matrix: (Units=GPa)
#
#
# Indices 1 2 3 4 5 6 
#
# 1 87.3202 -9.9576 59.3674 0.0000 0.0000 0.0000
# 2 -9.9576 35.3866 -0.6146 0.0000 0.0000 0.0000
# 3 59.3674 -0.6146 178.2950 0.0000 0.0000 0.0000
# 4 0.0000 0.0000 0.0000 11.8715 0.0000 0.0000
# 5 0.0000 0.0000 0.0000 0.0000 -0.8551 0.0000
# 6 0.0000 0.0000 0.0000 0.0000 0.0000 54.3157
#
#
#
# Elastic Compliance Matrix: (Units=1/GPa)
#
#
# Indices 1 2 3 4 5 6 
#
# 1 0.015417 0.004249 -0.005119 0.000000 0.000000 0.000000
# 2 0.004249 0.029432 -0.001313 0.000000 0.000000 0.000000
# 3 -0.005119 -0.001313 0.007309 0.000000 0.000000 0.000000
# 4 0.000000 0.000000 0.000000 0.084235 0.000000 0.000000
# 5 0.000000 0.000000 0.000000 0.000000 -1.169479 0.000000
# 6 0.000000 0.000000 0.000000 0.000000 0.000000 0.018411
#
#
# Mechanical properties :
#
#
# Convention : Reuss Voigt Hill
#
# Bulk Modulus (GPa) = 20.92409 44.28802 32.60605
# Shear Modulus (GPa) = -5.02826 29.88021 12.42597
#
# Velocity S-wave (km/s) = -1.52899 3.72724 2.40359
# Velocity P-wave (km/s) = 2.57123 6.25412 4.78149
#
# Compressibility (1/GPa) = 0.04779181
#
# Stress axis : x y z
#
# Youngs Moduli (GPa) = 64.86423 33.97641 136.82591
#
# Poissons Ratio (x) = -0.14438 0.70038
# Poissons Ratio (y) = -0.27563 0.17971
# Poissons Ratio (z) = 0.33202 0.04463
#
# Static dielectric constant tensor:
#      x y z
#    x 1.732670 0.000000 0.000000 
#    y 0.000000 1.840870 0.000000 
#    z 0.000000 0.000000 1.797210 
# 
# From -- ./inp_files/26291.got.cif
#   From: 2010.05.17/outbox.cif.g08.bks.cpg/sg51_14_cif.got.tgz:26291.got - 2010.06.03 11:52:47.
