data_PCOD9401366
_publ_section_title
;
Structure prediction by ZEFSAII (Michael W. Deem and Ramdas Pophale) SiO2 
 PCOD9401366
Probable space group: P M M A
;
_chemical_formula_sum "Si O2"
_cell_formula_units_Z 64
_cell_length_a 8.899266
_cell_length_b 25.130153
_cell_length_c 15.642532
_cell_angle_alpha 90.000000
_cell_angle_beta 90.000000
_cell_angle_gamma 90.000000
_cell_volume 3498.294545
_symmetry_space_group_name_H-M "P M M A"
_symmetry_group_IT_number 51
_symmetry_cell_setting 'orthorhombic'
loop_
_space_group_symop_operation_xyz
x,y,z
1/2-x,-y,z
1/2+x,-y,-z
-x,y,-z
-x,-y,-z
1/2+x,y,-z
1/2-x,y,z
x,-y,z
loop_
_atom_site_type_symbol
_atom_site_label
_atom_site_fract_x
_atom_site_fract_y
_atom_site_fract_z
Si Si1 0.428678 0.938876 0.724980
Si Si2 0.929326 0.902829 0.084594
Si Si3 0.570609 0.766509 0.321681
Si Si4 0.428210 0.860913 0.411867
Si Si5 0.428776 0.205652 0.141261
Si Si6 0.430814 0.352098 0.730258
Si Si7 0.572448 0.326784 0.911003
Si Si8 0.431113 0.561764 0.591220
O O1 0.250000 0.928065 0.715075
O O2 0.464042 0.930834 0.825221
O O3 0.518393 0.898648 0.665288
O O4 0.457417 0.000000 0.701148
O O5 0.750000 0.899891 0.075618
O O6 0.999367 0.843934 0.093366
O O7 0.000000 0.928310 0.000000
O O8 0.750000 0.772288 0.328107
O O9 0.491008 0.801815 0.392914
O O10 0.511854 0.789899 0.231970
O O11 0.532809 0.703969 0.316415
O O12 0.500000 0.880611 0.500000
O O13 0.250000 0.859972 0.417312
O O14 0.250000 0.197803 0.152676
O O15 0.451577 0.262887 0.097172
O O16 0.250000 0.353707 0.740468
O O17 0.502687 0.351148 0.824452
O O18 0.478442 0.400221 0.668897
O O19 0.750000 0.336386 0.912149
O O20 0.500000 0.345129 0.000000
O O21 0.500000 0.577995 0.500000
O O22 0.250000 0.564765 0.585122
O O23 0.472555 0.500000 0.606356
#
# Coordination Sequence:
#
# PCOD9401366 Si02
#       8
#     8   8   8   8   8   8   8   8
#     4  10  23  44  65  84 110 144 183 230 281 332
#     4  11  22  35  56  83 113 147 183 225 272 326
#     4  10  19  34  55  81 115 149 182 222 274 329
#     4  12  25  41  63  87 113 145 184 227 278 336
#     4  10  19  32  52  79 110 145 184 223 270 326
#     4   9  19  34  54  81 114 152 189 229 279 331
#     4  10  20  32  49  76 111 150 190 231 276 326
#     4   9  18  34  56  82 112 147 188 234 282 332
#
# _framework density 18.294630000000002
#
# number of rings (size 3 to 8) (size 9 to 14) (size 15 to 20)
#    0.000    1.875    1.250    3.000    0.000    5.250 
#    0.000    1.250    0.000    0.375    0.000    0.000 
#    0.000    0.000    0.000    0.000    0.000    0.000 
#
# Total GULP energy -357369.515983 kJ/mol
# GULP energy per Si atom -5583.898687 kJ/mol
# Density = 1.825299 g / cm^3
# Si number density = 18.294630 Si / 1000 Ang^3
#
#
#
# Elastic Constant Matrix: (Units=GPa)
#
#
# Indices 1 2 3 4 5 6 
#
# 1 67.6434 39.3052 66.9798 0.0000 0.0000 0.0000
# 2 39.3052 70.9951 61.1810 0.0000 0.0000 0.0000
# 3 66.9798 61.1810 114.3374 0.0000 0.0000 0.0000
# 4 0.0000 0.0000 0.0000 2.2767 0.0000 0.0000
# 5 0.0000 0.0000 0.0000 0.0000 32.9769 0.0000
# 6 0.0000 0.0000 0.0000 0.0000 0.0000 -15.6657
#
#
#
# Elastic Compliance Matrix: (Units=1/GPa)
#
#
# Indices 1 2 3 4 5 6 
#
# 1 0.035597 -0.003224 -0.019128 0.000000 0.000000 0.000000
# 2 -0.003224 0.026431 -0.012254 0.000000 0.000000 0.000000
# 3 -0.019128 -0.012254 0.026508 0.000000 0.000000 0.000000
# 4 0.000000 0.000000 0.000000 0.439224 0.000000 0.000000
# 5 0.000000 0.000000 0.000000 0.000000 0.030324 0.000000
# 6 0.000000 0.000000 0.000000 0.000000 0.000000 -0.063834
#
#
# Mechanical properties :
#
#
# Convention : Reuss Voigt Hill
#
# Bulk Modulus (GPa) = 51.74918 65.32310 58.53614
# Shear Modulus (GPa) = 8.77342 9.61825 9.19584
#
# Velocity S-wave (km/s) = 2.19227 2.29539 2.24442
# Velocity P-wave (km/s) = 5.89542 6.54284 6.22755
#
# Compressibility (1/GPa) = 0.01932398
#
# Stress axis : x y z
#
# Youngs Moduli (GPa) = 28.09230 37.83500 37.72379
#
# Poissons Ratio (x) = 0.12197 0.72158
# Poissons Ratio (y) = 0.09057 0.46228
# Poissons Ratio (z) = 0.53735 0.46364
#
# Static dielectric constant tensor:
#      x y z
#    x 1.607210 0.000000 0.000000 
#    y 0.000000 1.625720 0.000000 
#    z 0.000000 0.000000 1.604140 
# 
# From -- ./inp_files/22253.got.cif
#   From: 2010.05.17/outbox.cif.g08.bks.cpg/sg51_12_cif.got.tgz:22253.got - 2010.06.03 11:52:47.
