data_PCOD9401494
_publ_section_title
;
Structure prediction by ZEFSAII (Michael W. Deem and Ramdas Pophale) SiO2 
 PCOD9401494
Probable space group: P M M A
;
_chemical_formula_sum "Si O2"
_cell_formula_units_Z 64
_cell_length_a 24.084406
_cell_length_b 14.613850
_cell_length_c 9.712315
_cell_angle_alpha 90.000000
_cell_angle_beta 90.000000
_cell_angle_gamma 90.000000
_cell_volume 3418.403657
_symmetry_space_group_name_H-M "P M M A"
_symmetry_group_IT_number 51
_symmetry_cell_setting 'orthorhombic'
loop_
_space_group_symop_operation_xyz
x,y,z
1/2-x,-y,z
1/2+x,-y,-z
-x,y,-z
-x,-y,-z
1/2+x,y,-z
1/2-x,y,z
x,-y,z
loop_
_atom_site_type_symbol
_atom_site_label
_atom_site_fract_x
_atom_site_fract_y
_atom_site_fract_z
Si Si1 0.913732 0.713018 0.747430
Si Si2 0.881946 0.284057 0.066214
Si Si3 0.097994 0.101681 0.794446
Si Si4 0.478681 0.106980 0.343148
Si Si5 0.685472 0.300109 0.549640
Si Si6 0.016559 0.396147 0.837578
Si Si7 0.315803 0.396527 0.738100
Si Si8 0.687751 0.899440 0.447367
O O1 0.935266 0.814081 0.700244
O O2 0.862833 0.676666 0.656319
O O3 0.967654 0.647683 0.748097
O O4 0.893831 0.710054 0.905595
O O5 0.881081 0.178498 0.104025
O O6 0.930869 0.329938 0.157962
O O7 0.830597 0.340436 0.125051
O O8 0.138114 0.106094 0.661708
O O9 0.034123 0.116251 0.750085
O O10 0.102368 0.000000 0.853117
O O11 0.500000 0.120527 0.500000
O O12 0.459444 0.000000 0.332824
O O13 0.750000 0.327603 0.579740
O O14 0.668991 0.340894 0.400336
O O15 0.684863 0.189643 0.540729
O O16 0.028404 0.500000 0.795517
O O17 0.000000 0.398974 0.000000
O O18 0.250000 0.403480 0.730805
O O19 0.338806 0.500000 0.740053
O O20 0.750000 0.895261 0.381864
O O21 0.683606 0.000000 0.514705
#
# Coordination Sequence:
#
# PCOD9401494 Si02
#       8
#     8   8   8   8   8   8   8   8
#     4  11  23  36  59  87 120 152 191 242 297 349
#     4  11  21  37  58  87 119 152 192 238 294 352
#     4  10  19  32  54  83 116 153 195 237 282 341
#     4  10  21  36  56  84 121 162 202 243 288 345
#     4  10  21  38  59  86 116 149 191 240 287 344
#     4   9  19  36  55  77 109 149 189 230 284 344
#     4  10  22  41  64  87 114 153 198 242 292 352
#     4   9  17  32  56  83 111 148 194 239 282 333
#
# _framework density 18.722189
#
# number of rings (size 3 to 8) (size 9 to 14) (size 15 to 20)
#    0.000    2.000    2.500    1.125    0.000    3.500 
#    0.000    1.250    0.000    3.375    0.000    1.750 
#    0.000    0.000    0.000    0.000    0.000    0.000 
#
# Total GULP energy -356628.715982 kJ/mol
# GULP energy per Si atom -5572.323687 kJ/mol
# Density = 1.867958 g / cm^3
# Si number density = 18.722189 Si / 1000 Ang^3
#
#
#
# Elastic Constant Matrix: (Units=GPa)
#
#
# Indices 1 2 3 4 5 6 
#
# 1 67.8680 14.8425 24.7610 0.0000 0.0000 0.0000
# 2 14.8425 96.3485 30.1803 0.0000 0.0000 0.0000
# 3 24.7610 30.1803 59.0644 0.0000 0.0000 0.0000
# 4 0.0000 0.0000 0.0000 11.6268 0.0000 0.0000
# 5 0.0000 0.0000 0.0000 0.0000 27.4315 0.0000
# 6 0.0000 0.0000 0.0000 0.0000 0.0000 16.5599
#
#
#
# Elastic Compliance Matrix: (Units=1/GPa)
#
#
# Indices 1 2 3 4 5 6 
#
# 1 0.017413 -0.000471 -0.007059 0.000000 0.000000 0.000000
# 2 -0.000471 0.012370 -0.006123 0.000000 0.000000 0.000000
# 3 -0.007059 -0.006123 0.023019 0.000000 0.000000 0.000000
# 4 0.000000 0.000000 0.000000 0.086008 0.000000 0.000000
# 5 0.000000 0.000000 0.000000 0.000000 0.036454 0.000000
# 6 0.000000 0.000000 0.000000 0.000000 0.000000 0.060387
#
#
# Mechanical properties :
#
#
# Convention : Reuss Voigt Hill
#
# Bulk Modulus (GPa) = 39.22399 40.31650 39.77024
# Shear Modulus (GPa) = 18.41925 21.35679 19.88802
#
# Velocity S-wave (km/s) = 3.13999 3.38112 3.26278
# Velocity P-wave (km/s) = 5.84312 6.06823 5.95674
#
# Compressibility (1/GPa) = 0.02549460
#
# Stress axis : x y z
#
# Youngs Moduli (GPa) = 57.42845 80.84374 43.44311
#
# Poissons Ratio (x) = 0.03810 0.30667
# Poissons Ratio (y) = 0.02707 0.26600
# Poissons Ratio (z) = 0.40539 0.49500
#
# Static dielectric constant tensor:
#      x y z
#    x 1.689120 0.000000 0.000000 
#    y 0.000000 1.672810 0.000000 
#    z 0.000000 0.000000 1.622940 
# 
# From -- ./inp_files/11899.got.cif
#   From: 2010.05.17/outbox.cif.g08.bks.cpg/sg51_6_cif.got.tgz:11899.got - 2010.06.03 11:52:47.
