data_PCOD9401810
_publ_section_title
;
Structure prediction by ZEFSAII (Michael W. Deem and Ramdas Pophale) SiO2 
 PCOD9401810
Probable space group: P M M A
;
_chemical_formula_sum "Si O2"
_cell_formula_units_Z 64
_cell_length_a 14.941066
_cell_length_b 8.647878
_cell_length_c 25.353745
_cell_angle_alpha 90.000000
_cell_angle_beta 90.000000
_cell_angle_gamma 90.000000
_cell_volume 3275.919765
_symmetry_space_group_name_H-M "P M M A"
_symmetry_group_IT_number 51
_symmetry_cell_setting 'orthorhombic'
loop_
_space_group_symop_operation_xyz
x,y,z
1/2-x,-y,z
1/2+x,-y,-z
-x,y,-z
-x,-y,-z
1/2+x,y,-z
1/2-x,y,z
x,-y,z
loop_
_atom_site_type_symbol
_atom_site_label
_atom_site_fract_x
_atom_site_fract_y
_atom_site_fract_z
Si Si1 0.478758 0.317546 0.177089
Si Si2 0.353941 0.816879 0.475896
Si Si3 0.650293 0.686356 0.406887
Si Si4 0.146946 0.688964 0.273176
Si Si5 0.394524 0.677834 0.987243
Si Si6 0.540707 0.686937 0.622793
Si Si7 0.351833 0.816004 0.872694
Si Si8 0.149948 0.179855 0.094375
O O1 0.492916 0.500000 0.182982
O O2 0.417061 0.261112 0.225294
O O3 0.574023 0.237621 0.169015
O O4 0.421153 0.283878 0.124649
O O5 0.250000 0.791249 0.460308
O O6 0.365668 0.739253 0.532904
O O7 0.417449 0.748152 0.431380
O O8 0.368840 0.000000 0.481055
O O9 0.750000 0.742298 0.391173
O O10 0.652372 0.500000 0.405765
O O11 0.563363 0.736248 0.373884
O O12 0.250000 0.740758 0.268421
O O13 0.148477 0.500000 0.272223
O O14 0.101274 0.737511 0.328021
O O15 0.364911 0.500000 0.992116
O O16 0.374070 0.737942 0.928937
O O17 0.500000 0.683587 0.000000
O O18 0.351137 0.781124 0.032668
O O19 0.542778 0.500000 0.621634
O O20 0.250000 0.775642 0.857815
O O21 0.357813 0.000000 0.879494
O O22 0.250000 0.208792 0.115134
O O23 0.127299 0.000000 0.102277
#
# Coordination Sequence:
#
# PCOD9401810 Si02
#       8
#     8   8   8   8   8   8   8   8
#     4  11  22  38  60  84 109 142 185 231 279 327
#     4  10  20  32  48  75 111 147 182 223 273 328
#     4   9  18  32  50  75 108 145 184 224 266 318
#     4   9  19  36  58  84 112 140 174 222 278 330
#     4  11  22  36  57  87 117 148 183 225 274 325
#     4  10  19  33  55  80 106 142 185 227 274 327
#     4  11  24  41  61  84 113 150 187 226 275 330
#     4  11  23  37  56  83 114 149 185 222 271 329
#
# _framework density 19.536498000000002
#
# number of rings (size 3 to 8) (size 9 to 14) (size 15 to 20)
#    0.000    1.750    1.250    3.375    0.000    7.750 
#    0.000    1.875    0.000    5.250    0.000    1.750 
#    0.000    0.000    0.000    0.000    0.000    0.000 
#
# Total GULP energy -357454.337189 kJ/mol
# GULP energy per Si atom -5585.224019 kJ/mol
# Density = 1.949203 g / cm^3
# Si number density = 19.536498 Si / 1000 Ang^3
#
#
#
# Elastic Constant Matrix: (Units=GPa)
#
#
# Indices 1 2 3 4 5 6 
#
# 1 151.5713 26.7155 52.6692 0.0000 0.0000 0.0000
# 2 26.7155 22.1603 -1.1845 0.0000 0.0000 0.0000
# 3 52.6692 -1.1845 46.5342 0.0000 0.0000 0.0000
# 4 0.0000 0.0000 0.0000 -26.5570 0.0000 0.0000
# 5 0.0000 0.0000 0.0000 0.0000 28.0351 0.0000
# 6 0.0000 0.0000 0.0000 0.0000 0.0000 24.5966
#
#
#
# Elastic Compliance Matrix: (Units=1/GPa)
#
#
# Indices 1 2 3 4 5 6 
#
# 1 0.017734 -0.022483 -0.020644 0.000000 0.000000 0.000000
# 2 -0.022483 0.073690 0.027323 0.000000 0.000000 0.000000
# 3 -0.020644 0.027323 0.045551 0.000000 0.000000 0.000000
# 4 0.000000 0.000000 0.000000 -0.037655 0.000000 0.000000
# 5 0.000000 0.000000 0.000000 0.000000 0.035670 0.000000
# 6 0.000000 0.000000 0.000000 0.000000 0.000000 0.040656
#
#
# Mechanical properties :
#
#
# Convention : Reuss Voigt Hill
#
# Bulk Modulus (GPa) = 9.49069 41.85181 25.67125
# Shear Modulus (GPa) = 20.62904 14.68599 17.65751
#
# Velocity S-wave (km/s) = 3.25302 2.74473 3.00962
# Velocity P-wave (km/s) = 4.35638 5.61370 5.02452
#
# Compressibility (1/GPa) = 0.10536647
#
# Stress axis : x y z
#
# Youngs Moduli (GPa) = 56.38917 13.57031 21.95340
#
# Poissons Ratio (x) = 0.30510 0.45321
# Poissons Ratio (y) = 1.26778 -0.59982
# Poissons Ratio (z) = 1.16411 -0.37078
#
# Static dielectric constant tensor:
#      x y z
#    x 1.728900 0.000000 0.000000 
#    y 0.000000 1.655190 0.000000 
#    z 0.000000 0.000000 1.652600 
# 
# From -- ./inp_files/35694.got.cif
#   From: 2010.05.17/outbox.cif.g08.bks.cpg/sg51_18_cif.got.tgz:35694.got - 2010.06.03 11:52:47.
