data_PCOD9401949
_publ_section_title
;
Structure prediction by ZEFSAII (Michael W. Deem and Ramdas Pophale) SiO2 
 PCOD9401949
Probable space group: P M M A
;
_chemical_formula_sum "Si O2"
_cell_formula_units_Z 64
_cell_length_a 8.860928
_cell_length_b 20.402900
_cell_length_c 18.851690
_cell_angle_alpha 90.000000
_cell_angle_beta 90.000000
_cell_angle_gamma 90.000000
_cell_volume 3408.171169
_symmetry_space_group_name_H-M "P M M A"
_symmetry_group_IT_number 51
_symmetry_cell_setting 'orthorhombic'
loop_
_space_group_symop_operation_xyz
x,y,z
1/2-x,-y,z
1/2+x,-y,-z
-x,y,-z
-x,-y,-z
1/2+x,y,-z
1/2-x,y,z
x,-y,z
loop_
_atom_site_type_symbol
_atom_site_label
_atom_site_fract_x
_atom_site_fract_y
_atom_site_fract_z
Si Si1 0.568126 0.333604 0.922970
Si Si2 0.931623 0.071816 0.367673
Si Si3 0.431049 0.425299 0.211930
Si Si4 0.415088 0.923623 0.065513
Si Si5 0.928674 0.102424 0.781572
Si Si6 0.566617 0.784601 0.423180
Si Si7 0.919532 0.324718 0.309589
Si Si8 0.079288 0.768660 0.825620
O O1 0.750000 0.327788 0.926834
O O2 0.530312 0.387227 0.861592
O O3 0.493190 0.266621 0.893349
O O4 0.500000 0.349587 0.000000
O O5 0.750000 0.072662 0.369933
O O6 0.983160 0.140909 0.402084
O O7 0.986809 0.075755 0.286628
O O8 0.981363 0.000000 0.396937
O O9 0.250000 0.425563 0.214487
O O10 0.486692 0.500000 0.209948
O O11 0.488132 0.387064 0.281938
O O12 0.250000 0.892820 0.072997
O O13 0.487247 0.923514 0.142805
O O14 0.395628 0.000000 0.048178
O O15 0.500000 0.891994 0.000000
O O16 0.750000 0.088709 0.774507
O O17 0.967093 0.178262 0.792287
O O18 0.500000 0.770080 0.500000
O O19 0.750000 0.785158 0.423514
O O20 0.520442 0.727444 0.367696
O O21 0.750000 0.344220 0.331997
O O22 0.906941 0.283521 0.237166
O O23 0.250000 0.794112 0.839661
#
# Coordination Sequence:
#
# PCOD9401949 Si02
#       8
#     8   8   8   8   8   8   8   8
#     4  10  20  34  51  76 111 151 193 235 283 332
#     4  10  21  38  58  80 111 150 188 229 279 337
#     4   9  19  35  56  84 116 149 189 235 281 331
#     4   9  19  34  48  64  89 121 160 210 264 317
#     4  11  21  33  52  77 105 135 177 230 282 336
#     4  10  21  38  58  86 116 146 184 226 274 334
#     4   9  18  35  57  80 111 144 182 228 270 323
#     4  10  19  34  54  74 101 139 182 230 279 326
#
# _framework density 18.778400999999999
#
# number of rings (size 3 to 8) (size 9 to 14) (size 15 to 20)
#    0.000    2.250    1.250    1.500    0.000    5.000 
#    0.000    2.500    0.000    0.375    0.000    0.000 
#    0.000    0.000    0.000    0.000    0.000    0.000 
#
# Total GULP energy -356273.232146 kJ/mol
# GULP energy per Si atom -5566.769252 kJ/mol
# Density = 1.873566 g / cm^3
# Si number density = 18.778401 Si / 1000 Ang^3
#
#
#
# Elastic Constant Matrix: (Units=GPa)
#
#
# Indices 1 2 3 4 5 6 
#
# 1 10.0647 11.0466 21.4465 0.0000 0.0000 0.0000
# 2 11.0466 76.9158 33.3877 0.0000 0.0000 0.0000
# 3 21.4465 33.3877 104.4657 0.0000 0.0000 0.0000
# 4 0.0000 0.0000 0.0000 26.7776 0.0000 0.0000
# 5 0.0000 0.0000 0.0000 0.0000 -51.7241 0.0000
# 6 0.0000 0.0000 0.0000 0.0000 0.0000 17.0247
#
#
#
# Elastic Compliance Matrix: (Units=1/GPa)
#
#
# Indices 1 2 3 4 5 6 
#
# 1 0.185304 -0.011727 -0.034294 0.000000 0.000000 0.000000
# 2 -0.011727 0.015838 -0.002654 0.000000 0.000000 0.000000
# 3 -0.034294 -0.002654 0.017461 0.000000 0.000000 0.000000
# 4 0.000000 0.000000 0.000000 0.037345 0.000000 0.000000
# 5 0.000000 0.000000 0.000000 0.000000 -0.019333 0.000000
# 6 0.000000 0.000000 0.000000 0.000000 0.000000 0.058738
#
#
# Mechanical properties :
#
#
# Convention : Reuss Voigt Hill
#
# Bulk Modulus (GPa) = 8.24728 35.91197 22.07962
# Shear Modulus (GPa) = 11.54413 6.78666 9.16539
#
# Velocity S-wave (km/s) = 2.48212 1.90314 2.21165
# Velocity P-wave (km/s) = 3.55190 4.89845 4.27848
#
# Compressibility (1/GPa) = 0.12125215
#
# Stress axis : x y z
#
# Youngs Moduli (GPa) = 5.39654 63.14088 57.26915
#
# Poissons Ratio (x) = 0.74043 1.96401
# Poissons Ratio (y) = 0.06328 0.15201
# Poissons Ratio (z) = 0.18507 0.16760
#
# Static dielectric constant tensor:
#      x y z
#    x 1.660510 0.000000 0.000000 
#    y 0.000000 1.587700 0.000000 
#    z 0.000000 0.000000 1.637240 
# 
# From -- ./inp_files/28464.got.cif
#   From: 2010.05.17/outbox.cif.g08.bks.cpg/sg51_15_cif.got.tgz:28464.got - 2010.06.03 11:52:47.
