data_PCOD9401601
_publ_section_title
;
Structure prediction by ZEFSAII (Michael W. Deem and Ramdas Pophale) SiO2 
 PCOD9401601
Probable space group: P M M A
;
_chemical_formula_sum "Si O2"
_cell_formula_units_Z 40
_cell_length_a 13.997555
_cell_length_b 13.621659
_cell_length_c 8.725366
_cell_angle_alpha 90.000000
_cell_angle_beta 90.000000
_cell_angle_gamma 90.000000
_cell_volume 1663.664846
_symmetry_space_group_name_H-M "P M M A"
_symmetry_group_IT_number 51
_symmetry_cell_setting 'orthorhombic'
loop_
_space_group_symop_operation_xyz
x,y,z
1/2-x,-y,z
1/2+x,-y,-z
-x,y,-z
-x,-y,-z
1/2+x,y,-z
1/2-x,y,z
x,-y,z
loop_
_atom_site_type_symbol
_atom_site_label
_atom_site_fract_x
_atom_site_fract_y
_atom_site_fract_z
Si Si1 0.637010 0.883162 0.901626
Si Si2 0.106816 0.393384 0.429421
Si Si3 0.856193 0.170972 0.565602
Si Si4 0.975513 0.389860 0.172305
Si Si5 0.133746 0.194878 0.763932
O O1 0.750000 0.855137 0.900994
O O2 0.598995 0.845825 0.734993
O O3 0.628531 0.000000 0.897765
O O4 0.602520 0.849576 0.071051
O O5 0.148265 0.500000 0.469860
O O6 0.152280 0.288745 0.455069
O O7 0.000000 0.391887 0.500000
O O8 0.078894 0.392563 0.251778
O O9 0.750000 0.125998 0.573981
O O10 0.897713 0.143227 0.397469
O O11 0.934291 0.500000 0.187513
O O12 0.906779 0.305625 0.234172
O O13 0.000000 0.367747 0.000000
O O14 0.250000 0.193476 0.760461
#
# Coordination Sequence:
#
# PCOD9401601 Si02
#       5
#     8   8   8   8   8
#     4   9  19  36  56  79 108 139 176 226 278 326
#     4  10  19  33  52  76 109 146 179 210 257 320
#     4  10  20  34  56  84 109 140 182 226 271 315
#     4  10  20  34  53  78 108 147 186 215 258 323
#     4  10  20  34  55  83 109 137 178 226 271 314
#
# _framework density 24.043303999999999
#
# number of rings (size 3 to 8) (size 9 to 14) (size 15 to 20)
#    0.000    2.200    2.000    1.200    0.000    1.600 
#    0.000    6.000    0.000   13.200    0.000    0.000 
#    0.000    0.000    0.000    0.000    0.000    0.000 
#
# Total GULP energy -222805.135121 kJ/mol
# GULP energy per Si atom -5570.128378 kJ/mol
# Density = 2.398858 g / cm^3
# Si number density = 24.043304 Si / 1000 Ang^3
#
#
#
# Elastic Constant Matrix: (Units=GPa)
#
#
# Indices 1 2 3 4 5 6 
#
# 1 51.4451 3.5272 29.0263 0.0000 0.0000 0.0000
# 2 3.5272 51.7032 37.1008 0.0000 0.0000 0.0000
# 3 29.0263 37.1008 256.6499 0.0000 0.0000 0.0000
# 4 0.0000 0.0000 0.0000 7.1813 0.0000 0.0000
# 5 0.0000 0.0000 0.0000 0.0000 13.9987 0.0000
# 6 0.0000 0.0000 0.0000 0.0000 0.0000 17.3562
#
#
#
# Elastic Compliance Matrix: (Units=1/GPa)
#
#
# Indices 1 2 3 4 5 6 
#
# 1 0.020767 0.000300 -0.002392 0.000000 0.000000 0.000000
# 2 0.000300 0.021584 -0.003154 0.000000 0.000000 0.000000
# 3 -0.002392 -0.003154 0.004623 0.000000 0.000000 0.000000
# 4 0.000000 0.000000 0.000000 0.139250 0.000000 0.000000
# 5 0.000000 0.000000 0.000000 0.000000 0.071435 0.000000
# 6 0.000000 0.000000 0.000000 0.000000 0.000000 0.057616
#
#
# Mechanical properties :
#
#
# Convention : Reuss Voigt Hill
#
# Bulk Modulus (GPa) = 27.41123 55.45632 41.43377
# Shear Modulus (GPa) = 14.79603 27.05017 20.92310
#
# Velocity S-wave (km/s) = 2.48340 3.35783 2.95316
# Velocity P-wave (km/s) = 4.43267 6.17646 5.37574
#
# Compressibility (1/GPa) = 0.03648140
#
# Stress axis : x y z
#
# Youngs Moduli (GPa) = 48.15265 46.33066 216.31757
#
# Poissons Ratio (x) = -0.01389 0.51744
# Poissons Ratio (y) = -0.01443 0.68227
# Poissons Ratio (z) = 0.11518 0.14613
#
# Static dielectric constant tensor:
#      x y z
#    x 1.918290 0.000000 0.000000 
#    y 0.000000 1.906330 0.000000 
#    z 0.000000 0.000000 2.162200 
# 
# From -- ./inp_files/9267.got.cif
#   From: 2010.05.17/outbox.cif.g08.bks.cpg/sg51_5_cif.got.tgz:9267.got - 2010.06.03 11:52:47.
