data_PCOD9401343
_publ_section_title
;
Structure prediction by ZEFSAII (Michael W. Deem and Ramdas Pophale) SiO2 
 PCOD9401343
Probable space group: P M M A
;
_chemical_formula_sum "Si O2"
_cell_formula_units_Z 48
_cell_length_a 8.621676
_cell_length_b 32.120941
_cell_length_c 9.684160
_cell_angle_alpha 90.000000
_cell_angle_beta 90.000000
_cell_angle_gamma 90.000000
_cell_volume 2681.895886
_symmetry_space_group_name_H-M "P M M A"
_symmetry_group_IT_number 51
_symmetry_cell_setting 'orthorhombic'
loop_
_space_group_symop_operation_xyz
x,y,z
1/2-x,-y,z
1/2+x,-y,-z
-x,y,-z
-x,-y,-z
1/2+x,y,-z
1/2-x,y,z
x,-y,z
loop_
_atom_site_type_symbol
_atom_site_label
_atom_site_fract_x
_atom_site_fract_y
_atom_site_fract_z
Si Si1 0.562954 0.544623 0.343576
Si Si2 0.063042 0.786837 0.346696
Si Si3 0.563532 0.289348 0.844988
Si Si4 0.564326 0.046532 0.154592
Si Si5 0.563018 0.636474 0.343080
Si Si6 0.935811 0.118643 0.652997
O O1 0.500000 0.544254 0.500000
O O2 0.750000 0.544563 0.347169
O O3 0.513275 0.500000 0.279618
O O4 0.516812 0.590099 0.288929
O O5 0.250000 0.785851 0.353952
O O6 0.012917 0.752472 0.236279
O O7 0.016028 0.834042 0.308531
O O8 0.000000 0.777552 0.500000
O O9 0.750000 0.290156 0.848701
O O10 0.503572 0.328183 0.755469
O O11 0.500000 0.290344 0.000000
O O12 0.750000 0.048818 0.151648
O O13 0.498907 0.083473 0.246557
O O14 0.520268 0.000000 0.205663
O O15 0.500000 0.050404 0.000000
O O16 0.500000 0.641125 0.500000
O O17 0.750000 0.639086 0.347309
O O18 0.750000 0.117233 0.651310
O O19 0.000000 0.111111 0.500000
#
# Coordination Sequence:
#
# PCOD9401343 Si02
#       6
#     8   8   8   8   8   8
#     4   8  14  25  43  69 100 131 164 205 251 298
#     4   9  20  37  57  80 105 135 171 212 258 310
#     4  11  23  38  54  75 104 137 174 215 261 310
#     4  10  21  37  56  79 108 143 181 219 261 309
#     4  10  19  32  52  78 106 137 173 212 256 306
#     4  10  20  36  57  82 110 139 174 215 260 308
#
# _framework density 17.897786
#
# number of rings (size 3 to 8) (size 9 to 14) (size 15 to 20)
#    0.000    2.333    0.000    2.500    0.000    6.000 
#    0.000    1.667    0.000    0.500    0.000    0.000 
#    0.000    0.000    0.000    0.000    0.000    0.000 
#
# Total GULP energy -267638.502824 kJ/mol
# GULP energy per Si atom -5575.802142 kJ/mol
# Density = 1.785705 g / cm^3
# Si number density = 17.897786 Si / 1000 Ang^3
#
#
#
# Elastic Constant Matrix: (Units=GPa)
#
#
# Indices 1 2 3 4 5 6 
#
# 1 43.4713 50.2645 32.2533 0.0000 0.0000 0.0000
# 2 50.2645 200.0400 112.2183 0.0000 0.0000 0.0000
# 3 32.2533 112.2183 97.6072 0.0000 0.0000 0.0000
# 4 0.0000 0.0000 0.0000 -17.1684 0.0000 0.0000
# 5 0.0000 0.0000 0.0000 0.0000 30.2535 0.0000
# 6 0.0000 0.0000 0.0000 0.0000 0.0000 25.1396
#
#
#
# Elastic Compliance Matrix: (Units=1/GPa)
#
#
# Indices 1 2 3 4 5 6 
#
# 1 0.032931 -0.006113 -0.003854 0.000000 0.000000 0.000000
# 2 -0.006113 0.015214 -0.015472 0.000000 0.000000 0.000000
# 3 -0.003854 -0.015472 0.029307 0.000000 0.000000 0.000000
# 4 0.000000 0.000000 0.000000 -0.058247 0.000000 0.000000
# 5 0.000000 0.000000 0.000000 0.000000 0.033054 0.000000
# 6 0.000000 0.000000 0.000000 0.000000 0.000000 0.039778
#
#
# Mechanical properties :
#
#
# Convention : Reuss Voigt Hill
#
# Bulk Modulus (GPa) = 37.62977 81.17672 59.40325
# Shear Modulus (GPa) = 32.94384 17.40378 25.17381
#
# Velocity S-wave (km/s) = 4.29495 3.12171 3.75444
# Velocity P-wave (km/s) = 6.75766 7.64511 7.21504
#
# Compressibility (1/GPa) = 0.02657470
#
# Stress axis : x y z
#
# Youngs Moduli (GPa) = 30.36648 65.72711 34.12168
#
# Poissons Ratio (x) = 0.40176 0.13151
# Poissons Ratio (y) = 0.18562 0.52793
# Poissons Ratio (z) = 0.11704 1.01694
#
# Static dielectric constant tensor:
#      x y z
#    x 1.606830 0.000000 0.000000 
#    y 0.000000 1.658870 0.000000 
#    z 0.000000 0.000000 1.598790 
# 
# From -- ./inp_files/6005.got.cif
#   From: 2010.05.17/outbox.cif.g08.bks.cpg/sg51_4_cif.got.tgz:6005.got - 2010.06.03 11:52:47.
