data_PCOD9401404
_publ_section_title
;
Structure prediction by ZEFSAII (Michael W. Deem and Ramdas Pophale) SiO2 
 PCOD9401404
Probable space group: P M M A
;
_chemical_formula_sum "Si O2"
_cell_formula_units_Z 64
_cell_length_a 20.363961
_cell_length_b 8.800079
_cell_length_c 20.730364
_cell_angle_alpha 90.000000
_cell_angle_beta 90.000000
_cell_angle_gamma 90.000000
_cell_volume 3714.973801
_symmetry_space_group_name_H-M "P M M A"
_symmetry_group_IT_number 51
_symmetry_cell_setting 'orthorhombic'
loop_
_space_group_symop_operation_xyz
x,y,z
1/2-x,-y,z
1/2+x,-y,-z
-x,y,-z
-x,-y,-z
1/2+x,y,-z
1/2-x,y,z
x,-y,z
loop_
_atom_site_type_symbol
_atom_site_label
_atom_site_fract_x
_atom_site_fract_y
_atom_site_fract_z
Si Si1 0.941257 0.181567 0.335715
Si Si2 0.925936 0.182844 0.979490
Si Si3 0.907346 0.181885 0.696163
Si Si4 0.825035 0.683366 0.081813
Si Si5 0.572200 0.316473 0.473907
Si Si6 0.087991 0.317965 0.798241
Si Si7 0.447418 0.183321 0.164845
Si Si8 0.324859 0.683216 0.416921
O O1 0.917567 0.247927 0.403332
O O2 0.905521 0.248752 0.272997
O O3 0.018752 0.221637 0.327342
O O4 0.936377 0.000000 0.335057
O O5 0.917733 0.224254 0.904274
O O6 0.922106 0.000000 0.985161
O O7 0.872409 0.254559 0.026229
O O8 0.000000 0.227739 0.000000
O O9 0.905443 0.223875 0.771808
O O10 0.855299 0.260208 0.650084
O O11 0.900277 0.000000 0.691061
O O12 0.750000 0.735367 0.074898
O O13 0.825812 0.500000 0.078985
O O14 0.855924 0.727038 0.150991
O O15 0.500000 0.271881 0.500000
O O16 0.573325 0.500000 0.469495
O O17 0.627069 0.266846 0.525259
O O18 0.085876 0.500000 0.793667
O O19 0.018760 0.257913 0.826360
O O20 0.456730 0.000000 0.166123
O O21 0.250000 0.734907 0.425487
O O22 0.325406 0.500000 0.416911
#
# Coordination Sequence:
#
# PCOD9401404 Si02
#       8
#     8   8   8   8   8   8   8   8
#     4  10  20  33  53  80 108 134 170 220 267 309
#     4  10  19  33  56  82 109 141 180 225 272 326
#     4   9  18  32  51  75 103 135 169 210 258 309
#     4  10  22  38  54  77 111 147 184 226 273 328
#     4  10  19  33  54  79 105 136 175 218 261 313
#     4  10  19  32  53  78 104 138 178 219 267 319
#     4   9  18  33  52  79 110 135 169 221 271 313
#     4  10  21  36  53  75 105 138 172 213 261 311
#
# _framework density 17.227578999999999
#
# number of rings (size 3 to 8) (size 9 to 14) (size 15 to 20)
#    0.000    2.250    2.500    1.500    0.000    4.500 
#    0.000    1.250    0.000    7.500    0.000    0.000 
#    0.000    0.000    0.000    0.000    0.000    0.000 
#
# Total GULP energy -357025.302136 kJ/mol
# GULP energy per Si atom -5578.520346 kJ/mol
# Density = 1.718837 g / cm^3
# Si number density = 17.227579 Si / 1000 Ang^3
#
#
#
# Elastic Constant Matrix: (Units=GPa)
#
#
# Indices 1 2 3 4 5 6 
#
# 1 127.3792 29.8606 92.8263 0.0000 0.0000 0.0000
# 2 29.8606 13.2822 36.3645 0.0000 0.0000 0.0000
# 3 92.8263 36.3645 179.2890 0.0000 0.0000 0.0000
# 4 0.0000 0.0000 0.0000 28.1362 0.0000 0.0000
# 5 0.0000 0.0000 0.0000 0.0000 23.9541 0.0000
# 6 0.0000 0.0000 0.0000 0.0000 0.0000 15.7103
#
#
#
# Elastic Compliance Matrix: (Units=1/GPa)
#
#
# Indices 1 2 3 4 5 6 
#
# 1 0.017033 -0.031816 -0.002366 0.000000 0.000000 0.000000
# 2 -0.031816 0.228736 -0.029921 0.000000 0.000000 0.000000
# 3 -0.002366 -0.029921 0.012871 0.000000 0.000000 0.000000
# 4 0.000000 0.000000 0.000000 0.035541 0.000000 0.000000
# 5 0.000000 0.000000 0.000000 0.000000 0.041746 0.000000
# 6 0.000000 0.000000 0.000000 0.000000 0.000000 0.063652
#
#
# Mechanical properties :
#
#
# Convention : Reuss Voigt Hill
#
# Bulk Modulus (GPa) = 7.66668 70.89482 39.28075
# Shear Modulus (GPa) = 8.75251 24.28673 16.51962
#
# Velocity S-wave (km/s) = 2.25645 3.75875 3.09998
# Velocity P-wave (km/s) = 3.35390 7.75106 5.97191
#
# Compressibility (1/GPa) = 0.13043453
#
# Stress axis : x y z
#
# Youngs Moduli (GPa) = 58.70977 4.37185 77.69359
#
# Poissons Ratio (x) = 0.13910 0.18379
# Poissons Ratio (y) = 1.86794 2.32466
# Poissons Ratio (z) = 0.13888 0.13081
#
# Static dielectric constant tensor:
#      x y z
#    x 1.564940 0.000000 0.000000 
#    y 0.000000 1.582370 0.000000 
#    z 0.000000 0.000000 1.585700 
# 
# From -- ./inp_files/33936.got.cif
#   From: 2010.05.17/outbox.cif.g08.bks.cpg/sg51_17_cif.got.tgz:33936.got - 2010.06.03 11:52:47.
