data_PCOD9401035
_publ_section_title
;
Structure prediction by ZEFSAII (Michael W. Deem and Ramdas Pophale) SiO2 
 PCOD9401035
Probable space group: P M M A
;
_chemical_formula_sum "Si O2"
_cell_formula_units_Z 64
_cell_length_a 26.303376
_cell_length_b 13.030802
_cell_length_c 11.323131
_cell_angle_alpha 90.000000
_cell_angle_beta 90.000000
_cell_angle_gamma 90.000000
_cell_volume 3881.049401
_symmetry_space_group_name_H-M "P M M A"
_symmetry_group_IT_number 51
_symmetry_cell_setting 'orthorhombic'
loop_
_space_group_symop_operation_xyz
x,y,z
1/2-x,-y,z
1/2+x,-y,-z
-x,y,-z
-x,-y,-z
1/2+x,y,-z
1/2-x,y,z
x,-y,z
loop_
_atom_site_type_symbol
_atom_site_label
_atom_site_fract_x
_atom_site_fract_y
_atom_site_fract_z
Si Si1 0.970131 0.878245 0.380499
Si Si2 0.189368 0.616154 0.502561
Si Si3 0.934010 0.377273 0.135793
Si Si4 0.689396 0.615259 0.773971
Si Si5 0.128010 0.247407 0.678391
Si Si6 0.485172 0.799158 0.132182
Si Si7 0.189403 0.122856 0.875226
Si Si8 0.123754 0.247148 0.060630
O O1 0.915530 0.824475 0.374829
O O2 0.000000 0.844260 0.500000
O O3 0.995573 0.853019 0.252254
O O4 0.964584 0.000000 0.388134
O O5 0.250000 0.625831 0.516400
O O6 0.175402 0.500000 0.538562
O O7 0.177748 0.627064 0.364206
O O8 0.160736 0.698429 0.579209
O O9 0.939991 0.500000 0.133476
O O10 0.901628 0.335171 0.246826
O O11 0.986997 0.312978 0.135886
O O12 0.901838 0.332004 0.025922
O O13 0.750000 0.622755 0.787396
O O14 0.674110 0.500000 0.810043
O O15 0.661522 0.697764 0.851374
O O16 0.164570 0.181617 0.763999
O O17 0.424525 0.797655 0.129493
O O18 0.500000 0.841503 0.000000
O O19 0.250000 0.145705 0.887317
O O20 0.183977 0.000000 0.864435
O O21 0.155538 0.165769 0.983593
#
# Coordination Sequence:
#
# PCOD9401035 Si02
#       8
#     8   8   8   8   8   8   8   8
#     4  10  22  38  55  76 105 138 175 226 274 312
#     4   9  18  32  51  76 105 138 173 208 251 305
#     4   9  18  32  49  76 108 135 169 209 252 303
#     4   9  18  31  47  71 102 133 167 206 249 304
#     4  10  19  33  56  76 101 138 175 214 258 313
#     4   9  20  34  52  78 104 137 177 214 259 315
#     4  10  21  36  54  78 105 133 170 219 271 315
#     4  10  19  31  53  76  99 137 171 208 256 310
#
# _framework density 16.490386000000001
#
# number of rings (size 3 to 8) (size 9 to 14) (size 15 to 20)
#    0.000    2.500    0.000    3.375    1.750    3.500 
#    0.000    0.000    0.000    7.875    0.000    3.500 
#    0.000    0.000    0.000    0.000    0.000    0.000 
#
# Total GULP energy -356546.730257 kJ/mol
# GULP energy per Si atom -5571.042660 kJ/mol
# Density = 1.645285 g / cm^3
# Si number density = 16.490386 Si / 1000 Ang^3
#
#
#
# Elastic Constant Matrix: (Units=GPa)
#
#
# Indices 1 2 3 4 5 6 
#
# 1 68.2318 49.2181 38.4856 0.0000 0.0000 0.0000
# 2 49.2181 81.7516 41.7101 0.0000 0.0000 0.0000
# 3 38.4856 41.7101 68.2531 0.0000 0.0000 0.0000
# 4 0.0000 0.0000 0.0000 19.6250 0.0000 0.0000
# 5 0.0000 0.0000 0.0000 0.0000 -6.7733 0.0000
# 6 0.0000 0.0000 0.0000 0.0000 0.0000 17.6654
#
#
#
# Elastic Compliance Matrix: (Units=1/GPa)
#
#
# Indices 1 2 3 4 5 6 
#
# 1 0.028742 -0.013129 -0.008184 0.000000 0.000000 0.000000
# 2 -0.013129 0.023771 -0.007124 0.000000 0.000000 0.000000
# 3 -0.008184 -0.007124 0.023619 0.000000 0.000000 0.000000
# 4 0.000000 0.000000 0.000000 0.050955 0.000000 0.000000
# 5 0.000000 0.000000 0.000000 0.000000 -0.147638 0.000000
# 6 0.000000 0.000000 0.000000 0.000000 0.000000 0.056608
#
#
# Mechanical properties :
#
#
# Convention : Reuss Voigt Hill
#
# Bulk Modulus (GPa) = 51.92112 53.00712 52.46412
# Shear Modulus (GPa) = 50.32755 12.02494 31.17624
#
# Velocity S-wave (km/s) = 5.53042 2.70332 4.35279
# Velocity P-wave (km/s) = 8.50499 6.47749 7.55952
#
# Compressibility (1/GPa) = 0.01925999
#
# Stress axis : x y z
#
# Youngs Moduli (GPa) = 34.79227 42.06846 42.33852
#
# Poissons Ratio (x) = 0.55230 0.34648
# Poissons Ratio (y) = 0.45678 0.30161
# Poissons Ratio (z) = 0.28473 0.29968
#
# Static dielectric constant tensor:
#      x y z
#    x 1.501920 0.000000 0.000000 
#    y 0.000000 1.534400 0.000000 
#    z 0.000000 0.000000 1.556860 
# 
# From -- ./inp_files/18830.got.cif
#   From: 2010.05.17/outbox.cif.g08.bks.cpg/sg51_10_cif.got.tgz:18830.got - 2010.06.03 11:52:47.
