data_PCOD9401649
_publ_section_title
;
Structure prediction by ZEFSAII (Michael W. Deem and Ramdas Pophale) SiO2 
 PCOD9401649
Probable space group: P M M A
;
_chemical_formula_sum "Si O2"
_cell_formula_units_Z 56
_cell_length_a 14.327227
_cell_length_b 14.021646
_cell_length_c 16.201229
_cell_angle_alpha 90.000000
_cell_angle_beta 90.000000
_cell_angle_gamma 90.000000
_cell_volume 3254.686039
_symmetry_space_group_name_H-M "P M M A"
_symmetry_group_IT_number 51
_symmetry_cell_setting 'orthorhombic'
loop_
_space_group_symop_operation_xyz
x,y,z
1/2-x,-y,z
1/2+x,-y,-z
-x,y,-z
-x,-y,-z
1/2+x,y,-z
1/2-x,y,z
x,-y,z
loop_
_atom_site_type_symbol
_atom_site_label
_atom_site_fract_x
_atom_site_fract_y
_atom_site_fract_z
Si Si1 0.054124 0.612484 0.688503
Si Si2 0.860731 0.229968 0.206575
Si Si3 0.859349 0.108896 0.766639
Si Si4 0.137257 0.891735 0.631201
Si Si5 0.517985 0.109719 0.096939
Si Si6 0.646525 0.294095 0.656485
Si Si7 0.600507 0.712923 0.471328
O O1 0.061210 0.500000 0.695676
O O2 0.092992 0.671280 0.765970
O O3 0.117177 0.649574 0.610288
O O4 0.945239 0.643321 0.676749
O O5 0.750000 0.238950 0.202196
O O6 0.884509 0.154887 0.280338
O O7 0.904865 0.184193 0.126040
O O8 0.750000 0.113904 0.791070
O O9 0.872887 0.190035 0.697086
O O10 0.927271 0.125397 0.844615
O O11 0.876482 0.000000 0.736681
O O12 0.250000 0.890464 0.622826
O O13 0.098243 0.820372 0.562805
O O14 0.104586 0.000000 0.625358
O O15 0.548504 0.000000 0.111942
O O16 0.500000 0.119215 0.000000
O O17 0.750000 0.325654 0.687050
O O18 0.654021 0.289784 0.557132
O O19 0.500000 0.679192 0.500000
#
# Coordination Sequence:
#
# PCOD9401649 Si02
#       7
#     8   8   8   8   8   8   8
#     4  10  21  38  56  76 104 139 182 235 284 321
#     4  10  20  36  55  78 107 142 181 221 268 321
#     4   9  18  33  53  78 111 148 180 211 254 316
#     4   9  17  29  45  66  97 135 172 212 255 303
#     4  10  20  34  56  86 117 145 174 210 259 319
#     4  10  19  33  53  77 106 143 183 223 268 322
#     4   9  19  31  45  71 103 136 176 221 265 313
#
# _framework density 17.205960000000001
#
# number of rings (size 3 to 8) (size 9 to 14) (size 15 to 20)
#    0.000    2.429    1.429    0.857    0.000    6.000 
#    0.000    2.857    0.000    0.429    0.000    0.000 
#    0.000    0.000    0.000    0.000    0.000    0.000 
#
# Total GULP energy -311872.852863 kJ/mol
# GULP energy per Si atom -5569.158087 kJ/mol
# Density = 1.716680 g / cm^3
# Si number density = 17.205960 Si / 1000 Ang^3
#
#
#
# Elastic Constant Matrix: (Units=GPa)
#
#
# Indices 1 2 3 4 5 6 
#
# 1 72.2900 38.7435 34.5117 0.0000 0.0000 0.0000
# 2 38.7435 130.6348 49.8610 0.0000 0.0000 0.0000
# 3 34.5117 49.8610 63.2816 0.0000 0.0000 0.0000
# 4 0.0000 0.0000 0.0000 10.4370 0.0000 0.0000
# 5 0.0000 0.0000 0.0000 0.0000 10.9712 0.0000
# 6 0.0000 0.0000 0.0000 0.0000 0.0000 13.9254
#
#
#
# Elastic Compliance Matrix: (Units=1/GPa)
#
#
# Indices 1 2 3 4 5 6 
#
# 1 0.019228 -0.002431 -0.008571 0.000000 0.000000 0.000000
# 2 -0.002431 0.011255 -0.007542 0.000000 0.000000 0.000000
# 3 -0.008571 -0.007542 0.026419 0.000000 0.000000 0.000000
# 4 0.000000 0.000000 0.000000 0.095813 0.000000 0.000000
# 5 0.000000 0.000000 0.000000 0.000000 0.091148 0.000000
# 6 0.000000 0.000000 0.000000 0.000000 0.000000 0.071811
#
#
# Mechanical properties :
#
#
# Convention : Reuss Voigt Hill
#
# Bulk Modulus (GPa) = 50.46947 56.93764 53.70356
# Shear Modulus (GPa) = 13.91341 16.60606 15.25973
#
# Velocity S-wave (km/s) = 2.84674 3.11003 2.98129
# Velocity P-wave (km/s) = 6.34046 6.78675 6.56740
#
# Compressibility (1/GPa) = 0.01981396
#
# Stress axis : x y z
#
# Youngs Moduli (GPa) = 52.00783 88.85277 37.85182
#
# Poissons Ratio (x) = 0.21603 0.32441
# Poissons Ratio (y) = 0.12645 0.28547
# Poissons Ratio (z) = 0.44574 0.67011
#
# Static dielectric constant tensor:
#      x y z
#    x 1.651010 0.000000 0.000000 
#    y 0.000000 1.573680 0.000000 
#    z 0.000000 0.000000 1.580920 
# 
# From -- ./inp_files/24152.got.cif
#   From: 2010.05.17/outbox.cif.g08.bks.cpg/sg51_13_cif.got.tgz:24152.got - 2010.06.03 11:52:47.
