data_PCOD9401431
_publ_section_title
;
Structure prediction by ZEFSAII (Michael W. Deem and Ramdas Pophale) SiO2 
 PCOD9401431
Probable space group: P M M A
;
_chemical_formula_sum "Si O2"
_cell_formula_units_Z 44
_cell_length_a 9.062261
_cell_length_b 19.440101
_cell_length_c 14.804530
_cell_angle_alpha 90.000000
_cell_angle_beta 90.000000
_cell_angle_gamma 90.000000
_cell_volume 2608.132839
_symmetry_space_group_name_H-M "P M M A"
_symmetry_group_IT_number 51
_symmetry_cell_setting 'orthorhombic'
loop_
_space_group_symop_operation_xyz
x,y,z
1/2-x,-y,z
1/2+x,-y,-z
-x,y,-z
-x,-y,-z
1/2+x,y,-z
1/2-x,y,z
x,-y,z
loop_
_atom_site_type_symbol
_atom_site_label
_atom_site_fract_x
_atom_site_fract_y
_atom_site_fract_z
Si Si1 0.425662 0.000000 0.902918
Si Si2 0.427500 0.153393 0.898768
Si Si3 0.582034 0.258033 0.762290
Si Si4 0.070729 0.646209 0.404007
Si Si5 0.585439 0.635906 0.921641
Si Si6 0.577099 0.500000 0.350493
Si Si7 0.418605 0.500000 0.866300
O O1 0.462864 0.075273 0.864832
O O2 0.250000 0.000000 0.913373
O O3 0.500000 0.000000 0.000000
O O4 0.250000 0.161343 0.908761
O O5 0.487293 0.203776 0.820312
O O6 0.500000 0.161745 0.000000
O O7 0.750000 0.231512 0.749265
O O8 0.530571 0.294580 0.669560
O O9 0.590226 0.321958 0.830656
O O10 0.250000 0.641750 0.406389
O O11 0.000000 0.664795 0.500000
O O12 0.004354 0.570417 0.380367
O O13 0.750000 0.622168 0.952752
O O14 0.499844 0.566638 0.902099
O O15 0.500000 0.675813 0.000000
O O16 0.750000 0.500000 0.380923
O O17 0.576203 0.500000 0.241999
O O18 0.250000 0.500000 0.894865
#
# Coordination Sequence:
#
# PCOD9401431 Si02
#       7
#     4   8   8   8   8   4   4
#     4   8  16  30  48  76 109 144 179 212 247 290
#     4  10  19  32  53  79 112 147 180 213 250 297
#     4  10  22  37  53  75 104 136 171 212 259 309
#     4  11  23  40  59  79 103 132 169 217 271 323
#     4  11  22  36  51  69  97 133 170 209 254 302
#     4  11  22  37  58  80 100 128 170 219 269 321
#     4  11  22  35  52  72  94 126 170 213 253 303
#
# _framework density 16.870305999999999
#
# number of rings (size 3 to 8) (size 9 to 14) (size 15 to 20)
#    0.000    1.636    1.818    3.273    0.000    5.818 
#    0.000    0.000    0.000    0.000    0.000    0.636 
#    0.000    0.000    0.000    0.000    0.000    0.000 
#
# Total GULP energy -245199.347723 kJ/mol
# GULP energy per Si atom -5572.712448 kJ/mol
# Density = 1.683191 g / cm^3
# Si number density = 16.870306 Si / 1000 Ang^3
#
#
#
# Elastic Constant Matrix: (Units=GPa)
#
#
# Indices 1 2 3 4 5 6 
#
# 1 99.8697 54.8085 45.0632 0.0000 0.0000 0.0000
# 2 54.8085 121.9777 50.1664 0.0000 0.0000 0.0000
# 3 45.0632 50.1664 116.6621 0.0000 0.0000 0.0000
# 4 0.0000 0.0000 0.0000 26.4264 0.0000 0.0000
# 5 0.0000 0.0000 0.0000 0.0000 25.2957 0.0000
# 6 0.0000 0.0000 0.0000 0.0000 0.0000 -460.3984
#
#
#
# Elastic Compliance Matrix: (Units=1/GPa)
#
#
# Indices 1 2 3 4 5 6 
#
# 1 0.014294 -0.005044 -0.003352 0.000000 0.000000 0.000000
# 2 -0.005044 0.011740 -0.003100 0.000000 0.000000 0.000000
# 3 -0.003352 -0.003100 0.011200 0.000000 0.000000 0.000000
# 4 0.000000 0.000000 0.000000 0.037841 0.000000 0.000000
# 5 0.000000 0.000000 0.000000 0.000000 0.039532 0.000000
# 6 0.000000 0.000000 0.000000 0.000000 0.000000 -0.002172
#
#
# Mechanical properties :
#
#
# Convention : Reuss Voigt Hill
#
# Bulk Modulus (GPa) = 70.22089 70.95396 70.58742
# Shear Modulus (GPa) = 35.67014 -69.17049 -16.75017
#
# Velocity S-wave (km/s) = 4.60322 -6.41017 -3.15442
# Velocity P-wave (km/s) = 8.36464 3.55490 5.35396
#
# Compressibility (1/GPa) = 0.01424078
#
# Stress axis : x y z
#
# Youngs Moduli (GPa) = 69.96047 85.18248 89.28863
#
# Poissons Ratio (x) = 0.42965 0.29932
# Poissons Ratio (y) = 0.35288 0.27678
# Poissons Ratio (z) = 0.23453 0.26405
#
# Static dielectric constant tensor:
#      x y z
#    x 1.595040 0.000000 0.000000 
#    y 0.000000 1.597390 0.000000 
#    z 0.000000 0.000000 1.576320 
# 
# From -- ./inp_files/20992.got.cif
#   From: 2010.05.17/outbox.cif.g08.bks.cpg/sg51_11_cif.got.tgz:20992.got - 2010.06.03 11:52:47.
