data_PCOD9401704
_publ_section_title
;
Structure prediction by ZEFSAII (Michael W. Deem and Ramdas Pophale) SiO2 
 PCOD9401704
Probable space group: P M M A
;
_chemical_formula_sum "Si O2"
_cell_formula_units_Z 64
_cell_length_a 21.642201
_cell_length_b 7.399371
_cell_length_c 18.203999
_cell_angle_alpha 90.000000
_cell_angle_beta 90.000000
_cell_angle_gamma 90.000000
_cell_volume 2915.164270
_symmetry_space_group_name_H-M "P M M A"
_symmetry_group_IT_number 51
_symmetry_cell_setting 'orthorhombic'
loop_
_space_group_symop_operation_xyz
x,y,z
1/2-x,-y,z
1/2+x,-y,-z
-x,y,-z
-x,-y,-z
1/2+x,y,-z
1/2-x,y,z
x,-y,z
loop_
_atom_site_type_symbol
_atom_site_label
_atom_site_fract_x
_atom_site_fract_y
_atom_site_fract_z
Si Si1 0.464757 0.717756 0.300310
Si Si2 0.608481 0.717148 0.281963
Si Si3 0.064715 0.785748 0.468276
Si Si4 0.849723 0.297081 0.128551
Si Si5 0.178801 0.784633 0.564887
Si Si6 0.820543 0.710976 0.970497
Si Si7 0.105488 0.297897 0.165681
Si Si8 0.014809 0.215805 0.915001
O O1 0.466294 0.500000 0.291746
O O2 0.536367 0.780843 0.287522
O O3 0.441857 0.760304 0.381668
O O4 0.412258 0.786736 0.243654
O O5 0.605077 0.500000 0.273257
O O6 0.646500 0.784926 0.210225
O O7 0.646409 0.755357 0.355916
O O8 0.127695 0.714911 0.505969
O O9 0.000000 0.710455 0.500000
O O10 0.064646 0.000000 0.484692
O O11 0.822978 0.500000 0.134415
O O12 0.921360 0.301000 0.107422
O O13 0.823931 0.211227 0.053173
O O14 0.250000 0.715077 0.561627
O O15 0.183570 0.000000 0.554000
O O16 0.750000 0.711339 0.948302
O O17 0.841771 0.500000 0.977836
O O18 0.857730 0.791439 0.901955
O O19 0.132209 0.500000 0.176873
O O20 0.037549 0.306487 0.131944
O O21 0.016644 0.000000 0.901416
O O22 0.000000 0.242907 0.000000
#
# Coordination Sequence:
#
# PCOD9401704 Si02
#       8
#     8   8   8   8   8   8   8   8
#     4  10  20  33  53  86 116 138 173 224 281 327
#     4  10  20  33  53  84 116 143 178 224 276 331
#     4  10  20  36  59  84 107 140 185 223 264 323
#     4  10  19  33  54  78 107 142 180 220 267 320
#     4  10  22  40  59  80 111 149 186 221 267 331
#     4   9  18  32  53  77 100 139 191 229 258 308
#     4  10  19  34  55  76 106 143 179 221 272 323
#     4  11  21  30  46  76 108 134 173 224 271 315
#
# _framework density 21.954165
#
# number of rings (size 3 to 8) (size 9 to 14) (size 15 to 20)
#    0.000    2.000    3.750    0.375    0.000    3.000 
#    0.000    1.875    0.000    2.250    0.000    0.000 
#    0.000    0.000    0.000    0.000    0.000    0.000 
#
# Total GULP energy -356719.448116 kJ/mol
# GULP energy per Si atom -5573.741377 kJ/mol
# Density = 2.190420 g / cm^3
# Si number density = 21.954165 Si / 1000 Ang^3
#
#
#
# Elastic Constant Matrix: (Units=GPa)
#
#
# Indices 1 2 3 4 5 6 
#
# 1 124.3276 4.7892 78.8897 0.0000 0.0000 0.0000
# 2 4.7892 76.2263 0.8784 0.0000 0.0000 0.0000
# 3 78.8897 0.8784 183.4886 0.0000 0.0000 0.0000
# 4 0.0000 0.0000 0.0000 25.0463 0.0000 0.0000
# 5 0.0000 0.0000 0.0000 0.0000 -10.5580 0.0000
# 6 0.0000 0.0000 0.0000 0.0000 0.0000 -10.0213
#
#
#
# Elastic Compliance Matrix: (Units=1/GPa)
#
#
# Indices 1 2 3 4 5 6 
#
# 1 0.011092 -0.000642 -0.004766 0.000000 0.000000 0.000000
# 2 -0.000642 0.013157 0.000213 0.000000 0.000000 0.000000
# 3 -0.004766 0.000213 0.007498 0.000000 0.000000 0.000000
# 4 0.000000 0.000000 0.000000 0.039926 0.000000 0.000000
# 5 0.000000 0.000000 0.000000 0.000000 -0.094715 0.000000
# 6 0.000000 0.000000 0.000000 0.000000 0.000000 -0.099788
#
#
# Mechanical properties :
#
#
# Convention : Reuss Voigt Hill
#
# Bulk Modulus (GPa) = 46.82284 61.46189 54.14237
# Shear Modulus (GPa) = -47.47369 20.85909 -13.30730
#
# Velocity S-wave (km/s) = -4.65521 3.08575 -2.46466
# Velocity P-wave (km/s) = 2.74240 6.38374 4.07623
#
# Compressibility (1/GPa) = 0.02135710
#
# Stress axis : x y z
#
# Youngs Moduli (GPa) = 90.15412 76.00682 133.36922
#
# Poissons Ratio (x) = 0.04879 0.63563
# Poissons Ratio (y) = 0.05788 -0.02841
# Poissons Ratio (z) = 0.42967 -0.01619
#
# Static dielectric constant tensor:
#      x y z
#    x 1.778170 0.000000 0.000000 
#    y 0.000000 1.855390 0.000000 
#    z 0.000000 0.000000 2.281250 
# 
# From -- ./inp_files/30664.got.cif
#   From: 2010.05.17/outbox.cif.g08.bks.cpg/sg51_16_cif.got.tgz:30664.got - 2010.06.03 11:52:47.
