data_PCOD9401937
_publ_section_title
;
Structure prediction by ZEFSAII (Michael W. Deem and Ramdas Pophale) SiO2 
 PCOD9401937
Probable space group: P M M A
;
_chemical_formula_sum "Si O2"
_cell_formula_units_Z 48
_cell_length_a 10.682369
_cell_length_b 7.583040
_cell_length_c 28.742385
_cell_angle_alpha 90.000000
_cell_angle_beta 90.000000
_cell_angle_gamma 90.000000
_cell_volume 2328.272052
_symmetry_space_group_name_H-M "P M M A"
_symmetry_group_IT_number 51
_symmetry_cell_setting 'orthorhombic'
loop_
_space_group_symop_operation_xyz
x,y,z
1/2-x,-y,z
1/2+x,-y,-z
-x,y,-z
-x,-y,-z
1/2+x,y,-z
1/2-x,y,z
x,-y,z
loop_
_atom_site_type_symbol
_atom_site_label
_atom_site_fract_x
_atom_site_fract_y
_atom_site_fract_z
Si Si1 0.501062 0.208861 0.236801
Si Si2 0.750000 0.209178 0.716674
Si Si3 0.606888 0.284621 0.964509
Si Si4 0.750000 0.210490 0.394294
Si Si5 0.250000 0.713946 0.392043
Si Si6 0.506347 0.709627 0.552474
Si Si7 0.750000 0.216884 0.287292
Si Si8 0.891833 0.712309 0.858568
O O1 0.376039 0.284244 0.260653
O O2 0.626628 0.278395 0.260190
O O3 0.486036 0.232653 0.181683
O O4 0.502194 0.000000 0.246091
O O5 0.750000 0.231713 0.661528
O O6 0.750000 0.000000 0.726853
O O7 0.750000 0.231216 0.976001
O O8 0.606279 0.500000 0.965133
O O9 0.580112 0.229938 0.911236
O O10 0.500000 0.224600 0.000000
O O11 0.875595 0.265116 0.421112
O O12 0.750000 0.274493 0.340984
O O13 0.750000 0.000000 0.392703
O O14 0.250000 0.500000 0.392530
O O15 0.375187 0.777735 0.418263
O O16 0.500000 0.781998 0.500000
O O17 0.527284 0.500000 0.548316
O O18 0.750000 0.000000 0.287323
O O19 0.750000 0.773557 0.846890
O O20 0.889333 0.500000 0.859106
#
# Coordination Sequence:
#
# PCOD9401937 Si02
#       8
#     8   4   8   4   4   8   4   8
#     4  10  19  34  53  72  96 134 176 206 248 311
#     4  10  20  33  53  76 100 132 171 214 255 304
#     4   8  14  26  44  66  94 129 163 197 246 305
#     4  11  22  38  60  83 109 142 180 225 271 311
#     4  10  21  35  55  83 107 136 178 219 260 306
#     4  10  21  39  60  81 110 146 179 212 259 323
#     4   9  20  36  52  72 104 140 169 208 262 309
#     4   9  17  30  49  74 103 130 162 212 262 295
#
# _framework density 20.616147000000002
#
# number of rings (size 3 to 8) (size 9 to 14) (size 15 to 20)
#    0.000    2.500    0.833    2.750    0.000    4.333 
#    1.500    2.917    0.000    0.500    0.000    0.000 
#    0.000    0.000    0.000    0.000    0.000    0.000 
#
# Total GULP energy -267994.240134 kJ/mol
# GULP energy per Si atom -5583.213336 kJ/mol
# Density = 2.056922 g / cm^3
# Si number density = 20.616147 Si / 1000 Ang^3
#
#
#
# Elastic Constant Matrix: (Units=GPa)
#
#
# Indices 1 2 3 4 5 6 
#
# 1 189.6072 -1.9801 119.4837 0.0000 0.0000 0.0000
# 2 -1.9801 40.7690 -11.8127 0.0000 0.0000 0.0000
# 3 119.4837 -11.8127 171.4709 0.0000 0.0000 0.0000
# 4 0.0000 0.0000 0.0000 25.6632 0.0000 0.0000
# 5 0.0000 0.0000 0.0000 0.0000 43.6674 0.0000
# 6 0.0000 0.0000 0.0000 0.0000 0.0000 48.9274
#
#
#
# Elastic Compliance Matrix: (Units=1/GPa)
#
#
# Indices 1 2 3 4 5 6 
#
# 1 0.009490 -0.001485 -0.006715 0.000000 0.000000 0.000000
# 2 -0.001485 0.025260 0.002775 0.000000 0.000000 0.000000
# 3 -0.006715 0.002775 0.010702 0.000000 0.000000 0.000000
# 4 0.000000 0.000000 0.000000 0.038966 0.000000 0.000000
# 5 0.000000 0.000000 0.000000 0.000000 0.022900 0.000000
# 6 0.000000 0.000000 0.000000 0.000000 0.000000 0.020438
#
#
# Mechanical properties :
#
#
# Convention : Reuss Voigt Hill
#
# Bulk Modulus (GPa) = 28.89969 68.13656 48.51812
# Shear Modulus (GPa) = 33.30165 43.39534 38.34850
#
# Velocity S-wave (km/s) = 4.02346 4.59292 4.31759
# Velocity P-wave (km/s) = 5.96932 7.82613 6.95993
#
# Compressibility (1/GPa) = 0.03460245
#
# Stress axis : x y z
#
# Youngs Moduli (GPa) = 105.37098 39.58781 93.43735
#
# Poissons Ratio (x) = 0.05878 0.62746
# Poissons Ratio (y) = 0.15646 -0.25927
# Poissons Ratio (z) = 0.70759 -0.10985
#
# Static dielectric constant tensor:
#      x y z
#    x 1.725150 0.000000 0.000000 
#    y 0.000000 1.770690 0.000000 
#    z 0.000000 0.000000 1.711370 
# 
# From -- ./inp_files/37242.got.cif
#   From: 2010.05.17/outbox.cif.g08.bks.cpg/sg51_19_cif.got.tgz:37242.got - 2010.06.03 11:52:47.
