data_PCOD9401227
_publ_section_title
;
Structure prediction by ZEFSAII (Michael W. Deem and Ramdas Pophale) SiO2 
 PCOD9401227
Probable space group: P M M A
;
_chemical_formula_sum "Si O2"
_cell_formula_units_Z 48
_cell_length_a 18.895712
_cell_length_b 8.939004
_cell_length_c 16.497389
_cell_angle_alpha 90.000000
_cell_angle_beta 90.000000
_cell_angle_gamma 90.000000
_cell_volume 2786.554924
_symmetry_space_group_name_H-M "P M M A"
_symmetry_group_IT_number 51
_symmetry_cell_setting 'orthorhombic'
loop_
_space_group_symop_operation_xyz
x,y,z
1/2-x,-y,z
1/2+x,-y,-z
-x,y,-z
-x,-y,-z
1/2+x,y,-z
1/2-x,y,z
x,-y,z
loop_
_atom_site_type_symbol
_atom_site_label
_atom_site_fract_x
_atom_site_fract_y
_atom_site_fract_z
Si Si1 0.092521 0.320774 0.332638
Si Si2 0.035819 0.820295 0.083567
Si Si3 0.830749 0.679794 0.835794
Si Si4 0.665649 0.823067 0.512469
Si Si5 0.041282 0.821171 0.749253
Si Si6 0.167045 0.321720 0.661143
O O1 0.087327 0.500000 0.338761
O O2 0.143227 0.284391 0.255724
O O3 0.124047 0.252409 0.414148
O O4 0.016918 0.250498 0.310475
O O5 0.111875 0.749835 0.103778
O O6 0.985423 0.784945 0.160111
O O7 0.043810 0.000000 0.080423
O O8 0.000000 0.769827 0.000000
O O9 0.750000 0.729986 0.848304
O O10 0.832888 0.500000 0.843383
O O11 0.750000 0.802804 0.525839
O O12 0.648488 0.747254 0.426564
O O13 0.651083 0.000000 0.508844
O O14 0.116623 0.752559 0.727205
O O15 0.042035 0.000000 0.740048
O O16 0.250000 0.290338 0.675799
O O17 0.157195 0.500000 0.659366
#
# Coordination Sequence:
#
# PCOD9401227 Si02
#       6
#     8   8   8   8   8   8
#     4  10  19  32  51  75 105 138 171 208 252 302
#     4   9  19  36  56  78 104 134 168 207 253 305
#     4   9  18  32  51  77 107 137 169 206 250 301
#     4  10  20  33  50  74 104 137 174 214 254 296
#     4  10  20  35  55  77 101 130 167 210 256 305
#     4  10  21  37  55  74  99 133 173 214 255 300
#
# _framework density 17.225570999999999
#
# number of rings (size 3 to 8) (size 9 to 14) (size 15 to 20)
#    0.000    2.333    0.000    2.500    0.000    5.333 
#    0.000    4.167    0.000    5.000    0.000    0.000 
#    0.000    0.000    0.000    0.000    0.000    0.000 
#
# Total GULP energy -267911.201081 kJ/mol
# GULP energy per Si atom -5581.483356 kJ/mol
# Density = 1.718636 g / cm^3
# Si number density = 17.225571 Si / 1000 Ang^3
#
#
#
# Elastic Constant Matrix: (Units=GPa)
#
#
# Indices 1 2 3 4 5 6 
#
# 1 118.4216 55.1567 75.1865 0.0000 0.0000 0.0000
# 2 55.1567 56.5900 43.6260 0.0000 0.0000 0.0000
# 3 75.1865 43.6260 81.9089 0.0000 0.0000 0.0000
# 4 0.0000 0.0000 0.0000 23.8333 0.0000 0.0000
# 5 0.0000 0.0000 0.0000 0.0000 24.9605 0.0000
# 6 0.0000 0.0000 0.0000 0.0000 0.0000 32.0425
#
#
#
# Elastic Compliance Matrix: (Units=1/GPa)
#
#
# Indices 1 2 3 4 5 6 
#
# 1 0.023496 -0.010645 -0.015898 0.000000 0.000000 0.000000
# 2 -0.010645 0.034804 -0.008766 0.000000 0.000000 0.000000
# 3 -0.015898 -0.008766 0.031471 0.000000 0.000000 0.000000
# 4 0.000000 0.000000 0.000000 0.041958 0.000000 0.000000
# 5 0.000000 0.000000 0.000000 0.000000 0.040063 0.000000
# 6 0.000000 0.000000 0.000000 0.000000 0.000000 0.031209
#
#
# Mechanical properties :
#
#
# Convention : Reuss Voigt Hill
#
# Bulk Modulus (GPa) = 52.21064 67.20653 59.70859
# Shear Modulus (GPa) = 17.85687 21.69736 19.77712
#
# Velocity S-wave (km/s) = 3.22320 3.55294 3.39208
# Velocity P-wave (km/s) = 6.65040 7.47873 7.07669
#
# Compressibility (1/GPa) = 0.01915318
#
# Stress axis : x y z
#
# Youngs Moduli (GPa) = 42.55962 28.73218 31.77535
#
# Poissons Ratio (x) = 0.30586 0.50517
# Poissons Ratio (y) = 0.45306 0.27853
# Poissons Ratio (z) = 0.67662 0.25186
#
# Static dielectric constant tensor:
#      x y z
#    x 1.576370 0.000000 0.000000 
#    y 0.000000 1.571610 0.000000 
#    z 0.000000 0.000000 1.559180 
# 
# From -- ./inp_files/24715.got.cif
#   From: 2010.05.17/outbox.cif.g08.bks.cpg/sg51_13_cif.got.tgz:24715.got - 2010.06.03 11:52:47.
