data_PCOD9401705
_publ_section_title
;
Structure prediction by ZEFSAII (Michael W. Deem and Ramdas Pophale) SiO2 
 PCOD9401705
Probable space group: P M M A
;
_chemical_formula_sum "Si O2"
_cell_formula_units_Z 64
_cell_length_a 29.621237
_cell_length_b 7.669197
_cell_length_c 12.960251
_cell_angle_alpha 90.000000
_cell_angle_beta 90.000000
_cell_angle_gamma 90.000000
_cell_volume 2944.194501
_symmetry_space_group_name_H-M "P M M A"
_symmetry_group_IT_number 51
_symmetry_cell_setting 'orthorhombic'
loop_
_space_group_symop_operation_xyz
x,y,z
1/2-x,-y,z
1/2+x,-y,-z
-x,y,-z
-x,-y,-z
1/2+x,y,-z
1/2-x,y,z
x,-y,z
loop_
_atom_site_type_symbol
_atom_site_label
_atom_site_fract_x
_atom_site_fract_y
_atom_site_fract_z
Si Si1 0.377697 0.289350 0.657553
Si Si2 0.299356 0.295945 0.509226
Si Si3 0.659538 0.794363 0.700827
Si Si4 0.937602 0.786805 0.751736
Si Si5 0.863661 0.296805 0.113415
Si Si6 0.802064 0.711174 0.926321
Si Si7 0.551686 0.211100 0.984985
Si Si8 0.481615 0.209511 0.610084
O O1 0.375889 0.500000 0.660226
O O2 0.341691 0.223503 0.573384
O O3 0.364066 0.222376 0.771385
O O4 0.429421 0.247685 0.630526
O O5 0.250000 0.218214 0.531158
O O6 0.297017 0.500000 0.536539
O O7 0.309865 0.285501 0.387872
O O8 0.607847 0.729456 0.694277
O O9 0.659164 0.000000 0.681262
O O10 0.677300 0.765640 0.816541
O O11 0.983703 0.727856 0.698167
O O12 0.937688 0.000000 0.752053
O O13 0.934101 0.732832 0.870517
O O14 0.851058 0.500000 0.123104
O O15 0.831262 0.222774 0.023780
O O16 0.914177 0.283260 0.068974
O O17 0.750000 0.766608 0.933454
O O18 0.803296 0.500000 0.927735
O O19 0.553925 0.000000 0.990950
O O20 0.500000 0.262624 0.000000
O O21 0.500000 0.274657 0.500000
O O22 0.485572 0.000000 0.608706
#
# Coordination Sequence:
#
# PCOD9401705 Si02
#       8
#     8   8   8   8   8   8   8   8
#     4  10  22  39  58  83 115 148 188 237 285 335
#     4  10  22  40  60  81 109 147 188 232 287 348
#     4  11  21  36  59  86 116 146 185 239 289 337
#     4   9  18  32  51  79 112 146 184 225 274 334
#     4  10  21  37  56  81 113 147 188 235 280 332
#     4  10  21  37  57  82 114 152 192 235 287 344
#     4  10  19  33  54  78 108 148 189 227 272 330
#     4  10  20  36  58  83 112 150 193 233 279 336
#
# _framework density 21.737694999999999
#
# number of rings (size 3 to 8) (size 9 to 14) (size 15 to 20)
#    0.000    2.000    1.250    2.250    0.000    6.000 
#    0.000    4.375    0.000    0.000    0.000    3.500 
#    0.000    0.000    0.000    0.000    0.000    0.000 
#
# Total GULP energy -357555.961866 kJ/mol
# GULP energy per Si atom -5586.811904 kJ/mol
# Density = 2.168822 g / cm^3
# Si number density = 21.737695 Si / 1000 Ang^3
#
#
#
# Elastic Constant Matrix: (Units=GPa)
#
#
# Indices 1 2 3 4 5 6 
#
# 1 153.2655 -3.2815 53.1185 0.0000 0.0000 0.0000
# 2 -3.2815 38.2002 -4.2315 0.0000 0.0000 0.0000
# 3 53.1185 -4.2315 125.0253 0.0000 0.0000 0.0000
# 4 0.0000 0.0000 0.0000 -0.5508 0.0000 0.0000
# 5 0.0000 0.0000 0.0000 0.0000 33.0792 0.0000
# 6 0.0000 0.0000 0.0000 0.0000 0.0000 30.2807
#
#
#
# Elastic Compliance Matrix: (Units=1/GPa)
#
#
# Indices 1 2 3 4 5 6 
#
# 1 0.007655 0.000298 -0.003242 0.000000 0.000000 0.000000
# 2 0.000298 0.026288 0.000763 0.000000 0.000000 0.000000
# 3 -0.003242 0.000763 0.009402 0.000000 0.000000 0.000000
# 4 0.000000 0.000000 0.000000 -1.815527 0.000000 0.000000
# 5 0.000000 0.000000 0.000000 0.000000 0.030230 0.000000
# 6 0.000000 0.000000 0.000000 0.000000 0.000000 0.033024
#
#
# Mechanical properties :
#
#
# Convention : Reuss Voigt Hill
#
# Bulk Modulus (GPa) = 25.65229 45.30021 35.47625
# Shear Modulus (GPa) = -2.95583 30.62085 13.83251
#
# Velocity S-wave (km/s) = -1.16736 3.75727 2.52531
# Velocity P-wave (km/s) = 3.16378 6.30139 4.98583
#
# Compressibility (1/GPa) = 0.03898288
#
# Stress axis : x y z
#
# Youngs Moduli (GPa) = 130.63962 38.04016 106.36447
#
# Poissons Ratio (x) = -0.01135 0.34484
# Poissons Ratio (y) = -0.03899 -0.08115
# Poissons Ratio (z) = 0.42354 -0.02902
#
# Static dielectric constant tensor:
#      x y z
#    x 1.780280 0.000000 0.000000 
#    y 0.000000 1.818910 0.000000 
#    z 0.000000 0.000000 1.777310 
# 
# From -- ./inp_files/19464.got.cif
#   From: 2010.05.17/outbox.cif.g08.bks.cpg/sg51_10_cif.got.tgz:19464.got - 2010.06.03 11:52:47.
