data_PCOD9401242
_publ_section_title
;
Structure prediction by ZEFSAII (Michael W. Deem and Ramdas Pophale) SiO2 
 PCOD9401242
Probable space group: P M M A
;
_chemical_formula_sum "Si O2"
_cell_formula_units_Z 40
_cell_length_a 8.494482
_cell_length_b 27.112643
_cell_length_c 9.309197
_cell_angle_alpha 90.000000
_cell_angle_beta 90.000000
_cell_angle_gamma 90.000000
_cell_volume 2143.981220
_symmetry_space_group_name_H-M "P M M A"
_symmetry_group_IT_number 51
_symmetry_cell_setting 'orthorhombic'
loop_
_space_group_symop_operation_xyz
x,y,z
1/2-x,-y,z
1/2+x,-y,-z
-x,y,-z
-x,-y,-z
1/2+x,y,-z
1/2-x,y,z
x,-y,z
loop_
_atom_site_type_symbol
_atom_site_label
_atom_site_fract_x
_atom_site_fract_y
_atom_site_fract_z
Si Si1 0.559890 0.404386 0.163061
Si Si2 0.440596 0.500000 0.661403
Si Si3 0.059661 0.903251 0.337835
Si Si4 0.440275 0.000000 0.162395
Si Si5 0.438382 0.806920 0.163537
Si Si6 0.061384 0.296368 0.835861
O O1 0.750000 0.405190 0.158703
O O2 0.505351 0.450716 0.256043
O O3 0.513465 0.350203 0.222854
O O4 0.500000 0.408968 0.000000
O O5 0.250000 0.500000 0.662193
O O6 0.500000 0.500000 0.500000
O O7 0.250000 0.903268 0.339781
O O8 0.007584 0.853284 0.257752
O O9 0.000000 0.905471 0.500000
O O10 0.007690 0.951083 0.247516
O O11 0.250000 0.000000 0.159640
O O12 0.500000 0.000000 0.000000
O O13 0.250000 0.806797 0.157554
O O14 0.494143 0.754313 0.226420
O O15 0.500000 0.811631 0.000000
O O16 0.250000 0.293224 0.835953
O O17 0.000000 0.296991 0.000000
#
# Coordination Sequence:
#
# PCOD9401242 Si02
#       6
#     8   4   8   4   8   8
#     4   9  18  32  52  76 100 126 164 208 250 297
#     4  10  21  36  50  70 100 132 165 204 248 300
#     4  10  22  37  54  77 106 137 172 209 250 299
#     4  10  21  38  58  82 106 132 169 212 254 302
#     4  10  19  32  51  77 104 133 169 208 247 295
#     4   9  16  28  48  74 101 130 163 205 251 294
#
# _framework density 18.656880999999998
#
# number of rings (size 3 to 8) (size 9 to 14) (size 15 to 20)
#    0.000    2.400    0.000    3.600    0.000    4.000 
#    0.000    1.000    0.000    4.800    0.000    0.000 
#    0.000    0.000    0.000    0.000    0.000    0.000 
#
# Total GULP energy -223094.262131 kJ/mol
# GULP energy per Si atom -5577.356553 kJ/mol
# Density = 1.861442 g / cm^3
# Si number density = 18.656881 Si / 1000 Ang^3
#
#
#
# Elastic Constant Matrix: (Units=GPa)
#
#
# Indices 1 2 3 4 5 6 
#
# 1 20.6512 34.4303 14.4715 0.0000 0.0000 0.0000
# 2 34.4303 241.8102 100.1239 0.0000 0.0000 0.0000
# 3 14.4715 100.1239 107.7053 0.0000 0.0000 0.0000
# 4 0.0000 0.0000 0.0000 -2.2379 0.0000 0.0000
# 5 0.0000 0.0000 0.0000 0.0000 27.5032 0.0000
# 6 0.0000 0.0000 0.0000 0.0000 0.0000 18.1931
#
#
#
# Elastic Compliance Matrix: (Units=1/GPa)
#
#
# Indices 1 2 3 4 5 6 
#
# 1 0.063499 -0.008956 -0.000206 0.000000 0.000000 0.000000
# 2 -0.008956 0.007987 -0.006221 0.000000 0.000000 0.000000
# 3 -0.000206 -0.006221 0.015095 0.000000 0.000000 0.000000
# 4 0.000000 0.000000 0.000000 -0.446844 0.000000 0.000000
# 5 0.000000 0.000000 0.000000 0.000000 0.036359 0.000000
# 6 0.000000 0.000000 0.000000 0.000000 0.000000 0.054966
#
#
# Mechanical properties :
#
#
# Convention : Reuss Voigt Hill
#
# Bulk Modulus (GPa) = 17.91640 74.24645 46.08143
# Shear Modulus (GPa) = -22.77223 23.43442 0.33110
#
# Velocity S-wave (km/s) = -3.49747 3.54796 0.42172
# Velocity P-wave (km/s) = 2.58569 7.52769 4.99902
#
# Compressibility (1/GPa) = 0.05581479
#
# Stress axis : x y z
#
# Youngs Moduli (GPa) = 15.74816 125.21040 66.24504
#
# Poissons Ratio (x) = 1.12138 0.01367
# Poissons Ratio (y) = 0.14104 0.41211
# Poissons Ratio (z) = 0.00325 0.77894
#
# Static dielectric constant tensor:
#      x y z
#    x 1.646790 0.000000 0.000000 
#    y 0.000000 1.698990 0.000000 
#    z 0.000000 0.000000 1.581090 
# 
# From -- ./inp_files/5524.got.cif
#   From: 2010.05.17/outbox.cif.g08.bks.cpg/sg51_3_cif.got.tgz:5524.got - 2010.06.03 11:52:47.
