data_PCOD9401541
_publ_section_title
;
Structure prediction by ZEFSAII (Michael W. Deem and Ramdas Pophale) SiO2 
 PCOD9401541
Probable space group: P M M A
;
_chemical_formula_sum "Si O2"
_cell_formula_units_Z 52
_cell_length_a 8.800154
_cell_length_b 18.911546
_cell_length_c 19.235496
_cell_angle_alpha 90.000000
_cell_angle_beta 90.000000
_cell_angle_gamma 90.000000
_cell_volume 3201.258134
_symmetry_space_group_name_H-M "P M M A"
_symmetry_group_IT_number 51
_symmetry_cell_setting 'orthorhombic'
loop_
_space_group_symop_operation_xyz
x,y,z
1/2-x,-y,z
1/2+x,-y,-z
-x,y,-z
-x,-y,-z
1/2+x,y,-z
1/2-x,y,z
x,-y,z
loop_
_atom_site_type_symbol
_atom_site_label
_atom_site_fract_x
_atom_site_fract_y
_atom_site_fract_z
Si Si1 0.569594 0.715015 0.209875
Si Si2 0.432764 0.657108 0.077553
Si Si3 0.932358 0.500000 0.922921
Si Si4 0.067576 0.419562 0.286505
Si Si5 0.431368 0.917013 0.575621
Si Si6 0.432610 0.205729 0.335685
Si Si7 0.430796 0.656890 0.424659
O O1 0.750000 0.721080 0.207193
O O2 0.499681 0.711730 0.132847
O O3 0.520215 0.640932 0.245542
O O4 0.499444 0.774039 0.260666
O O5 0.250000 0.661365 0.074973
O O6 0.475539 0.577394 0.104654
O O7 0.500000 0.664971 0.000000
O O8 0.750000 0.500000 0.924896
O O9 0.000000 0.500000 0.000000
O O10 0.250000 0.409627 0.275007
O O11 0.029915 0.500000 0.267740
O O12 0.037261 0.403917 0.367943
O O13 0.500000 0.899026 0.500000
O O14 0.250000 0.907169 0.573879
O O15 0.504997 0.866531 0.632764
O O16 0.463220 0.000000 0.588385
O O17 0.250000 0.205585 0.332243
O O18 0.479916 0.269382 0.388335
O O19 0.500000 0.646402 0.500000
O O20 0.250000 0.660730 0.432440
#
# Coordination Sequence:
#
# PCOD9401541 Si02
#       7
#     8   8   4   8   8   8   8
#     4  11  22  34  49  71  96 125 161 203 250 301
#     4  10  19  33  50  71  96 126 161 200 248 299
#     4   8  16  28  44  64  88 118 151 190 239 292
#     4   9  19  35  49  61  84 119 158 200 248 298
#     4  10  20  33  51  78 110 141 171 204 243 289
#     4  10  20  35  52  70  96 131 168 204 244 291
#     4   9  18  30  45  65  86 114 152 195 242 288
#
# _framework density 16.243614000000001
#
# number of rings (size 3 to 8) (size 9 to 14) (size 15 to 20)
#    0.000    2.308    0.000    4.154    1.077    6.462 
#    0.000    0.000    0.000    0.000    0.000    0.000 
#    0.000    0.615    0.000    2.308    0.000    3.538 
#
# Total GULP energy -290053.905429 kJ/mol
# GULP energy per Si atom -5577.959720 kJ/mol
# Density = 1.620664 g / cm^3
# Si number density = 16.243614 Si / 1000 Ang^3
#
#
#
# Elastic Constant Matrix: (Units=GPa)
#
#
# Indices 1 2 3 4 5 6 
#
# 1 61.4152 38.2327 47.0346 0.0000 0.0000 0.0000
# 2 38.2327 68.0627 43.4782 0.0000 0.0000 0.0000
# 3 47.0346 43.4782 111.7120 0.0000 0.0000 0.0000
# 4 0.0000 0.0000 0.0000 27.3279 0.0000 0.0000
# 5 0.0000 0.0000 0.0000 0.0000 28.0658 0.0000
# 6 0.0000 0.0000 0.0000 0.0000 0.0000 21.6623
#
#
#
# Elastic Compliance Matrix: (Units=1/GPa)
#
#
# Indices 1 2 3 4 5 6 
#
# 1 0.029544 -0.011512 -0.007959 0.000000 0.000000 0.000000
# 2 -0.011512 0.024039 -0.004509 0.000000 0.000000 0.000000
# 3 -0.007959 -0.004509 0.014057 0.000000 0.000000 0.000000
# 4 0.000000 0.000000 0.000000 0.036593 0.000000 0.000000
# 5 0.000000 0.000000 0.000000 0.000000 0.035631 0.000000
# 6 0.000000 0.000000 0.000000 0.000000 0.000000 0.046163
#
#
# Mechanical properties :
#
#
# Convention : Reuss Voigt Hill
#
# Bulk Modulus (GPa) = 50.80916 55.40899 53.10907
# Shear Modulus (GPa) = 20.78594 22.90750 21.84672
#
# Velocity S-wave (km/s) = 3.58108 3.75940 3.67132
# Velocity P-wave (km/s) = 6.96033 7.28213 7.12305
#
# Compressibility (1/GPa) = 0.01968149
#
# Stress axis : x y z
#
# Youngs Moduli (GPa) = 33.84764 41.59857 71.13641
#
# Poissons Ratio (x) = 0.47887 0.56616
# Poissons Ratio (y) = 0.38964 0.32077
# Poissons Ratio (z) = 0.26939 0.18758
#
# Static dielectric constant tensor:
#      x y z
#    x 1.542500 0.000000 0.000000 
#    y 0.000000 1.543550 0.000000 
#    z 0.000000 0.000000 1.554570 
# 
# From -- ./inp_files/27982.got.cif
#   From: 2010.05.17/outbox.cif.g08.bks.cpg/sg51_14_cif.got.tgz:27982.got - 2010.06.03 11:52:47.
