data_PCOD9401585
_publ_section_title
;
Structure prediction by ZEFSAII (Michael W. Deem and Ramdas Pophale) SiO2 
 PCOD9401585
Probable space group: P M M A
;
_chemical_formula_sum "Si O2"
_cell_formula_units_Z 44
_cell_length_a 8.474678
_cell_length_b 30.495189
_cell_length_c 9.261812
_cell_angle_alpha 90.000000
_cell_angle_beta 90.000000
_cell_angle_gamma 90.000000
_cell_volume 2393.594049
_symmetry_space_group_name_H-M "P M M A"
_symmetry_group_IT_number 51
_symmetry_cell_setting 'orthorhombic'
loop_
_space_group_symop_operation_xyz
x,y,z
1/2-x,-y,z
1/2+x,-y,-z
-x,y,-z
-x,-y,-z
1/2+x,y,-z
1/2-x,y,z
x,-y,z
loop_
_atom_site_type_symbol
_atom_site_label
_atom_site_fract_x
_atom_site_fract_y
_atom_site_fract_z
Si Si1 0.059439 0.641445 0.665417
Si Si2 0.939668 0.904359 0.335308
Si Si3 0.059877 0.000000 0.664756
Si Si4 0.060355 0.737229 0.664632
Si Si5 0.441031 0.452807 0.666159
Si Si6 0.062638 0.179215 0.162128
O O1 0.250000 0.641365 0.664950
O O2 0.009682 0.689041 0.724157
O O3 0.007051 0.594374 0.729931
O O4 0.000000 0.641349 0.500000
O O5 0.750000 0.902672 0.336934
O O6 0.990296 0.952526 0.275454
O O7 0.000000 0.900841 0.500000
O O8 0.003275 0.864060 0.244116
O O9 0.000000 0.000000 0.500000
O O10 0.250000 0.000000 0.664444
O O11 0.250000 0.738879 0.662998
O O12 0.000000 0.740828 0.500000
O O13 0.996840 0.777494 0.756051
O O14 0.500000 0.452793 0.500000
O O15 0.250000 0.452829 0.665425
O O16 0.493022 0.500000 0.729660
O O17 0.250000 0.179235 0.161976
O O18 0.000000 0.179176 0.000000
#
# Coordination Sequence:
#
# PCOD9401585 Si02
#       6
#     8   8   4   8   8   8
#     4   8  14  23  37  58  85 117 154 194 235 280
#     4  10  19  35  58  85 112 140 172 206 243 286
#     4   8  16  30  53  82 111 138 168 204 240 280
#     4  10  19  33  52  74  99 130 168 209 250 295
#     4   8  12  18  29  48  77 113 149 184 225 275
#     4  12  25  40  55  74 100 132 168 209 256 304
#
# _framework density 18.382397000000001
#
# number of rings (size 3 to 8) (size 9 to 14) (size 15 to 20)
#    0.000    2.545    0.000    3.273    0.000    1.455 
#    0.000    0.455    0.000    0.000    0.000    0.000 
#    0.000    0.727    0.000    1.273    0.000    9.091 
#
# Total GULP energy -244953.864984 kJ/mol
# GULP energy per Si atom -5567.133295 kJ/mol
# Density = 1.834056 g / cm^3
# Si number density = 18.382397 Si / 1000 Ang^3
#
#
#
# Elastic Constant Matrix: (Units=GPa)
#
#
# Indices 1 2 3 4 5 6 
#
# 1 57.5575 50.3163 18.8125 0.0000 0.0000 0.0000
# 2 50.3163 269.6736 68.7644 0.0000 0.0000 0.0000
# 3 18.8125 68.7644 48.6965 0.0000 0.0000 0.0000
# 4 0.0000 0.0000 0.0000 -6.3653 0.0000 0.0000
# 5 0.0000 0.0000 0.0000 0.0000 20.7696 0.0000
# 6 0.0000 0.0000 0.0000 0.0000 0.0000 12.4004
#
#
#
# Elastic Compliance Matrix: (Units=1/GPa)
#
#
# Indices 1 2 3 4 5 6 
#
# 1 0.021267 -0.002927 -0.004083 0.000000 0.000000 0.000000
# 2 -0.002927 0.006198 -0.007621 0.000000 0.000000 0.000000
# 3 -0.004083 -0.007621 0.032874 0.000000 0.000000 0.000000
# 4 0.000000 0.000000 0.000000 -0.157103 0.000000 0.000000
# 5 0.000000 0.000000 0.000000 0.000000 0.048147 0.000000
# 6 0.000000 0.000000 0.000000 0.000000 0.000000 0.080643
#
#
# Mechanical properties :
#
#
# Convention : Reuss Voigt Hill
#
# Bulk Modulus (GPa) = 32.17757 72.41266 52.29512
# Shear Modulus (GPa) = 69.78715 21.22990 45.50853
#
# Velocity S-wave (km/s) = 6.16819 3.40207 4.98100
# Velocity P-wave (km/s) = 8.26264 7.41013 7.84797
#
# Compressibility (1/GPa) = 0.03107755
#
# Stress axis : x y z
#
# Youngs Moduli (GPa) = 47.02092 161.35417 30.41921
#
# Poissons Ratio (x) = 0.47228 0.12419
# Poissons Ratio (y) = 0.13763 0.23182
# Poissons Ratio (z) = 0.19197 1.22965
#
# Static dielectric constant tensor:
#      x y z
#    x 1.614940 0.000000 0.000000 
#    y 0.000000 1.734350 0.000000 
#    z 0.000000 0.000000 1.577620 
# 
# From -- ./inp_files/5775.got.cif
#   From: 2010.05.17/outbox.cif.g08.bks.cpg/sg51_3_cif.got.tgz:5775.got - 2010.06.03 11:52:47.
