data_PCOD9401993
_publ_section_title
;
Structure prediction by ZEFSAII (Michael W. Deem and Ramdas Pophale) SiO2 
 PCOD9401993
Probable space group: P M M A
;
_chemical_formula_sum "Si O2"
_cell_formula_units_Z 64
_cell_length_a 24.414249
_cell_length_b 7.685354
_cell_length_c 15.319153
_cell_angle_alpha 90.000000
_cell_angle_beta 90.000000
_cell_angle_gamma 90.000000
_cell_volume 2874.365555
_symmetry_space_group_name_H-M "P M M A"
_symmetry_group_IT_number 51
_symmetry_cell_setting 'orthorhombic'
loop_
_space_group_symop_operation_xyz
x,y,z
1/2-x,-y,z
1/2+x,-y,-z
-x,y,-z
-x,-y,-z
1/2+x,y,-z
1/2-x,y,z
x,-y,z
loop_
_atom_site_type_symbol
_atom_site_label
_atom_site_fract_x
_atom_site_fract_y
_atom_site_fract_z
Si Si1 0.013363 0.705190 0.216704
Si Si2 0.691510 0.790374 0.285939
Si Si3 0.133925 0.201685 0.182914
Si Si4 0.025042 0.712411 0.593830
Si Si5 0.186985 0.213219 0.004576
Si Si6 0.395554 0.789471 0.851518
Si Si7 0.688422 0.294224 0.638073
Si Si8 0.357745 0.705906 0.541467
O O1 0.023352 0.500000 0.223494
O O2 0.002452 0.773325 0.315874
O O3 0.958128 0.732686 0.160872
O O4 0.068430 0.782157 0.175821
O O5 0.750000 0.735643 0.247355
O O6 0.639982 0.725382 0.231141
O O7 0.687765 0.732834 0.385654
O O8 0.689896 0.000000 0.283256
O O9 0.166199 0.273925 0.099452
O O10 0.153501 0.276952 0.274700
O O11 0.148560 0.000000 0.186812
O O12 0.023369 0.500000 0.598775
O O13 0.087116 0.777023 0.585009
O O14 0.000000 0.760015 0.500000
O O15 0.250000 0.266734 0.987276
O O16 0.187229 0.000000 0.003136
O O17 0.140822 0.266308 0.934443
O O18 0.396388 0.000000 0.851701
O O19 0.750000 0.223282 0.648913
O O20 0.693771 0.500000 0.621491
O O21 0.658668 0.220230 0.552282
O O22 0.367781 0.500000 0.530074
#
# Coordination Sequence:
#
# PCOD9401993 Si02
#       8
#     8   8   8   8   8   8   8   8
#     4  11  22  38  59  85 120 156 193 239 292 350
#     4  10  20  33  52  81 116 149 181 227 286 337
#     4  11  23  39  61  87 115 151 198 250 296 342
#     4   9  17  31  53  77 104 145 194 236 273 324
#     4   9  19  38  64  90 114 149 197 241 287 348
#     4  10  20  37  61  86 116 150 191 238 284 341
#     4  10  21  37  58  85 117 154 195 240 294 352
#     4  10  19  34  55  80 110 150 197 234 275 341
#
# _framework density 22.265785000000001
#
# number of rings (size 3 to 8) (size 9 to 14) (size 15 to 20)
#    0.000    2.000    1.250    2.625    0.000    6.000 
#    0.000    3.750    0.000    4.500    0.000    0.000 
#    0.000    0.000    0.000    0.000    0.000    0.000 
#
# Total GULP energy -357350.127171 kJ/mol
# GULP energy per Si atom -5583.595737 kJ/mol
# Density = 2.221511 g / cm^3
# Si number density = 22.265785 Si / 1000 Ang^3
#
#
#
# Elastic Constant Matrix: (Units=GPa)
#
#
# Indices 1 2 3 4 5 6 
#
# 1 82.4971 -16.9440 25.0940 0.0000 0.0000 0.0000
# 2 -16.9440 32.1729 -1.1355 0.0000 0.0000 0.0000
# 3 25.0940 -1.1355 106.0774 0.0000 0.0000 0.0000
# 4 0.0000 0.0000 0.0000 7.8764 0.0000 0.0000
# 5 0.0000 0.0000 0.0000 0.0000 33.7978 0.0000
# 6 0.0000 0.0000 0.0000 0.0000 0.0000 19.0236
#
#
#
# Elastic Compliance Matrix: (Units=1/GPa)
#
#
# Indices 1 2 3 4 5 6 
#
# 1 0.014724 0.007635 -0.003402 0.000000 0.000000 0.000000
# 2 0.007635 0.035052 -0.001431 0.000000 0.000000 0.000000
# 3 -0.003402 -0.001431 0.010216 0.000000 0.000000 0.000000
# 4 0.000000 0.000000 0.000000 0.126962 0.000000 0.000000
# 5 0.000000 0.000000 0.000000 0.000000 0.029588 0.000000
# 6 0.000000 0.000000 0.000000 0.000000 0.000000 0.052566
#
#
# Mechanical properties :
#
#
# Convention : Reuss Voigt Hill
#
# Bulk Modulus (GPa) = 15.24443 26.08626 20.66534
# Shear Modulus (GPa) = 17.52106 26.38841 21.95474
#
# Velocity S-wave (km/s) = 2.80823 3.44634 3.14352
# Velocity P-wave (km/s) = 4.16849 5.25144 4.74099
#
# Compressibility (1/GPa) = 0.06559774
#
# Stress axis : x y z
#
# Youngs Moduli (GPa) = 67.91459 28.52871 97.88148
#
# Poissons Ratio (x) = -0.21781 0.33295
# Poissons Ratio (y) = -0.51850 0.14005
# Poissons Ratio (z) = 0.23101 0.04082
#
# Static dielectric constant tensor:
#      x y z
#    x 1.044070 0.000000 0.000000 
#    y 0.000000 1.858430 0.000000 
#    z 0.000000 0.000000 1.830000 
# 
# From -- ./inp_files/26244.got.cif
#   From: 2010.05.17/outbox.cif.g08.bks.cpg/sg51_14_cif.got.tgz:26244.got - 2010.06.03 11:52:47.
