data_PCOD9401733
_publ_section_title
;
Structure prediction by ZEFSAII (Michael W. Deem and Ramdas Pophale) SiO2 
 PCOD9401733
Probable space group: P M M A
;
_chemical_formula_sum "Si O2"
_cell_formula_units_Z 64
_cell_length_a 18.045134
_cell_length_b 7.713192
_cell_length_c 22.269232
_cell_angle_alpha 90.000000
_cell_angle_beta 90.000000
_cell_angle_gamma 90.000000
_cell_volume 3099.556044
_symmetry_space_group_name_H-M "P M M A"
_symmetry_group_IT_number 51
_symmetry_cell_setting 'orthorhombic'
loop_
_space_group_symop_operation_xyz
x,y,z
1/2-x,-y,z
1/2+x,-y,-z
-x,y,-z
-x,-y,-z
1/2+x,y,-z
1/2-x,y,z
x,-y,z
loop_
_atom_site_type_symbol
_atom_site_label
_atom_site_fract_x
_atom_site_fract_y
_atom_site_fract_z
Si Si1 0.830226 0.707573 0.375300
Si Si2 0.109714 0.799809 0.879819
Si Si3 0.553879 0.793845 0.688462
Si Si4 0.900493 0.209630 0.252257
Si Si5 0.833329 0.210699 0.994151
Si Si6 0.833278 0.704884 0.784207
Si Si7 0.018796 0.708887 0.566352
Si Si8 0.941850 0.703526 0.887710
O O1 0.750000 0.776317 0.393634
O O2 0.829639 0.500000 0.383478
O O3 0.844877 0.742865 0.305236
O O4 0.901606 0.776549 0.410665
O O5 0.120679 0.723181 0.813472
O O6 0.149378 0.725676 0.938435
O O7 0.021302 0.793446 0.890769
O O8 0.134405 0.000000 0.876485
O O9 0.481761 0.727429 0.725686
O O10 0.627738 0.726343 0.719901
O O11 0.539479 0.750010 0.619049
O O12 0.554671 0.000000 0.694064
O O13 0.904698 0.000000 0.248863
O O14 0.750000 0.260750 0.975758
O O15 0.837331 0.000000 0.993910
O O16 0.894696 0.276640 0.948170
O O17 0.750000 0.777078 0.787092
O O18 0.828059 0.500000 0.796847
O O19 0.890165 0.775961 0.834081
O O20 0.023164 0.500000 0.563361
O O21 0.000000 0.773533 0.500000
O O22 0.956648 0.500000 0.876859
#
# Coordination Sequence:
#
# PCOD9401733 Si02
#       8
#     8   8   8   8   8   8   8   8
#     4   9  18  32  51  77 108 139 176 222 265 307
#     4  10  20  36  56  78 104 136 178 220 262 322
#     4  10  19  33  54  80 108 136 172 218 267 314
#     4   9  18  32  52  77 104 135 171 212 261 315
#     4  10  22  38  54  73 101 140 181 223 271 321
#     4  10  21  36  54  77 105 139 177 218 268 324
#     4   9  18  34  56  79 107 148 189 219 259 314
#     4  11  22  36  56  79 105 137 176 223 273 323
#
# _framework density 20.648119000000001
#
# number of rings (size 3 to 8) (size 9 to 14) (size 15 to 20)
#    0.000    2.250    1.250    1.500    0.000    5.500 
#    0.000    1.875    0.000    2.250    0.000    0.000 
#    0.000    0.000    0.000    0.000    0.000    0.000 
#
# Total GULP energy -357302.501639 kJ/mol
# GULP energy per Si atom -5582.851588 kJ/mol
# Density = 2.060112 g / cm^3
# Si number density = 20.648119 Si / 1000 Ang^3
#
#
#
# Elastic Constant Matrix: (Units=GPa)
#
#
# Indices 1 2 3 4 5 6 
#
# 1 47.6290 -7.3351 5.7343 0.0000 0.0000 0.0000
# 2 -7.3351 36.3391 -8.2013 0.0000 0.0000 0.0000
# 3 5.7343 -8.2013 103.2868 0.0000 0.0000 0.0000
# 4 0.0000 0.0000 0.0000 23.7325 0.0000 0.0000
# 5 0.0000 0.0000 0.0000 0.0000 10.8957 0.0000
# 6 0.0000 0.0000 0.0000 0.0000 0.0000 -15.0901
#
#
#
# Elastic Compliance Matrix: (Units=1/GPa)
#
#
# Indices 1 2 3 4 5 6 
#
# 1 0.021746 0.004192 -0.000874 0.000000 0.000000 0.000000
# 2 0.004192 0.028829 0.002056 0.000000 0.000000 0.000000
# 3 -0.000874 0.002056 0.009894 0.000000 0.000000 0.000000
# 4 0.000000 0.000000 0.000000 0.042136 0.000000 0.000000
# 5 0.000000 0.000000 0.000000 0.000000 0.091779 0.000000
# 6 0.000000 0.000000 0.000000 0.000000 0.000000 -0.066269
#
#
# Mechanical properties :
#
#
# Convention : Reuss Voigt Hill
#
# Bulk Modulus (GPa) = 14.04158 18.62788 16.33473
# Shear Modulus (GPa) = 35.43419 17.04475 26.23947
#
# Velocity S-wave (km/s) = 4.14708 2.87625 3.56868
# Velocity P-wave (km/s) = 5.45400 4.48013 4.99088
#
# Compressibility (1/GPa) = 0.07121706
#
# Stress axis : x y z
#
# Youngs Moduli (GPa) = 45.98444 34.68750 101.07535
#
# Poissons Ratio (x) = -0.14542 0.08839
# Poissons Ratio (y) = -0.19277 -0.20785
# Poissons Ratio (z) = 0.04021 -0.07133
#
# Static dielectric constant tensor:
#      x y z
#    x 1.732550 0.000000 0.000000 
#    y 0.000000 1.775770 0.000000 
#    z 0.000000 0.000000 1.734510 
# 
# From -- ./inp_files/33788.got.cif
#   From: 2010.05.17/outbox.cif.g08.bks.cpg/sg51_17_cif.got.tgz:33788.got - 2010.06.03 11:52:47.
