data_PCOD9401164
_publ_section_title
;
Structure prediction by ZEFSAII (Michael W. Deem and Ramdas Pophale) SiO2 
 PCOD9401164
Probable space group: P M M A
;
_chemical_formula_sum "Si O2"
_cell_formula_units_Z 56
_cell_length_a 8.741962
_cell_length_b 16.887343
_cell_length_c 23.956625
_cell_angle_alpha 90.000000
_cell_angle_beta 90.000000
_cell_angle_gamma 90.000000
_cell_volume 3536.680872
_symmetry_space_group_name_H-M "P M M A"
_symmetry_group_IT_number 51
_symmetry_cell_setting 'orthorhombic'
loop_
_space_group_symop_operation_xyz
x,y,z
1/2-x,-y,z
1/2+x,-y,-z
-x,y,-z
-x,-y,-z
1/2+x,y,-z
1/2-x,y,z
x,-y,z
loop_
_atom_site_type_symbol
_atom_site_label
_atom_site_fract_x
_atom_site_fract_y
_atom_site_fract_z
Si Si1 0.433164 0.000000 0.747952
Si Si2 0.065890 0.158934 0.438604
Si Si3 0.066536 0.832350 0.226434
Si Si4 0.433864 0.000000 0.616235
Si Si5 0.566696 0.408205 0.938636
Si Si6 0.434134 0.590145 0.725355
Si Si7 0.066363 0.312865 0.836111
Si Si8 0.566461 0.266725 0.663243
O O1 0.499713 0.920264 0.774764
O O2 0.475025 0.000000 0.681925
O O3 0.250000 0.000000 0.751813
O O4 0.250000 0.154556 0.440498
O O5 0.020881 0.227978 0.395214
O O6 0.000000 0.171560 0.500000
O O7 0.001510 0.077325 0.413395
O O8 0.250000 0.834501 0.223261
O O9 0.022479 0.792899 0.286259
O O10 0.000575 0.772737 0.180112
O O11 0.250000 0.000000 0.611528
O O12 0.750000 0.401971 0.939794
O O13 0.526552 0.500000 0.924766
O O14 0.498257 0.349985 0.892563
O O15 0.500000 0.391924 0.000000
O O16 0.250000 0.590042 0.723398
O O17 0.488607 0.500000 0.720753
O O18 0.478715 0.628937 0.784756
O O19 0.495752 0.648822 0.678096
O O20 0.250000 0.309029 0.838179
O O21 0.750000 0.273260 0.664400
#
# Coordination Sequence:
#
# PCOD9401164 Si02
#       8
#     4   8   8   4   8   8   8   8
#     4  11  21  32  50  75 102 131 166 203 248 297
#     4  11  22  36  51  70  96 126 162 200 244 294
#     4  10  19  33  51  72  99 132 167 204 251 299
#     4  11  22  34  51  73  98 129 163 197 240 293
#     4  10  20  33  50  74 105 142 180 215 253 297
#     4   9  18  31  49  73  99 127 159 198 245 294
#     4  10  19  32  50  74 105 136 170 208 249 297
#     4   9  19  33  49  69  94 124 158 198 244 294
#
# _framework density 15.834054
#
# number of rings (size 3 to 8) (size 9 to 14) (size 15 to 20)
#    0.000    2.000    1.429    2.786    0.000    4.571 
#    0.000    0.000    0.000    0.429    0.000    0.500 
#    0.000    0.000    0.000    0.000    0.000    0.000 
#
# Total GULP energy -312585.640401 kJ/mol
# GULP energy per Si atom -5581.886436 kJ/mol
# Density = 1.579802 g / cm^3
# Si number density = 15.834054 Si / 1000 Ang^3
#
#
#
# Elastic Constant Matrix: (Units=GPa)
#
#
# Indices 1 2 3 4 5 6 
#
# 1 47.8664 46.7207 43.2897 0.0000 0.0000 0.0000
# 2 46.7207 158.0959 80.3612 0.0000 0.0000 0.0000
# 3 43.2897 80.3612 116.9265 0.0000 0.0000 0.0000
# 4 0.0000 0.0000 0.0000 27.3141 0.0000 0.0000
# 5 0.0000 0.0000 0.0000 0.0000 25.5092 0.0000
# 6 0.0000 0.0000 0.0000 0.0000 0.0000 29.0573
#
#
#
# Elastic Compliance Matrix: (Units=1/GPa)
#
#
# Indices 1 2 3 4 5 6 
#
# 1 0.034435 -0.005680 -0.008845 0.000000 0.000000 0.000000
# 2 -0.005680 0.010658 -0.005222 0.000000 0.000000 0.000000
# 3 -0.008845 -0.005222 0.015416 0.000000 0.000000 0.000000
# 4 0.000000 0.000000 0.000000 0.036611 0.000000 0.000000
# 5 0.000000 0.000000 0.000000 0.000000 0.039202 0.000000
# 6 0.000000 0.000000 0.000000 0.000000 0.000000 0.034415
#
#
# Mechanical properties :
#
#
# Convention : Reuss Voigt Hill
#
# Bulk Modulus (GPa) = 47.58593 73.73689 60.66141
# Shear Modulus (GPa) = 23.01631 26.54394 24.78013
#
# Velocity S-wave (km/s) = 3.81674 4.09881 3.96029
# Velocity P-wave (km/s) = 7.03857 8.31083 7.70102
#
# Compressibility (1/GPa) = 0.02101461
#
# Stress axis : x y z
#
# Youngs Moduli (GPa) = 29.04014 93.82204 64.86683
#
# Poissons Ratio (x) = 0.53295 0.57374
# Poissons Ratio (y) = 0.16496 0.33875
# Poissons Ratio (z) = 0.25686 0.48997
#
# Static dielectric constant tensor:
#      x y z
#    x 1.528750 0.000000 0.000000 
#    y 0.000000 1.514170 0.000000 
#    z 0.000000 0.000000 1.508500 
# 
# From -- ./inp_files/32092.got.cif
#   From: 2010.05.17/outbox.cif.g08.bks.cpg/sg51_17_cif.got.tgz:32092.got - 2010.06.03 11:52:47.
