data_PCOD9401655
_publ_section_title
;
Structure prediction by ZEFSAII (Michael W. Deem and Ramdas Pophale) SiO2 
 PCOD9401655
Probable space group: P M M A
;
_chemical_formula_sum "Si O2"
_cell_formula_units_Z 48
_cell_length_a 8.444662
_cell_length_b 32.454553
_cell_length_c 9.272341
_cell_angle_alpha 90.000000
_cell_angle_beta 90.000000
_cell_angle_gamma 90.000000
_cell_volume 2541.249454
_symmetry_space_group_name_H-M "P M M A"
_symmetry_group_IT_number 51
_symmetry_cell_setting 'orthorhombic'
loop_
_space_group_symop_operation_xyz
x,y,z
1/2-x,-y,z
1/2+x,-y,-z
-x,y,-z
-x,-y,-z
1/2+x,y,-z
1/2-x,y,z
x,-y,z
loop_
_atom_site_type_symbol
_atom_site_label
_atom_site_fract_x
_atom_site_fract_y
_atom_site_fract_z
Si Si1 0.560408 0.833093 0.665200
Si Si2 0.441566 0.662371 0.162969
Si Si3 0.558445 0.000000 0.162680
Si Si4 0.558627 0.418753 0.663416
Si Si5 0.560669 0.919408 0.335685
Si Si6 0.558624 0.742717 0.664478
Si Si7 0.441437 0.500000 0.163547
O O1 0.500000 0.832834 0.500000
O O2 0.750000 0.835394 0.665873
O O3 0.494430 0.875519 0.728669
O O4 0.510910 0.788086 0.722709
O O5 0.250000 0.662543 0.162433
O O6 0.494059 0.622772 0.255382
O O7 0.496418 0.704568 0.239185
O O8 0.500000 0.659501 0.000000
O O9 0.504689 0.041186 0.245620
O O10 0.750000 0.000000 0.164074
O O11 0.500000 0.000000 0.000000
O O12 0.500000 0.419820 0.500000
O O13 0.750000 0.418838 0.661867
O O14 0.505597 0.459088 0.751569
O O15 0.500000 0.922643 0.500000
O O16 0.750000 0.919428 0.340043
O O17 0.500000 0.738311 0.500000
O O18 0.750000 0.742058 0.660701
O O19 0.250000 0.500000 0.161953
O O20 0.500000 0.500000 0.000000
#
# Coordination Sequence:
#
# PCOD9401655 Si02
#       7
#     8   8   4   8   8   8   4
#     4   9  16  28  48  74 101 129 161 203 249 293
#     4  10  21  36  52  74 103 136 173 213 254 303
#     4  10  23  38  52  72 100 132 167 204 246 296
#     4  10  21  36  55  79 106 135 174 217 258 305
#     4  10  19  33  53  78 102 128 165 206 246 295
#     4   9  18  32  51  75 102 130 166 207 249 298
#     4  10  21  36  54  80 110 140 173 212 256 308
#
# _framework density 18.888345999999999
#
# number of rings (size 3 to 8) (size 9 to 14) (size 15 to 20)
#    0.000    2.333    0.000    3.500    0.000    4.000 
#    0.000    0.833    0.000    4.000    0.000    0.000 
#    0.000    0.000    0.000    0.000    0.000    0.000 
#
# Total GULP energy -267806.866002 kJ/mol
# GULP energy per Si atom -5579.309708 kJ/mol
# Density = 1.884536 g / cm^3
# Si number density = 18.888346 Si / 1000 Ang^3
#
#
#
# Elastic Constant Matrix: (Units=GPa)
#
#
# Indices 1 2 3 4 5 6 
#
# 1 16.4184 32.4044 13.5519 0.0000 0.0000 0.0000
# 2 32.4044 239.0454 106.2316 0.0000 0.0000 0.0000
# 3 13.5519 106.2316 126.5500 0.0000 0.0000 0.0000
# 4 0.0000 0.0000 0.0000 -2.0974 0.0000 0.0000
# 5 0.0000 0.0000 0.0000 0.0000 29.5356 0.0000
# 6 0.0000 0.0000 0.0000 0.0000 0.0000 9.7560
#
#
#
# Elastic Compliance Matrix: (Units=1/GPa)
#
#
# Indices 1 2 3 4 5 6 
#
# 1 0.083218 -0.011676 0.000890 0.000000 0.000000 0.000000
# 2 -0.011676 0.008311 -0.005726 0.000000 0.000000 0.000000
# 3 0.000890 -0.005726 0.012613 0.000000 0.000000 0.000000
# 4 0.000000 0.000000 0.000000 -0.476773 0.000000 0.000000
# 5 0.000000 0.000000 0.000000 0.000000 0.033857 0.000000
# 6 0.000000 0.000000 0.000000 0.000000 0.000000 0.102501
#
#
# Mechanical properties :
#
#
# Convention : Reuss Voigt Hill
#
# Bulk Modulus (GPa) = 14.06126 76.26552 45.16339
# Shear Modulus (GPa) = -27.84860 22.76056 -2.54402
#
# Velocity S-wave (km/s) = -3.84393 3.47509 -1.16181
# Velocity P-wave (km/s) = 3.49864 7.52106 4.70775
#
# Compressibility (1/GPa) = 0.07111737
#
# Stress axis : x y z
#
# Youngs Moduli (GPa) = 12.01665 120.32571 79.28085
#
# Poissons Ratio (x) = 1.40497 -0.07057
# Poissons Ratio (y) = 0.14031 0.45397
# Poissons Ratio (z) = -0.01070 0.68899
#
# Static dielectric constant tensor:
#      x y z
#    x 1.868550 0.000000 0.000000 
#    y 0.000000 1.702630 0.000000 
#    z 0.000000 0.000000 1.592910 
# 
# From -- ./inp_files/6108.got.cif
#   From: 2010.05.17/outbox.cif.g08.bks.cpg/sg51_4_cif.got.tgz:6108.got - 2010.06.03 11:52:47.
