data_PCOD9401836
_publ_section_title
;
Structure prediction by ZEFSAII (Michael W. Deem and Ramdas Pophale) SiO2 
 PCOD9401836
Probable space group: P M M A
;
_chemical_formula_sum "Si O2"
_cell_formula_units_Z 64
_cell_length_a 9.306817
_cell_length_b 25.324439
_cell_length_c 14.856735
_cell_angle_alpha 90.000000
_cell_angle_beta 90.000000
_cell_angle_gamma 90.000000
_cell_volume 3501.582675
_symmetry_space_group_name_H-M "P M M A"
_symmetry_group_IT_number 51
_symmetry_cell_setting 'orthorhombic'
loop_
_space_group_symop_operation_xyz
x,y,z
1/2-x,-y,z
1/2+x,-y,-z
-x,y,-z
-x,-y,-z
1/2+x,y,-z
1/2-x,y,z
x,-y,z
loop_
_atom_site_type_symbol
_atom_site_label
_atom_site_fract_x
_atom_site_fract_y
_atom_site_fract_z
Si Si1 0.077759 0.655021 0.096386
Si Si2 0.414977 0.935543 0.411723
Si Si3 0.918305 0.401153 0.409297
Si Si4 0.917558 0.273486 0.410827
Si Si5 0.580513 0.439351 0.767896
Si Si6 0.921541 0.062099 0.230753
Si Si7 0.580148 0.850167 0.093137
Si Si8 0.921915 0.254250 0.210116
O O1 0.250000 0.661839 0.086005
O O2 0.050414 0.600859 0.150942
O O3 0.010352 0.701250 0.157540
O O4 0.000000 0.655153 0.000000
O O5 0.500000 0.917448 0.500000
O O6 0.250000 0.918265 0.412741
O O7 0.496048 0.920499 0.320505
O O8 0.415323 0.000000 0.413736
O O9 0.750000 0.414332 0.414502
O O10 0.931222 0.337302 0.403898
O O11 0.000000 0.418329 0.500000
O O12 0.989540 0.424708 0.320119
O O13 0.750000 0.260866 0.421649
O O14 0.966826 0.251388 0.314573
O O15 0.000000 0.255905 0.500000
O O16 0.750000 0.433576 0.745501
O O17 0.554042 0.500000 0.793455
O O18 0.750000 0.068895 0.244680
O O19 0.965591 0.097301 0.146224
O O20 0.948600 0.000000 0.216000
O O21 0.750000 0.853932 0.075348
O O22 0.557561 0.800682 0.158971
O O23 0.500000 0.842667 0.000000
O O24 0.750000 0.267156 0.208747
#
# Coordination Sequence:
#
# PCOD9401836 Si02
#       8
#     8   8   8   8   8   8   8   8
#     4  11  23  38  59  83 107 139 181 227 277 328
#     4   9  16  27  47  76 107 141 181 223 266 315
#     4  10  19  33  55  82 111 145 183 222 268 321
#     4   9  18  32  54  82 111 141 174 215 262 316
#     4  10  22  39  56  78 110 145 183 227 271 320
#     4   9  18  34  54  77 108 147 187 226 272 326
#     4  10  22  38  57  80 109 143 181 229 280 326
#     4  10  20  38  60  83 112 143 179 223 271 324
#
# _framework density 18.277449000000001
#
# number of rings (size 3 to 8) (size 9 to 14) (size 15 to 20)
#    0.000    2.250    1.250    1.500    0.000    6.000 
#    0.000    0.625    0.000    1.500    0.000    0.000 
#    0.000    0.000    0.000    0.000    0.000    0.000 
#
# Total GULP energy -357250.784438 kJ/mol
# GULP energy per Si atom -5582.043507 kJ/mol
# Density = 1.823585 g / cm^3
# Si number density = 18.277449 Si / 1000 Ang^3
#
#
#
# Elastic Constant Matrix: (Units=GPa)
#
#
# Indices 1 2 3 4 5 6 
#
# 1 68.6300 45.9769 79.9133 0.0000 0.0000 0.0000
# 2 45.9769 42.2810 60.8509 0.0000 0.0000 0.0000
# 3 79.9133 60.8509 180.3240 0.0000 0.0000 0.0000
# 4 0.0000 0.0000 0.0000 -2.5102 0.0000 0.0000
# 5 0.0000 0.0000 0.0000 0.0000 36.7283 0.0000
# 6 0.0000 0.0000 0.0000 0.0000 0.0000 14.7931
#
#
#
# Elastic Compliance Matrix: (Units=1/GPa)
#
#
# Indices 1 2 3 4 5 6 
#
# 1 0.060249 -0.052667 -0.008928 0.000000 0.000000 0.000000
# 2 -0.052667 0.092023 -0.007713 0.000000 0.000000 0.000000
# 3 -0.008928 -0.007713 0.012105 0.000000 0.000000 0.000000
# 4 0.000000 0.000000 0.000000 -0.398375 0.000000 0.000000
# 5 0.000000 0.000000 0.000000 0.000000 0.027227 0.000000
# 6 0.000000 0.000000 0.000000 0.000000 0.000000 0.067599
#
#
# Mechanical properties :
#
#
# Convention : Reuss Voigt Hill
#
# Bulk Modulus (GPa) = 38.81814 73.85747 56.33780
# Shear Modulus (GPa) = 622.48183 16.76850 319.62516
#
# Velocity S-wave (km/s) = 18.47466 3.03222 13.23834
# Velocity P-wave (km/s) = 21.82587 7.26333 16.26537
#
# Compressibility (1/GPa) = 0.02576116
#
# Stress axis : x y z
#
# Youngs Moduli (GPa) = 16.59766 10.86682 82.61114
#
# Poissons Ratio (x) = 0.57233 0.73753
# Poissons Ratio (y) = 0.87415 0.63720
# Poissons Ratio (z) = 0.14818 0.08382
#
# Static dielectric constant tensor:
#      x y z
#    x 1.603910 0.000000 0.000000 
#    y 0.000000 1.634130 0.000000 
#    z 0.000000 0.000000 1.596200 
# 
# From -- ./inp_files/22205.got.cif
#   From: 2010.05.17/outbox.cif.g08.bks.cpg/sg51_12_cif.got.tgz:22205.got - 2010.06.03 11:52:47.
