data_PCOD9401953
_publ_section_title
;
Structure prediction by ZEFSAII (Michael W. Deem and Ramdas Pophale) SiO2 
 PCOD9401953
Probable space group: P M M A
;
_chemical_formula_sum "Si O2"
_cell_formula_units_Z 48
_cell_length_a 13.890355
_cell_length_b 15.930320
_cell_length_c 9.141132
_cell_angle_alpha 90.000000
_cell_angle_beta 90.000000
_cell_angle_gamma 90.000000
_cell_volume 2022.729579
_symmetry_space_group_name_H-M "P M M A"
_symmetry_group_IT_number 51
_symmetry_cell_setting 'orthorhombic'
loop_
_space_group_symop_operation_xyz
x,y,z
1/2-x,-y,z
1/2+x,-y,-z
-x,y,-z
-x,-y,-z
1/2+x,y,-z
1/2-x,y,z
x,-y,z
loop_
_atom_site_type_symbol
_atom_site_label
_atom_site_fract_x
_atom_site_fract_y
_atom_site_fract_z
Si Si1 0.632877 0.500000 0.511797
Si Si2 0.409485 0.000000 0.608726
Si Si3 0.139780 0.171326 0.468526
Si Si4 0.132421 0.669976 0.651793
Si Si5 0.632703 0.000000 0.059454
Si Si6 0.132796 0.331017 0.987307
Si Si7 0.367358 0.500000 0.152390
Si Si8 0.867091 0.841636 0.858576
O O1 0.750000 0.500000 0.513492
O O2 0.603967 0.415723 0.427963
O O3 0.600923 0.500000 0.679702
O O4 0.500000 0.000000 0.500000
O O5 0.359248 0.913216 0.562680
O O6 0.417583 0.000000 0.783061
O O7 0.250000 0.196389 0.438021
O O8 0.099753 0.248571 0.561711
O O9 0.096193 0.152714 0.308471
O O10 0.250000 0.671460 0.655555
O O11 0.100481 0.671429 0.819519
O O12 0.750000 0.000000 0.084471
O O13 0.607480 0.081413 0.963438
O O14 0.250000 0.331536 0.985827
O O15 0.102939 0.415776 0.068970
O O16 0.104577 0.247171 0.072872
O O17 0.250000 0.500000 0.153475
O O18 0.750000 0.845036 0.854295
#
# Coordination Sequence:
#
# PCOD9401953 Si02
#       8
#     4   4   8   8   4   8   4   8
#     4   9  15  23  35  61  98 133 164 199 244 291
#     4  12  25  38  52  74 102 132 165 208 256 304
#     4  10  19  34  54  75  99 132 170 209 251 301
#     4   9  16  25  42  67  98 132 166 203 247 295
#     4  10  19  34  55  76  97 126 161 202 248 300
#     4   9  15  23  35  58  90 126 163 199 239 287
#     4   9  15  21  31  49  87 135 168 195 236 287
#     4   9  17  29  49  74  97 123 164 209 248 292
#
# _framework density 23.730308999999998
#
# number of rings (size 3 to 8) (size 9 to 14) (size 15 to 20)
#    0.000    2.500    0.000    3.750    0.000   10.000 
#    0.000    1.667    0.000    0.000    0.000    0.583 
#    0.000    0.000    0.000   11.000    0.000   10.833 
#
# Total GULP energy -268624.477122 kJ/mol
# GULP energy per Si atom -5596.343273 kJ/mol
# Density = 2.367630 g / cm^3
# Si number density = 23.730309 Si / 1000 Ang^3
#
#
#
# Elastic Constant Matrix: (Units=GPa)
#
#
# Indices 1 2 3 4 5 6 
#
# 1 80.4158 0.0985 -4.9103 0.0000 0.0000 0.0000
# 2 0.0985 248.0377 147.9617 0.0000 0.0000 0.0000
# 3 -4.9103 147.9617 235.3514 0.0000 0.0000 0.0000
# 4 0.0000 0.0000 0.0000 3975.3710 0.0000 0.0000
# 5 0.0000 0.0000 0.0000 0.0000 13.4550 0.0000
# 6 0.0000 0.0000 0.0000 0.0000 0.0000 12.3991
#
#
#
# Elastic Compliance Matrix: (Units=1/GPa)
#
#
# Indices 1 2 3 4 5 6 
#
# 1 0.012461 -0.000256 0.000421 0.000000 0.000000 0.000000
# 2 -0.000256 0.006456 -0.004064 0.000000 0.000000 0.000000
# 3 0.000421 -0.004064 0.006813 0.000000 0.000000 0.000000
# 4 0.000000 0.000000 0.000000 0.000252 0.000000 0.000000
# 5 0.000000 0.000000 0.000000 0.000000 0.074322 0.000000
# 6 0.000000 0.000000 0.000000 0.000000 0.000000 0.080651
#
#
# Mechanical properties :
#
#
# Convention : Reuss Voigt Hill
#
# Bulk Modulus (GPa) = 55.76694 94.45606 75.11150
# Shear Modulus (GPa) = 25.67646 828.28869 426.98257
#
# Velocity S-wave (km/s) = 3.29296 18.70295 13.42840
# Velocity P-wave (km/s) = 6.16518 22.50091 16.49697
#
# Compressibility (1/GPa) = 0.01793177
#
# Stress axis : x y z
#
# Youngs Moduli (GPa) = 80.24791 154.89020 146.78089
#
# Poissons Ratio (x) = 0.03966 -0.06179
# Poissons Ratio (y) = 0.02055 0.59655
# Poissons Ratio (z) = -0.03378 0.62951
#
# Static dielectric constant tensor:
#      x y z
#    x 1.952780 0.000000 0.000000 
#    y 0.000000 1.822950 0.000000 
#    z 0.000000 0.000000 1.827830 
# 
# From -- ./inp_files/9752.got.cif
#   From: 2010.05.17/outbox.cif.g08.bks.cpg/sg51_5_cif.got.tgz:9752.got - 2010.06.03 11:52:47.
