data_PCOD9401459
_publ_section_title
;
Structure prediction by ZEFSAII (Michael W. Deem and Ramdas Pophale) SiO2 
 PCOD9401459
Probable space group: P M M A
;
_chemical_formula_sum "Si O2"
_cell_formula_units_Z 48
_cell_length_a 22.566993
_cell_length_b 7.664354
_cell_length_c 12.682614
_cell_angle_alpha 90.000000
_cell_angle_beta 90.000000
_cell_angle_gamma 90.000000
_cell_volume 2193.602966
_symmetry_space_group_name_H-M "P M M A"
_symmetry_group_IT_number 51
_symmetry_cell_setting 'orthorhombic'
loop_
_space_group_symop_operation_xyz
x,y,z
1/2-x,-y,z
1/2+x,-y,-z
-x,y,-z
-x,-y,-z
1/2+x,y,-z
1/2-x,y,z
x,-y,z
loop_
_atom_site_type_symbol
_atom_site_label
_atom_site_fract_x
_atom_site_fract_y
_atom_site_fract_z
Si Si1 0.431585 0.290183 0.480925
Si Si2 0.315175 0.210612 0.619015
Si Si3 0.981020 0.788461 0.117553
Si Si4 0.186052 0.290330 0.085171
Si Si5 0.091652 0.296048 0.250594
Si Si6 0.652108 0.790867 0.151001
O O1 0.500000 0.227345 0.500000
O O2 0.436690 0.500000 0.474293
O O3 0.377450 0.256297 0.562031
O O4 0.409510 0.220184 0.367470
O O5 0.250000 0.269216 0.575974
O O6 0.319271 0.272744 0.740779
O O7 0.313619 0.000000 0.618179
O O8 0.915284 0.727697 0.142690
O O9 0.026518 0.718561 0.202541
O O10 0.982506 0.000000 0.120303
O O11 0.000000 0.734039 0.000000
O O12 0.250000 0.230200 0.123755
O O13 0.183784 0.500000 0.089911
O O14 0.134874 0.219392 0.161189
O O15 0.180016 0.247388 0.962166
O O16 0.107554 0.500000 0.261726
O O17 0.651083 0.000000 0.159662
#
# Coordination Sequence:
#
# PCOD9401459 Si02
#       6
#     8   8   8   8   8   8
#     4  10  22  40  61  86 115 149 195 245 292 347
#     4  10  22  39  59  85 115 151 197 242 290 350
#     4  10  19  32  53  83 114 143 181 225 272 335
#     4  10  21  35  51  75 107 142 181 222 268 328
#     4  10  21  36  55  80 110 145 182 225 278 332
#     4  10  20  36  57  81 113 148 181 226 280 334
#
# _framework density 21.881807999999999
#
# number of rings (size 3 to 8) (size 9 to 14) (size 15 to 20)
#    0.000    2.000    1.667    1.500    0.000    4.667 
#    0.000    1.667    0.000    0.000    0.000    0.000 
#    0.000    0.000    0.000    0.000    0.000    0.000 
#
# Total GULP energy -267821.218489 kJ/mol
# GULP energy per Si atom -5579.608719 kJ/mol
# Density = 2.183200 g / cm^3
# Si number density = 21.881808 Si / 1000 Ang^3
#
#
#
# Elastic Constant Matrix: (Units=GPa)
#
#
# Indices 1 2 3 4 5 6 
#
# 1 167.6325 2.8902 64.7485 0.0000 0.0000 0.0000
# 2 2.8902 33.5378 5.8526 0.0000 0.0000 0.0000
# 3 64.7485 5.8526 133.8598 0.0000 0.0000 0.0000
# 4 0.0000 0.0000 0.0000 10.7171 0.0000 0.0000
# 5 0.0000 0.0000 0.0000 0.0000 15.5217 0.0000
# 6 0.0000 0.0000 0.0000 0.0000 0.0000 -416.1593
#
#
#
# Elastic Compliance Matrix: (Units=1/GPa)
#
#
# Indices 1 2 3 4 5 6 
#
# 1 0.007336 -0.000013 -0.003548 0.000000 0.000000 0.000000
# 2 -0.000013 0.030046 -0.001307 0.000000 0.000000 0.000000
# 3 -0.003548 -0.001307 0.009244 0.000000 0.000000 0.000000
# 4 0.000000 0.000000 0.000000 0.093309 0.000000 0.000000
# 5 0.000000 0.000000 0.000000 0.000000 0.064426 0.000000
# 6 0.000000 0.000000 0.000000 0.000000 0.000000 -0.002403
#
#
# Mechanical properties :
#
#
# Convention : Reuss Voigt Hill
#
# Bulk Modulus (GPa) = 27.10795 53.55698 40.33247
# Shear Modulus (GPa) = 22.32232 -60.54819 -19.11293
#
# Velocity S-wave (km/s) = 3.19741 -5.26599 -2.95865
# Velocity P-wave (km/s) = 5.10358 3.52781 2.60778
#
# Compressibility (1/GPa) = 0.03688955
#
# Stress axis : x y z
#
# Youngs Moduli (GPa) = 136.31326 33.28189 108.18066
#
# Poissons Ratio (x) = 0.00044 0.38381
# Poissons Ratio (y) = 0.00178 0.14143
# Poissons Ratio (z) = 0.48363 0.04351
#
# Static dielectric constant tensor:
#      x y z
#    x 1.867460 0.000000 0.000000 
#    y 0.000000 1.823340 0.000000 
#    z 0.000000 0.000000 1.797020 
# 
# From -- ./inp_files/18603.got.cif
#   From: 2010.05.17/outbox.cif.g08.bks.cpg/sg51_10_cif.got.tgz:18603.got - 2010.06.03 11:52:47.
