data_PCOD9401333
_publ_section_title
;
Structure prediction by ZEFSAII (Michael W. Deem and Ramdas Pophale) SiO2 
 PCOD9401333
Probable space group: P M M A
;
_chemical_formula_sum "Si O2"
_cell_formula_units_Z 64
_cell_length_a 34.630809
_cell_length_b 8.226930
_cell_length_c 10.918806
_cell_angle_alpha 90.000000
_cell_angle_beta 90.000000
_cell_angle_gamma 90.000000
_cell_volume 3110.825060
_symmetry_space_group_name_H-M "P M M A"
_symmetry_group_IT_number 51
_symmetry_cell_setting 'orthorhombic'
loop_
_space_group_symop_operation_xyz
x,y,z
1/2-x,-y,z
1/2+x,-y,-z
-x,y,-z
-x,-y,-z
1/2+x,y,-z
1/2-x,y,z
x,-y,z
loop_
_atom_site_type_symbol
_atom_site_label
_atom_site_fract_x
_atom_site_fract_y
_atom_site_fract_z
Si Si1 0.793315 0.198360 0.415484
Si Si2 0.628408 0.190011 0.304305
Si Si3 0.916527 0.693132 0.537853
Si Si4 0.706328 0.803798 0.699749
Si Si5 0.057645 0.308187 0.828097
Si Si6 0.944955 0.816559 0.905951
Si Si7 0.988965 0.311150 0.678158
Si Si8 0.372172 0.687400 0.203617
O O1 0.750000 0.248485 0.379507
O O2 0.828516 0.253922 0.330875
O O3 0.799579 0.247387 0.557446
O O4 0.794192 0.000000 0.415101
O O5 0.605426 0.213694 0.431787
O O6 0.602007 0.277652 0.204848
O O7 0.630343 0.000000 0.273393
O O8 0.918864 0.500000 0.505435
O O9 0.959306 0.754693 0.576511
O O10 0.891042 0.705587 0.661136
O O11 0.750000 0.756060 0.734534
O O12 0.672222 0.735806 0.782649
O O13 0.704354 0.000000 0.701660
O O14 0.050832 0.500000 0.840392
O O15 0.030741 0.245160 0.716201
O O16 0.046245 0.224621 0.954513
O O17 0.965779 0.702498 0.807050
O O18 0.899195 0.793043 0.884072
O O19 0.956336 0.000000 0.876270
O O20 0.993868 0.500000 0.646251
O O21 0.376002 0.500000 0.166674
#
# Coordination Sequence:
#
# PCOD9401333 Si02
#       8
#     8   8   8   8   8   8   8   8
#     4   8  15  29  50  76 107 141 174 211 258 310
#     4  11  21  33  53  79 109 140 179 223 263 311
#     4   9  18  33  51  74 104 139 177 211 258 317
#     4   9  16  28  49  78 110 141 174 214 265 320
#     4  11  23  39  56  74 104 143 181 218 264 318
#     4  11  22  36  57  81 104 131 174 228 273 313
#     4   9  20  38  58  78 103 140 178 215 264 324
#     4  10  19  32  52  77 108 142 176 214 263 322
#
# _framework density 20.573321
#
# number of rings (size 3 to 8) (size 9 to 14) (size 15 to 20)
#    0.000    2.250    1.250    4.125    0.000    5.250 
#    0.000    2.500    0.000    2.250    0.000    1.750 
#    0.000    0.000    0.000    0.000    0.000    0.000 
#
# Total GULP energy -357287.191167 kJ/mol
# GULP energy per Si atom -5582.612362 kJ/mol
# Density = 2.052649 g / cm^3
# Si number density = 20.573321 Si / 1000 Ang^3
#
#
#
# Elastic Constant Matrix: (Units=GPa)
#
#
# Indices 1 2 3 4 5 6 
#
# 1 132.4313 1.8691 11.5442 0.0000 0.0000 0.0000
# 2 1.8691 27.0227 3.6864 0.0000 0.0000 0.0000
# 3 11.5442 3.6864 42.3352 0.0000 0.0000 0.0000
# 4 0.0000 0.0000 0.0000 24.6981 0.0000 0.0000
# 5 0.0000 0.0000 0.0000 0.0000 22.8692 0.0000
# 6 0.0000 0.0000 0.0000 0.0000 0.0000 24.3701
#
#
#
# Elastic Compliance Matrix: (Units=1/GPa)
#
#
# Indices 1 2 3 4 5 6 
#
# 1 0.007737 -0.000250 -0.002088 0.000000 0.000000 0.000000
# 2 -0.000250 0.037459 -0.003194 0.000000 0.000000 0.000000
# 3 -0.002088 -0.003194 0.024468 0.000000 0.000000 0.000000
# 4 0.000000 0.000000 0.000000 0.040489 0.000000 0.000000
# 5 0.000000 0.000000 0.000000 0.000000 0.043727 0.000000
# 6 0.000000 0.000000 0.000000 0.000000 0.000000 0.041034
#
#
# Mechanical properties :
#
#
# Convention : Reuss Voigt Hill
#
# Bulk Modulus (GPa) = 17.06470 26.22094 21.64282
# Shear Modulus (GPa) = 22.17192 26.70012 24.43602
#
# Velocity S-wave (km/s) = 3.28640 3.60641 3.45012
# Velocity P-wave (km/s) = 4.76583 5.48766 5.13943
#
# Compressibility (1/GPa) = 0.05860050
#
# Stress axis : x y z
#
# Youngs Moduli (GPa) = 129.25542 26.69598 40.86903
#
# Poissons Ratio (x) = 0.00668 0.08533
# Poissons Ratio (y) = 0.03235 0.13052
# Poissons Ratio (z) = 0.26987 0.08525
#
# Static dielectric constant tensor:
#      x y z
#    x 1.786350 0.000000 0.000000 
#    y 0.000000 1.726270 0.000000 
#    z 0.000000 0.000000 1.718700 
# 
# From -- ./inp_files/19470.got.cif
#   From: 2010.05.17/outbox.cif.g08.bks.cpg/sg51_10_cif.got.tgz:19470.got - 2010.06.03 11:52:47.
