data_PCOD9401972
_publ_section_title
;
Structure prediction by ZEFSAII (Michael W. Deem and Ramdas Pophale) SiO2 
 PCOD9401972
Probable space group: P M M A
;
_chemical_formula_sum "Si O2"
_cell_formula_units_Z 52
_cell_length_a 8.709387
_cell_length_b 23.494101
_cell_length_c 14.634222
_cell_angle_alpha 90.000000
_cell_angle_beta 90.000000
_cell_angle_gamma 90.000000
_cell_volume 2994.443059
_symmetry_space_group_name_H-M "P M M A"
_symmetry_group_IT_number 51
_symmetry_cell_setting 'orthorhombic'
loop_
_space_group_symop_operation_xyz
x,y,z
1/2-x,-y,z
1/2+x,-y,-z
-x,y,-z
-x,-y,-z
1/2+x,y,-z
1/2-x,y,z
x,-y,z
loop_
_atom_site_type_symbol
_atom_site_label
_atom_site_fract_x
_atom_site_fract_y
_atom_site_fract_z
Si Si1 0.935009 0.666066 0.214313
Si Si2 0.066451 0.565702 0.099123
Si Si3 0.435110 0.777646 0.898522
Si Si4 0.565368 0.277586 0.403054
Si Si5 0.434965 0.000000 0.898035
Si Si6 0.064379 0.111040 0.782645
Si Si7 0.933226 0.849747 0.597554
O O1 0.750000 0.662130 0.209685
O O2 0.983460 0.719308 0.150814
O O3 0.976449 0.682585 0.317906
O O4 0.006005 0.608732 0.175091
O O5 0.250000 0.568133 0.094821
O O6 0.020013 0.500000 0.116000
O O7 0.000000 0.582487 0.000000
O O8 0.250000 0.777689 0.902713
O O9 0.480888 0.831965 0.837757
O O10 0.500000 0.781590 0.000000
O O11 0.500000 0.297827 0.500000
O O12 0.750000 0.272966 0.407141
O O13 0.498510 0.214276 0.387708
O O14 0.480627 0.943810 0.841771
O O15 0.250000 0.000000 0.904188
O O16 0.500000 0.000000 0.000000
O O17 0.250000 0.111358 0.772896
O O18 0.990119 0.113400 0.682896
O O19 0.750000 0.847637 0.593167
O O20 0.000000 0.869232 0.500000
#
# Coordination Sequence:
#
# PCOD9401972 Si02
#       7
#     8   8   8   8   4   8   8
#     4  10  20  34  53  78 108 143 176 219 271 318
#     4  10  21  36  54  77 107 144 184 225 266 315
#     4  10  20  33  49  73 108 139 171 218 267 315
#     4  10  19  34  54  80 113 144 177 219 268 324
#     4  10  22  38  61  82 107 148 187 226 272 320
#     4  10  20  38  56  77 109 144 181 225 270 320
#     4  11  21  34  56  83 109 142 178 220 272 327
#
# _framework density 17.365500000000001
#
# number of rings (size 3 to 8) (size 9 to 14) (size 15 to 20)
#    0.000    1.846    1.538    4.154    0.000    5.231 
#    0.000    0.385    0.000    0.462    0.000    0.000 
#    0.000    0.000    0.000    0.000    0.000    0.000 
#
# Total GULP energy -290405.634781 kJ/mol
# GULP energy per Si atom -5584.723746 kJ/mol
# Density = 1.732598 g / cm^3
# Si number density = 17.365500 Si / 1000 Ang^3
#
#
#
# Elastic Constant Matrix: (Units=GPa)
#
#
# Indices 1 2 3 4 5 6 
#
# 1 47.7565 31.1188 50.7145 0.0000 0.0000 0.0000
# 2 31.1188 88.6282 74.5491 0.0000 0.0000 0.0000
# 3 50.7145 74.5491 179.1406 0.0000 0.0000 0.0000
# 4 0.0000 0.0000 0.0000 30.8106 0.0000 0.0000
# 5 0.0000 0.0000 0.0000 0.0000 35.2104 0.0000
# 6 0.0000 0.0000 0.0000 0.0000 0.0000 15.4338
#
#
#
# Elastic Compliance Matrix: (Units=1/GPa)
#
#
# Indices 1 2 3 4 5 6 
#
# 1 0.031587 -0.005491 -0.006657 0.000000 0.000000 0.000000
# 2 -0.005491 0.018314 -0.006067 0.000000 0.000000 0.000000
# 3 -0.006657 -0.006067 0.009992 0.000000 0.000000 0.000000
# 4 0.000000 0.000000 0.000000 0.032456 0.000000 0.000000
# 5 0.000000 0.000000 0.000000 0.000000 0.028401 0.000000
# 6 0.000000 0.000000 0.000000 0.000000 0.000000 0.064793
#
#
# Mechanical properties :
#
#
# Convention : Reuss Voigt Hill
#
# Bulk Modulus (GPa) = 42.62102 69.81000 56.21551
# Shear Modulus (GPa) = 21.75860 26.90049 24.32954
#
# Velocity S-wave (km/s) = 3.54358 3.94010 3.74709
# Velocity P-wave (km/s) = 6.42957 7.80941 7.15284
#
# Compressibility (1/GPa) = 0.02346260
#
# Stress axis : x y z
#
# Youngs Moduli (GPa) = 31.65842 54.60216 100.08421
#
# Poissons Ratio (x) = 0.29983 0.66628
# Poissons Ratio (y) = 0.17384 0.60720
# Poissons Ratio (z) = 0.21076 0.33127
#
# Static dielectric constant tensor:
#      x y z
#    x 1.584410 0.000000 0.000000 
#    y 0.000000 1.576980 0.000000 
#    z 0.000000 0.000000 1.577180 
# 
# From -- ./inp_files/21627.got.cif
#   From: 2010.05.17/outbox.cif.g08.bks.cpg/sg51_11_cif.got.tgz:21627.got - 2010.06.03 11:52:47.
