data_PCOD9401417
_publ_section_title
;
Structure prediction by ZEFSAII (Michael W. Deem and Ramdas Pophale) SiO2 
 PCOD9401417
Probable space group: P M M A
;
_chemical_formula_sum "Si O2"
_cell_formula_units_Z 40
_cell_length_a 8.609861
_cell_length_b 27.460536
_cell_length_c 9.265384
_cell_angle_alpha 90.000000
_cell_angle_beta 90.000000
_cell_angle_gamma 90.000000
_cell_volume 2190.627692
_symmetry_space_group_name_H-M "P M M A"
_symmetry_group_IT_number 51
_symmetry_cell_setting 'orthorhombic'
loop_
_space_group_symop_operation_xyz
x,y,z
1/2-x,-y,z
1/2+x,-y,-z
-x,y,-z
-x,-y,-z
1/2+x,y,-z
1/2-x,y,z
x,-y,z
loop_
_atom_site_type_symbol
_atom_site_label
_atom_site_fract_x
_atom_site_fract_y
_atom_site_fract_z
Si Si1 0.936172 0.446993 0.835761
Si Si2 0.063703 0.749661 0.661136
Si Si3 0.436901 0.158876 0.163556
Si Si4 0.436009 0.653865 0.837071
Si Si5 0.937454 0.947743 0.836019
O O1 0.750000 0.443651 0.840089
O O2 0.978560 0.500000 0.771251
O O3 0.003832 0.397275 0.772038
O O4 0.000000 0.447694 0.000000
O O5 0.250000 0.750906 0.659369
O O6 0.014805 0.700786 0.745954
O O7 0.000000 0.748673 0.500000
O O8 0.002264 0.797136 0.743415
O O9 0.250000 0.161414 0.160006
O O10 0.484214 0.105171 0.223609
O O11 0.500000 0.162720 0.000000
O O12 0.250000 0.652147 0.844012
O O13 0.500000 0.658432 0.000000
O O14 0.750000 0.947805 0.839875
O O15 0.987398 0.000000 0.770057
O O16 0.000000 0.947899 0.000000
#
# Coordination Sequence:
#
# PCOD9401417 Si02
#       5
#     8   8   8   8   8
#     4   9  16  26  44  72 103 132 161 197 242 289
#     4  11  24  39  54  73  99 133 172 214 261 308
#     4  10  19  32  53  79 106 136 170 209 251 298
#     4  10  20  33  52  77 102 131 166 204 247 295
#     4   8  14  25  43  70 102 132 162 199 244 292
#
# _framework density 18.259606999999999
#
# number of rings (size 3 to 8) (size 9 to 14) (size 15 to 20)
#    0.000    2.400    0.000    4.200    0.000    6.800 
#    0.000    0.000    0.000    1.200    0.000    0.000 
#    0.000    0.000    0.000    0.000    0.000    0.000 
#
# Total GULP energy -222864.563032 kJ/mol
# GULP energy per Si atom -5571.614076 kJ/mol
# Density = 1.821805 g / cm^3
# Si number density = 18.259607 Si / 1000 Ang^3
#
#
#
# Elastic Constant Matrix: (Units=GPa)
#
#
# Indices 1 2 3 4 5 6 
#
# 1 43.2187 50.0592 18.4608 0.0000 0.0000 0.0000
# 2 50.0592 250.3200 68.9442 0.0000 0.0000 0.0000
# 3 18.4608 68.9442 54.2179 0.0000 0.0000 0.0000
# 4 0.0000 0.0000 0.0000 -3.3258 0.0000 0.0000
# 5 0.0000 0.0000 0.0000 0.0000 19.7103 0.0000
# 6 0.0000 0.0000 0.0000 0.0000 0.0000 24.9956
#
#
#
# Elastic Compliance Matrix: (Units=1/GPa)
#
#
# Indices 1 2 3 4 5 6 
#
# 1 0.030686 -0.005016 -0.004071 0.000000 0.000000 0.000000
# 2 -0.005016 0.006968 -0.007153 0.000000 0.000000 0.000000
# 3 -0.004071 -0.007153 0.028926 0.000000 0.000000 0.000000
# 4 0.000000 0.000000 0.000000 -0.300678 0.000000 0.000000
# 5 0.000000 0.000000 0.000000 0.000000 0.050735 0.000000
# 6 0.000000 0.000000 0.000000 0.000000 0.000000 0.040007
#
#
# Mechanical properties :
#
#
# Convention : Reuss Voigt Hill
#
# Bulk Modulus (GPa) = 29.32381 69.18722 49.25552
# Shear Modulus (GPa) = -50.24543 22.29552 -13.97496
#
# Velocity S-wave (km/s) = -5.25138 3.49811 -2.76949
# Velocity P-wave (km/s) = 4.54699 7.36810 4.09962
#
# Compressibility (1/GPa) = 0.03410198
#
# Stress axis : x y z
#
# Youngs Moduli (GPa) = 32.58791 143.51452 34.57138
#
# Poissons Ratio (x) = 0.71980 0.14073
# Poissons Ratio (y) = 0.16344 0.24728
# Poissons Ratio (z) = 0.13265 1.02653
#
# Static dielectric constant tensor:
#      x y z
#    x 1.615200 0.000000 0.000000 
#    y 0.000000 1.708530 0.000000 
#    z 0.000000 0.000000 1.570350 
# 
# From -- ./inp_files/5499.got.cif
#   From: 2010.05.17/outbox.cif.g08.bks.cpg/sg51_3_cif.got.tgz:5499.got - 2010.06.03 11:52:47.
