data_PCOD9401647
_publ_section_title
;
Structure prediction by ZEFSAII (Michael W. Deem and Ramdas Pophale) SiO2 
 PCOD9401647
Probable space group: P M M A
;
_chemical_formula_sum "Si O2"
_cell_formula_units_Z 52
_cell_length_a 8.438742
_cell_length_b 13.903917
_cell_length_c 24.778953
_cell_angle_alpha 90.000000
_cell_angle_beta 90.000000
_cell_angle_gamma 90.000000
_cell_volume 2907.353418
_symmetry_space_group_name_H-M "P M M A"
_symmetry_group_IT_number 51
_symmetry_cell_setting 'orthorhombic'
loop_
_space_group_symop_operation_xyz
x,y,z
1/2-x,-y,z
1/2+x,-y,-z
-x,y,-z
-x,-y,-z
1/2+x,y,-z
1/2-x,y,z
x,-y,z
loop_
_atom_site_type_symbol
_atom_site_label
_atom_site_fract_x
_atom_site_fract_y
_atom_site_fract_z
Si Si1 0.435015 0.190643 0.622565
Si Si2 0.060217 0.888317 0.059460
Si Si3 0.443180 0.000000 0.561209
Si Si4 0.561258 0.389853 0.777594
Si Si5 0.569041 0.886130 0.728744
Si Si6 0.057600 0.391651 0.654557
Si Si7 0.064067 0.793876 0.833915
O O1 0.250000 0.195345 0.608310
O O2 0.455797 0.163179 0.685358
O O3 0.498510 0.300110 0.619181
O O4 0.501601 0.098691 0.590059
O O5 0.250000 0.884301 0.060482
O O6 0.992119 0.822859 0.106820
O O7 0.011697 0.000000 0.068936
O O8 0.000000 0.861284 0.000000
O O9 0.500000 0.000000 0.500000
O O10 0.250000 0.000000 0.564269
O O11 0.750000 0.373728 0.779252
O O12 0.528366 0.500000 0.792926
O O13 0.504014 0.378310 0.715749
O O14 0.476973 0.314408 0.816366
O O15 0.750000 0.856332 0.717115
O O16 0.525723 0.857678 0.789254
O O17 0.556824 0.000000 0.722292
O O18 0.250000 0.388690 0.656123
O O19 0.010788 0.500000 0.637089
O O20 0.250000 0.811110 0.828863
#
# Coordination Sequence:
#
# PCOD9401647 Si02
#       7
#     8   8   4   8   8   8   8
#     4  10  19  33  53  77 106 140 175 221 270 321
#     4  10  21  38  58  79 105 138 179 225 271 322
#     4  10  22  38  56  78 106 144 191 228 273 326
#     4  10  20  33  50  75 108 142 177 220 269 321
#     4  11  22  33  48  75 109 142 174 214 270 327
#     4   9  17  30  50  77 107 140 176 214 267 330
#     4  12  23  34  52  77 107 144 182 220 266 323
#
# _framework density 17.885683
#
# number of rings (size 3 to 8) (size 9 to 14) (size 15 to 20)
#    0.000    1.692    2.308    3.231    0.000    5.231 
#    0.000    0.000    0.000    0.923    0.000    0.000 
#    0.000    0.000    0.000    0.000    0.000    0.000 
#
# Total GULP energy -290132.965528 kJ/mol
# GULP energy per Si atom -5579.480106 kJ/mol
# Density = 1.784497 g / cm^3
# Si number density = 17.885683 Si / 1000 Ang^3
#
#
#
# Elastic Constant Matrix: (Units=GPa)
#
#
# Indices 1 2 3 4 5 6 
#
# 1 18.4027 8.1014 -6.1447 0.0000 0.0000 0.0000
# 2 8.1014 132.5547 48.4907 0.0000 0.0000 0.0000
# 3 -6.1447 48.4907 60.2420 0.0000 0.0000 0.0000
# 4 0.0000 0.0000 0.0000 14.7090 0.0000 0.0000
# 5 0.0000 0.0000 0.0000 0.0000 24.1361 0.0000
# 6 0.0000 0.0000 0.0000 0.0000 0.0000 15.2466
#
#
#
# Elastic Compliance Matrix: (Units=1/GPa)
#
#
# Indices 1 2 3 4 5 6 
#
# 1 0.062674 -0.008744 0.013431 0.000000 0.000000 0.000000
# 2 -0.008744 0.011912 -0.010481 0.000000 0.000000 0.000000
# 3 0.013431 -0.010481 0.026406 0.000000 0.000000 0.000000
# 4 0.000000 0.000000 0.000000 0.067986 0.000000 0.000000
# 5 0.000000 0.000000 0.000000 0.000000 0.041432 0.000000
# 6 0.000000 0.000000 0.000000 0.000000 0.000000 0.065589
#
#
# Mechanical properties :
#
#
# Convention : Reuss Voigt Hill
#
# Bulk Modulus (GPa) = 11.18505 34.67713 22.93109
# Shear Modulus (GPa) = 15.75368 21.53513 18.64440
#
# Velocity S-wave (km/s) = 2.97104 3.47370 3.23216
# Velocity P-wave (km/s) = 4.24696 5.95979 5.17473
#
# Compressibility (1/GPa) = 0.08940506
#
# Stress axis : x y z
#
# Youngs Moduli (GPa) = 15.95566 83.94622 37.87055
#
# Poissons Ratio (x) = 0.73399 -0.50863
# Poissons Ratio (y) = 0.13951 0.39690
# Poissons Ratio (z) = -0.21430 0.87980
#
# Static dielectric constant tensor:
#      x y z
#    x 1.612670 0.000000 0.000000 
#    y 0.000000 1.663350 0.000000 
#    z 0.000000 0.000000 1.561610 
# 
# From -- ./inp_files/31691.got.cif
#   From: 2010.05.17/outbox.cif.g08.bks.cpg/sg51_16_cif.got.tgz:31691.got - 2010.06.03 11:52:47.
