data_PCOD9401891
_publ_section_title
;
Structure prediction by ZEFSAII (Michael W. Deem and Ramdas Pophale) SiO2 
 PCOD9401891
Probable space group: P M M A
;
_chemical_formula_sum "Si O2"
_cell_formula_units_Z 64
_cell_length_a 9.467916
_cell_length_b 23.860566
_cell_length_c 15.092334
_cell_angle_alpha 90.000000
_cell_angle_beta 90.000000
_cell_angle_gamma 90.000000
_cell_volume 3409.506678
_symmetry_space_group_name_H-M "P M M A"
_symmetry_group_IT_number 51
_symmetry_cell_setting 'orthorhombic'
loop_
_space_group_symop_operation_xyz
x,y,z
1/2-x,-y,z
1/2+x,-y,-z
-x,y,-z
-x,-y,-z
1/2+x,y,-z
1/2-x,y,z
x,-y,z
loop_
_atom_site_type_symbol
_atom_site_label
_atom_site_fract_x
_atom_site_fract_y
_atom_site_fract_z
Si Si1 0.914995 0.435976 0.264435
Si Si2 0.091934 0.932830 0.581355
Si Si3 0.917338 0.251076 0.716148
Si Si4 0.911074 0.722752 0.915779
Si Si5 0.420317 0.337860 0.594003
Si Si6 0.087656 0.587360 0.085847
Si Si7 0.086211 0.880145 0.269463
Si Si8 0.416919 0.935311 0.088941
O O1 0.750000 0.427847 0.238787
O O2 0.931576 0.500000 0.295792
O O3 0.946088 0.391564 0.341935
O O4 0.010684 0.427702 0.177540
O O5 0.250000 0.910402 0.577810
O O6 0.000000 0.910770 0.500000
O O7 0.014660 0.916703 0.670594
O O8 0.098087 0.000000 0.574182
O O9 0.750000 0.267252 0.709264
O O10 0.964224 0.262539 0.817617
O O11 0.927015 0.184527 0.704195
O O12 0.011059 0.285851 0.647515
O O13 0.750000 0.743707 0.922286
O O14 0.909036 0.655129 0.919133
O O15 0.000000 0.742996 0.000000
O O16 0.500000 0.343630 0.500000
O O17 0.250000 0.331859 0.582583
O O18 0.250000 0.567942 0.084204
O O19 0.000000 0.567623 0.000000
O O20 0.250000 0.897245 0.282213
O O21 0.051221 0.892483 0.167524
O O22 0.250000 0.932924 0.071432
O O23 0.449640 0.000000 0.116135
O O24 0.500000 0.922883 0.000000
#
# Coordination Sequence:
#
# PCOD9401891 Si02
#       8
#     8   8   8   8   8   8   8   8
#     4  10  22  40  61  87 118 149 187 236 285 340
#     4  10  21  37  58  83 111 143 181 228 282 339
#     4  10  21  39  59  83 115 150 190 235 282 334
#     4   9  18  32  53  80 111 146 185 227 269 321
#     4  11  24  42  65  87 111 146 187 233 289 347
#     4  10  19  33  56  85 118 155 191 229 275 329
#     4  10  21  36  57  83 114 151 190 235 284 335
#     4   9  18  33  53  79 113 153 195 236 280 330
#
# _framework density 18.771045000000001
#
# number of rings (size 3 to 8) (size 9 to 14) (size 15 to 20)
#    0.000    2.125    1.250    1.500    0.000    5.500 
#    0.000    1.250    0.000    0.000    0.000    0.000 
#    0.000    0.000    0.000    0.000    0.000    0.000 
#
# Total GULP energy -357183.221676 kJ/mol
# GULP energy per Si atom -5580.987839 kJ/mol
# Density = 1.872832 g / cm^3
# Si number density = 18.771045 Si / 1000 Ang^3
#
#
#
# Elastic Constant Matrix: (Units=GPa)
#
#
# Indices 1 2 3 4 5 6 
#
# 1 106.0590 39.2934 86.8063 0.0000 0.0000 0.0000
# 2 39.2934 23.4930 27.0755 0.0000 0.0000 0.0000
# 3 86.8063 27.0755 135.2834 0.0000 0.0000 0.0000
# 4 0.0000 0.0000 0.0000 -137.7405 0.0000 0.0000
# 5 0.0000 0.0000 0.0000 0.0000 37.5210 0.0000
# 6 0.0000 0.0000 0.0000 0.0000 0.0000 26.3544
#
#
#
# Elastic Compliance Matrix: (Units=1/GPa)
#
#
# Indices 1 2 3 4 5 6 
#
# 1 0.042062 -0.051012 -0.016780 0.000000 0.000000 0.000000
# 2 -0.051012 0.117195 0.009277 0.000000 0.000000 0.000000
# 3 -0.016780 0.009277 0.016302 0.000000 0.000000 0.000000
# 4 0.000000 0.000000 0.000000 -0.007260 0.000000 0.000000
# 5 0.000000 0.000000 0.000000 0.000000 0.026652 0.000000
# 6 0.000000 0.000000 0.000000 0.000000 0.000000 0.037944
#
#
# Mechanical properties :
#
#
# Convention : Reuss Voigt Hill
#
# Bulk Modulus (GPa) = 17.08550 63.46507 40.27528
# Shear Modulus (GPa) = 13.53418 -7.32899 3.10259
#
# Velocity S-wave (km/s) = 2.68808 -1.97810 1.28703
# Velocity P-wave (km/s) = 4.33084 5.35409 4.86942
#
# Compressibility (1/GPa) = 0.05852918
#
# Stress axis : x y z
#
# Youngs Moduli (GPa) = 23.77435 8.53281 61.34103
#
# Poissons Ratio (x) = 0.43528 1.02931
# Poissons Ratio (y) = 1.21279 -0.56909
# Poissons Ratio (z) = 0.39894 -0.07916
#
# Static dielectric constant tensor:
#      x y z
#    x 1.643860 0.000000 0.000000 
#    y 0.000000 1.662160 0.000000 
#    z 0.000000 0.000000 1.627260 
# 
# From -- ./inp_files/14811.got.cif
#   From: 2010.05.17/outbox.cif.g08.bks.cpg/sg51_8_cif.got.tgz:14811.got - 2010.06.03 11:52:47.
