data_PCOD9401870
_publ_section_title
;
Structure prediction by ZEFSAII (Michael W. Deem and Ramdas Pophale) SiO2 
 PCOD9401870
Probable space group: P M M A
;
_chemical_formula_sum "Si O2"
_cell_formula_units_Z 64
_cell_length_a 19.162437
_cell_length_b 7.645724
_cell_length_c 20.394010
_cell_angle_alpha 90.000000
_cell_angle_beta 90.000000
_cell_angle_gamma 90.000000
_cell_volume 2987.940772
_symmetry_space_group_name_H-M "P M M A"
_symmetry_group_IT_number 51
_symmetry_cell_setting 'orthorhombic'
loop_
_space_group_symop_operation_xyz
x,y,z
1/2-x,-y,z
1/2+x,-y,-z
-x,y,-z
-x,-y,-z
1/2+x,y,-z
1/2-x,y,z
x,-y,z
loop_
_atom_site_type_symbol
_atom_site_label
_atom_site_fract_x
_atom_site_fract_y
_atom_site_fract_z
Si Si1 0.830411 0.706998 0.904259
Si Si2 0.174880 0.792536 0.332825
Si Si3 0.446907 0.289697 0.595188
Si Si4 0.077363 0.791367 0.745222
Si Si5 0.329004 0.214703 0.859719
Si Si6 0.597715 0.710679 0.543077
Si Si7 0.073912 0.798331 0.976041
Si Si8 0.925067 0.211937 0.778908
O O1 0.750000 0.768224 0.896558
O O2 0.828326 0.500000 0.917231
O O3 0.877173 0.736875 0.839894
O O4 0.871364 0.793506 0.964373
O O5 0.250000 0.717960 0.314451
O O6 0.158768 0.765246 0.408831
O O7 0.113627 0.723532 0.286819
O O8 0.176852 0.000000 0.321234
O O9 0.448700 0.500000 0.593609
O O10 0.422825 0.240942 0.667554
O O11 0.401517 0.230354 0.532413
O O12 0.525395 0.228024 0.577364
O O13 0.142374 0.730199 0.788532
O O14 0.004546 0.723915 0.776113
O O15 0.076117 0.000000 0.752961
O O16 0.250000 0.273177 0.872656
O O17 0.384997 0.276523 0.913724
O O18 0.327606 0.000000 0.862853
O O19 0.595774 0.500000 0.542441
O O20 0.057529 0.000000 0.957975
O O21 0.000000 0.719717 0.000000
O O22 0.928021 0.000000 0.778738
#
# Coordination Sequence:
#
# PCOD9401870 Si02
#       8
#     8   8   8   8   8   8   8   8
#     4  11  24  38  53  79 114 148 182 222 271 327
#     4  10  20  33  50  75 107 140 176 224 278 322
#     4   9  18  33  53  77 104 135 174 220 268 318
#     4  10  19  33  56  83 106 136 179 225 268 317
#     4   9  18  33  54  81 111 140 173 217 271 328
#     4   9  18  33  52  74 103 139 177 217 265 324
#     4  10  20  37  62  86 107 140 185 230 275 329
#     4  10  20  35  54  77 106 142 184 227 269 319
#
# _framework density 21.419433000000001
#
# number of rings (size 3 to 8) (size 9 to 14) (size 15 to 20)
#    0.000    2.250    1.250    2.625    0.000    6.000 
#    0.000    2.500    0.000    3.375    0.000    0.000 
#    0.000    0.000    0.000    0.000    0.000    0.000 
#
# Total GULP energy -357188.247040 kJ/mol
# GULP energy per Si atom -5581.066360 kJ/mol
# Density = 2.137068 g / cm^3
# Si number density = 21.419433 Si / 1000 Ang^3
#
#
#
# Elastic Constant Matrix: (Units=GPa)
#
#
# Indices 1 2 3 4 5 6 
#
# 1 95.3221 8.1891 47.7006 0.0000 0.0000 0.0000
# 2 8.1891 40.3220 -9.4606 0.0000 0.0000 0.0000
# 3 47.7006 -9.4606 132.3662 0.0000 0.0000 0.0000
# 4 0.0000 0.0000 0.0000 -206.5069 0.0000 0.0000
# 5 0.0000 0.0000 0.0000 0.0000 6.6437 0.0000
# 6 0.0000 0.0000 0.0000 0.0000 0.0000 8.5700
#
#
#
# Elastic Compliance Matrix: (Units=1/GPa)
#
#
# Indices 1 2 3 4 5 6 
#
# 1 0.013380 -0.003914 -0.005101 0.000000 0.000000 0.000000
# 2 -0.003914 0.026368 0.003295 0.000000 0.000000 0.000000
# 3 -0.005101 0.003295 0.009629 0.000000 0.000000 0.000000
# 4 0.000000 0.000000 0.000000 -0.004842 0.000000 0.000000
# 5 0.000000 0.000000 0.000000 0.000000 0.150519 0.000000
# 6 0.000000 0.000000 0.000000 0.000000 0.000000 0.116686
#
#
# Mechanical properties :
#
#
# Convention : Reuss Voigt Hill
#
# Bulk Modulus (GPa) = 26.36015 40.09649 33.22832
# Shear Modulus (GPa) = 14.88868 -23.48655 -4.29894
#
# Velocity S-wave (km/s) = 2.63934 -3.31495 -1.41823
# Velocity P-wave (km/s) = 4.64989 2.02694 3.58678
#
# Compressibility (1/GPa) = 0.03793606
#
# Stress axis : x y z
#
# Youngs Moduli (GPa) = 74.73914 37.92406 103.85598
#
# Poissons Ratio (x) = 0.14845 0.52982
# Poissons Ratio (y) = 0.29255 -0.34223
# Poissons Ratio (z) = 0.38128 -0.12497
#
# Static dielectric constant tensor:
#      x y z
#    x 1.772350 0.000000 0.000000 
#    y 0.000000 1.804040 0.000000 
#    z 0.000000 0.000000 1.777050 
# 
# From -- ./inp_files/30537.got.cif
#   From: 2010.05.17/outbox.cif.g08.bks.cpg/sg51_16_cif.got.tgz:30537.got - 2010.06.03 11:52:47.
