data_PCOD9401908
_publ_section_title
;
Structure prediction by ZEFSAII (Michael W. Deem and Ramdas Pophale) SiO2 
 PCOD9401908
Probable space group: P M M A
;
_chemical_formula_sum "Si O2"
_cell_formula_units_Z 64
_cell_length_a 15.528845
_cell_length_b 15.197630
_cell_length_c 12.501659
_cell_angle_alpha 90.000000
_cell_angle_beta 90.000000
_cell_angle_gamma 90.000000
_cell_volume 2950.412035
_symmetry_space_group_name_H-M "P M M A"
_symmetry_group_IT_number 51
_symmetry_cell_setting 'orthorhombic'
loop_
_space_group_symop_operation_xyz
x,y,z
1/2-x,-y,z
1/2+x,-y,-z
-x,y,-z
-x,-y,-z
1/2+x,y,-z
1/2-x,y,z
x,-y,z
loop_
_atom_site_type_symbol
_atom_site_label
_atom_site_fract_x
_atom_site_fract_y
_atom_site_fract_z
Si Si1 0.918684 0.653228 0.677567
Si Si2 0.147808 0.160570 0.261070
Si Si3 0.647653 0.904971 0.502135
Si Si4 0.150509 0.592401 0.117353
Si Si5 0.354526 0.722006 0.942987
Si Si6 0.847955 0.710871 0.462764
Si Si7 0.107462 0.397576 0.739952
Si Si8 0.854922 0.903504 0.976713
O O1 0.910093 0.754309 0.715879
O O2 0.853377 0.604611 0.756241
O O3 0.898170 0.656728 0.552931
O O4 0.008585 0.609356 0.704548
O O5 0.250000 0.186760 0.253147
O O6 0.140170 0.103383 0.368979
O O7 0.126066 0.115947 0.148410
O O8 0.750000 0.907333 0.477080
O O9 0.615868 0.811133 0.454751
O O10 0.610911 0.000000 0.467344
O O11 0.250000 0.588261 0.085595
O O12 0.107715 0.500000 0.087229
O O13 0.115338 0.674801 0.052476
O O14 0.250000 0.726856 0.939533
O O15 0.381505 0.658007 0.847918
O O16 0.385637 0.822507 0.950111
O O17 0.750000 0.720515 0.503826
O O18 0.846511 0.657515 0.353521
O O19 0.133732 0.500000 0.749887
O O20 0.750000 0.904829 0.982865
O O21 0.886532 0.000000 0.007776
#
# Coordination Sequence:
#
# PCOD9401908 Si02
#       8
#     8   8   8   8   8   8   8   8
#     4  11  21  37  59  86 120 147 184 240 301 347
#     4   9  15  28  54  88 123 155 184 225 284 346
#     4   8  14  27  53  89 119 141 175 228 287 343
#     4  10  19  33  57  87 114 144 187 241 296 341
#     4  10  21  39  60  83 115 153 196 241 283 338
#     4  10  22  40  64  89 113 148 195 244 295 347
#     4  12  27  43  58  78 112 160 206 241 288 356
#     4   9  16  29  56  91 120 149 191 240 285 334
#
# _framework density 21.691887000000001
#
# number of rings (size 3 to 8) (size 9 to 14) (size 15 to 20)
#    0.000    2.125    1.250    3.750    0.000    5.000 
#    0.000    1.875    0.000   14.250    0.000    0.000 
#    0.000    0.000    0.000    0.000    0.000    0.000 
#
# Total GULP energy -356914.698684 kJ/mol
# GULP energy per Si atom -5576.792167 kJ/mol
# Density = 2.164252 g / cm^3
# Si number density = 21.691887 Si / 1000 Ang^3
#
#
#
# Elastic Constant Matrix: (Units=GPa)
#
#
# Indices 1 2 3 4 5 6 
#
# 1 25.7682 7.4564 -1.2774 0.0000 0.0000 0.0000
# 2 7.4564 172.0062 48.4066 0.0000 0.0000 0.0000
# 3 -1.2774 48.4066 82.3468 0.0000 0.0000 0.0000
# 4 0.0000 0.0000 0.0000 12.6469 0.0000 0.0000
# 5 0.0000 0.0000 0.0000 0.0000 17.1609 0.0000
# 6 0.0000 0.0000 0.0000 0.0000 0.0000 1.5517
#
#
#
# Elastic Compliance Matrix: (Units=1/GPa)
#
#
# Indices 1 2 3 4 5 6 
#
# 1 0.039558 -0.002262 0.001943 0.000000 0.000000 0.000000
# 2 -0.002262 0.007095 -0.004206 0.000000 0.000000 0.000000
# 3 0.001943 -0.004206 0.014646 0.000000 0.000000 0.000000
# 4 0.000000 0.000000 0.000000 0.079071 0.000000 0.000000
# 5 0.000000 0.000000 0.000000 0.000000 0.058272 0.000000
# 6 0.000000 0.000000 0.000000 0.000000 0.000000 0.644449
#
#
# Mechanical properties :
#
#
# Convention : Reuss Voigt Hill
#
# Bulk Modulus (GPa) = 19.13845 43.25472 31.19658
# Shear Modulus (GPa) = 5.75005 21.30762 13.52883
#
# Velocity S-wave (km/s) = 1.62989 3.13754 2.50007
# Velocity P-wave (km/s) = 3.51910 5.75407 4.76935
#
# Compressibility (1/GPa) = 0.05225084
#
# Stress axis : x y z
#
# Youngs Moduli (GPa) = 25.27920 140.93485 68.27620
#
# Poissons Ratio (x) = 0.31875 -0.13267
# Poissons Ratio (y) = 0.05717 0.28717
# Poissons Ratio (z) = -0.04912 0.59278
#
# Static dielectric constant tensor:
#      x y z
#    x 1.843720 0.000000 0.000000 
#    y 0.000000 1.848950 0.000000 
#    z 0.000000 0.000000 1.769410 
# 
# From -- ./inp_files/17606.got.cif
#   From: 2010.05.17/outbox.cif.g08.bks.cpg/sg51_9_cif.got.tgz:17606.got - 2010.06.03 11:52:47.
