data_PCOD9401191
_publ_section_title
;
Structure prediction by ZEFSAII (Michael W. Deem and Ramdas Pophale) SiO2 
 PCOD9401191
Probable space group: P M M A
;
_chemical_formula_sum "Si O2"
_cell_formula_units_Z 64
_cell_length_a 8.489416
_cell_length_b 17.913250
_cell_length_c 21.710674
_cell_angle_alpha 90.000000
_cell_angle_beta 90.000000
_cell_angle_gamma 90.000000
_cell_volume 3301.608004
_symmetry_space_group_name_H-M "P M M A"
_symmetry_group_IT_number 51
_symmetry_cell_setting 'orthorhombic'
loop_
_space_group_symop_operation_xyz
x,y,z
1/2-x,-y,z
1/2+x,-y,-z
-x,y,-z
-x,-y,-z
1/2+x,y,-z
1/2-x,y,z
x,-y,z
loop_
_atom_site_type_symbol
_atom_site_label
_atom_site_fract_x
_atom_site_fract_y
_atom_site_fract_z
Si Si1 0.437616 0.753738 0.064834
Si Si2 0.565788 0.082054 0.089798
Si Si3 0.060339 0.292414 0.198547
Si Si4 0.442076 0.416403 0.296114
Si Si5 0.067243 0.919334 0.658518
Si Si6 0.561725 0.624478 0.566884
Si Si7 0.567766 0.879708 0.784030
Si Si8 0.562427 0.199224 0.566074
O O1 0.250000 0.749477 0.065331
O O2 0.483440 0.841689 0.068225
O O3 0.496963 0.712473 0.127261
O O4 0.500000 0.723628 0.000000
O O5 0.750000 0.086460 0.073839
O O6 0.541421 0.086757 0.163300
O O7 0.504797 0.000000 0.070091
O O8 0.250000 0.302908 0.195309
O O9 0.001169 0.353999 0.247246
O O10 0.033699 0.208562 0.222952
O O11 0.250000 0.409928 0.298382
O O12 0.481016 0.500000 0.274947
O O13 0.495552 0.407641 0.367465
O O14 0.250000 0.913373 0.676589
O O15 0.962355 0.916526 0.719157
O O16 0.020291 0.850577 0.616636
O O17 0.045023 0.000000 0.627075
O O18 0.500000 0.597764 0.500000
O O19 0.750000 0.614239 0.565013
O O20 0.526223 0.712903 0.571480
O O21 0.750000 0.887429 0.803836
O O22 0.500000 0.174332 0.500000
O O23 0.750000 0.190837 0.570739
#
# Coordination Sequence:
#
# PCOD9401191 Si02
#       8
#     8   8   8   8   8   8   8   8
#     4  10  20  34  53  75 101 134 174 219 263 311
#     4  10  20  33  49  72 104 137 169 210 258 306
#     4   8  16  31  50  74 101 130 168 212 254 299
#     4   9  16  28  50  79 108 136 167 205 248 295
#     4  11  23  35  47  67  95 125 162 211 262 310
#     4   9  18  32  51  77 106 136 170 206 246 296
#     4  10  19  32  51  72  97 131 171 212 252 300
#     4  10  20  35  53  69  90 122 162 208 254 305
#
# _framework density 19.384494
#
# number of rings (size 3 to 8) (size 9 to 14) (size 15 to 20)
#    0.000    2.375    0.000    3.750    0.000    6.750 
#    0.000    0.000    0.000    1.875    0.000    0.000 
#    0.000    0.000    0.000    0.000    0.000    0.500 
#
# Total GULP energy -356860.470552 kJ/mol
# GULP energy per Si atom -5575.944852 kJ/mol
# Density = 1.934037 g / cm^3
# Si number density = 19.384494 Si / 1000 Ang^3
#
#
#
# Elastic Constant Matrix: (Units=GPa)
#
#
# Indices 1 2 3 4 5 6 
#
# 1 15.5343 21.4565 9.7257 0.0000 0.0000 0.0000
# 2 21.4565 78.2166 55.5897 0.0000 0.0000 0.0000
# 3 9.7257 55.5897 121.7081 0.0000 0.0000 0.0000
# 4 0.0000 0.0000 0.0000 -211.8497 0.0000 0.0000
# 5 0.0000 0.0000 0.0000 0.0000 29.5829 0.0000
# 6 0.0000 0.0000 0.0000 0.0000 0.0000 8.2747
#
#
#
# Elastic Compliance Matrix: (Units=1/GPa)
#
#
# Indices 1 2 3 4 5 6 
#
# 1 0.107792 -0.034718 0.007243 0.000000 0.000000 0.000000
# 2 -0.034718 0.030112 -0.010979 0.000000 0.000000 0.000000
# 3 0.007243 -0.010979 0.012652 0.000000 0.000000 0.000000
# 4 0.000000 0.000000 0.000000 -0.004720 0.000000 0.000000
# 5 0.000000 0.000000 0.000000 0.000000 0.033803 0.000000
# 6 0.000000 0.000000 0.000000 0.000000 0.000000 0.120851
#
#
# Mechanical properties :
#
#
# Convention : Reuss Voigt Hill
#
# Bulk Modulus (GPa) = 13.57783 43.22254 28.40019
# Shear Modulus (GPa) = 12.43947 -26.21929 -6.88991
#
# Velocity S-wave (km/s) = 2.53597 -3.68175 -1.88734
# Velocity P-wave (km/s) = 3.94900 2.06693 3.15173
#
# Compressibility (1/GPa) = 0.07364945
#
# Stress axis : x y z
#
# Youngs Moduli (GPa) = 9.27712 33.20950 79.03727
#
# Poissons Ratio (x) = 1.15296 -0.57250
# Poissons Ratio (y) = 0.32208 0.86777
# Poissons Ratio (z) = -0.06720 0.36461
#
# Static dielectric constant tensor:
#      x y z
#    x 1.677050 0.000000 0.000000 
#    y 0.000000 1.682100 0.000000 
#    z 0.000000 0.000000 1.701240 
# 
# From -- ./inp_files/32329.got.cif
#   From: 2010.05.17/outbox.cif.g08.bks.cpg/sg51_17_cif.got.tgz:32329.got - 2010.06.03 11:52:47.
