data_PCOD9401142
_publ_section_title
;
Structure prediction by ZEFSAII (Michael W. Deem and Ramdas Pophale) SiO2 
 PCOD9401142
Probable space group: P M M A
;
_chemical_formula_sum "Si O2"
_cell_formula_units_Z 52
_cell_length_a 7.869230
_cell_length_b 24.584975
_cell_length_c 14.625085
_cell_angle_alpha 90.000000
_cell_angle_beta 90.000000
_cell_angle_gamma 90.000000
_cell_volume 2829.439478
_symmetry_space_group_name_H-M "P M M A"
_symmetry_group_IT_number 51
_symmetry_cell_setting 'orthorhombic'
loop_
_space_group_symop_operation_xyz
x,y,z
1/2-x,-y,z
1/2+x,-y,-z
-x,y,-z
-x,-y,-z
1/2+x,y,-z
1/2-x,y,z
x,-y,z
loop_
_atom_site_type_symbol
_atom_site_label
_atom_site_fract_x
_atom_site_fract_y
_atom_site_fract_z
Si Si1 0.951528 0.059266 0.792579
Si Si2 0.045569 0.500000 0.107316
Si Si3 0.046907 0.105120 0.601915
Si Si4 0.952555 0.274472 0.791555
Si Si5 0.955484 0.381447 0.892879
Si Si6 0.547808 0.769856 0.398454
Si Si7 0.955271 0.833416 0.893855
O O1 0.750000 0.057695 0.811059
O O2 0.021698 0.111387 0.846680
O O3 0.975451 0.070391 0.685024
O O4 0.023584 0.000000 0.816984
O O5 0.250000 0.500000 0.116891
O O6 0.982888 0.441027 0.140794
O O7 0.000000 0.500000 0.000000
O O8 0.250000 0.105335 0.609605
O O9 0.982606 0.167721 0.611714
O O10 0.000000 0.086419 0.500000
O O11 0.750000 0.275071 0.806668
O O12 0.020410 0.330113 0.835343
O O13 0.020396 0.220477 0.842318
O O14 0.982913 0.266574 0.684269
O O15 0.750000 0.382200 0.887169
O O16 0.000000 0.374948 0.000000
O O17 0.500000 0.751128 0.500000
O O18 0.750000 0.772209 0.392248
O O19 0.750000 0.833559 0.884907
O O20 0.000000 0.831626 0.000000
#
# Coordination Sequence:
#
# PCOD9401142 Si02
#       7
#     8   4   8   8   8   8   8
#     4  10  21  37  54  71  94 126 162 199 241 288
#     4   8  14  26  42  64  97 134 171 204 237 280
#     4  10  20  34  54  77  99 124 154 192 241 294
#     4  10  19  32  50  73 100 130 162 199 243 287
#     4   9  17  28  45  70 101 137 171 204 241 282
#     4  10  20  33  52  76 100 127 157 194 241 293
#     4  10  21  35  51  70  95 125 159 200 242 284
#
# _framework density 18.378197
#
# number of rings (size 3 to 8) (size 9 to 14) (size 15 to 20)
#    0.000    2.308    1.538    1.385    0.000    4.000 
#    0.000    0.000    0.000    0.000    0.000    0.538 
#    0.000    0.000    0.000    0.000    0.000    0.000 
#
# Total GULP energy -290074.658857 kJ/mol
# GULP energy per Si atom -5578.358824 kJ/mol
# Density = 1.833637 g / cm^3
# Si number density = 18.378197 Si / 1000 Ang^3
#
#
#
# Elastic Constant Matrix: (Units=GPa)
#
#
# Indices 1 2 3 4 5 6 
#
# 1 17.9068 13.0848 -10.8448 0.0000 0.0000 0.0000
# 2 13.0848 177.8249 79.2785 0.0000 0.0000 0.0000
# 3 -10.8448 79.2785 95.4316 0.0000 0.0000 0.0000
# 4 0.0000 0.0000 0.0000 17.9170 0.0000 0.0000
# 5 0.0000 0.0000 0.0000 0.0000 26.2117 0.0000
# 6 0.0000 0.0000 0.0000 0.0000 0.0000 169.9468
#
#
#
# Elastic Compliance Matrix: (Units=1/GPa)
#
#
# Indices 1 2 3 4 5 6 
#
# 1 0.081204 -0.016024 0.022540 0.000000 0.000000 0.000000
# 2 -0.016024 0.012093 -0.011867 0.000000 0.000000 0.000000
# 3 0.022540 -0.011867 0.022899 0.000000 0.000000 0.000000
# 4 0.000000 0.000000 0.000000 0.055813 0.000000 0.000000
# 5 0.000000 0.000000 0.000000 0.000000 0.038151 0.000000
# 6 0.000000 0.000000 0.000000 0.000000 0.000000 0.005884
#
#
# Mechanical properties :
#
#
# Convention : Reuss Voigt Hill
#
# Bulk Modulus (GPa) = 9.47929 50.46669 29.97299
# Shear Modulus (GPa) = 19.09040 56.79143 37.94091
#
# Velocity S-wave (km/s) = 3.22646 5.56494 4.54855
# Velocity P-wave (km/s) = 4.36454 8.29525 6.62799
#
# Compressibility (1/GPa) = 0.10549313
#
# Stress axis : x y z
#
# Youngs Moduli (GPa) = 12.31464 82.69031 43.67054
#
# Poissons Ratio (x) = 1.32502 -0.98432
# Poissons Ratio (y) = 0.19733 0.51825
# Poissons Ratio (z) = -0.27757 0.98131
#
# Static dielectric constant tensor:
#      x y z
#    x 1.648530 0.000000 0.000000 
#    y 0.000000 1.685890 0.000000 
#    z 0.000000 0.000000 1.578920 
# 
# From -- ./inp_files/21505.got.cif
#   From: 2010.05.17/outbox.cif.g08.bks.cpg/sg51_11_cif.got.tgz:21505.got - 2010.06.03 11:52:47.
