data_PCOD9401521
_publ_section_title
;
Structure prediction by ZEFSAII (Michael W. Deem and Ramdas Pophale) SiO2 
 PCOD9401521
Probable space group: P M M A
;
_chemical_formula_sum "Si O2"
_cell_formula_units_Z 40
_cell_length_a 16.242227
_cell_length_b 13.774264
_cell_length_c 7.411446
_cell_angle_alpha 90.000000
_cell_angle_beta 90.000000
_cell_angle_gamma 90.000000
_cell_volume 1658.123701
_symmetry_space_group_name_H-M "P M M A"
_symmetry_group_IT_number 51
_symmetry_cell_setting 'orthorhombic'
loop_
_space_group_symop_operation_xyz
x,y,z
1/2-x,-y,z
1/2+x,-y,-z
-x,y,-z
-x,-y,-z
1/2+x,y,-z
1/2-x,y,z
x,-y,z
loop_
_atom_site_type_symbol
_atom_site_label
_atom_site_fract_x
_atom_site_fract_y
_atom_site_fract_z
Si Si1 0.413345 0.888479 0.898498
Si Si2 0.017658 0.389691 0.283961
Si Si3 0.157473 0.241576 0.180270
Si Si4 0.658512 0.820800 0.445373
Si Si5 0.660857 0.610700 0.285480
O O1 0.351762 0.813776 0.992952
O O2 0.388981 0.000000 0.921925
O O3 0.500000 0.874648 0.000000
O O4 0.409772 0.862847 0.687294
O O5 0.045098 0.500000 0.260337
O O6 0.085530 0.318120 0.210404
O O7 0.000000 0.375138 0.500000
O O8 0.927664 0.379235 0.191263
O O9 0.250000 0.280762 0.200435
O O10 0.145178 0.164433 0.343479
O O11 0.750000 0.858253 0.396352
O O12 0.661778 0.703578 0.416643
O O13 0.750000 0.614745 0.188270
O O14 0.657637 0.500000 0.364207
#
# Coordination Sequence:
#
# PCOD9401521 Si02
#       5
#     8   8   8   8   8
#     4  11  26  45  66  93 125 165 216 280 344 399
#     4  10  19  32  58  93 132 175 214 261 318 378
#     4  11  24  41  66  98 132 175 222 271 326 393
#     4  10  21  39  64  91 124 169 213 262 324 389
#     4   9  17  31  55  88 124 165 212 257 310 379
#
# _framework density 24.123650999999999
#
# number of rings (size 3 to 8) (size 9 to 14) (size 15 to 20)
#    0.000    1.800    2.000    1.800    0.000    2.800 
#    0.000    5.000    0.000    6.000    0.000    0.000 
#    0.000    0.000    0.000    0.000    0.000    0.000 
#
# Total GULP energy -223435.298054 kJ/mol
# GULP energy per Si atom -5585.882451 kJ/mol
# Density = 2.406874 g / cm^3
# Si number density = 24.123651 Si / 1000 Ang^3
#
#
#
# Elastic Constant Matrix: (Units=GPa)
#
#
# Indices 1 2 3 4 5 6 
#
# 1 173.1853 44.2678 10.8086 0.0000 0.0000 0.0000
# 2 44.2678 82.1948 7.7312 0.0000 0.0000 0.0000
# 3 10.8086 7.7312 86.5011 0.0000 0.0000 0.0000
# 4 0.0000 0.0000 0.0000 9.6494 0.0000 0.0000
# 5 0.0000 0.0000 0.0000 0.0000 19.8589 0.0000
# 6 0.0000 0.0000 0.0000 0.0000 0.0000 12.6870
#
#
#
# Elastic Compliance Matrix: (Units=1/GPa)
#
#
# Indices 1 2 3 4 5 6 
#
# 1 0.006719 -0.003570 -0.000521 0.000000 0.000000 0.000000
# 2 -0.003570 0.014166 -0.000820 0.000000 0.000000 0.000000
# 3 -0.000521 -0.000820 0.011699 0.000000 0.000000 0.000000
# 4 0.000000 0.000000 0.000000 0.103633 0.000000 0.000000
# 5 0.000000 0.000000 0.000000 0.000000 0.050355 0.000000
# 6 0.000000 0.000000 0.000000 0.000000 0.000000 0.078821
#
#
# Mechanical properties :
#
#
# Convention : Reuss Voigt Hill
#
# Bulk Modulus (GPa) = 43.93048 51.94405 47.93727
# Shear Modulus (GPa) = 17.68026 27.04398 22.36212
#
# Velocity S-wave (km/s) = 2.71015 3.35185 3.04794
# Velocity P-wave (km/s) = 5.29559 6.04641 5.68341
#
# Compressibility (1/GPa) = 0.02276324
#
# Stress axis : x y z
#
# Youngs Moduli (GPa) = 148.82912 70.59188 85.47831
#
# Poissons Ratio (x) = 0.25200 0.04449
# Poissons Ratio (y) = 0.53129 0.07010
# Poissons Ratio (z) = 0.07747 0.05789
#
# Static dielectric constant tensor:
#      x y z
#    x 1.972750 0.000000 0.000000 
#    y 0.000000 1.895520 0.000000 
#    z 0.000000 0.000000 1.959900 
# 
# From -- ./inp_files/7975.got.cif
#   From: 2010.05.17/outbox.cif.g08.bks.cpg/sg51_4_cif.got.tgz:7975.got - 2010.06.03 11:52:47.
