data_PCOD9401217
_publ_section_title
;
Structure prediction by ZEFSAII (Michael W. Deem and Ramdas Pophale) SiO2 
 PCOD9401217
Probable space group: P M M A
;
_chemical_formula_sum "Si O2"
_cell_formula_units_Z 52
_cell_length_a 8.963396
_cell_length_b 10.917009
_cell_length_c 30.201116
_cell_angle_alpha 90.000000
_cell_angle_beta 90.000000
_cell_angle_gamma 90.000000
_cell_volume 2955.284144
_symmetry_space_group_name_H-M "P M M A"
_symmetry_group_IT_number 51
_symmetry_cell_setting 'orthorhombic'
loop_
_space_group_symop_operation_xyz
x,y,z
1/2-x,-y,z
1/2+x,-y,-z
-x,y,-z
-x,-y,-z
1/2+x,y,-z
1/2-x,y,z
x,-y,z
loop_
_atom_site_type_symbol
_atom_site_label
_atom_site_fract_x
_atom_site_fract_y
_atom_site_fract_z
Si Si1 0.581752 0.144375 0.043530
Si Si2 0.079315 0.351661 0.291354
Si Si3 0.929092 0.500000 0.048859
Si Si4 0.926571 0.710145 0.890623
Si Si5 0.430073 0.357474 0.614818
Si Si6 0.576854 0.648563 0.200754
Si Si7 0.429921 0.860875 0.548566
O O1 0.750000 0.194086 0.048169
O O2 0.481221 0.165944 0.086460
O O3 0.595605 0.000000 0.036706
O O4 0.500000 0.196389 0.000000
O O5 0.250000 0.308005 0.291247
O O6 0.082793 0.500000 0.288975
O O7 0.997755 0.324201 0.337404
O O8 0.991426 0.310553 0.247635
O O9 0.750000 0.500000 0.046299
O O10 0.989555 0.613156 0.077839
O O11 0.000000 0.500000 0.000000
O O12 0.750000 0.692773 0.892855
O O13 0.983909 0.696146 0.840859
O O14 0.250000 0.356196 0.617625
O O15 0.473295 0.500000 0.604108
O O16 0.475980 0.252665 0.579835
O O17 0.750000 0.683694 0.196958
O O18 0.570089 0.500000 0.199219
O O19 0.500000 0.846461 0.500000
O O20 0.250000 0.856452 0.545154
O O21 0.468879 0.000000 0.564396
#
# Coordination Sequence:
#
# PCOD9401217 Si02
#       7
#     8   8   4   8   8   8   8
#     4  10  21  38  58  77  98 127 166 208 250 300
#     4   9  17  29  47  72 101 130 163 206 253 300
#     4  12  24  38  52  72 104 138 170 204 249 306
#     4  12  23  35  53  77 105 134 166 207 253 302
#     4   9  17  30  48  71  99 131 169 212 259 308
#     4  10  19  32  51  74 103 137 170 205 248 306
#     4   9  18  32  49  70  99 136 175 213 255 307
#
# _framework density 17.595600999999998
#
# number of rings (size 3 to 8) (size 9 to 14) (size 15 to 20)
#    0.000    2.000    0.769    3.923    0.000    4.308 
#    0.000    0.000    0.000    0.923    0.000    2.154 
#    0.000    0.000    0.000    0.000    0.000    0.000 
#
# Total GULP energy -289938.100655 kJ/mol
# GULP energy per Si atom -5575.732705 kJ/mol
# Density = 1.755555 g / cm^3
# Si number density = 17.595601 Si / 1000 Ang^3
#
#
#
# Elastic Constant Matrix: (Units=GPa)
#
#
# Indices 1 2 3 4 5 6 
#
# 1 117.0736 35.8265 63.3362 0.0000 0.0000 0.0000
# 2 35.8265 61.8999 56.4007 0.0000 0.0000 0.0000
# 3 63.3362 56.4007 142.2910 0.0000 0.0000 0.0000
# 4 0.0000 0.0000 0.0000 12.4549 0.0000 0.0000
# 5 0.0000 0.0000 0.0000 0.0000 34.9675 0.0000
# 6 0.0000 0.0000 0.0000 0.0000 0.0000 15.6364
#
#
#
# Elastic Compliance Matrix: (Units=1/GPa)
#
#
# Indices 1 2 3 4 5 6 
#
# 1 0.011631 -0.003154 -0.003927 0.000000 0.000000 0.000000
# 2 -0.003154 0.026143 -0.008959 0.000000 0.000000 0.000000
# 3 -0.003927 -0.008959 0.012327 0.000000 0.000000 0.000000
# 4 0.000000 0.000000 0.000000 0.080290 0.000000 0.000000
# 5 0.000000 0.000000 0.000000 0.000000 0.028598 0.000000
# 6 0.000000 0.000000 0.000000 0.000000 0.000000 0.063953
#
#
# Mechanical properties :
#
#
# Convention : Reuss Voigt Hill
#
# Bulk Modulus (GPa) = 55.48723 70.26572 62.87647
# Shear Modulus (GPa) = 19.15494 23.65852 21.40673
#
# Velocity S-wave (km/s) = 3.30301 3.67082 3.49176
# Velocity P-wave (km/s) = 6.79335 7.61491 7.21583
#
# Compressibility (1/GPa) = 0.01802216
#
# Stress axis : x y z
#
# Youngs Moduli (GPa) = 85.97467 38.25074 81.12251
#
# Poissons Ratio (x) = 0.12063 0.31859
# Poissons Ratio (y) = 0.27113 0.72676
# Poissons Ratio (z) = 0.33765 0.34268
#
# Static dielectric constant tensor:
#      x y z
#    x 1.603640 0.000000 0.000000 
#    y 0.000000 1.678640 0.000000 
#    z 0.000000 0.000000 1.569460 
# 
# From -- ./inp_files/36254.got.cif
#   From: 2010.05.17/outbox.cif.g08.bks.cpg/sg51_19_cif.got.tgz:36254.got - 2010.06.03 11:52:47.
