data_PCOD9401133
_publ_section_title
;
Structure prediction by ZEFSAII (Michael W. Deem and Ramdas Pophale) SiO2 
 PCOD9401133
Probable space group: P M M A
;
_chemical_formula_sum "Si O2"
_cell_formula_units_Z 56
_cell_length_a 17.364927
_cell_length_b 14.190297
_cell_length_c 11.288659
_cell_angle_alpha 90.000000
_cell_angle_beta 90.000000
_cell_angle_gamma 90.000000
_cell_volume 2781.677653
_symmetry_space_group_name_H-M "P M M A"
_symmetry_group_IT_number 51
_symmetry_cell_setting 'orthorhombic'
loop_
_space_group_symop_operation_xyz
x,y,z
1/2-x,-y,z
1/2+x,-y,-z
-x,y,-z
-x,-y,-z
1/2+x,y,-z
1/2-x,y,z
x,-y,z
loop_
_atom_site_type_symbol
_atom_site_label
_atom_site_fract_x
_atom_site_fract_y
_atom_site_fract_z
Si Si1 0.580929 0.388928 0.257715
Si Si2 0.580288 0.212656 0.562150
Si Si3 0.162099 0.113431 0.654978
Si Si4 0.340761 0.393492 0.990152
Si Si5 0.457727 0.709861 0.118001
Si Si6 0.001405 0.110648 0.774449
Si Si7 0.842288 0.608143 0.513387
O O1 0.563586 0.500000 0.255565
O O2 0.503347 0.331959 0.229857
O O3 0.622901 0.370837 0.382038
O O4 0.634949 0.367525 0.144395
O O5 0.500000 0.240574 0.500000
O O6 0.634899 0.159339 0.468167
O O7 0.552076 0.140842 0.663063
O O8 0.624614 0.308647 0.594600
O O9 0.250000 0.142592 0.686150
O O10 0.091160 0.135100 0.744507
O O11 0.162023 0.000000 0.643156
O O12 0.250000 0.395157 0.994305
O O13 0.370534 0.500000 0.012154
O O14 0.373082 0.325365 0.091384
O O15 0.469427 0.820990 0.125155
O O16 0.500000 0.671726 0.000000
O O17 0.996406 0.000000 0.796920
O O18 0.750000 0.612070 0.508030
O O19 0.864342 0.500000 0.544819
#
# Coordination Sequence:
#
# PCOD9401133 Si02
#       7
#     8   8   8   8   8   8   8
#     4   9  16  29  52  81 110 136 165 206 259 317
#     4  10  19  32  50  72 101 136 167 197 241 302
#     4   9  17  31  54  82 104 123 158 212 267 314
#     4   9  17  31  52  77 106 140 176 216 262 310
#     4  10  20  34  53  78 104 136 178 220 263 309
#     4  10  21  37  55  75 101 135 176 219 264 313
#     4  10  20  33  51  78 109 137 168 210 259 310
#
# _framework density 20.131736
#
# number of rings (size 3 to 8) (size 9 to 14) (size 15 to 20)
#    0.000    2.429    0.000    3.429    0.000    5.714 
#    0.000    5.714    0.000    3.857    0.000    0.000 
#    0.000    0.000    0.000    0.000    0.000    0.000 
#
# Total GULP energy -312294.029410 kJ/mol
# GULP energy per Si atom -5576.679097 kJ/mol
# Density = 2.008591 g / cm^3
# Si number density = 20.131736 Si / 1000 Ang^3
#
#
#
# Elastic Constant Matrix: (Units=GPa)
#
#
# Indices 1 2 3 4 5 6 
#
# 1 77.8283 55.8034 24.4109 0.0000 0.0000 0.0000
# 2 55.8034 81.4417 25.1867 0.0000 0.0000 0.0000
# 3 24.4109 25.1867 25.5064 0.0000 0.0000 0.0000
# 4 0.0000 0.0000 0.0000 30.2008 0.0000 0.0000
# 5 0.0000 0.0000 0.0000 0.0000 25.6255 0.0000
# 6 0.0000 0.0000 0.0000 0.0000 0.0000 33.1007
#
#
#
# Elastic Compliance Matrix: (Units=1/GPa)
#
#
# Indices 1 2 3 4 5 6 
#
# 1 0.027245 -0.015266 -0.011000 0.000000 0.000000 0.000000
# 2 -0.015266 0.026231 -0.011292 0.000000 0.000000 0.000000
# 3 -0.011000 -0.011292 0.060883 0.000000 0.000000 0.000000
# 4 0.000000 0.000000 0.000000 0.033112 0.000000 0.000000
# 5 0.000000 0.000000 0.000000 0.000000 0.039024 0.000000
# 6 0.000000 0.000000 0.000000 0.000000 0.000000 0.030211
#
#
# Mechanical properties :
#
#
# Convention : Reuss Voigt Hill
#
# Bulk Modulus (GPa) = 25.48177 43.95317 34.71747
# Shear Modulus (GPa) = 16.39867 23.07710 19.73789
#
# Velocity S-wave (km/s) = 2.85716 3.38939 3.13459
# Velocity P-wave (km/s) = 4.85484 6.09897 5.51212
#
# Compressibility (1/GPa) = 0.03924374
#
# Stress axis : x y z
#
# Youngs Moduli (GPa) = 36.70408 38.12250 16.42483
#
# Poissons Ratio (x) = 0.58199 0.18067
# Poissons Ratio (y) = 0.56033 0.18547
# Poissons Ratio (z) = 0.40374 0.43047
#
# Static dielectric constant tensor:
#      x y z
#    x 1.731990 0.000000 0.000000 
#    y 0.000000 1.739590 0.000000 
#    z 0.000000 0.000000 1.747950 
# 
# From -- ./inp_files/16589.got.cif
#   From: 2010.05.17/outbox.cif.g08.bks.cpg/sg51_9_cif.got.tgz:16589.got - 2010.06.03 11:52:47.
