data_PCOD9401151
_publ_section_title
;
Structure prediction by ZEFSAII (Michael W. Deem and Ramdas Pophale) SiO2 
 PCOD9401151
Probable space group: P M M A
;
_chemical_formula_sum "Si O2"
_cell_formula_units_Z 64
_cell_length_a 25.810370
_cell_length_b 7.958149
_cell_length_c 15.399801
_cell_angle_alpha 90.000000
_cell_angle_beta 90.000000
_cell_angle_gamma 90.000000
_cell_volume 3163.161786
_symmetry_space_group_name_H-M "P M M A"
_symmetry_group_IT_number 51
_symmetry_cell_setting 'orthorhombic'
loop_
_space_group_symop_operation_xyz
x,y,z
1/2-x,-y,z
1/2+x,-y,-z
-x,y,-z
-x,-y,-z
1/2+x,y,-z
1/2-x,y,z
x,-y,z
loop_
_atom_site_type_symbol
_atom_site_label
_atom_site_fract_x
_atom_site_fract_y
_atom_site_fract_z
Si Si1 0.956321 0.806648 0.572095
Si Si2 0.144106 0.200054 0.527354
Si Si3 0.808934 0.296978 0.939441
Si Si4 0.885793 0.706392 0.787028
Si Si5 0.888820 0.696293 0.282335
Si Si6 0.503228 0.691344 0.748864
Si Si7 0.190829 0.799819 0.863321
Si Si8 0.806320 0.299638 0.640690
O O1 0.906943 0.736405 0.522387
O O2 0.976103 0.695249 0.650343
O O3 0.000000 0.816129 0.500000
O O4 0.947281 0.000000 0.602560
O O5 0.137516 0.240497 0.628565
O O6 0.187891 0.265155 0.462065
O O7 0.145031 0.000000 0.521561
O O8 0.750000 0.240137 0.919954
O O9 0.808507 0.500000 0.938302
O O10 0.850197 0.242329 0.867851
O O11 0.821925 0.240018 0.036762
O O12 0.888296 0.500000 0.784634
O O13 0.945440 0.766052 0.795025
O O14 0.854410 0.762330 0.700070
O O15 0.898199 0.500000 0.297465
O O16 0.849510 0.722102 0.203460
O O17 0.945703 0.770903 0.257551
O O18 0.496896 0.500000 0.781424
O O19 0.250000 0.739665 0.848098
O O20 0.190107 0.000000 0.850956
O O21 0.750000 0.234626 0.670540
O O22 0.806047 0.500000 0.652892
#
# Coordination Sequence:
#
# PCOD9401151 Si02
#       8
#     8   8   8   8   8   8   8   8
#     4  10  19  32  50  73 103 142 186 227 268 314
#     4  11  22  35  52  75 107 147 186 226 274 323
#     4   9  17  33  60  88 110 138 179 224 269 320
#     4   9  17  32  55  83 114 145 179 221 269 321
#     4  11  23  37  57  84 110 142 185 229 274 324
#     4  10  20  33  53  81 112 145 182 224 269 317
#     4  10  22  41  63  84 107 137 175 224 280 331
#     4  10  20  34  53  78 110 148 188 230 275 323
#
# _framework density 20.232921999999999
#
# number of rings (size 3 to 8) (size 9 to 14) (size 15 to 20)
#    0.000    2.000    2.500    1.500    0.000    4.250 
#    0.000    1.875    0.000    5.250    0.000    0.000 
#    0.000    0.000    0.000    0.000    0.000    0.000 
#
# Total GULP energy -356749.194068 kJ/mol
# GULP energy per Si atom -5574.206157 kJ/mol
# Density = 2.018687 g / cm^3
# Si number density = 20.232922 Si / 1000 Ang^3
#
#
#
# Elastic Constant Matrix: (Units=GPa)
#
#
# Indices 1 2 3 4 5 6 
#
# 1 92.2775 0.0661 44.8867 0.0000 0.0000 0.0000
# 2 0.0661 18.4645 -7.9858 0.0000 0.0000 0.0000
# 3 44.8867 -7.9858 76.5275 0.0000 0.0000 0.0000
# 4 0.0000 0.0000 0.0000 -4.7939 0.0000 0.0000
# 5 0.0000 0.0000 0.0000 0.0000 35.4699 0.0000
# 6 0.0000 0.0000 0.0000 0.0000 0.0000 13.5557
#
#
#
# Elastic Compliance Matrix: (Units=1/GPa)
#
#
# Indices 1 2 3 4 5 6 
#
# 1 0.015463 -0.004166 -0.009505 0.000000 0.000000 0.000000
# 2 -0.004166 0.057840 0.008479 0.000000 0.000000 0.000000
# 3 -0.009505 0.008479 0.019527 0.000000 0.000000 0.000000
# 4 0.000000 0.000000 0.000000 -0.208599 0.000000 0.000000
# 5 0.000000 0.000000 0.000000 0.000000 0.028193 0.000000
# 6 0.000000 0.000000 0.000000 0.000000 0.000000 0.073769
#
#
# Mechanical properties :
#
#
# Convention : Reuss Voigt Hill
#
# Bulk Modulus (GPa) = 12.12889 29.02259 20.57574
# Shear Modulus (GPa) = 207.81998 18.86652 113.34325
#
# Velocity S-wave (km/s) = 10.14578 3.05694 7.49272
# Velocity P-wave (km/s) = 11.96899 5.18028 9.22204
#
# Compressibility (1/GPa) = 0.08244775
#
# Stress axis : x y z
#
# Youngs Moduli (GPa) = 64.66972 17.28900 51.21146
#
# Poissons Ratio (x) = 0.07203 0.48674
# Poissons Ratio (y) = 0.26942 -0.43424
# Poissons Ratio (z) = 0.61466 -0.14660
#
# Static dielectric constant tensor:
#      x y z
#    x 1.771670 0.000000 0.000000 
#    y 0.000000 1.746010 0.000000 
#    z 0.000000 0.000000 1.685320 
# 
# From -- ./inp_files/26364.got.cif
#   From: 2010.05.17/outbox.cif.g08.bks.cpg/sg51_14_cif.got.tgz:26364.got - 2010.06.03 11:52:47.
