data_PCOD9401571
_publ_section_title
;
Structure prediction by ZEFSAII (Michael W. Deem and Ramdas Pophale) SiO2 
 PCOD9401571
Probable space group: P M M A
;
_chemical_formula_sum "Si O2"
_cell_formula_units_Z 64
_cell_length_a 7.654604
_cell_length_b 26.408056
_cell_length_c 14.998483
_cell_angle_alpha 90.000000
_cell_angle_beta 90.000000
_cell_angle_gamma 90.000000
_cell_volume 3031.841515
_symmetry_space_group_name_H-M "P M M A"
_symmetry_group_IT_number 51
_symmetry_cell_setting 'orthorhombic'
loop_
_space_group_symop_operation_xyz
x,y,z
1/2-x,-y,z
1/2+x,-y,-z
-x,y,-z
-x,-y,-z
1/2+x,y,-z
1/2-x,y,z
x,-y,z
loop_
_atom_site_type_symbol
_atom_site_label
_atom_site_fract_x
_atom_site_fract_y
_atom_site_fract_z
Si Si1 0.536012 0.943663 0.285443
Si Si2 0.039816 0.349076 0.603245
Si Si3 0.040689 0.216572 0.901997
Si Si4 0.459504 0.846891 0.604201
Si Si5 0.457299 0.442019 0.095480
Si Si6 0.535775 0.252139 0.287041
Si Si7 0.959343 0.899775 0.098192
Si Si8 0.456183 0.442720 0.710538
O O1 0.750000 0.943549 0.286339
O O2 0.476392 0.898753 0.350411
O O3 0.479963 0.930433 0.184377
O O4 0.479204 0.000000 0.310958
O O5 0.250000 0.350031 0.612550
O O6 0.975390 0.302361 0.662743
O O7 0.970652 0.402419 0.640944
O O8 0.000000 0.341627 0.500000
O O9 0.250000 0.213796 0.895262
O O10 0.978736 0.246851 0.815532
O O11 0.973941 0.158367 0.897686
O O12 0.000000 0.237312 0.000000
O O13 0.500000 0.843653 0.500000
O O14 0.250000 0.847124 0.613569
O O15 0.521382 0.797754 0.658664
O O16 0.250000 0.444386 0.102151
O O17 0.529466 0.500000 0.092049
O O18 0.524147 0.421080 0.189019
O O19 0.500000 0.417745 0.000000
O O20 0.750000 0.252596 0.287990
O O21 0.750000 0.897398 0.105023
O O22 0.000000 0.920559 0.000000
O O23 0.250000 0.447361 0.693670
O O24 0.530698 0.500000 0.707627
#
# Coordination Sequence:
#
# PCOD9401571 Si02
#       8
#     8   8   8   8   8   8   8   8
#     4   9  17  30  48  69  95 129 165 196 234 291
#     4  10  21  36  54  75  99 129 165 209 256 299
#     4   9  16  29  50  74  98 126 158 192 233 283
#     4  10  19  33  52  72  93 123 163 204 245 289
#     4   9  16  27  47  75 104 135 171 209 248 292
#     4   9  17  33  55  74  97 129 163 197 240 296
#     4   9  16  28  47  70  95 125 159 193 231 280
#     4   9  18  33  51  72 101 136 171 206 249 302
#
# _framework density 21.109282
#
# number of rings (size 3 to 8) (size 9 to 14) (size 15 to 20)
#    0.000    2.750    1.250    0.750    0.000    2.750 
#    0.000    2.500    0.000    2.250    0.000    0.000 
#    0.000    0.000    0.000    0.000    0.000    0.000 
#
# Total GULP energy -357025.754198 kJ/mol
# GULP energy per Si atom -5578.527409 kJ/mol
# Density = 2.106124 g / cm^3
# Si number density = 21.109282 Si / 1000 Ang^3
#
#
#
# Elastic Constant Matrix: (Units=GPa)
#
#
# Indices 1 2 3 4 5 6 
#
# 1 37.8917 10.3940 -2.9674 0.0000 0.0000 0.0000
# 2 10.3940 119.4867 86.9118 0.0000 0.0000 0.0000
# 3 -2.9674 86.9118 162.8042 0.0000 0.0000 0.0000
# 4 0.0000 0.0000 0.0000 27.8084 0.0000 0.0000
# 5 0.0000 0.0000 0.0000 0.0000 27.4447 0.0000
# 6 0.0000 0.0000 0.0000 0.0000 0.0000 0.9797
#
#
#
# Elastic Compliance Matrix: (Units=1/GPa)
#
#
# Indices 1 2 3 4 5 6 
#
# 1 0.027875 -0.004568 0.002947 0.000000 0.000000 0.000000
# 2 -0.004568 0.014431 -0.007787 0.000000 0.000000 0.000000
# 3 0.002947 -0.007787 0.010353 0.000000 0.000000 0.000000
# 4 0.000000 0.000000 0.000000 0.035960 0.000000 0.000000
# 5 0.000000 0.000000 0.000000 0.000000 0.036437 0.000000
# 6 0.000000 0.000000 0.000000 0.000000 0.000000 1.020711
#
#
# Mechanical properties :
#
#
# Convention : Reuss Voigt Hill
#
# Bulk Modulus (GPa) = 29.54931 56.53994 43.04463
# Shear Modulus (GPa) = 4.25219 26.30284 15.27752
#
# Velocity S-wave (km/s) = 1.42083 3.53375 2.69315
# Velocity P-wave (km/s) = 4.08905 6.59487 5.48692
#
# Compressibility (1/GPa) = 0.03384174
#
# Stress axis : x y z
#
# Youngs Moduli (GPa) = 35.87462 69.29756 96.59002
#
# Poissons Ratio (x) = 0.31657 -0.28463
# Poissons Ratio (y) = 0.16388 0.75214
# Poissons Ratio (z) = -0.10571 0.53961
#
# Static dielectric constant tensor:
#      x y z
#    x 1.788260 0.000000 0.000000 
#    y 0.000000 1.766510 0.000000 
#    z 0.000000 0.000000 1.752190 
# 
# From -- ./inp_files/22272.got.cif
#   From: 2010.05.17/outbox.cif.g08.bks.cpg/sg51_12_cif.got.tgz:22272.got - 2010.06.03 11:52:47.
