data_PCOD9401679
_publ_section_title
;
Structure prediction by ZEFSAII (Michael W. Deem and Ramdas Pophale) SiO2 
 PCOD9401679
Probable space group: P M M A
;
_chemical_formula_sum "Si O2"
_cell_formula_units_Z 64
_cell_length_a 8.015434
_cell_length_b 21.777445
_cell_length_c 19.066499
_cell_angle_alpha 90.000000
_cell_angle_beta 90.000000
_cell_angle_gamma 90.000000
_cell_volume 3328.165566
_symmetry_space_group_name_H-M "P M M A"
_symmetry_group_IT_number 51
_symmetry_cell_setting 'orthorhombic'
loop_
_space_group_symop_operation_xyz
x,y,z
1/2-x,-y,z
1/2+x,-y,-z
-x,y,-z
-x,-y,-z
1/2+x,y,-z
1/2-x,y,z
x,-y,z
loop_
_atom_site_type_symbol
_atom_site_label
_atom_site_fract_x
_atom_site_fract_y
_atom_site_fract_z
Si Si1 0.554016 0.065963 0.663331
Si Si2 0.048665 0.314999 0.419374
Si Si3 0.048501 0.430761 0.828356
Si Si4 0.051421 0.683205 0.919354
Si Si5 0.454847 0.198961 0.328744
Si Si6 0.448095 0.933594 0.824020
Si Si7 0.951416 0.431170 0.667698
Si Si8 0.051475 0.802624 0.166811
O O1 0.750000 0.064934 0.645571
O O2 0.486814 0.132668 0.641884
O O3 0.537000 0.067464 0.748078
O O4 0.480317 0.000000 0.640307
O O5 0.250000 0.315300 0.414973
O O6 0.989870 0.256119 0.375137
O O7 0.986961 0.377723 0.383238
O O8 0.000000 0.311169 0.500000
O O9 0.250000 0.431563 0.831959
O O10 0.989345 0.500000 0.845894
O O11 0.984234 0.376885 0.878558
O O12 0.999429 0.417858 0.748027
O O13 0.250000 0.679856 0.916269
O O14 0.999815 0.745411 0.880147
O O15 0.000000 0.683655 0.000000
O O16 0.250000 0.197945 0.328415
O O17 0.509413 0.205360 0.247506
O O18 0.250000 0.933195 0.811340
O O19 0.492650 0.869439 0.860041
O O20 0.490636 0.000000 0.857342
O O21 0.750000 0.432027 0.664124
O O22 0.012094 0.500000 0.650389
O O23 0.250000 0.804461 0.169693
#
# Coordination Sequence:
#
# PCOD9401679 Si02
#       8
#     8   8   8   8   8   8   8   8
#     4   8  13  23  41  65  91 120 157 200 246 295
#     4  10  20  33  47  66  95 128 163 202 245 294
#     4   9  19  36  57  81 107 133 164 205 250 296
#     4  11  23  37  53  75 105 138 171 207 248 295
#     4   8  15  28  47  69  92 121 158 201 245 290
#     4   9  16  26  43  71 105 134 161 201 253 303
#     4   9  18  33  53  75  98 126 161 201 245 295
#     4  10  19  33  54  76  99 131 172 214 255 300
#
# _framework density 19.229811999999999
#
# number of rings (size 3 to 8) (size 9 to 14) (size 15 to 20)
#    0.000    2.750    0.000    2.625    0.000    3.750 
#    0.000    3.125    0.000    0.750    0.000    0.000 
#    0.000    0.000    0.000    0.000    0.000    0.000 
#
# Total GULP energy -356653.532160 kJ/mol
# GULP energy per Si atom -5572.711440 kJ/mol
# Density = 1.918604 g / cm^3
# Si number density = 19.229812 Si / 1000 Ang^3
#
#
#
# Elastic Constant Matrix: (Units=GPa)
#
#
# Indices 1 2 3 4 5 6 
#
# 1 21.8995 16.7451 5.7244 0.0000 0.0000 0.0000
# 2 16.7451 245.1373 120.5765 0.0000 0.0000 0.0000
# 3 5.7244 120.5765 94.4061 0.0000 0.0000 0.0000
# 4 0.0000 0.0000 0.0000 -3.5869 0.0000 0.0000
# 5 0.0000 0.0000 0.0000 0.0000 67.3846 0.0000
# 6 0.0000 0.0000 0.0000 0.0000 0.0000 12.8131
#
#
#
# Elastic Compliance Matrix: (Units=1/GPa)
#
#
# Indices 1 2 3 4 5 6 
#
# 1 0.048601 -0.005031 0.003478 0.000000 0.000000 0.000000
# 2 -0.005031 0.011493 -0.014374 0.000000 0.000000 0.000000
# 3 0.003478 -0.014374 0.028741 0.000000 0.000000 0.000000
# 4 0.000000 0.000000 0.000000 -0.278792 0.000000 0.000000
# 5 0.000000 0.000000 0.000000 0.000000 0.014840 0.000000
# 6 0.000000 0.000000 0.000000 0.000000 0.000000 0.078045
#
#
# Mechanical properties :
#
#
# Convention : Reuss Voigt Hill
#
# Bulk Modulus (GPa) = 17.54961 71.94832 44.74897
# Shear Modulus (GPa) = -108.16819 29.88195 -39.14312
#
# Velocity S-wave (km/s) = -7.50815 3.94628 -4.51659
# Velocity P-wave (km/s) = 8.12509 7.63285 1.96935
#
# Compressibility (1/GPa) = 0.05698132
#
# Stress axis : x y z
#
# Youngs Moduli (GPa) = 20.57583 87.00643 34.79373
#
# Poissons Ratio (x) = 0.43771 -0.12103
# Poissons Ratio (y) = 0.10351 0.50014
# Poissons Ratio (z) = -0.07157 1.25067
#
# Static dielectric constant tensor:
#      x y z
#    x 1.677190 0.000000 0.000000 
#    y 0.000000 1.737930 0.000000 
#    z 0.000000 0.000000 1.607830 
# 
# From -- ./inp_files/28423.got.cif
#   From: 2010.05.17/outbox.cif.g08.bks.cpg/sg51_15_cif.got.tgz:28423.got - 2010.06.03 11:52:47.
