data_PCOD9401008
_publ_section_title
;
Structure prediction by ZEFSAII (Michael W. Deem and Ramdas Pophale) SiO2 
 PCOD9401008
Probable space group: P M M A
;
_chemical_formula_sum "Si O2"
_cell_formula_units_Z 64
_cell_length_a 34.382391
_cell_length_b 8.925772
_cell_length_c 10.865530
_cell_angle_alpha 90.000000
_cell_angle_beta 90.000000
_cell_angle_gamma 90.000000
_cell_volume 3334.515796
_symmetry_space_group_name_H-M "P M M A"
_symmetry_group_IT_number 51
_symmetry_cell_setting 'orthorhombic'
loop_
_space_group_symop_operation_xyz
x,y,z
1/2-x,-y,z
1/2+x,-y,-z
-x,y,-z
-x,-y,-z
1/2+x,y,-z
1/2-x,y,z
x,-y,z
loop_
_atom_site_type_symbol
_atom_site_label
_atom_site_fract_x
_atom_site_fract_y
_atom_site_fract_z
Si Si1 0.012012 0.674733 0.686427
Si Si2 0.061408 0.327397 0.938854
Si Si3 0.918686 0.825679 0.448063
Si Si4 0.794759 0.679688 0.293370
Si Si5 0.374907 0.679424 0.324259
Si Si6 0.870008 0.173198 0.193114
Si Si7 0.941439 0.176753 0.811982
Si Si8 0.706868 0.318022 0.581336
O O1 0.007059 0.500000 0.655791
O O2 0.035010 0.683895 0.817077
O O3 0.039746 0.756531 0.588966
O O4 0.971225 0.752966 0.713646
O O5 0.061602 0.500000 0.978866
O O6 0.103973 0.271547 0.898293
O O7 0.046944 0.228186 0.051607
O O8 0.896826 0.730729 0.551416
O O9 0.892303 0.819638 0.324719
O O10 0.922282 0.000000 0.484980
O O11 0.750000 0.711153 0.258725
O O12 0.800692 0.500000 0.285802
O O13 0.827095 0.763241 0.214627
O O14 0.799168 0.722779 0.437737
O O15 0.376480 0.500000 0.312580
O O16 0.398994 0.756563 0.216216
O O17 0.330121 0.729216 0.339169
O O18 0.869733 0.000000 0.153942
O O19 0.941738 0.000000 0.801715
O O20 0.750000 0.266348 0.619266
O O21 0.707309 0.500000 0.583515
#
# Coordination Sequence:
#
# PCOD9401008 Si02
#       8
#     8   8   8   8   8   8   8   8
#     4  10  21  38  60  83 106 136 180 227 270 320
#     4  10  21  38  60  81 103 135 181 229 269 317
#     4  10  20  34  52  79 113 145 177 216 272 326
#     4   9  16  28  49  78 110 142 178 218 263 319
#     4  11  21  35  57  80 110 147 185 224 265 319
#     4  10  19  31  51  79 112 143 173 216 272 327
#     4  12  25  39  55  78 110 143 180 224 273 322
#     4   8  15  29  52  81 109 139 178 222 263 306
#
# _framework density 19.193190999999999
#
# number of rings (size 3 to 8) (size 9 to 14) (size 15 to 20)
#    0.000    2.000    1.250    4.125    0.000    4.750 
#    0.000    2.500    0.000    2.250    0.000    1.750 
#    0.000    0.000    0.000    0.000    0.000    0.000 
#
# Total GULP energy -357540.351780 kJ/mol
# GULP energy per Si atom -5586.567997 kJ/mol
# Density = 1.914951 g / cm^3
# Si number density = 19.193191 Si / 1000 Ang^3
#
#
#
# Elastic Constant Matrix: (Units=GPa)
#
#
# Indices 1 2 3 4 5 6 
#
# 1 126.0482 42.9398 11.8308 0.0000 0.0000 0.0000
# 2 42.9398 81.4777 11.2858 0.0000 0.0000 0.0000
# 3 11.8308 11.2858 37.6508 0.0000 0.0000 0.0000
# 4 0.0000 0.0000 0.0000 14.9504 0.0000 0.0000
# 5 0.0000 0.0000 0.0000 0.0000 20.7814 0.0000
# 6 0.0000 0.0000 0.0000 0.0000 0.0000 4.0131
#
#
#
# Elastic Compliance Matrix: (Units=1/GPa)
#
#
# Indices 1 2 3 4 5 6 
#
# 1 0.009760 -0.004923 -0.001591 0.000000 0.000000 0.000000
# 2 -0.004923 0.015288 -0.003036 0.000000 0.000000 0.000000
# 3 -0.001591 -0.003036 0.027970 0.000000 0.000000 0.000000
# 4 0.000000 0.000000 0.000000 0.066888 0.000000 0.000000
# 5 0.000000 0.000000 0.000000 0.000000 0.048120 0.000000
# 6 0.000000 0.000000 0.000000 0.000000 0.000000 0.249184
#
#
# Mechanical properties :
#
#
# Convention : Reuss Voigt Hill
#
# Bulk Modulus (GPa) = 29.48276 41.92105 35.70191
# Shear Modulus (GPa) = 11.17029 19.89034 15.53031
#
# Velocity S-wave (km/s) = 2.41507 3.22269 2.84766
# Velocity P-wave (km/s) = 4.81364 5.97802 5.42715
#
# Compressibility (1/GPa) = 0.03391812
#
# Stress axis : x y z
#
# Youngs Moduli (GPa) = 102.45935 65.40909 35.75289
#
# Poissons Ratio (x) = 0.32202 0.05689
# Poissons Ratio (y) = 0.50443 0.10853
# Poissons Ratio (z) = 0.16302 0.19856
#
# Static dielectric constant tensor:
#      x y z
#    x 1.678190 0.000000 0.000000 
#    y 0.000000 1.638920 0.000000 
#    z 0.000000 0.000000 1.683550 
# 
# From -- ./inp_files/19594.got.cif
#   From: 2010.05.17/outbox.cif.g08.bks.cpg/sg51_10_cif.got.tgz:19594.got - 2010.06.03 11:52:47.
