data_PCOD9401290
_publ_section_title
;
Structure prediction by ZEFSAII (Michael W. Deem and Ramdas Pophale) SiO2 
 PCOD9401290
Probable space group: P M M A
;
_chemical_formula_sum "Si O2"
_cell_formula_units_Z 56
_cell_length_a 14.694186
_cell_length_b 8.153393
_cell_length_c 23.539889
_cell_angle_alpha 90.000000
_cell_angle_beta 90.000000
_cell_angle_gamma 90.000000
_cell_volume 2820.254622
_symmetry_space_group_name_H-M "P M M A"
_symmetry_group_IT_number 51
_symmetry_cell_setting 'orthorhombic'
loop_
_space_group_symop_operation_xyz
x,y,z
1/2-x,-y,z
1/2+x,-y,-z
-x,y,-z
-x,-y,-z
1/2+x,y,-z
1/2-x,y,z
x,-y,z
loop_
_atom_site_type_symbol
_atom_site_label
_atom_site_fract_x
_atom_site_fract_y
_atom_site_fract_z
Si Si1 0.644733 0.799118 0.250107
Si Si2 0.852314 0.693509 0.600407
Si Si3 0.393161 0.314489 0.984258
Si Si4 0.460041 0.195649 0.638044
Si Si5 0.451582 0.198181 0.865685
Si Si6 0.347502 0.192870 0.103755
Si Si7 0.143127 0.194743 0.527149
O O1 0.750000 0.748535 0.251152
O O2 0.591245 0.742248 0.306147
O O3 0.594152 0.746415 0.192670
O O4 0.643710 0.000000 0.250157
O O5 0.750000 0.759068 0.610789
O O6 0.851638 0.500000 0.610481
O O7 0.872911 0.724684 0.533798
O O8 0.932892 0.770810 0.636685
O O9 0.358589 0.500000 0.986612
O O10 0.391970 0.248654 0.920357
O O11 0.500000 0.316585 0.000000
O O12 0.350775 0.212115 0.035413
O O13 0.415888 0.259918 0.579458
O O14 0.445511 0.000000 0.636737
O O15 0.556070 0.260314 0.873186
O O16 0.455468 0.000000 0.865884
O O17 0.250000 0.263619 0.123481
O O18 0.347246 0.000000 0.117500
O O19 0.250000 0.213338 0.541247
O O20 0.124838 0.000000 0.519804
#
# Coordination Sequence:
#
# PCOD9401290 Si02
#       7
#     8   8   8   8   8   8   8
#     4   9  18  33  53  76 100 127 162 203 245 290
#     4  10  21  35  50  71 101 134 165 200 246 298
#     4   9  17  29  46  69  97 127 159 198 242 285
#     4  10  19  32  52  76 100 129 166 206 246 288
#     4   9  17  31  50  71  97 130 165 200 241 289
#     4   9  17  29  46  69  97 128 162 200 242 290
#     4   9  17  30  50  76 104 132 163 201 245 293
#
# _framework density 19.856363999999999
#
# number of rings (size 3 to 8) (size 9 to 14) (size 15 to 20)
#    0.000    2.714    0.000    1.714    0.000    7.429 
#    0.000    2.857    0.000    4.714    0.000    0.000 
#    0.000    0.000    0.000    0.000    0.000    0.000 
#
# Total GULP energy -312253.364630 kJ/mol
# GULP energy per Si atom -5575.952940 kJ/mol
# Density = 1.981117 g / cm^3
# Si number density = 19.856364 Si / 1000 Ang^3
#
#
#
# Elastic Constant Matrix: (Units=GPa)
#
#
# Indices 1 2 3 4 5 6 
#
# 1 128.7490 -3.4502 71.0874 0.0000 0.0000 0.0000
# 2 -3.4502 6.6486 -4.4495 0.0000 0.0000 0.0000
# 3 71.0874 -4.4495 72.2131 0.0000 0.0000 0.0000
# 4 0.0000 0.0000 0.0000 -40.9110 0.0000 0.0000
# 5 0.0000 0.0000 0.0000 0.0000 10.7743 0.0000
# 6 0.0000 0.0000 0.0000 0.0000 0.0000 5.7866
#
#
#
# Elastic Compliance Matrix: (Units=1/GPa)
#
#
# Indices 1 2 3 4 5 6 
#
# 1 0.017055 -0.002488 -0.016942 0.000000 0.000000 0.000000
# 2 -0.002488 0.157240 0.012138 0.000000 0.000000 0.000000
# 3 -0.016942 0.012138 0.031274 0.000000 0.000000 0.000000
# 4 0.000000 0.000000 0.000000 -0.024443 0.000000 0.000000
# 5 0.000000 0.000000 0.000000 0.000000 0.092814 0.000000
# 6 0.000000 0.000000 0.000000 0.000000 0.000000 0.172812
#
#
# Mechanical properties :
#
#
# Convention : Reuss Voigt Hill
#
# Bulk Modulus (GPa) = 5.23606 37.10955 21.17280
# Shear Modulus (GPa) = 9.52386 4.75818 7.14102
#
# Velocity S-wave (km/s) = 2.19244 1.54968 1.89846
# Velocity P-wave (km/s) = 3.00861 4.68312 3.93594
#
# Compressibility (1/GPa) = 0.19098347
#
# Stress axis : x y z
#
# Youngs Moduli (GPa) = 58.63410 6.35972 31.97538
#
# Poissons Ratio (x) = 0.01582 0.54174
# Poissons Ratio (y) = 0.14588 -0.38811
# Poissons Ratio (z) = 0.99340 -0.07719
#
# Static dielectric constant tensor:
#      x y z
#    x 1.742040 0.000000 0.000000 
#    y 0.000000 1.703590 0.000000 
#    z 0.000000 0.000000 1.674450 
# 
# From -- ./inp_files/33292.got.cif
#   From: 2010.05.17/outbox.cif.g08.bks.cpg/sg51_17_cif.got.tgz:33292.got - 2010.06.03 11:52:47.
