data_PCOD9401477
_publ_section_title
;
Structure prediction by ZEFSAII (Michael W. Deem and Ramdas Pophale) SiO2 
 PCOD9401477
Probable space group: P M M A
;
_chemical_formula_sum "Si O2"
_cell_formula_units_Z 56
_cell_length_a 9.548468
_cell_length_b 14.420556
_cell_length_c 21.570206
_cell_angle_alpha 90.000000
_cell_angle_beta 90.000000
_cell_angle_gamma 90.000000
_cell_volume 2970.092637
_symmetry_space_group_name_H-M "P M M A"
_symmetry_group_IT_number 51
_symmetry_cell_setting 'orthorhombic'
loop_
_space_group_symop_operation_xyz
x,y,z
1/2-x,-y,z
1/2+x,-y,-z
-x,y,-z
-x,-y,-z
1/2+x,y,-z
1/2-x,y,z
x,-y,z
loop_
_atom_site_type_symbol
_atom_site_label
_atom_site_fract_x
_atom_site_fract_y
_atom_site_fract_z
Si Si1 0.911442 0.388191 0.059967
Si Si2 0.080307 0.392497 0.302460
Si Si3 0.087253 0.612850 0.440046
Si Si4 0.414659 0.304661 0.171318
Si Si5 0.589074 0.896004 0.794430
Si Si6 0.590687 0.112898 0.559318
Si Si7 0.593269 0.889326 0.327216
O O1 0.750000 0.356756 0.057204
O O2 0.910786 0.500000 0.059777
O O3 0.989349 0.354769 0.121615
O O4 0.000000 0.357237 0.000000
O O5 0.250000 0.391616 0.306183
O O6 0.037682 0.500000 0.292339
O O7 0.032504 0.361404 0.371086
O O8 0.043797 0.332676 0.241881
O O9 0.250000 0.639957 0.446237
O O10 0.084618 0.500000 0.439673
O O11 0.000000 0.643723 0.500000
O O12 0.250000 0.330609 0.163880
O O13 0.426057 0.193714 0.163004
O O14 0.750000 0.892246 0.769865
O O15 0.480854 0.882852 0.738789
O O16 0.570122 0.000000 0.820685
O O17 0.500000 0.138623 0.500000
O O18 0.750000 0.145122 0.556409
O O19 0.510666 0.146231 0.620198
O O20 0.595885 0.000000 0.560688
O O21 0.750000 0.850071 0.328982
O O22 0.605605 0.000000 0.339295
#
# Coordination Sequence:
#
# PCOD9401477 Si02
#       7
#     8   8   8   8   8   8   8
#     4  10  21  37  58  86 120 153 180 208 246 298
#     4   8  14  25  43  69  99 129 164 207 255 311
#     4   8  13  22  37  58  86 121 159 198 243 299
#     4  10  19  32  54  80 106 141 181 220 264 314
#     4   9  18  32  49  71  99 131 170 217 267 315
#     4   9  15  22  34  54  80 108 141 188 249 317
#     4   9  16  26  41  60  82 112 153 202 257 314
#
# _framework density 18.854631000000001
#
# number of rings (size 3 to 8) (size 9 to 14) (size 15 to 20)
#    0.000    3.000    0.000    2.571    0.000    5.429 
#    0.000    0.714    0.000    3.857    0.000    2.000 
#    0.000    0.000    0.000    0.000    0.000    0.000 
#
# Total GULP energy -312159.687849 kJ/mol
# GULP energy per Si atom -5574.280140 kJ/mol
# Density = 1.881172 g / cm^3
# Si number density = 18.854631 Si / 1000 Ang^3
#
#
#
# Elastic Constant Matrix: (Units=GPa)
#
#
# Indices 1 2 3 4 5 6 
#
# 1 107.8875 16.2140 48.8089 0.0000 0.0000 0.0000
# 2 16.2140 73.3442 20.6446 0.0000 0.0000 0.0000
# 3 48.8089 20.6446 104.2713 0.0000 0.0000 0.0000
# 4 0.0000 0.0000 0.0000 -15.0843 0.0000 0.0000
# 5 0.0000 0.0000 0.0000 0.0000 25.2096 0.0000
# 6 0.0000 0.0000 0.0000 0.0000 0.0000 5.6624
#
#
#
# Elastic Compliance Matrix: (Units=1/GPa)
#
#
# Indices 1 2 3 4 5 6 
#
# 1 0.011845 -0.001120 -0.005323 0.000000 0.000000 0.000000
# 2 -0.001120 0.014545 -0.002355 0.000000 0.000000 0.000000
# 3 -0.005323 -0.002355 0.012548 0.000000 0.000000 0.000000
# 4 0.000000 0.000000 0.000000 -0.066294 0.000000 0.000000
# 5 0.000000 0.000000 0.000000 0.000000 0.039667 0.000000
# 6 0.000000 0.000000 0.000000 0.000000 0.000000 0.176602
#
#
# Mechanical properties :
#
#
# Convention : Reuss Voigt Hill
#
# Bulk Modulus (GPa) = 46.85711 50.75979 48.80845
# Shear Modulus (GPa) = 23.40546 16.47992 19.94269
#
# Velocity S-wave (km/s) = 3.52712 2.95964 3.25577
# Velocity P-wave (km/s) = 6.44152 6.21767 6.33058
#
# Compressibility (1/GPa) = 0.02134148
#
# Stress axis : x y z
#
# Youngs Moduli (GPa) = 84.42074 68.75223 79.69178
#
# Poissons Ratio (x) = 0.07703 0.42420
# Poissons Ratio (y) = 0.09458 0.18770
# Poissons Ratio (z) = 0.44937 0.16193
#
# Static dielectric constant tensor:
#      x y z
#    x 1.644010 0.000000 0.000000 
#    y 0.000000 1.690400 0.000000 
#    z 0.000000 0.000000 1.631000 
# 
# From -- ./inp_files/31962.got.cif
#   From: 2010.05.17/outbox.cif.g08.bks.cpg/sg51_16_cif.got.tgz:31962.got - 2010.06.03 11:52:47.
