data_PCOD9401587
_publ_section_title
;
Structure prediction by ZEFSAII (Michael W. Deem and Ramdas Pophale) SiO2 
 PCOD9401587
Probable space group: P M M A
;
_chemical_formula_sum "Si O2"
_cell_formula_units_Z 44
_cell_length_a 8.620204
_cell_length_b 29.960533
_cell_length_c 9.718526
_cell_angle_alpha 90.000000
_cell_angle_beta 90.000000
_cell_angle_gamma 90.000000
_cell_volume 2509.963926
_symmetry_space_group_name_H-M "P M M A"
_symmetry_group_IT_number 51
_symmetry_cell_setting 'orthorhombic'
loop_
_space_group_symop_operation_xyz
x,y,z
1/2-x,-y,z
1/2+x,-y,-z
-x,y,-z
-x,-y,-z
1/2+x,y,-z
1/2-x,y,z
x,-y,z
loop_
_atom_site_type_symbol
_atom_site_label
_atom_site_fract_x
_atom_site_fract_y
_atom_site_fract_z
Si Si1 0.063292 0.225745 0.344655
Si Si2 0.063441 0.676485 0.344207
Si Si3 0.435804 0.050589 0.846502
Si Si4 0.436561 0.402264 0.844194
Si Si5 0.563336 0.500000 0.155238
Si Si6 0.563629 0.128285 0.655414
O O1 0.250000 0.225751 0.348250
O O2 0.015920 0.274165 0.287363
O O3 0.015860 0.177437 0.286187
O O4 0.000000 0.225639 0.500000
O O5 0.250000 0.674484 0.348379
O O6 0.000000 0.672548 0.500000
O O7 1.000000 0.637117 0.249980
O O8 0.250000 0.052926 0.849398
O O9 0.500448 0.088099 0.746056
O O10 0.480561 0.000000 0.803842
O O11 0.500000 0.057521 0.000000
O O12 0.250000 0.400264 0.848391
O O13 0.484052 0.451605 0.787213
O O14 0.500000 0.398342 0.000000
O O15 0.750000 0.500000 0.151810
O O16 0.500000 0.500000 0.000000
O O17 0.500000 0.124965 0.500000
O O18 0.750000 0.126430 0.651511
#
# Coordination Sequence:
#
# PCOD9401587 Si02
#       6
#     8   8   8   8   4   8
#     4   8  16  30  49  72  99 130 164 201 244 293
#     4  10  19  33  52  75 102 133 167 204 247 296
#     4  10  21  37  55  75 101 134 169 205 249 300
#     4  10  19  33  52  75 100 129 165 206 250 296
#     4   8  16  30  49  70  95 126 162 202 246 296
#     4  10  19  33  54  79 104 131 166 208 249 291
#
# _framework density 17.530134
#
# number of rings (size 3 to 8) (size 9 to 14) (size 15 to 20)
#    0.000    2.545    0.000    2.182    0.000    3.636 
#    0.000    1.364    0.000    0.000    0.000    0.000 
#    0.000    0.000    0.000    0.000    0.000    0.000 
#
# Total GULP energy -245042.545616 kJ/mol
# GULP energy per Si atom -5569.148764 kJ/mol
# Density = 1.749023 g / cm^3
# Si number density = 17.530134 Si / 1000 Ang^3
#
#
#
# Elastic Constant Matrix: (Units=GPa)
#
#
# Indices 1 2 3 4 5 6 
#
# 1 46.5974 55.7454 24.9845 0.0000 0.0000 0.0000
# 2 55.7454 236.5462 85.0956 0.0000 0.0000 0.0000
# 3 24.9845 85.0956 54.2982 0.0000 0.0000 0.0000
# 4 0.0000 0.0000 0.0000 51.0691 0.0000 0.0000
# 5 0.0000 0.0000 0.0000 0.0000 29.4492 0.0000
# 6 0.0000 0.0000 0.0000 0.0000 0.0000 29.3869
#
#
#
# Elastic Compliance Matrix: (Units=1/GPa)
#
#
# Indices 1 2 3 4 5 6 
#
# 1 0.030832 -0.004957 -0.006418 0.000000 0.000000 0.000000
# 2 -0.004957 0.010488 -0.014156 0.000000 0.000000 0.000000
# 3 -0.006418 -0.014156 0.043555 0.000000 0.000000 0.000000
# 4 0.000000 0.000000 0.000000 0.019581 0.000000 0.000000
# 5 0.000000 0.000000 0.000000 0.000000 0.033957 0.000000
# 6 0.000000 0.000000 0.000000 0.000000 0.000000 0.034029
#
#
# Mechanical properties :
#
#
# Convention : Reuss Voigt Hill
#
# Bulk Modulus (GPa) = 29.57450 74.34364 51.95907
# Shear Modulus (GPa) = 21.29685 33.42213 27.35949
#
# Velocity S-wave (km/s) = 3.48928 4.37115 3.95487
# Velocity P-wave (km/s) = 5.75680 8.24482 7.11048
#
# Compressibility (1/GPa) = 0.03381292
#
# Stress axis : x y z
#
# Youngs Moduli (GPa) = 32.43383 95.34423 22.95923
#
# Poissons Ratio (x) = 0.47264 0.14735
# Poissons Ratio (y) = 0.16078 0.32502
# Poissons Ratio (z) = 0.20816 1.34971
#
# Static dielectric constant tensor:
#      x y z
#    x 1.590800 0.000000 0.000000 
#    y 0.000000 1.661960 0.000000 
#    z 0.000000 0.000000 1.540680 
# 
# From -- ./inp_files/5713.got.cif
#   From: 2010.05.17/outbox.cif.g08.bks.cpg/sg51_3_cif.got.tgz:5713.got - 2010.06.03 11:52:47.
