data_PCOD9401651
_publ_section_title
;
Structure prediction by ZEFSAII (Michael W. Deem and Ramdas Pophale) SiO2 
 PCOD9401651
Probable space group: P M M A
;
_chemical_formula_sum "Si O2"
_cell_formula_units_Z 56
_cell_length_a 15.299444
_cell_length_b 20.359662
_cell_length_c 9.878660
_cell_angle_alpha 90.000000
_cell_angle_beta 90.000000
_cell_angle_gamma 90.000000
_cell_volume 3077.118707
_symmetry_space_group_name_H-M "P M M A"
_symmetry_group_IT_number 51
_symmetry_cell_setting 'orthorhombic'
loop_
_space_group_symop_operation_xyz
x,y,z
1/2-x,-y,z
1/2+x,-y,-z
-x,y,-z
-x,-y,-z
1/2+x,y,-z
1/2-x,y,z
x,-y,z
loop_
_atom_site_type_symbol
_atom_site_label
_atom_site_fract_x
_atom_site_fract_y
_atom_site_fract_z
Si Si1 0.104251 0.572368 0.986089
Si Si2 0.852959 0.076305 0.850547
Si Si3 0.149588 0.426876 0.296787
Si Si4 0.155834 0.305481 0.815889
Si Si5 0.974516 0.696723 0.654041
Si Si6 0.412832 0.174927 0.918660
Si Si7 0.023789 0.844047 0.339513
O O1 0.113220 0.500000 0.921661
O O2 0.150023 0.630126 0.906910
O O3 0.144345 0.569481 0.134710
O O4 0.000000 0.585518 0.000000
O O5 0.750000 0.081502 0.823926
O O6 0.907493 0.105337 0.724346
O O7 0.875778 0.000000 0.871413
O O8 0.874859 0.117910 0.986099
O O9 0.250000 0.416952 0.339917
O O10 0.120748 0.500000 0.346700
O O11 0.088892 0.364856 0.328038
O O12 0.250000 0.304398 0.742914
O O13 0.147341 0.238486 0.901620
O O14 0.066416 0.309134 0.731734
O O15 0.938767 0.769924 0.683637
O O16 0.000000 0.698413 0.500000
O O17 0.441885 0.152848 0.766777
O O18 0.500000 0.196583 0.000000
O O19 0.000000 0.852445 0.500000
#
# Coordination Sequence:
#
# PCOD9401651 Si02
#       7
#     8   8   8   8   8   8   8
#     4  10  19  33  53  77 108 140 174 224 282 333
#     4  10  21  37  58  87 118 146 183 231 281 335
#     4  10  21  36  55  79 106 141 185 230 279 334
#     4  11  21  33  54  81 108 139 180 227 278 332
#     4  10  22  39  56  77 109 145 186 231 275 326
#     4   9  19  35  57  82 113 148 187 229 276 333
#     4   9  20  38  58  82 112 152 193 229 275 336
#
# _framework density 18.198843
#
# number of rings (size 3 to 8) (size 9 to 14) (size 15 to 20)
#    0.000    2.143    1.429    1.286    4.000    5.143 
#    0.000    6.429    0.000    1.714    0.000    0.000 
#    0.000    0.000    0.000    0.000    0.000    0.000 
#
# Total GULP energy -311855.839980 kJ/mol
# GULP energy per Si atom -5568.854285 kJ/mol
# Density = 1.815742 g / cm^3
# Si number density = 18.198843 Si / 1000 Ang^3
#
#
#
# Elastic Constant Matrix: (Units=GPa)
#
#
# Indices 1 2 3 4 5 6 
#
# 1 84.5324 65.1611 11.1789 0.0000 0.0000 0.0000
# 2 65.1611 151.5094 44.6750 0.0000 0.0000 0.0000
# 3 11.1789 44.6750 75.9143 0.0000 0.0000 0.0000
# 4 0.0000 0.0000 0.0000 15.9516 0.0000 0.0000
# 5 0.0000 0.0000 0.0000 0.0000 -3.9402 0.0000
# 6 0.0000 0.0000 0.0000 0.0000 0.0000 -46.1352
#
#
#
# Elastic Compliance Matrix: (Units=1/GPa)
#
#
# Indices 1 2 3 4 5 6 
#
# 1 0.018025 -0.008433 0.002308 0.000000 0.000000 0.000000
# 2 -0.008433 0.011931 -0.005780 0.000000 0.000000 0.000000
# 3 0.002308 -0.005780 0.016234 0.000000 0.000000 0.000000
# 4 0.000000 0.000000 0.000000 0.062689 0.000000 0.000000
# 5 0.000000 0.000000 0.000000 0.000000 -0.253796 0.000000
# 6 0.000000 0.000000 0.000000 0.000000 0.000000 -0.021675
#
#
# Mechanical properties :
#
#
# Convention : Reuss Voigt Hill
#
# Bulk Modulus (GPa) = 44.67870 61.55401 53.11636
# Shear Modulus (GPa) = -36.94864 5.90466 -15.52199
#
# Velocity S-wave (km/s) = -4.51074 1.80321 -2.92363
# Velocity P-wave (km/s) = 1.58918 6.18319 4.22530
#
# Compressibility (1/GPa) = 0.02238203
#
# Stress axis : x y z
#
# Youngs Moduli (GPa) = 55.47891 83.81357 61.59865
#
# Poissons Ratio (x) = 0.70678 -0.14219
# Poissons Ratio (y) = 0.46784 0.35602
# Poissons Ratio (z) = -0.12806 0.48441
#
# Static dielectric constant tensor:
#      x y z
#    x 1.607670 0.000000 0.000000 
#    y 0.000000 1.685900 0.000000 
#    z 0.000000 0.000000 1.638550 
# 
# From -- ./inp_files/8516.got.cif
#   From: 2010.05.17/outbox.cif.g08.bks.cpg/sg51_5_cif.got.tgz:8516.got - 2010.06.03 11:52:47.
