data_PCOD9401089
_publ_section_title
;
Structure prediction by ZEFSAII (Michael W. Deem and Ramdas Pophale) SiO2 
 PCOD9401089
Probable space group: P M M A
;
_chemical_formula_sum "Si O2"
_cell_formula_units_Z 44
_cell_length_a 8.589333
_cell_length_b 21.822303
_cell_length_c 14.493358
_cell_angle_alpha 90.000000
_cell_angle_beta 90.000000
_cell_angle_gamma 90.000000
_cell_volume 2716.620926
_symmetry_space_group_name_H-M "P M M A"
_symmetry_group_IT_number 51
_symmetry_cell_setting 'orthorhombic'
loop_
_space_group_symop_operation_xyz
x,y,z
1/2-x,-y,z
1/2+x,-y,-z
-x,y,-z
-x,-y,-z
1/2+x,y,-z
1/2-x,y,z
x,-y,z
loop_
_atom_site_type_symbol
_atom_site_label
_atom_site_fract_x
_atom_site_fract_y
_atom_site_fract_z
Si Si1 0.562894 0.865039 0.896063
Si Si2 0.064958 0.815110 0.717096
Si Si3 0.062150 0.434180 0.395222
Si Si4 0.062589 0.000000 0.104147
Si Si5 0.937186 0.930926 0.604493
Si Si6 0.937350 0.299656 0.604678
O O1 0.750000 0.862576 0.897996
O O2 0.496751 0.818417 0.821649
O O3 0.514100 0.933426 0.860125
O O4 0.500000 0.857344 0.000000
O O5 0.250000 0.815629 0.716014
O O6 0.003315 0.875350 0.663806
O O7 0.002814 0.755327 0.665059
O O8 0.250000 0.434215 0.397336
O O9 0.012223 0.500000 0.353162
O O10 0.015397 0.367403 0.357838
O O11 0.000000 0.434472 0.500000
O O12 0.250000 0.000000 0.105296
O O13 0.000000 0.000000 0.000000
O O14 0.750000 0.926834 0.604287
O O15 0.000000 0.925623 0.500000
O O16 0.978508 0.000000 0.637912
O O17 0.750000 0.296106 0.602313
O O18 0.000000 0.294160 0.500000
#
# Coordination Sequence:
#
# PCOD9401089 Si02
#       6
#     8   8   8   4   8   8
#     4  10  20  36  54  74  96 121 153 194 246 297
#     4  12  24  35  49  70  96 128 164 200 240 288
#     4   8  14  25  43  67  94 125 160 195 233 277
#     4   8  16  30  50  70  89 110 137 178 230 286
#     4  10  21  37  54  70  91 120 158 203 247 290
#     4  10  19  32  49  70  99 133 166 202 240 282
#
# _framework density 16.196591000000002
#
# number of rings (size 3 to 8) (size 9 to 14) (size 15 to 20)
#    0.000    2.182    0.000    3.818    1.273    2.545 
#    0.000    0.000    0.000    0.000    0.000    0.000 
#    0.000    0.727    0.000    2.000    0.000    3.273 
#
# Total GULP energy -245244.614247 kJ/mol
# GULP energy per Si atom -5573.741233 kJ/mol
# Density = 1.615973 g / cm^3
# Si number density = 16.196591 Si / 1000 Ang^3
#
#
#
# Elastic Constant Matrix: (Units=GPa)
#
#
# Indices 1 2 3 4 5 6 
#
# 1 64.9822 47.5719 28.8677 0.0000 0.0000 0.0000
# 2 47.5719 157.9670 70.1570 0.0000 0.0000 0.0000
# 3 28.8677 70.1570 71.7616 0.0000 0.0000 0.0000
# 4 0.0000 0.0000 0.0000 15.2771 0.0000 0.0000
# 5 0.0000 0.0000 0.0000 0.0000 22.2781 0.0000
# 6 0.0000 0.0000 0.0000 0.0000 0.0000 12.4446
#
#
#
# Elastic Compliance Matrix: (Units=1/GPa)
#
#
# Indices 1 2 3 4 5 6 
#
# 1 0.020333 -0.004402 -0.003876 0.000000 0.000000 0.000000
# 2 -0.004402 0.012141 -0.010099 0.000000 0.000000 0.000000
# 3 -0.003876 -0.010099 0.025367 0.000000 0.000000 0.000000
# 4 0.000000 0.000000 0.000000 0.065457 0.000000 0.000000
# 5 0.000000 0.000000 0.000000 0.000000 0.044887 0.000000
# 6 0.000000 0.000000 0.000000 0.000000 0.000000 0.080356
#
#
# Mechanical properties :
#
#
# Convention : Reuss Voigt Hill
#
# Bulk Modulus (GPa) = 47.42015 65.32267 56.37141
# Shear Modulus (GPa) = 17.10421 19.87426 18.48924
#
# Velocity S-wave (km/s) = 3.25320 3.50675 3.38235
# Velocity P-wave (km/s) = 6.59185 7.53758 7.08052
#
# Compressibility (1/GPa) = 0.02108808
#
# Stress axis : x y z
#
# Youngs Moduli (GPa) = 49.18046 82.36324 39.42052
#
# Poissons Ratio (x) = 0.36256 0.15279
# Poissons Ratio (y) = 0.21649 0.39811
# Poissons Ratio (z) = 0.19062 0.83179
#
# Static dielectric constant tensor:
#      x y z
#    x 1.539750 0.000000 0.000000 
#    y 0.000000 1.593080 0.000000 
#    z 0.000000 0.000000 1.517070 
# 
# From -- ./inp_files/21414.got.cif
#   From: 2010.05.17/outbox.cif.g08.bks.cpg/sg51_11_cif.got.tgz:21414.got - 2010.06.03 11:52:47.
