data_PCOD9401322
_publ_section_title
;
Structure prediction by ZEFSAII (Michael W. Deem and Ramdas Pophale) SiO2 
 PCOD9401322
Probable space group: P M M A
;
_chemical_formula_sum "Si O2"
_cell_formula_units_Z 64
_cell_length_a 8.295234
_cell_length_b 15.713294
_cell_length_c 24.756336
_cell_angle_alpha 90.000000
_cell_angle_beta 90.000000
_cell_angle_gamma 90.000000
_cell_volume 3226.875772
_symmetry_space_group_name_H-M "P M M A"
_symmetry_group_IT_number 51
_symmetry_cell_setting 'orthorhombic'
loop_
_space_group_symop_operation_xyz
x,y,z
1/2-x,-y,z
1/2+x,-y,-z
-x,y,-z
-x,-y,-z
1/2+x,y,-z
1/2-x,y,z
x,-y,z
loop_
_atom_site_type_symbol
_atom_site_label
_atom_site_fract_x
_atom_site_fract_y
_atom_site_fract_z
Si Si1 0.554937 0.596468 0.061649
Si Si2 0.429896 0.897235 0.441957
Si Si3 0.557533 0.407003 0.239596
Si Si4 0.438653 0.684139 0.335171
Si Si5 0.052755 0.094152 0.796560
Si Si6 0.443672 0.402727 0.442174
Si Si7 0.065819 0.137974 0.677912
Si Si8 0.553867 0.269616 0.150634
O O1 0.750000 0.596261 0.064109
O O2 0.503245 0.500000 0.078838
O O3 0.498954 0.676173 0.098326
O O4 0.500000 0.607179 0.000000
O O5 0.500000 0.867783 0.500000
O O6 0.250000 0.862644 0.440005
O O7 0.501678 0.878881 0.382612
O O8 0.428522 0.000000 0.445370
O O9 0.750000 0.401228 0.249005
O O10 0.525818 0.500000 0.215948
O O11 0.465166 0.394218 0.295336
O O12 0.510037 0.331719 0.199907
O O13 0.250000 0.708315 0.336180
O O14 0.496261 0.657390 0.394126
O O15 0.544913 0.761446 0.314232
O O16 0.250000 0.099146 0.794462
O O17 0.994757 0.100955 0.733827
O O18 0.998829 0.174375 0.833139
O O19 0.009801 0.000000 0.817139
O O20 0.500000 0.371589 0.500000
O O21 0.250000 0.405530 0.440512
O O22 0.503336 0.500000 0.435305
O O23 0.250000 0.110187 0.676510
O O24 0.750000 0.265924 0.147656
#
# Coordination Sequence:
#
# PCOD9401322 Si02
#       8
#     8   8   8   8   8   8   8   8
#     4   9  17  30  51  79 112 150 186 223 265 311
#     4  10  21  37  56  78 103 132 170 218 277 344
#     4  10  19  32  52  77 104 136 174 216 264 320
#     4  11  22  35  50  71 103 135 168 212 267 325
#     4   9  17  30  52  80 106 134 175 227 276 322
#     4   9  19  35  52  68  88 119 161 207 253 307
#     4  11  21  35  54  76 104 135 175 224 275 331
#     4   9  16  30  51  78 109 140 180 223 265 315
#
# _framework density 19.833425999999999
#
# number of rings (size 3 to 8) (size 9 to 14) (size 15 to 20)
#    0.000    2.250    1.250    2.250    0.000    5.000 
#    0.000    3.125    0.000    1.875    0.000    0.000 
#    0.000    0.000    0.000    0.000    0.000    0.000 
#
# Total GULP energy -356667.685014 kJ/mol
# GULP energy per Si atom -5572.932578 kJ/mol
# Density = 1.978828 g / cm^3
# Si number density = 19.833426 Si / 1000 Ang^3
#
#
#
# Elastic Constant Matrix: (Units=GPa)
#
#
# Indices 1 2 3 4 5 6 
#
# 1 9.2442 8.1236 10.3797 0.0000 0.0000 0.0000
# 2 8.1236 135.1891 60.8016 0.0000 0.0000 0.0000
# 3 10.3797 60.8016 111.0943 0.0000 0.0000 0.0000
# 4 0.0000 0.0000 0.0000 24.1091 0.0000 0.0000
# 5 0.0000 0.0000 0.0000 0.0000 18.9816 0.0000
# 6 0.0000 0.0000 0.0000 0.0000 0.0000 13.2299
#
#
#
# Elastic Compliance Matrix: (Units=1/GPa)
#
#
# Indices 1 2 3 4 5 6 
#
# 1 0.121716 -0.002917 -0.009775 0.000000 0.000000 0.000000
# 2 -0.002917 0.009882 -0.005136 0.000000 0.000000 0.000000
# 3 -0.009775 -0.005136 0.012726 0.000000 0.000000 0.000000
# 4 0.000000 0.000000 0.000000 0.041478 0.000000 0.000000
# 5 0.000000 0.000000 0.000000 0.000000 0.052683 0.000000
# 6 0.000000 0.000000 0.000000 0.000000 0.000000 0.075586
#
#
# Mechanical properties :
#
#
# Convention : Reuss Voigt Hill
#
# Bulk Modulus (GPa) = 9.20252 46.01526 27.60889
# Shear Modulus (GPa) = 12.95505 23.01229 17.98367
#
# Velocity S-wave (km/s) = 2.55854 3.40998 3.01447
# Velocity P-wave (km/s) = 3.65761 6.22537 5.10555
#
# Compressibility (1/GPa) = 0.10866591
#
# Stress axis : x y z
#
# Youngs Moduli (GPa) = 8.21588 101.19131 78.58185
#
# Poissons Ratio (x) = 0.29522 0.76816
# Poissons Ratio (y) = 0.02397 0.40359
# Poissons Ratio (z) = 0.08031 0.51971
#
# Static dielectric constant tensor:
#      x y z
#    x 1.704020 0.000000 0.000000 
#    y 0.000000 1.738810 0.000000 
#    z 0.000000 0.000000 1.711610 
# 
# From -- ./inp_files/34955.got.cif
#   From: 2010.05.17/outbox.cif.g08.bks.cpg/sg51_18_cif.got.tgz:34955.got - 2010.06.03 11:52:47.
