data_PCOD9401325
_publ_section_title
;
Structure prediction by ZEFSAII (Michael W. Deem and Ramdas Pophale) SiO2 
 PCOD9401325
Probable space group: P M M A
;
_chemical_formula_sum "Si O2"
_cell_formula_units_Z 56
_cell_length_a 17.716107
_cell_length_b 7.937880
_cell_length_c 19.577929
_cell_angle_alpha 90.000000
_cell_angle_beta 90.000000
_cell_angle_gamma 90.000000
_cell_volume 2753.211488
_symmetry_space_group_name_H-M "P M M A"
_symmetry_group_IT_number 51
_symmetry_cell_setting 'orthorhombic'
loop_
_space_group_symop_operation_xyz
x,y,z
1/2-x,-y,z
1/2+x,-y,-z
-x,y,-z
-x,-y,-z
1/2+x,y,-z
1/2-x,y,z
x,-y,z
loop_
_atom_site_type_symbol
_atom_site_label
_atom_site_fract_x
_atom_site_fract_y
_atom_site_fract_z
Si Si1 0.335620 0.199140 0.581889
Si Si2 0.083463 0.701625 0.718208
Si Si3 0.571473 0.692226 0.540559
Si Si4 0.666509 0.296988 0.146104
Si Si5 0.988014 0.798377 0.076119
Si Si6 0.068342 0.197802 0.209308
Si Si7 0.165276 0.797824 0.329843
O O1 0.250000 0.244193 0.600899
O O2 0.390362 0.239569 0.644499
O O3 0.362185 0.296032 0.514928
O O4 0.338390 0.000000 0.566727
O O5 0.073339 0.500000 0.717903
O O6 0.146210 0.744652 0.775346
O O7 0.006834 0.784432 0.744727
O O8 0.500000 0.772085 0.500000
O O9 0.549750 0.500000 0.556033
O O10 0.605005 0.763726 0.610356
O O11 0.750000 0.235098 0.127905
O O12 0.666202 0.500000 0.141007
O O13 0.597329 0.232006 0.101090
O O14 0.043912 0.729809 0.135515
O O15 0.999694 0.000000 0.073978
O O16 0.000000 0.730437 0.000000
O O17 0.134406 0.269354 0.257113
O O18 0.084473 0.000000 0.198809
O O19 0.250000 0.735480 0.345845
O O20 0.169370 0.000000 0.324336
#
# Coordination Sequence:
#
# PCOD9401325 Si02
#       7
#     8   8   8   8   8   8   8
#     4  11  23  36  51  74 103 134 168 206 251 304
#     4  10  19  32  52  77 105 136 171 211 255 306
#     4  11  24  39  55  76 101 131 170 217 268 317
#     4   9  18  32  50  74 104 138 174 211 256 311
#     4   9  18  33  53  79 109 139 174 215 259 310
#     4   9  18  34  55  77 104 138 173 211 257 309
#     4  10  21  37  56  77 102 136 179 223 266 315
#
# _framework density 20.339884000000001
#
# number of rings (size 3 to 8) (size 9 to 14) (size 15 to 20)
#    0.000    2.143    0.000    3.000    0.000    8.857 
#    0.000    0.714    0.000    2.571    0.000    0.000 
#    0.000    0.000    0.000    0.000    0.000    0.000 
#
# Total GULP energy -312484.861546 kJ/mol
# GULP energy per Si atom -5580.086813 kJ/mol
# Density = 2.029359 g / cm^3
# Si number density = 20.339884 Si / 1000 Ang^3
#
#
#
# Elastic Constant Matrix: (Units=GPa)
#
#
# Indices 1 2 3 4 5 6 
#
# 1 71.0969 5.1740 48.4975 0.0000 0.0000 0.0000
# 2 5.1740 20.7382 6.0859 0.0000 0.0000 0.0000
# 3 48.4975 6.0859 149.2464 0.0000 0.0000 0.0000
# 4 0.0000 0.0000 0.0000 -5.3240 0.0000 0.0000
# 5 0.0000 0.0000 0.0000 0.0000 18.0359 0.0000
# 6 0.0000 0.0000 0.0000 0.0000 0.0000 10.3730
#
#
#
# Elastic Compliance Matrix: (Units=1/GPa)
#
#
# Indices 1 2 3 4 5 6 
#
# 1 0.018235 -0.002845 -0.005810 0.000000 0.000000 0.000000
# 2 -0.002845 0.049248 -0.001084 0.000000 0.000000 0.000000
# 3 -0.005810 -0.001084 0.008632 0.000000 0.000000 0.000000
# 4 0.000000 0.000000 0.000000 -0.187830 0.000000 0.000000
# 5 0.000000 0.000000 0.000000 0.000000 0.055445 0.000000
# 6 0.000000 0.000000 0.000000 0.000000 0.000000 0.096404
#
#
# Mechanical properties :
#
#
# Convention : Reuss Voigt Hill
#
# Bulk Modulus (GPa) = 17.65550 40.06624 28.86087
# Shear Modulus (GPa) = 63.70186 16.70527 40.20357
#
# Velocity S-wave (km/s) = 5.60238 2.86895 4.45071
# Velocity P-wave (km/s) = 7.10971 5.54217 6.37431
#
# Compressibility (1/GPa) = 0.05663956
#
# Stress axis : x y z
#
# Youngs Moduli (GPa) = 54.83909 20.30538 115.84377
#
# Poissons Ratio (x) = 0.05776 0.67299
# Poissons Ratio (y) = 0.15600 0.12556
# Poissons Ratio (z) = 0.31859 0.02201
#
# Static dielectric constant tensor:
#      x y z
#    x 1.747400 0.000000 0.000000 
#    y 0.000000 1.739390 0.000000 
#    z 0.000000 0.000000 1.724510 
# 
# From -- ./inp_files/33483.got.cif
#   From: 2010.05.17/outbox.cif.g08.bks.cpg/sg51_17_cif.got.tgz:33483.got - 2010.06.03 11:52:47.
