data_PCOD9401623
_publ_section_title
;
Structure prediction by ZEFSAII (Michael W. Deem and Ramdas Pophale) SiO2 
 PCOD9401623
Probable space group: P M M A
;
_chemical_formula_sum "Si O2"
_cell_formula_units_Z 52
_cell_length_a 7.516214
_cell_length_b 16.487241
_cell_length_c 19.784101
_cell_angle_alpha 90.000000
_cell_angle_beta 90.000000
_cell_angle_gamma 90.000000
_cell_volume 2451.678076
_symmetry_space_group_name_H-M "P M M A"
_symmetry_group_IT_number 51
_symmetry_cell_setting 'orthorhombic'
loop_
_space_group_symop_operation_xyz
x,y,z
1/2-x,-y,z
1/2+x,-y,-z
-x,y,-z
-x,-y,-z
1/2+x,y,-z
1/2-x,y,z
x,-y,z
loop_
_atom_site_type_symbol
_atom_site_label
_atom_site_fract_x
_atom_site_fract_y
_atom_site_fract_z
Si Si1 0.961510 0.676128 0.579130
Si Si2 0.462577 0.353785 0.924978
Si Si3 0.462662 0.500000 0.419496
Si Si4 0.032407 0.411867 0.780180
Si Si5 0.462355 0.167865 0.925264
Si Si6 0.043300 0.247792 0.710578
Si Si7 0.468061 0.909840 0.786925
O O1 0.750000 0.673950 0.586030
O O2 0.034268 0.587458 0.602599
O O3 0.000000 0.687802 0.500000
O O4 0.031359 0.743042 0.630257
O O5 0.250000 0.349750 0.919507
O O6 0.521592 0.402020 0.858847
O O7 0.531882 0.260723 0.921436
O O8 0.500000 0.386415 0.000000
O O9 0.250000 0.500000 0.409410
O O10 0.500000 0.500000 0.500000
O O11 0.250000 0.412349 0.776996
O O12 0.972611 0.500000 0.753833
O O13 0.967420 0.330998 0.742292
O O14 0.250000 0.173478 0.918409
O O15 0.524257 0.114042 0.862934
O O16 0.500000 0.135702 0.000000
O O17 0.250000 0.248167 0.731106
O O18 0.970075 0.164123 0.739701
O O19 0.250000 0.911520 0.785227
O O20 0.528051 0.000000 0.768544
#
# Coordination Sequence:
#
# PCOD9401623 Si02
#       7
#     8   8   4   8   8   8   8
#     4  10  20  35  54  78 107 138 169 202 242 289
#     4   9  16  28  45  64  90 125 166 210 250 292
#     4   8  16  30  48  72 104 136 165 194 229 278
#     4   9  17  29  46  69  96 129 169 208 246 294
#     4   9  16  28  46  68  94 125 162 205 252 300
#     4  10  19  33  53  76 101 131 168 207 250 300
#     4   9  17  31  52  75  99 130 169 210 253 304
#
# _framework density 21.209961
#
# number of rings (size 3 to 8) (size 9 to 14) (size 15 to 20)
#    0.000    2.769    1.538    0.462    1.077    1.231 
#    0.000    1.538    0.000    2.769    0.000    0.000 
#    0.000    0.000    0.000    0.000    0.000    0.000 
#
# Total GULP energy -290139.446945 kJ/mol
# GULP energy per Si atom -5579.604749 kJ/mol
# Density = 2.116169 g / cm^3
# Si number density = 21.209961 Si / 1000 Ang^3
#
#
#
# Elastic Constant Matrix: (Units=GPa)
#
#
# Indices 1 2 3 4 5 6 
#
# 1 57.5957 7.5990 -7.8844 0.0000 0.0000 0.0000
# 2 7.5990 165.3248 84.6650 0.0000 0.0000 0.0000
# 3 -7.8844 84.6650 111.4506 0.0000 0.0000 0.0000
# 4 0.0000 0.0000 0.0000 20.8313 0.0000 0.0000
# 5 0.0000 0.0000 0.0000 0.0000 19.1811 0.0000
# 6 0.0000 0.0000 0.0000 0.0000 0.0000 0.9399
#
#
#
# Elastic Compliance Matrix: (Units=1/GPa)
#
#
# Indices 1 2 3 4 5 6 
#
# 1 0.018113 -0.002437 0.003132 0.000000 0.000000 0.000000
# 2 -0.002437 0.010228 -0.007942 0.000000 0.000000 0.000000
# 3 0.003132 -0.007942 0.015228 0.000000 0.000000 0.000000
# 4 0.000000 0.000000 0.000000 0.048005 0.000000 0.000000
# 5 0.000000 0.000000 0.000000 0.000000 0.052135 0.000000
# 6 0.000000 0.000000 0.000000 0.000000 0.000000 1.063926
#
#
# Mechanical properties :
#
#
# Convention : Reuss Voigt Hill
#
# Bulk Modulus (GPa) = 34.39344 55.90335 45.14840
# Shear Modulus (GPa) = 4.05904 24.85657 14.45780
#
# Velocity S-wave (km/s) = 1.38488 3.42706 2.61368
# Velocity P-wave (km/s) = 4.33683 6.48645 5.51734
#
# Compressibility (1/GPa) = 0.02907531
#
# Stress axis : x y z
#
# Youngs Moduli (GPa) = 55.20992 97.77058 65.67016
#
# Poissons Ratio (x) = 0.23824 -0.20571
# Poissons Ratio (y) = 0.13453 0.52157
# Poissons Ratio (z) = -0.17294 0.77652
#
# Static dielectric constant tensor:
#      x y z
#    x 1.799570 0.000000 0.000000 
#    y 0.000000 1.778580 0.000000 
#    z 0.000000 0.000000 1.764250 
# 
# From -- ./inp_files/31783.got.cif
#   From: 2010.05.17/outbox.cif.g08.bks.cpg/sg51_16_cif.got.tgz:31783.got - 2010.06.03 11:52:47.
