data_PCOD9401129
_publ_section_title
;
Structure prediction by ZEFSAII (Michael W. Deem and Ramdas Pophale) SiO2 
 PCOD9401129
Probable space group: P M M A
;
_chemical_formula_sum "Si O2"
_cell_formula_units_Z 48
_cell_length_a 21.273171
_cell_length_b 8.923708
_cell_length_c 15.258149
_cell_angle_alpha 90.000000
_cell_angle_beta 90.000000
_cell_angle_gamma 90.000000
_cell_volume 2896.539355
_symmetry_space_group_name_H-M "P M M A"
_symmetry_group_IT_number 51
_symmetry_cell_setting 'orthorhombic'
loop_
_space_group_symop_operation_xyz
x,y,z
1/2-x,-y,z
1/2+x,-y,-z
-x,y,-z
-x,-y,-z
1/2+x,y,-z
1/2-x,y,z
x,-y,z
loop_
_atom_site_type_symbol
_atom_site_label
_atom_site_fract_x
_atom_site_fract_y
_atom_site_fract_z
Si Si1 0.655443 0.672926 0.809356
Si Si2 0.180171 0.318976 0.390708
Si Si3 0.551833 0.181253 0.073647
Si Si4 0.047062 0.179425 0.420660
Si Si5 0.182238 0.179956 0.008957
Si Si6 0.010397 0.673799 0.237836
O O1 0.674349 0.500000 0.822760
O O2 0.678204 0.720168 0.713016
O O3 0.580055 0.678983 0.804234
O O4 0.677548 0.770332 0.890235
O O5 0.250000 0.278226 0.424835
O O6 0.173850 0.500000 0.395678
O O7 0.117596 0.246097 0.431255
O O8 0.620278 0.233475 0.041308
O O9 0.534340 0.248056 0.167615
O O10 0.550951 0.000000 0.079016
O O11 0.500000 0.223970 0.000000
O O12 0.017990 0.244810 0.330900
O O13 0.000000 0.217175 0.500000
O O14 0.051882 0.000000 0.414135
O O15 0.250000 0.231300 0.973696
O O16 0.180734 0.000000 0.005612
O O17 0.993748 0.500000 0.251275
#
# Coordination Sequence:
#
# PCOD9401129 Si02
#       6
#     8   8   8   8   8   8
#     4   9  17  29  45  68  99 131 162 197 241 294
#     4   9  18  32  50  75 107 139 169 205 254 311
#     4  10  19  32  50  71  98 133 172 211 248 293
#     4  10  21  36  55  79 106 135 171 215 262 312
#     4  10  20  31  44  66  97 132 169 208 251 295
#     4  10  20  33  52  76 100 131 170 212 256 304
#
# _framework density 16.5715
#
# number of rings (size 3 to 8) (size 9 to 14) (size 15 to 20)
#    0.000    2.333    1.667    2.500    0.000    6.333 
#    0.000    0.000    0.000    1.000    0.000    2.333 
#    0.000    0.000    0.000    0.000    0.000    0.000 
#
# Total GULP energy -267569.942347 kJ/mol
# GULP energy per Si atom -5574.373799 kJ/mol
# Density = 1.653378 g / cm^3
# Si number density = 16.571500 Si / 1000 Ang^3
#
#
#
# Elastic Constant Matrix: (Units=GPa)
#
#
# Indices 1 2 3 4 5 6 
#
# 1 156.8821 45.5772 71.1454 0.0000 0.0000 0.0000
# 2 45.5772 30.0344 33.1531 0.0000 0.0000 0.0000
# 3 71.1454 33.1531 79.2911 0.0000 0.0000 0.0000
# 4 0.0000 0.0000 0.0000 -11.7381 0.0000 0.0000
# 5 0.0000 0.0000 0.0000 0.0000 16.3671 0.0000
# 6 0.0000 0.0000 0.0000 0.0000 0.0000 12.4202
#
#
#
# Elastic Compliance Matrix: (Units=1/GPa)
#
#
# Indices 1 2 3 4 5 6 
#
# 1 0.012895 -0.012622 -0.006293 0.000000 0.000000 0.000000
# 2 -0.012622 0.074188 -0.019694 0.000000 0.000000 0.000000
# 3 -0.006293 -0.019694 0.026493 0.000000 0.000000 0.000000
# 4 0.000000 0.000000 0.000000 -0.085192 0.000000 0.000000
# 5 0.000000 0.000000 0.000000 0.000000 0.061098 0.000000
# 6 0.000000 0.000000 0.000000 0.000000 0.000000 0.080514
#
#
# Mechanical properties :
#
#
# Convention : Reuss Voigt Hill
#
# Bulk Modulus (GPa) = 27.50436 62.88433 45.19435
# Shear Modulus (GPa) = 19.28032 11.16529 15.22281
#
# Velocity S-wave (km/s) = 3.41466 2.59851 3.03415
# Velocity P-wave (km/s) = 5.67274 6.85804 6.29335
#
# Compressibility (1/GPa) = 0.03635787
#
# Stress axis : x y z
#
# Youngs Moduli (GPa) = 77.55076 13.47928 37.74647
#
# Poissons Ratio (x) = 0.17013 0.23753
# Poissons Ratio (y) = 0.97882 0.74339
# Poissons Ratio (z) = 0.48800 0.26546
#
# Static dielectric constant tensor:
#      x y z
#    x 1.598760 0.000000 0.000000 
#    y 0.000000 1.557750 0.000000 
#    z 0.000000 0.000000 1.523500 
# 
# From -- ./inp_files/25490.got.cif
#   From: 2010.05.17/outbox.cif.g08.bks.cpg/sg51_13_cif.got.tgz:25490.got - 2010.06.03 11:52:47.
