data_PCOD9401401
_publ_section_title
;
Structure prediction by ZEFSAII (Michael W. Deem and Ramdas Pophale) SiO2 
 PCOD9401401
Probable space group: P M M A
;
_chemical_formula_sum "Si O2"
_cell_formula_units_Z 48
_cell_length_a 18.050349
_cell_length_b 9.357858
_cell_length_c 15.879232
_cell_angle_alpha 90.000000
_cell_angle_beta 90.000000
_cell_angle_gamma 90.000000
_cell_volume 2682.202407
_symmetry_space_group_name_H-M "P M M A"
_symmetry_group_IT_number 51
_symmetry_cell_setting 'orthorhombic'
loop_
_space_group_symop_operation_xyz
x,y,z
1/2-x,-y,z
1/2+x,-y,-z
-x,y,-z
-x,-y,-z
1/2+x,y,-z
1/2-x,y,z
x,-y,z
loop_
_atom_site_type_symbol
_atom_site_label
_atom_site_fract_x
_atom_site_fract_y
_atom_site_fract_z
Si Si1 0.413387 0.331633 0.667596
Si Si2 0.162628 0.670897 0.842753
Si Si3 0.591500 0.668211 0.667673
Si Si4 0.161774 0.168894 0.175609
Si Si5 0.090254 0.164359 0.500574
Si Si6 0.912768 0.170966 0.001751
O O1 0.398135 0.500000 0.653081
O O2 0.374891 0.287023 0.754364
O O3 0.502288 0.316258 0.676141
O O4 0.387755 0.241206 0.587175
O O5 0.250000 0.700492 0.840397
O O6 0.152300 0.500000 0.851921
O O7 0.125538 0.749999 0.920895
O O8 0.608084 0.500000 0.662787
O O9 0.629677 0.740729 0.747527
O O10 0.614128 0.747891 0.581664
O O11 0.250000 0.186473 0.169325
O O12 0.146085 0.000000 0.189679
O O13 0.124126 0.210760 0.087306
O O14 0.000000 0.165249 0.500000
O O15 0.114586 0.000000 0.496872
O O16 0.903806 0.000000 0.011977
O O17 0.000000 0.203193 0.000000
#
# Coordination Sequence:
#
# PCOD9401401 Si02
#       6
#     8   8   8   8   8   8
#     4   9  18  33  52  76 106 138 175 220 265 308
#     4  10  21  36  54  78 109 143 176 214 263 315
#     4  10  19  32  53  78 103 135 176 220 264 311
#     4  10  21  36  52  73 105 140 171 210 261 313
#     4   9  17  30  51  78 105 135 174 219 264 310
#     4  10  21  37  58  82 106 136 176 220 265 314
#
# _framework density 17.895741000000001
#
# number of rings (size 3 to 8) (size 9 to 14) (size 15 to 20)
#    0.000    2.333    0.000    2.500    0.000    5.667 
#    0.000    0.833    0.000    3.000    0.000    0.000 
#    0.000    0.000    0.000    0.000    0.000    0.000 
#
# Total GULP energy -267973.211406 kJ/mol
# GULP energy per Si atom -5582.775238 kJ/mol
# Density = 1.785501 g / cm^3
# Si number density = 17.895741 Si / 1000 Ang^3
#
#
#
# Elastic Constant Matrix: (Units=GPa)
#
#
# Indices 1 2 3 4 5 6 
#
# 1 50.6816 56.9475 76.2794 0.0000 0.0000 0.0000
# 2 56.9475 94.9085 110.9390 0.0000 0.0000 0.0000
# 3 76.2794 110.9390 220.6706 0.0000 0.0000 0.0000
# 4 0.0000 0.0000 0.0000 41.0806 0.0000 0.0000
# 5 0.0000 0.0000 0.0000 0.0000 -20.0638 0.0000
# 6 0.0000 0.0000 0.0000 0.0000 0.0000 10.6800
#
#
#
# Elastic Compliance Matrix: (Units=1/GPa)
#
#
# Indices 1 2 3 4 5 6 
#
# 1 0.064621 -0.030711 -0.006898 0.000000 0.000000 0.000000
# 2 -0.030711 0.040148 -0.009568 0.000000 0.000000 0.000000
# 3 -0.006898 -0.009568 0.011726 0.000000 0.000000 0.000000
# 4 0.000000 0.000000 0.000000 0.024342 0.000000 0.000000
# 5 0.000000 0.000000 0.000000 0.000000 -0.049841 0.000000
# 6 0.000000 0.000000 0.000000 0.000000 0.000000 0.093633
#
#
# Mechanical properties :
#
#
# Convention : Reuss Voigt Hill
#
# Bulk Modulus (GPa) = 45.16491 94.95472 70.05981
# Shear Modulus (GPa) = 17.46031 14.47901 15.96966
#
# Velocity S-wave (km/s) = 3.12696 2.84751 2.99050
# Velocity P-wave (km/s) = 6.19110 7.99914 7.15248
#
# Compressibility (1/GPa) = 0.02214108
#
# Stress axis : x y z
#
# Youngs Moduli (GPa) = 15.47480 24.90799 85.27961
#
# Poissons Ratio (x) = 0.76495 0.58826
# Poissons Ratio (y) = 0.47525 0.81593
# Poissons Ratio (z) = 0.10675 0.23831
#
# Static dielectric constant tensor:
#      x y z
#    x 1.591900 0.000000 0.000000 
#    y 0.000000 1.600070 0.000000 
#    z 0.000000 0.000000 1.575440 
# 
# From -- ./inp_files/24790.got.cif
#   From: 2010.05.17/outbox.cif.g08.bks.cpg/sg51_13_cif.got.tgz:24790.got - 2010.06.03 11:52:47.
