data_PCOD9401636
_publ_section_title
;
Structure prediction by ZEFSAII (Michael W. Deem and Ramdas Pophale) SiO2 
 PCOD9401636
Probable space group: P M M A
;
_chemical_formula_sum "Si O2"
_cell_formula_units_Z 56
_cell_length_a 8.914910
_cell_length_b 19.598327
_cell_length_c 18.831577
_cell_angle_alpha 90.000000
_cell_angle_beta 90.000000
_cell_angle_gamma 90.000000
_cell_volume 3290.202690
_symmetry_space_group_name_H-M "P M M A"
_symmetry_group_IT_number 51
_symmetry_cell_setting 'orthorhombic'
loop_
_space_group_symop_operation_xyz
x,y,z
1/2-x,-y,z
1/2+x,-y,-z
-x,y,-z
-x,-y,-z
1/2+x,y,-z
1/2-x,y,z
x,-y,z
loop_
_atom_site_type_symbol
_atom_site_label
_atom_site_fract_x
_atom_site_fract_y
_atom_site_fract_z
Si Si1 0.430544 0.921089 0.780348
Si Si2 0.572345 0.795976 0.704506
Si Si3 0.428442 0.279888 0.145803
Si Si4 0.430448 0.576047 0.649939
Si Si5 0.928462 0.153009 0.073814
Si Si6 0.430953 0.423829 0.193376
Si Si7 0.070238 0.714788 0.575806
O O1 0.250000 0.914196 0.773314
O O2 0.510341 0.869952 0.726196
O O3 0.470412 0.895081 0.859647
O O4 0.470494 0.000000 0.770837
O O5 0.750000 0.797879 0.691641
O O6 0.546544 0.748547 0.774120
O O7 0.488474 0.764323 0.637494
O O8 0.250000 0.275427 0.131553
O O9 0.513839 0.228599 0.094131
O O10 0.476693 0.358900 0.146332
O O11 0.250000 0.578813 0.657507
O O12 0.471111 0.500000 0.623843
O O13 0.501933 0.584376 0.727796
O O14 0.476118 0.638082 0.599593
O O15 0.750000 0.153321 0.067665
O O16 0.000000 0.130696 0.000000
O O17 0.250000 0.420925 0.199171
O O18 0.472524 0.500000 0.167854
O O19 0.250000 0.717528 0.572084
O O20 0.000000 0.731405 0.500000
#
# Coordination Sequence:
#
# PCOD9401636 Si02
#       7
#     8   8   8   8   8   8   8
#     4   9  19  36  57  81 108 138 168 198 240 295
#     4  10  19  33  53  77 103 131 169 212 252 299
#     4   9  17  30  49  72  99 131 168 210 252 298
#     4   9  18  31  46  67  97 132 170 213 260 308
#     4  10  20  33  51  76 106 139 170 202 242 291
#     4   9  16  27  46  71  97 127 165 211 260 304
#     4  11  22  34  50  71 100 137 176 217 262 307
#
# _framework density 17.020229
#
# number of rings (size 3 to 8) (size 9 to 14) (size 15 to 20)
#    0.000    2.429    1.429    1.286    0.000    3.143 
#    0.000    0.000    0.000    0.857    0.000    0.000 
#    0.000    0.000    0.000    0.000    0.000    0.000 
#
# Total GULP energy -312313.912599 kJ/mol
# GULP energy per Si atom -5577.034154 kJ/mol
# Density = 1.698149 g / cm^3
# Si number density = 17.020229 Si / 1000 Ang^3
#
#
#
# Elastic Constant Matrix: (Units=GPa)
#
#
# Indices 1 2 3 4 5 6 
#
# 1 29.9187 35.1279 27.0664 0.0000 0.0000 0.0000
# 2 35.1279 119.4056 34.0723 0.0000 0.0000 0.0000
# 3 27.0664 34.0723 56.9357 0.0000 0.0000 0.0000
# 4 0.0000 0.0000 0.0000 12.6223 0.0000 0.0000
# 5 0.0000 0.0000 0.0000 0.0000 27.7049 0.0000
# 6 0.0000 0.0000 0.0000 0.0000 0.0000 22.0662
#
#
#
# Elastic Compliance Matrix: (Units=1/GPa)
#
#
# Indices 1 2 3 4 5 6 
#
# 1 0.074446 -0.014233 -0.026873 0.000000 0.000000 0.000000
# 2 -0.014233 0.012821 -0.000906 0.000000 0.000000 0.000000
# 3 -0.026873 -0.000906 0.030881 0.000000 0.000000 0.000000
# 4 0.000000 0.000000 0.000000 0.079225 0.000000 0.000000
# 5 0.000000 0.000000 0.000000 0.000000 0.036095 0.000000
# 6 0.000000 0.000000 0.000000 0.000000 0.000000 0.045318
#
#
# Mechanical properties :
#
#
# Convention : Reuss Voigt Hill
#
# Bulk Modulus (GPa) = 29.30548 44.31036 36.80792
# Shear Modulus (GPa) = 13.36239 19.81157 16.58698
#
# Velocity S-wave (km/s) = 2.80498 3.41545 3.12516
# Velocity P-wave (km/s) = 5.26745 6.45323 5.89025
#
# Compressibility (1/GPa) = 0.03412331
#
# Stress axis : x y z
#
# Youngs Moduli (GPa) = 13.43250 77.99945 32.38241
#
# Poissons Ratio (x) = 1.11018 0.87022
# Poissons Ratio (y) = 0.19119 0.02934
# Poissons Ratio (z) = 0.36097 0.07067
#
# Static dielectric constant tensor:
#      x y z
#    x 1.562910 0.000000 0.000000 
#    y 0.000000 1.592210 0.000000 
#    z 0.000000 0.000000 1.541510 
# 
# From -- ./inp_files/28163.got.cif
#   From: 2010.05.17/outbox.cif.g08.bks.cpg/sg51_15_cif.got.tgz:28163.got - 2010.06.03 11:52:47.
