data_PCOD9401805
_publ_section_title
;
Structure prediction by ZEFSAII (Michael W. Deem and Ramdas Pophale) SiO2 
 PCOD9401805
Probable space group: P M M A
;
_chemical_formula_sum "Si O2"
_cell_formula_units_Z 64
_cell_length_a 18.356109
_cell_length_b 8.737606
_cell_length_c 22.207841
_cell_angle_alpha 90.000000
_cell_angle_beta 90.000000
_cell_angle_gamma 90.000000
_cell_volume 3561.881154
_symmetry_space_group_name_H-M "P M M A"
_symmetry_group_IT_number 51
_symmetry_cell_setting 'orthorhombic'
loop_
_space_group_symop_operation_xyz
x,y,z
1/2-x,-y,z
1/2+x,-y,-z
-x,y,-z
-x,-y,-z
1/2+x,y,-z
1/2-x,y,z
x,-y,z
loop_
_atom_site_type_symbol
_atom_site_label
_atom_site_fract_x
_atom_site_fract_y
_atom_site_fract_z
Si Si1 0.168493 0.684404 0.624308
Si Si2 0.042941 0.815904 0.310560
Si Si3 0.411062 0.818048 0.877657
Si Si4 0.833895 0.815395 0.778052
Si Si5 0.099389 0.317369 0.750430
Si Si6 0.926472 0.316222 0.888510
Si Si7 0.026103 0.815484 0.565192
Si Si8 0.165973 0.684388 0.993911
O O1 0.250000 0.733692 0.608422
O O2 0.164409 0.500000 0.620135
O O3 0.150489 0.724109 0.693886
O O4 0.105433 0.755093 0.583562
O O5 0.121123 0.778252 0.282557
O O6 0.980885 0.737582 0.269964
O O7 0.027328 0.771152 0.379565
O O8 0.033125 0.000000 0.306148
O O9 0.381737 0.759411 0.813471
O O10 0.492963 0.753068 0.884911
O O11 0.362923 0.757648 0.932691
O O12 0.413759 0.000000 0.877855
O O13 0.750000 0.765923 0.776470
O O14 0.877453 0.742187 0.833362
O O15 0.835447 0.000000 0.784971
O O16 0.099839 0.500000 0.757597
O O17 0.932029 0.500000 0.886207
O O18 0.885923 0.272209 0.950444
O O19 0.000000 0.760420 0.500000
O O20 0.028443 0.000000 0.563677
O O21 0.250000 0.726596 0.006006
O O22 0.162584 0.500000 0.988184
#
# Coordination Sequence:
#
# PCOD9401805 Si02
#       8
#     8   8   8   8   8   8   8   8
#     4   9  19  35  55  81 112 145 184 229 276 325
#     4   9  17  32  52  75 108 144 178 220 269 323
#     4  12  24  37  56  83 112 143 180 224 274 330
#     4  10  20  33  52  79 109 141 177 223 280 333
#     4  10  19  33  55  80 105 140 181 223 272 325
#     4  11  22  38  60  82 105 139 184 229 273 325
#     4   9  18  33  54  81 112 149 190 229 267 315
#     4  10  23  42  59  77 105 141 181 227 277 326
#
# _framework density 17.968033999999999
#
# number of rings (size 3 to 8) (size 9 to 14) (size 15 to 20)
#    0.000    2.000    1.250    2.625    0.000    5.000 
#    0.000    1.875    0.000    2.250    0.000    0.000 
#    0.000    0.000    0.000    0.000    0.000    0.000 
#
# Total GULP energy -357322.589837 kJ/mol
# GULP energy per Si atom -5583.165466 kJ/mol
# Density = 1.792714 g / cm^3
# Si number density = 17.968034 Si / 1000 Ang^3
#
#
#
# Elastic Constant Matrix: (Units=GPa)
#
#
# Indices 1 2 3 4 5 6 
#
# 1 56.5615 13.9616 34.2821 0.0000 0.0000 0.0000
# 2 13.9616 20.6112 27.5477 0.0000 0.0000 0.0000
# 3 34.2821 27.5477 131.9400 0.0000 0.0000 0.0000
# 4 0.0000 0.0000 0.0000 24.9131 0.0000 0.0000
# 5 0.0000 0.0000 0.0000 0.0000 17.9001 0.0000
# 6 0.0000 0.0000 0.0000 0.0000 0.0000 25.6067
#
#
#
# Elastic Compliance Matrix: (Units=1/GPa)
#
#
# Indices 1 2 3 4 5 6 
#
# 1 0.022452 -0.010280 -0.003687 0.000000 0.000000 0.000000
# 2 -0.010280 0.072004 -0.012363 0.000000 0.000000 0.000000
# 3 -0.003687 -0.012363 0.011118 0.000000 0.000000 0.000000
# 4 0.000000 0.000000 0.000000 0.040140 0.000000 0.000000
# 5 0.000000 0.000000 0.000000 0.000000 0.055866 0.000000
# 6 0.000000 0.000000 0.000000 0.000000 0.000000 0.039052
#
#
# Mechanical properties :
#
#
# Convention : Reuss Voigt Hill
#
# Bulk Modulus (GPa) = 18.89850 40.07728 29.48789
# Shear Modulus (GPa) = 16.08073 22.57208 19.32641
#
# Velocity S-wave (km/s) = 2.99484 3.54819 3.28319
# Velocity P-wave (km/s) = 4.74336 6.25615 5.55152
#
# Compressibility (1/GPa) = 0.05291427
#
# Stress axis : x y z
#
# Youngs Moduli (GPa) = 44.53864 13.88809 89.94043
#
# Poissons Ratio (x) = 0.14278 0.33164
# Poissons Ratio (y) = 0.45788 1.11189
# Poissons Ratio (z) = 0.16423 0.17169
#
# Static dielectric constant tensor:
#      x y z
#    x 1.597720 0.000000 0.000000 
#    y 0.000000 1.605850 0.000000 
#    z 0.000000 0.000000 1.607950 
# 
# From -- ./inp_files/33870.got.cif
#   From: 2010.05.17/outbox.cif.g08.bks.cpg/sg51_17_cif.got.tgz:33870.got - 2010.06.03 11:52:47.
