data_PCOD9401120
_publ_section_title
;
Structure prediction by ZEFSAII (Michael W. Deem and Ramdas Pophale) SiO2 
 PCOD9401120
Probable space group: P M M A
;
_chemical_formula_sum "Si O2"
_cell_formula_units_Z 52
_cell_length_a 8.683508
_cell_length_b 15.744377
_cell_length_c 23.594935
_cell_angle_alpha 90.000000
_cell_angle_beta 90.000000
_cell_angle_gamma 90.000000
_cell_volume 3225.815129
_symmetry_space_group_name_H-M "P M M A"
_symmetry_group_IT_number 51
_symmetry_cell_setting 'orthorhombic'
loop_
_space_group_symop_operation_xyz
x,y,z
1/2-x,-y,z
1/2+x,-y,-z
-x,y,-z
-x,-y,-z
1/2+x,y,-z
1/2-x,y,z
x,-y,z
loop_
_atom_site_type_symbol
_atom_site_label
_atom_site_fract_x
_atom_site_fract_y
_atom_site_fract_z
Si Si1 0.566242 0.500000 0.062694
Si Si2 0.933455 0.674399 0.893188
Si Si3 0.436843 0.093373 0.815447
Si Si4 0.935437 0.272843 0.227416
Si Si5 0.933754 0.400850 0.679966
Si Si6 0.434569 0.844337 0.940522
Si Si7 0.574388 0.397190 0.441390
O O1 0.750000 0.500000 0.062816
O O2 0.501621 0.416089 0.091494
O O3 0.500000 0.500000 0.000000
O O4 0.750000 0.675943 0.899139
O O5 0.985033 0.692798 0.829266
O O6 0.006732 0.748054 0.931937
O O7 0.250000 0.092310 0.816140
O O8 0.479276 0.172483 0.775102
O O9 0.482975 0.110952 0.881219
O O10 0.491708 0.000000 0.798067
O O11 0.750000 0.278052 0.222363
O O12 0.989509 0.332092 0.278737
O O13 0.750000 0.398061 0.686792
O O14 0.982752 0.500000 0.690787
O O15 0.979187 0.379225 0.615326
O O16 0.250000 0.846308 0.943021
O O17 0.500000 0.878423 0.000000
O O18 0.500000 0.366061 0.500000
O O19 0.750000 0.367331 0.435509
O O20 0.578702 0.500000 0.445273
#
# Coordination Sequence:
#
# PCOD9401120 Si02
#       7
#     4   8   8   8   8   8   8
#     4  12  24  38  52  68  88 114 153 196 237 284
#     4  11  22  36  51  67  90 120 154 193 238 285
#     4   8  16  32  52  72  94 121 154 194 243 296
#     4  10  20  34  52  73  97 126 160 201 244 288
#     4  10  20  32  47  69 100 137 174 208 241 281
#     4  10  19  32  50  71  94 119 148 185 234 289
#     4   9  16  27  44  67  97 133 172 209 245 282
#
# _framework density 16.119956999999999
#
# number of rings (size 3 to 8) (size 9 to 14) (size 15 to 20)
#    0.000    2.154    0.000    5.308    1.077    3.077 
#    0.000    0.000    0.000   16.154    0.000    0.000 
#    0.000    0.615    0.000    1.692    0.000    2.462 
#
# Total GULP energy -289930.019282 kJ/mol
# GULP energy per Si atom -5575.577294 kJ/mol
# Density = 1.608327 g / cm^3
# Si number density = 16.119957 Si / 1000 Ang^3
#
#
#
# Elastic Constant Matrix: (Units=GPa)
#
#
# Indices 1 2 3 4 5 6 
#
# 1 66.2794 20.0355 15.6308 0.0000 0.0000 0.0000
# 2 20.0355 105.1448 38.9486 0.0000 0.0000 0.0000
# 3 15.6308 38.9486 75.5673 0.0000 0.0000 0.0000
# 4 0.0000 0.0000 0.0000 4.9313 0.0000 0.0000
# 5 0.0000 0.0000 0.0000 0.0000 30.1979 0.0000
# 6 0.0000 0.0000 0.0000 0.0000 0.0000 7.7099
#
#
#
# Elastic Compliance Matrix: (Units=1/GPa)
#
#
# Indices 1 2 3 4 5 6 
#
# 1 0.016297 -0.002295 -0.002188 0.000000 0.000000 0.000000
# 2 -0.002295 0.012078 -0.005751 0.000000 0.000000 0.000000
# 3 -0.002188 -0.005751 0.016650 0.000000 0.000000 0.000000
# 4 0.000000 0.000000 0.000000 0.202785 0.000000 0.000000
# 5 0.000000 0.000000 0.000000 0.000000 0.033115 0.000000
# 6 0.000000 0.000000 0.000000 0.000000 0.000000 0.129703
#
#
# Mechanical properties :
#
#
# Convention : Reuss Voigt Hill
#
# Bulk Modulus (GPa) = 40.72001 44.02458 42.37230
# Shear Modulus (GPa) = 11.38222 20.05961 15.72091
#
# Velocity S-wave (km/s) = 2.66013 3.53143 3.12628
# Velocity P-wave (km/s) = 5.89495 6.63309 6.27488
#
# Compressibility (1/GPa) = 0.02455795
#
# Stress axis : x y z
#
# Youngs Moduli (GPa) = 61.35937 82.79395 60.06079
#
# Poissons Ratio (x) = 0.19001 0.13143
# Poissons Ratio (y) = 0.14081 0.34538
# Poissons Ratio (z) = 0.13427 0.47611
#
# Static dielectric constant tensor:
#      x y z
#    x 1.542440 0.000000 0.000000 
#    y 0.000000 1.538760 0.000000 
#    z 0.000000 0.000000 1.530960 
# 
# From -- ./inp_files/34714.got.cif
#   From: 2010.05.17/outbox.cif.g08.bks.cpg/sg51_18_cif.got.tgz:34714.got - 2010.06.03 11:52:47.
