data_PCOD9401059
_publ_section_title
;
Structure prediction by ZEFSAII (Michael W. Deem and Ramdas Pophale) SiO2 
 PCOD9401059
Probable space group: P M M A
;
_chemical_formula_sum "Si O2"
_cell_formula_units_Z 40
_cell_length_a 10.053955
_cell_length_b 13.649780
_cell_length_c 16.333127
_cell_angle_alpha 90.000000
_cell_angle_beta 90.000000
_cell_angle_gamma 90.000000
_cell_volume 2241.464824
_symmetry_space_group_name_H-M "P M M A"
_symmetry_group_IT_number 51
_symmetry_cell_setting 'orthorhombic'
loop_
_space_group_symop_operation_xyz
x,y,z
1/2-x,-y,z
1/2+x,-y,-z
-x,y,-z
-x,-y,-z
1/2+x,y,-z
1/2-x,y,z
x,-y,z
loop_
_atom_site_type_symbol
_atom_site_label
_atom_site_fract_x
_atom_site_fract_y
_atom_site_fract_z
Si Si1 0.960512 0.616252 0.810260
Si Si2 0.250000 0.382259 0.051789
Si Si3 0.250000 0.618050 0.868781
Si Si4 0.595651 0.117853 0.572828
Si Si5 0.097276 0.811766 0.253441
Si Si6 0.906064 0.881480 0.924529
O O1 0.943285 0.500000 0.793397
O O2 0.879343 0.639046 0.893763
O O3 0.906018 0.693826 0.745856
O O4 0.114322 0.640899 0.823299
O O5 0.250000 0.500000 0.043848
O O6 0.250000 0.341498 0.960861
O O7 0.250000 0.500000 0.875505
O O8 0.500000 0.152772 0.500000
O O9 0.750000 0.151866 0.564523
O O10 0.540616 0.147915 0.662137
O O11 0.598791 0.000000 0.569952
O O12 0.250000 0.847207 0.252052
O O13 0.043544 0.846008 0.164914
O O14 0.750000 0.850814 0.934243
O O15 0.907005 0.000000 0.923677
O O16 0.000000 0.849484 0.000000
#
# Coordination Sequence:
#
# PCOD9401059 Si02
#       6
#     8   4   4   8   8   8
#     4  10  19  32  47  68  97 133 173 211 254 298
#     4   9  16  28  46  64  88 127 176 218 250 289
#     4   9  18  30  44  64  94 131 172 222 266 287
#     4   9  18  35  59  83 105 127 157 204 259 310
#     4  10  19  33  52  76 100 134 172 205 247 301
#     4   9  18  33  50  69  98 136 173 206 242 290
#
# _framework density 17.845472000000001
#
# number of rings (size 3 to 8) (size 9 to 14) (size 15 to 20)
#    0.000    2.600    1.000    1.200    0.000    6.400 
#    3.600    0.000    0.000    5.400    0.000    0.000 
#    0.000    0.000    0.000    0.000    0.000    0.000 
#
# Total GULP energy -222838.392654 kJ/mol
# GULP energy per Si atom -5570.959816 kJ/mol
# Density = 1.780485 g / cm^3
# Si number density = 17.845472 Si / 1000 Ang^3
#
#
#
# Elastic Constant Matrix: (Units=GPa)
#
#
# Indices 1 2 3 4 5 6 
#
# 1 75.1639 8.9301 42.9023 0.0000 0.0000 0.0000
# 2 8.9301 35.6939 23.2039 0.0000 0.0000 0.0000
# 3 42.9023 23.2039 132.1790 0.0000 0.0000 0.0000
# 4 0.0000 0.0000 0.0000 16.7495 0.0000 0.0000
# 5 0.0000 0.0000 0.0000 0.0000 24.5042 0.0000
# 6 0.0000 0.0000 0.0000 0.0000 0.0000 18.1354
#
#
#
# Elastic Compliance Matrix: (Units=1/GPa)
#
#
# Indices 1 2 3 4 5 6 
#
# 1 0.016346 -0.000723 -0.005179 0.000000 0.000000 0.000000
# 2 -0.000723 0.031657 -0.005323 0.000000 0.000000 0.000000
# 3 -0.005179 -0.005323 0.010181 0.000000 0.000000 0.000000
# 4 0.000000 0.000000 0.000000 0.059703 0.000000 0.000000
# 5 0.000000 0.000000 0.000000 0.000000 0.040809 0.000000
# 6 0.000000 0.000000 0.000000 0.000000 0.000000 0.055141
#
#
# Mechanical properties :
#
#
# Convention : Reuss Voigt Hill
#
# Bulk Modulus (GPa) = 27.98362 43.67879 35.83121
# Shear Modulus (GPa) = 20.14524 23.07786 21.61155
#
# Velocity S-wave (km/s) = 3.36351 3.60002 3.48377
# Velocity P-wave (km/s) = 5.54972 6.46602 6.02531
#
# Compressibility (1/GPa) = 0.03573519
#
# Stress axis : x y z
#
# Youngs Moduli (GPa) = 61.17692 31.58855 98.22456
#
# Poissons Ratio (x) = 0.02284 0.50867
# Poissons Ratio (y) = 0.04423 0.52282
# Poissons Ratio (z) = 0.31681 0.16814
#
# Static dielectric constant tensor:
#      x y z
#    x 2.555400 0.000000 0.000000 
#    y 0.000000 1.653120 0.000000 
#    z 0.000000 0.000000 1.609300 
# 
# From -- ./inp_files/20538.got.cif
#   From: 2010.05.17/outbox.cif.g08.bks.cpg/sg51_11_cif.got.tgz:20538.got - 2010.06.03 11:52:47.
