data_PCOD9401671
_publ_section_title
;
Structure prediction by ZEFSAII (Michael W. Deem and Ramdas Pophale) SiO2 
 PCOD9401671
Probable space group: P M M A
;
_chemical_formula_sum "Si O2"
_cell_formula_units_Z 64
_cell_length_a 21.124082
_cell_length_b 8.513469
_cell_length_c 20.119192
_cell_angle_alpha 90.000000
_cell_angle_beta 90.000000
_cell_angle_gamma 90.000000
_cell_volume 3618.219741
_symmetry_space_group_name_H-M "P M M A"
_symmetry_group_IT_number 51
_symmetry_cell_setting 'orthorhombic'
loop_
_space_group_symop_operation_xyz
x,y,z
1/2-x,-y,z
1/2+x,-y,-z
-x,y,-z
-x,-y,-z
1/2+x,y,-z
1/2-x,y,z
x,-y,z
loop_
_atom_site_type_symbol
_atom_site_label
_atom_site_fract_x
_atom_site_fract_y
_atom_site_fract_z
Si Si1 0.820489 0.309745 0.537135
Si Si2 0.632697 0.309659 0.679404
Si Si3 0.560127 0.312947 0.045507
Si Si4 0.365578 0.687170 0.173444
Si Si5 0.992768 0.184663 0.177379
Si Si6 0.821114 0.813046 0.965003
Si Si7 0.939584 0.812033 0.455817
Si Si8 0.515289 0.312244 0.318026
O O1 0.750000 0.265356 0.515196
O O2 0.825114 0.500000 0.536138
O O3 0.830930 0.257870 0.613740
O O4 0.876019 0.241808 0.492229
O O5 0.635686 0.500000 0.680961
O O6 0.654646 0.258044 0.752632
O O7 0.558710 0.266731 0.671589
O O8 0.556875 0.500000 0.054716
O O9 0.551782 0.230152 0.116261
O O10 0.500000 0.265298 0.000000
O O11 0.624133 0.268106 0.007690
O O12 0.355726 0.500000 0.168106
O O13 0.440829 0.722379 0.169040
O O14 0.332260 0.770149 0.112103
O O15 0.965091 0.234021 0.248696
O O16 0.006673 0.000000 0.176512
O O17 0.750000 0.764528 0.984196
O O18 0.826848 0.000000 0.972945
O O19 0.946777 0.741712 0.382427
O O20 0.000000 0.758982 0.500000
O O21 0.941518 0.000000 0.451660
O O22 0.517816 0.500000 0.311262
#
# Coordination Sequence:
#
# PCOD9401671 Si02
#       8
#     8   8   8   8   8   8   8   8
#     4  10  20  35  55  79 108 147 191 231 277 332
#     4   8  16  30  50  77 108 142 183 228 268 317
#     4  11  22  37  60  86 111 145 192 237 276 329
#     4  10  19  33  53  80 111 150 194 230 271 326
#     4  11  21  34  56  85 118 147 178 228 286 334
#     4  11  24  39  55  80 114 152 191 233 286 340
#     4  11  22  35  54  82 112 145 187 232 283 333
#     4  10  19  34  57  82 111 145 186 231 277 327
#
# _framework density 17.688255999999999
#
# number of rings (size 3 to 8) (size 9 to 14) (size 15 to 20)
#    0.000    1.750    2.500    3.750    0.000    2.750 
#    0.000    1.875    0.000    0.750    0.000    0.000 
#    0.000    0.000    0.000    0.000    0.000    0.000 
#
# Total GULP energy -357393.455843 kJ/mol
# GULP energy per Si atom -5584.272748 kJ/mol
# Density = 1.764800 g / cm^3
# Si number density = 17.688256 Si / 1000 Ang^3
#
#
#
# Elastic Constant Matrix: (Units=GPa)
#
#
# Indices 1 2 3 4 5 6 
#
# 1 86.1555 12.7614 45.0041 0.0000 0.0000 0.0000
# 2 12.7614 32.2417 18.2296 0.0000 0.0000 0.0000
# 3 45.0041 18.2296 109.6992 0.0000 0.0000 0.0000
# 4 0.0000 0.0000 0.0000 19.4776 0.0000 0.0000
# 5 0.0000 0.0000 0.0000 0.0000 20.9471 0.0000
# 6 0.0000 0.0000 0.0000 0.0000 0.0000 14.2530
#
#
#
# Elastic Compliance Matrix: (Units=1/GPa)
#
#
# Indices 1 2 3 4 5 6 
#
# 1 0.014984 -0.002710 -0.005697 0.000000 0.000000 0.000000
# 2 -0.002710 0.034722 -0.004658 0.000000 0.000000 0.000000
# 3 -0.005697 -0.004658 0.012227 0.000000 0.000000 0.000000
# 4 0.000000 0.000000 0.000000 0.051341 0.000000 0.000000
# 5 0.000000 0.000000 0.000000 0.000000 0.047739 0.000000
# 6 0.000000 0.000000 0.000000 0.000000 0.000000 0.070161
#
#
# Mechanical properties :
#
#
# Convention : Reuss Voigt Hill
#
# Bulk Modulus (GPa) = 27.93042 42.23185 35.08113
# Shear Modulus (GPa) = 18.57085 21.07562 19.82323
#
# Velocity S-wave (km/s) = 3.24373 3.45556 3.35132
# Velocity P-wave (km/s) = 5.46385 6.31258 5.90349
#
# Compressibility (1/GPa) = 0.03580326
#
# Stress axis : x y z
#
# Youngs Moduli (GPa) = 66.73729 28.80011 81.78540
#
# Poissons Ratio (x) = 0.07804 0.46593
# Poissons Ratio (y) = 0.18084 0.38099
# Poissons Ratio (z) = 0.38020 0.13416
#
# Static dielectric constant tensor:
#      x y z
#    x 1.589830 0.000000 0.000000 
#    y 0.000000 1.597130 0.000000 
#    z 0.000000 0.000000 1.604960 
# 
# From -- ./inp_files/30515.got.cif
#   From: 2010.05.17/outbox.cif.g08.bks.cpg/sg51_16_cif.got.tgz:30515.got - 2010.06.03 11:52:47.
