data_PCOD9401085
_publ_section_title
;
Structure prediction by ZEFSAII (Michael W. Deem and Ramdas Pophale) SiO2 
 PCOD9401085
Probable space group: P M M A
;
_chemical_formula_sum "Si O2"
_cell_formula_units_Z 52
_cell_length_a 8.765020
_cell_length_b 19.053235
_cell_length_c 19.341897
_cell_angle_alpha 90.000000
_cell_angle_beta 90.000000
_cell_angle_gamma 90.000000
_cell_volume 3230.135209
_symmetry_space_group_name_H-M "P M M A"
_symmetry_group_IT_number 51
_symmetry_cell_setting 'orthorhombic'
loop_
_space_group_symop_operation_xyz
x,y,z
1/2-x,-y,z
1/2+x,-y,-z
-x,y,-z
-x,-y,-z
1/2+x,y,-z
1/2-x,y,z
x,-y,z
loop_
_atom_site_type_symbol
_atom_site_label
_atom_site_fract_x
_atom_site_fract_y
_atom_site_fract_z
Si Si1 0.067411 0.795374 0.339651
Si Si2 0.067234 0.419968 0.705196
Si Si3 0.932981 0.655607 0.077011
Si Si4 0.066483 0.500000 0.923023
Si Si5 0.066852 0.652839 0.423499
Si Si6 0.067494 0.709122 0.209570
Si Si7 0.432152 0.919294 0.574920
O O1 0.250000 0.804522 0.340645
O O2 0.032546 0.729301 0.389980
O O3 0.021972 0.771016 0.262551
O O4 0.989731 0.864622 0.368565
O O5 0.250000 0.411500 0.709872
O O6 0.030309 0.500000 0.724782
O O7 0.010190 0.403219 0.627756
O O8 0.987443 0.361839 0.752399
O O9 0.750000 0.658469 0.073512
O O10 0.978662 0.576806 0.103807
O O11 0.995345 0.709209 0.133745
O O12 0.000000 0.664743 0.000000
O O13 0.250000 0.500000 0.923753
O O14 0.000000 0.500000 0.000000
O O15 0.250000 0.644127 0.423507
O O16 0.000000 0.648508 0.500000
O O17 0.250000 0.708581 0.204633
O O18 0.500000 0.899860 0.500000
O O19 0.250000 0.916687 0.570535
O O20 0.478549 0.000000 0.589359
#
# Coordination Sequence:
#
# PCOD9401085 Si02
#       7
#     8   8   8   4   8   8   8
#     4   9  19  34  50  69  95 126 160 195 232 280
#     4  10  21  35  49  65  86 115 154 198 244 291
#     4  10  19  32  49  70  96 125 159 199 243 291
#     4   8  16  28  42  62  88 116 149 188 233 284
#     4  10  20  33  49  68  89 116 154 196 240 286
#     4  10  21  35  50  70  94 124 160 197 241 290
#     4  10  20  32  49  75 104 133 164 196 233 278
#
# _framework density 16.098398
#
# number of rings (size 3 to 8) (size 9 to 14) (size 15 to 20)
#    0.000    2.308    0.000    3.692    1.077    8.000 
#    0.000    0.000    0.000    0.000    0.000    0.000 
#    0.000    0.615    0.000    2.000    0.000    2.923 
#
# Total GULP energy -290034.211069 kJ/mol
# GULP energy per Si atom -5577.580982 kJ/mol
# Density = 1.606176 g / cm^3
# Si number density = 16.098398 Si / 1000 Ang^3
#
#
#
# Elastic Constant Matrix: (Units=GPa)
#
#
# Indices 1 2 3 4 5 6 
#
# 1 38.0853 30.0734 32.2837 0.0000 0.0000 0.0000
# 2 30.0734 73.5351 44.8874 0.0000 0.0000 0.0000
# 3 32.2837 44.8874 115.3370 0.0000 0.0000 0.0000
# 4 0.0000 0.0000 0.0000 22.0040 0.0000 0.0000
# 5 0.0000 0.0000 0.0000 0.0000 28.2538 0.0000
# 6 0.0000 0.0000 0.0000 0.0000 0.0000 22.9864
#
#
#
# Elastic Compliance Matrix: (Units=1/GPa)
#
#
# Indices 1 2 3 4 5 6 
#
# 1 0.042407 -0.013244 -0.006716 0.000000 0.000000 0.000000
# 2 -0.013244 0.021972 -0.004844 0.000000 0.000000 0.000000
# 3 -0.006716 -0.004844 0.012435 0.000000 0.000000 0.000000
# 4 0.000000 0.000000 0.000000 0.045446 0.000000 0.000000
# 5 0.000000 0.000000 0.000000 0.000000 0.035393 0.000000
# 6 0.000000 0.000000 0.000000 0.000000 0.000000 0.043504
#
#
# Mechanical properties :
#
#
# Convention : Reuss Voigt Hill
#
# Bulk Modulus (GPa) = 36.75481 49.04958 42.90220
# Shear Modulus (GPa) = 19.24296 22.62971 20.93634
#
# Velocity S-wave (km/s) = 3.46111 3.75335 3.61019
# Velocity P-wave (km/s) = 6.23324 7.02270 6.63971
#
# Compressibility (1/GPa) = 0.02720732
#
# Stress axis : x y z
#
# Youngs Moduli (GPa) = 23.58083 45.51209 80.41567
#
# Poissons Ratio (x) = 0.60275 0.54006
# Poissons Ratio (y) = 0.31230 0.38955
# Poissons Ratio (z) = 0.15837 0.22047
#
# Static dielectric constant tensor:
#      x y z
#    x 1.518320 0.000000 0.000000 
#    y 0.000000 1.538000 0.000000 
#    z 0.000000 0.000000 1.548380 
# 
# From -- ./inp_files/27915.got.cif
#   From: 2010.05.17/outbox.cif.g08.bks.cpg/sg51_14_cif.got.tgz:27915.got - 2010.06.03 11:52:47.
