data_PCOD9401170
_publ_section_title
;
Structure prediction by ZEFSAII (Michael W. Deem and Ramdas Pophale) SiO2 
 PCOD9401170
Probable space group: P M M A
;
_chemical_formula_sum "Si O2"
_cell_formula_units_Z 64
_cell_length_a 9.461133
_cell_length_b 19.408536
_cell_length_c 20.041248
_cell_angle_alpha 90.000000
_cell_angle_beta 90.000000
_cell_angle_gamma 90.000000
_cell_volume 3680.109044
_symmetry_space_group_name_H-M "P M M A"
_symmetry_group_IT_number 51
_symmetry_cell_setting 'orthorhombic'
loop_
_space_group_symop_operation_xyz
x,y,z
1/2-x,-y,z
1/2+x,-y,-z
-x,y,-z
-x,-y,-z
1/2+x,y,-z
1/2-x,y,z
x,-y,z
loop_
_atom_site_type_symbol
_atom_site_label
_atom_site_fract_x
_atom_site_fract_y
_atom_site_fract_z
Si Si1 0.913016 0.421084 0.093394
Si Si2 0.409449 0.269595 0.562096
Si Si3 0.086609 0.192688 0.198507
Si Si4 0.590163 0.309161 0.687955
Si Si5 0.918436 0.920019 0.282246
Si Si6 0.578947 0.719526 0.933822
Si Si7 0.588181 0.103682 0.435314
Si Si8 0.095898 0.421245 0.746143
O O1 0.750000 0.408508 0.070252
O O2 0.952498 0.500000 0.073760
O O3 0.908827 0.420844 0.173769
O O4 0.016357 0.358225 0.075091
O O5 0.500000 0.295142 0.500000
O O6 0.250000 0.294933 0.559109
O O7 0.485651 0.289282 0.629557
O O8 0.407359 0.186508 0.559886
O O9 0.250000 0.169933 0.190654
O O10 0.083175 0.252333 0.254222
O O11 0.043769 0.231066 0.129541
O O12 0.995040 0.130998 0.230429
O O13 0.750000 0.312878 0.663256
O O14 0.534569 0.379572 0.718651
O O15 0.750000 0.904626 0.282546
O O16 0.966515 0.912215 0.360225
O O17 0.938353 0.000000 0.263758
O O18 0.750000 0.717280 0.939766
O O19 0.500000 0.746340 0.000000
O O20 0.500000 0.079705 0.500000
O O21 0.750000 0.078582 0.439346
O O22 0.250000 0.391149 0.726718
O O23 0.091655 0.500000 0.723875
#
# Coordination Sequence:
#
# PCOD9401170 Si02
#       8
#     8   8   8   8   8   8   8   8
#     4   9  18  33  53  79 112 149 186 222 263 317
#     4  10  19  32  50  75 106 143 181 225 274 321
#     4  10  22  38  56  81 111 139 178 224 269 320
#     4  11  20  32  53  80 107 140 181 229 273 319
#     4  10  21  37  57  82 111 144 183 224 270 323
#     4  11  23  39  57  82 111 145 183 225 273 324
#     4   9  18  31  48  74 109 146 181 217 257 308
#     4   9  18  32  51  77 108 142 181 223 269 321
#
# _framework density 17.390789999999999
#
# number of rings (size 3 to 8) (size 9 to 14) (size 15 to 20)
#    0.000    2.125    2.500    1.875    0.000    3.750 
#    0.000    1.250    0.000    0.750    0.000    0.000 
#    0.000    0.000    0.000    0.000    0.000    0.000 
#
# Total GULP energy -356713.509382 kJ/mol
# GULP energy per Si atom -5573.648584 kJ/mol
# Density = 1.735121 g / cm^3
# Si number density = 17.390790 Si / 1000 Ang^3
#
#
#
# Elastic Constant Matrix: (Units=GPa)
#
#
# Indices 1 2 3 4 5 6 
#
# 1 106.3379 47.8001 63.2902 0.0000 0.0000 0.0000
# 2 47.8001 70.0257 43.1137 0.0000 0.0000 0.0000
# 3 63.2902 43.1137 115.5911 0.0000 0.0000 0.0000
# 4 0.0000 0.0000 0.0000 12.4333 0.0000 0.0000
# 5 0.0000 0.0000 0.0000 0.0000 30.0026 0.0000
# 6 0.0000 0.0000 0.0000 0.0000 0.0000 126.0045
#
#
#
# Elastic Compliance Matrix: (Units=1/GPa)
#
#
# Indices 1 2 3 4 5 6 
#
# 1 0.016438 -0.007372 -0.006251 0.000000 0.000000 0.000000
# 2 -0.007372 0.021844 -0.004111 0.000000 0.000000 0.000000
# 3 -0.006251 -0.004111 0.013607 0.000000 0.000000 0.000000
# 4 0.000000 0.000000 0.000000 0.080429 0.000000 0.000000
# 5 0.000000 0.000000 0.000000 0.000000 0.033330 0.000000
# 6 0.000000 0.000000 0.000000 0.000000 0.000000 0.007936
#
#
# Mechanical properties :
#
#
# Convention : Reuss Voigt Hill
#
# Bulk Modulus (GPa) = 60.89675 66.70697 63.80186
# Shear Modulus (GPa) = 23.30718 42.87147 33.08932
#
# Velocity S-wave (km/s) = 3.66485 4.97045 4.36672
# Velocity P-wave (km/s) = 7.28017 8.44875 7.88613
#
# Compressibility (1/GPa) = 0.01642124
#
# Stress axis : x y z
#
# Youngs Moduli (GPa) = 60.83368 45.77944 73.49192
#
# Poissons Ratio (x) = 0.33750 0.45938
# Poissons Ratio (y) = 0.44849 0.30211
# Poissons Ratio (z) = 0.38025 0.18819
#
# Static dielectric constant tensor:
#      x y z
#    x 1.624550 0.000000 0.000000 
#    y 0.000000 1.593850 0.000000 
#    z 0.000000 0.000000 1.600090 
# 
# From -- ./inp_files/32298.got.cif
#   From: 2010.05.17/outbox.cif.g08.bks.cpg/sg51_17_cif.got.tgz:32298.got - 2010.06.03 11:52:47.
