data_PCOD9401709
_publ_section_title
;
Structure prediction by ZEFSAII (Michael W. Deem and Ramdas Pophale) SiO2 
 PCOD9401709
Probable space group: P M M A
;
_chemical_formula_sum "Si O2"
_cell_formula_units_Z 64
_cell_length_a 21.207039
_cell_length_b 8.638999
_cell_length_c 20.038918
_cell_angle_alpha 90.000000
_cell_angle_beta 90.000000
_cell_angle_gamma 90.000000
_cell_volume 3671.281847
_symmetry_space_group_name_H-M "P M M A"
_symmetry_group_IT_number 51
_symmetry_cell_setting 'orthorhombic'
loop_
_space_group_symop_operation_xyz
x,y,z
1/2-x,-y,z
1/2+x,-y,-z
-x,y,-z
-x,-y,-z
1/2+x,y,-z
1/2-x,y,z
x,-y,z
loop_
_atom_site_type_symbol
_atom_site_label
_atom_site_fract_x
_atom_site_fract_y
_atom_site_fract_z
Si Si1 0.819288 0.186289 0.540061
Si Si2 0.633424 0.314626 0.677127
Si Si3 0.561241 0.315076 0.044512
Si Si4 0.367382 0.685426 0.173166
Si Si5 0.991515 0.183229 0.176455
Si Si6 0.820981 0.815264 0.963649
Si Si7 0.939307 0.812760 0.455228
Si Si8 0.515493 0.315394 0.317710
O O1 0.750000 0.239838 0.518396
O O2 0.831387 0.237166 0.615947
O O3 0.876502 0.240703 0.493472
O O4 0.820467 0.000000 0.538050
O O5 0.640357 0.500000 0.672242
O O6 0.653525 0.268669 0.752024
O O7 0.558811 0.277922 0.671273
O O8 0.560498 0.500000 0.052567
O O9 0.552658 0.234877 0.115875
O O10 0.500000 0.271718 0.000000
O O11 0.624258 0.263798 0.006668
O O12 0.361873 0.500000 0.167254
O O13 0.441162 0.730905 0.167506
O O14 0.331168 0.765526 0.113072
O O15 0.965924 0.234410 0.248583
O O16 0.002176 0.000000 0.174870
O O17 0.750000 0.771618 0.984464
O O18 0.827622 0.000000 0.968891
O O19 0.947294 0.742648 0.382065
O O20 0.000000 0.769594 0.500000
O O21 0.938661 0.000000 0.450180
O O22 0.520397 0.500000 0.310260
#
# Coordination Sequence:
#
# PCOD9401709 Si02
#       8
#     8   8   8   8   8   8   8   8
#     4  10  21  35  51  74 106 141 177 220 269 319
#     4   9  19  33  50  74 106 142 180 220 261 315
#     4  11  22  37  60  86 113 147 187 232 280 332
#     4  10  20  35  53  78 111 149 189 227 272 326
#     4  11  21  34  57  85 114 144 179 228 280 327
#     4  11  24  39  56  82 114 150 192 234 278 331
#     4  10  19  33  54  79 104 137 181 224 269 320
#     4  10  20  34  54  81 111 140 177 224 274 324
#
# _framework density 17.432604000000001
#
# number of rings (size 3 to 8) (size 9 to 14) (size 15 to 20)
#    0.000    1.750    2.500    3.375    0.000    5.500 
#    0.000    2.500    0.000    0.750    0.000    1.750 
#    0.000    0.000    0.000    0.000    0.000    0.000 
#
# Total GULP energy -357419.837550 kJ/mol
# GULP energy per Si atom -5584.684962 kJ/mol
# Density = 1.739293 g / cm^3
# Si number density = 17.432604 Si / 1000 Ang^3
#
#
#
# Elastic Constant Matrix: (Units=GPa)
#
#
# Indices 1 2 3 4 5 6 
#
# 1 94.1930 17.2773 48.2517 0.0000 0.0000 0.0000
# 2 17.2773 21.1662 18.6235 0.0000 0.0000 0.0000
# 3 48.2517 18.6235 104.7645 0.0000 0.0000 0.0000
# 4 0.0000 0.0000 0.0000 33.2986 0.0000 0.0000
# 5 0.0000 0.0000 0.0000 0.0000 19.0557 0.0000
# 6 0.0000 0.0000 0.0000 0.0000 0.0000 13.2839
#
#
#
# Elastic Compliance Matrix: (Units=1/GPa)
#
#
# Indices 1 2 3 4 5 6 
#
# 1 0.014764 -0.007194 -0.005521 0.000000 0.000000 0.000000
# 2 -0.007194 0.059510 -0.007266 0.000000 0.000000 0.000000
# 3 -0.005521 -0.007266 0.013380 0.000000 0.000000 0.000000
# 4 0.000000 0.000000 0.000000 0.030031 0.000000 0.000000
# 5 0.000000 0.000000 0.000000 0.000000 0.052478 0.000000
# 6 0.000000 0.000000 0.000000 0.000000 0.000000 0.075279
#
#
# Mechanical properties :
#
#
# Convention : Reuss Voigt Hill
#
# Bulk Modulus (GPa) = 20.96750 43.15875 32.06312
# Shear Modulus (GPa) = 16.59471 22.19238 19.39354
#
# Velocity S-wave (km/s) = 3.08869 3.57184 3.33901
# Velocity P-wave (km/s) = 4.97734 6.46699 5.77043
#
# Compressibility (1/GPa) = 0.04769286
#
# Stress axis : x y z
#
# Youngs Moduli (GPa) = 67.73078 16.80396 74.73984
#
# Poissons Ratio (x) = 0.12088 0.41266
# Poissons Ratio (y) = 0.48723 0.54303
# Poissons Ratio (z) = 0.37396 0.12209
#
# Static dielectric constant tensor:
#      x y z
#    x 1.593920 0.000000 0.000000 
#    y 0.000000 1.583130 0.000000 
#    z 0.000000 0.000000 1.583600 
# 
# From -- ./inp_files/30514.got.cif
#   From: 2010.05.17/outbox.cif.g08.bks.cpg/sg51_16_cif.got.tgz:30514.got - 2010.06.03 11:52:47.
