data_PCOD9401364
_publ_section_title
;
Structure prediction by ZEFSAII (Michael W. Deem and Ramdas Pophale) SiO2 
 PCOD9401364
Probable space group: P M M A
;
_chemical_formula_sum "Si O2"
_cell_formula_units_Z 48
_cell_length_a 8.605137
_cell_length_b 32.072692
_cell_length_c 9.332113
_cell_angle_alpha 90.000000
_cell_angle_beta 90.000000
_cell_angle_gamma 90.000000
_cell_volume 2575.569014
_symmetry_space_group_name_H-M "P M M A"
_symmetry_group_IT_number 51
_symmetry_cell_setting 'orthorhombic'
loop_
_space_group_symop_operation_xyz
x,y,z
1/2-x,-y,z
1/2+x,-y,-z
-x,y,-z
-x,-y,-z
1/2+x,y,-z
1/2-x,y,z
x,-y,z
loop_
_atom_site_type_symbol
_atom_site_label
_atom_site_fract_x
_atom_site_fract_y
_atom_site_fract_z
Si Si1 0.936230 0.547997 0.658787
Si Si2 0.937510 0.044718 0.662727
Si Si3 0.562834 0.863708 0.662777
Si Si4 0.937517 0.704341 0.339415
Si Si5 0.563408 0.214160 0.160630
Si Si6 0.936369 0.376569 0.159569
O O1 0.750000 0.550820 0.656882
O O2 0.979707 0.500000 0.692237
O O3 0.000000 0.557498 0.500000
O O4 0.003867 0.580856 0.769917
O O5 0.750000 0.044666 0.659191
O O6 0.984261 0.090122 0.720756
O O7 0.000000 0.044496 0.500000
O O8 0.987535 0.000000 0.728490
O O9 0.500000 0.859749 0.500000
O O10 0.750000 0.861385 0.658968
O O11 0.497000 0.826925 0.759308
O O12 0.750000 0.704291 0.344530
O O13 0.986907 0.745083 0.250377
O O14 0.987786 0.662433 0.257476
O O15 0.000000 0.705554 0.500000
O O16 0.750000 0.213459 0.157109
O O17 0.500000 0.216271 0.000000
O O18 0.750000 0.376937 0.155957
O O19 0.000000 0.371654 0.000000
#
# Coordination Sequence:
#
# PCOD9401364 Si02
#       6
#     8   8   8   8   8   8
#     4  10  21  38  60  86 116 151 191 234 279 327
#     4   8  14  25  43  69 101 135 171 214 263 312
#     4  10  19  32  52  79 109 141 179 222 267 318
#     4  10  23  40  60  85 111 142 180 223 270 323
#     4  11  23  39  57  79 108 142 180 222 272 325
#     4  11  23  39  59  85 116 150 188 229 276 327
#
# _framework density 18.636657
#
# number of rings (size 3 to 8) (size 9 to 14) (size 15 to 20)
#    0.000    2.000    0.000    3.500    0.000    7.333 
#    0.000    0.000    0.000    0.500    0.000    0.000 
#    0.000    0.000    0.000    0.000    0.000    0.000 
#
# Total GULP energy -267925.569060 kJ/mol
# GULP energy per Si atom -5581.782689 kJ/mol
# Density = 1.859424 g / cm^3
# Si number density = 18.636657 Si / 1000 Ang^3
#
#
#
# Elastic Constant Matrix: (Units=GPa)
#
#
# Indices 1 2 3 4 5 6 
#
# 1 41.3266 41.0533 33.9418 0.0000 0.0000 0.0000
# 2 41.0533 165.8101 102.7820 0.0000 0.0000 0.0000
# 3 33.9418 102.7820 139.3930 0.0000 0.0000 0.0000
# 4 0.0000 0.0000 0.0000 -8.6378 0.0000 0.0000
# 5 0.0000 0.0000 0.0000 0.0000 34.2171 0.0000
# 6 0.0000 0.0000 0.0000 0.0000 0.0000 15.9059
#
#
#
# Elastic Compliance Matrix: (Units=1/GPa)
#
#
# Indices 1 2 3 4 5 6 
#
# 1 0.033103 -0.005893 -0.003715 0.000000 0.000000 0.000000
# 2 -0.005893 0.012157 -0.007529 0.000000 0.000000 0.000000
# 3 -0.003715 -0.007529 0.013630 0.000000 0.000000 0.000000
# 4 0.000000 0.000000 0.000000 -0.115771 0.000000 0.000000
# 5 0.000000 0.000000 0.000000 0.000000 0.029225 0.000000
# 6 0.000000 0.000000 0.000000 0.000000 0.000000 0.062870
#
#
# Mechanical properties :
#
#
# Convention : Reuss Voigt Hill
#
# Bulk Modulus (GPa) = 40.62490 78.00932 59.31711
# Shear Modulus (GPa) = 64.35425 19.54722 41.95074
#
# Velocity S-wave (km/s) = 5.88268 3.24212 4.74960
# Velocity P-wave (km/s) = 8.24542 7.48091 7.87245
#
# Compressibility (1/GPa) = 0.02461544
#
# Stress axis : x y z
#
# Youngs Moduli (GPa) = 30.20887 82.25491 73.36559
#
# Poissons Ratio (x) = 0.48473 0.27257
# Poissons Ratio (y) = 0.17802 0.55239
# Poissons Ratio (z) = 0.11223 0.61932
#
# Static dielectric constant tensor:
#      x y z
#    x 1.633250 0.000000 0.000000 
#    y 0.000000 1.676460 0.000000 
#    z 0.000000 0.000000 1.565550 
# 
# From -- ./inp_files/5972.got.cif
#   From: 2010.05.17/outbox.cif.g08.bks.cpg/sg51_3_cif.got.tgz:5972.got - 2010.06.03 11:52:47.
