data_PCOD9401201
_publ_section_title
;
Structure prediction by ZEFSAII (Michael W. Deem and Ramdas Pophale) SiO2 
 PCOD9401201
Probable space group: P M M A
;
_chemical_formula_sum "Si O2"
_cell_formula_units_Z 48
_cell_length_a 16.071407
_cell_length_b 7.470484
_cell_length_c 18.292096
_cell_angle_alpha 90.000000
_cell_angle_beta 90.000000
_cell_angle_gamma 90.000000
_cell_volume 2196.170792
_symmetry_space_group_name_H-M "P M M A"
_symmetry_group_IT_number 51
_symmetry_cell_setting 'orthorhombic'
loop_
_space_group_symop_operation_xyz
x,y,z
1/2-x,-y,z
1/2+x,-y,-z
-x,y,-z
-x,-y,-z
1/2+x,y,-z
1/2-x,y,z
x,-y,z
loop_
_atom_site_type_symbol
_atom_site_label
_atom_site_fract_x
_atom_site_fract_y
_atom_site_fract_z
Si Si1 0.750000 0.718863 0.202455
Si Si2 0.916122 0.718578 0.458883
Si Si3 0.250000 0.280250 0.287906
Si Si4 0.913750 0.280788 0.289824
Si Si5 0.250000 0.281733 0.457113
Si Si6 0.250000 0.285684 0.965492
Si Si7 0.077477 0.209728 0.047412
Si Si8 0.581628 0.292895 0.784321
O O1 0.750000 0.500000 0.201352
O O2 0.667832 0.776330 0.245724
O O3 0.750000 0.778567 0.118308
O O4 0.916414 0.500000 0.459292
O O5 0.913705 0.773974 0.374377
O O6 0.833417 0.776253 0.501501
O O7 0.000000 0.776032 0.500000
O O8 0.250000 0.500000 0.284729
O O9 0.250000 0.228353 0.372590
O O10 0.333105 0.215941 0.247492
O O11 0.912387 0.500000 0.288927
O O12 0.997080 0.217076 0.249382
O O13 0.250000 0.500000 0.458130
O O14 0.250000 0.500000 0.964419
O O15 0.165443 0.230810 0.006496
O O16 0.081221 0.288466 0.128341
O O17 0.061746 0.000000 0.058092
O O18 0.000000 0.282592 0.000000
O O19 0.581465 0.500000 0.760751
#
# Coordination Sequence:
#
# PCOD9401201 Si02
#       8
#     4   8   4   8   4   4   8   8
#     4   9  17  28  43  65  91 121 160 206 252 297
#     4   9  15  22  34  55  87 128 165 195 237 295
#     4   9  17  28  43  67  97 129 166 208 254 303
#     4   9  16  26  41  64  95 129 166 207 249 296
#     4   9  15  23  36  57  92 133 164 194 244 309
#     4  11  22  37  59  83 106 137 180 224 268 321
#     4  11  24  40  57  79 109 142 176 219 272 327
#     4  10  19  32  51  73  99 132 171 215 259 306
#
# _framework density 21.856224000000001
#
# number of rings (size 3 to 8) (size 9 to 14) (size 15 to 20)
#    0.000    2.333    0.000    3.750    0.000    9.333 
#    0.000    0.000    0.000    0.000    0.000    0.000 
#    0.000    7.333    0.000    1.333    0.000    0.000 
#
# Total GULP energy -268316.727150 kJ/mol
# GULP energy per Si atom -5589.931816 kJ/mol
# Density = 2.180648 g / cm^3
# Si number density = 21.856224 Si / 1000 Ang^3
#
#
#
# Elastic Constant Matrix: (Units=GPa)
#
#
# Indices 1 2 3 4 5 6 
#
# 1 259.4135 -4.0540 139.6979 0.0000 0.0000 0.0000
# 2 -4.0540 60.8886 -14.5864 0.0000 0.0000 0.0000
# 3 139.6979 -14.5864 199.2068 0.0000 0.0000 0.0000
# 4 0.0000 0.0000 0.0000 -183.7184 0.0000 0.0000
# 5 0.0000 0.0000 0.0000 0.0000 -199.0082 0.0000
# 6 0.0000 0.0000 0.0000 0.0000 0.0000 3.9807
#
#
#
# Elastic Compliance Matrix: (Units=1/GPa)
#
#
# Indices 1 2 3 4 5 6 
#
# 1 0.006219 -0.000642 -0.004408 0.000000 0.000000 0.000000
# 2 -0.000642 0.016783 0.001679 0.000000 0.000000 0.000000
# 3 -0.004408 0.001679 0.008234 0.000000 0.000000 0.000000
# 4 0.000000 0.000000 0.000000 -0.005443 0.000000 0.000000
# 5 0.000000 0.000000 0.000000 0.000000 -0.005025 0.000000
# 6 0.000000 0.000000 0.000000 0.000000 0.000000 0.251213
#
#
# Mechanical properties :
#
#
# Convention : Reuss Voigt Hill
#
# Bulk Modulus (GPa) = 40.82643 84.62486 62.72564
# Shear Modulus (GPa) = 17.42847 -49.18576 -15.87864
#
# Velocity S-wave (km/s) = 2.82692 -4.74901 -2.69830
# Velocity P-wave (km/s) = 5.41990 2.95502 4.36506
#
# Compressibility (1/GPa) = 0.02449394
#
# Stress axis : x y z
#
# Youngs Moduli (GPa) = 160.81012 59.58435 121.44831
#
# Poissons Ratio (x) = 0.03825 0.53533
# Poissons Ratio (y) = 0.10323 -0.20392
# Poissons Ratio (z) = 0.70883 -0.10004
#
# Static dielectric constant tensor:
#      x y z
#    x 1.752670 0.000000 0.000000 
#    y 0.000000 1.834270 0.000000 
#    z 0.000000 0.000000 1.726960 
# 
# From -- ./inp_files/29690.got.cif
#   From: 2010.05.17/outbox.cif.g08.bks.cpg/sg51_15_cif.got.tgz:29690.got - 2010.06.03 11:52:47.
