data_PCOD9401377
_publ_section_title
;
Structure prediction by ZEFSAII (Michael W. Deem and Ramdas Pophale) SiO2 
 PCOD9401377
Probable space group: P M M A
;
_chemical_formula_sum "Si O2"
_cell_formula_units_Z 64
_cell_length_a 24.834288
_cell_length_b 7.873913
_cell_length_c 15.259185
_cell_angle_alpha 90.000000
_cell_angle_beta 90.000000
_cell_angle_gamma 90.000000
_cell_volume 2983.827165
_symmetry_space_group_name_H-M "P M M A"
_symmetry_group_IT_number 51
_symmetry_cell_setting 'orthorhombic'
loop_
_space_group_symop_operation_xyz
x,y,z
1/2-x,-y,z
1/2+x,-y,-z
-x,y,-z
-x,-y,-z
1/2+x,y,-z
1/2-x,y,z
x,-y,z
loop_
_atom_site_type_symbol
_atom_site_label
_atom_site_fract_x
_atom_site_fract_y
_atom_site_fract_z
Si Si1 0.005210 0.701289 0.213700
Si Si2 0.692766 0.792839 0.272076
Si Si3 0.125191 0.293746 0.189475
Si Si4 0.029111 0.795018 0.589132
Si Si5 0.188243 0.203342 0.015862
Si Si6 0.393155 0.795445 0.865729
Si Si7 0.689455 0.297395 0.642564
Si Si8 0.350082 0.794992 0.548607
O O1 0.008427 0.500000 0.210368
O O2 0.063496 0.768829 0.182955
O O3 0.994225 0.746554 0.315931
O O4 0.955050 0.751061 0.152082
O O5 0.750000 0.740045 0.232897
O O6 0.641455 0.735411 0.217918
O O7 0.688558 0.740498 0.372734
O O8 0.691535 0.000000 0.270247
O O9 0.124151 0.500000 0.188788
O O10 0.164421 0.238295 0.111680
O O11 0.150232 0.233427 0.281506
O O12 0.090657 0.739353 0.577899
O O13 0.000000 0.734789 0.500000
O O14 0.028012 0.000000 0.587653
O O15 0.250000 0.268055 0.005441
O O16 0.191416 0.000000 0.002803
O O17 0.142266 0.267308 0.948122
O O18 0.391806 0.000000 0.868443
O O19 0.750000 0.227281 0.650041
O O20 0.692677 0.500000 0.654332
O O21 0.666611 0.265548 0.546374
O O22 0.349856 0.000000 0.545731
#
# Coordination Sequence:
#
# PCOD9401377 Si02
#       8
#     8   8   8   8   8   8   8   8
#     4  11  23  38  58  86 119 156 201 245 287 344
#     4   9  16  29  52  79 108 144 183 224 277 343
#     4  10  23  42  61  82 115 160 199 237 295 356
#     4  10  20  35  56  82 114 154 198 241 290 348
#     4  10  22  40  65  96 120 145 191 247 299 350
#     4  10  20  38  61  85 119 154 187 233 292 351
#     4  10  21  37  56  79 110 150 194 239 290 346
#     4  10  19  32  52  81 112 147 189 232 284 344
#
# _framework density 21.448962999999999
#
# number of rings (size 3 to 8) (size 9 to 14) (size 15 to 20)
#    0.000    2.000    1.250    2.250    0.000    6.250 
#    0.000    2.500    0.000    1.125    0.000    0.000 
#    0.000    0.000    0.000    0.000    0.000    0.000 
#
# Total GULP energy -357232.543270 kJ/mol
# GULP energy per Si atom -5581.758489 kJ/mol
# Density = 2.140014 g / cm^3
# Si number density = 21.448963 Si / 1000 Ang^3
#
#
#
# Elastic Constant Matrix: (Units=GPa)
#
#
# Indices 1 2 3 4 5 6 
#
# 1 133.1309 12.4894 44.6338 0.0000 0.0000 0.0000
# 2 12.4894 20.8513 -1.9684 0.0000 0.0000 0.0000
# 3 44.6338 -1.9684 92.8446 0.0000 0.0000 0.0000
# 4 0.0000 0.0000 0.0000 28.6837 0.0000 0.0000
# 5 0.0000 0.0000 0.0000 0.0000 32.3530 0.0000
# 6 0.0000 0.0000 0.0000 0.0000 0.0000 27.2640
#
#
#
# Elastic Compliance Matrix: (Units=1/GPa)
#
#
# Indices 1 2 3 4 5 6 
#
# 1 0.009709 -0.006268 -0.004800 0.000000 0.000000 0.000000
# 2 -0.006268 0.052102 0.004118 0.000000 0.000000 0.000000
# 3 -0.004800 0.004118 0.013166 0.000000 0.000000 0.000000
# 4 0.000000 0.000000 0.000000 0.034863 0.000000 0.000000
# 5 0.000000 0.000000 0.000000 0.000000 0.030909 0.000000
# 6 0.000000 0.000000 0.000000 0.000000 0.000000 0.036678
#
#
# Mechanical properties :
#
#
# Convention : Reuss Voigt Hill
#
# Bulk Modulus (GPa) = 16.37324 39.68180 28.02752
# Shear Modulus (GPa) = 23.61980 30.43827 27.02903
#
# Velocity S-wave (km/s) = 3.32205 3.77118 3.55372
# Velocity P-wave (km/s) = 4.72915 6.12398 5.47120
#
# Compressibility (1/GPa) = 0.06107526
#
# Stress axis : x y z
#
# Youngs Moduli (GPa) = 102.99915 19.19309 75.95513
#
# Poissons Ratio (x) = 0.12031 0.36461
# Poissons Ratio (y) = 0.64565 -0.31279
# Poissons Ratio (z) = 0.49442 -0.07904
#
# Static dielectric constant tensor:
#      x y z
#    x 1.833220 0.000000 0.000000 
#    y 0.000000 1.789490 0.000000 
#    z 0.000000 0.000000 1.761040 
# 
# From -- ./inp_files/26247.got.cif
#   From: 2010.05.17/outbox.cif.g08.bks.cpg/sg51_14_cif.got.tgz:26247.got - 2010.06.03 11:52:47.
