data_PCOD9401007
_publ_section_title
;
Structure prediction by ZEFSAII (Michael W. Deem and Ramdas Pophale) SiO2 
 PCOD9401007
Probable space group: P M M A
;
_chemical_formula_sum "Si O2"
_cell_formula_units_Z 28
_cell_length_a 9.342310
_cell_length_b 7.625295
_cell_length_c 20.281998
_cell_angle_alpha 90.000000
_cell_angle_beta 90.000000
_cell_angle_gamma 90.000000
_cell_volume 1444.846331
_symmetry_space_group_name_H-M "P M M A"
_symmetry_group_IT_number 51
_symmetry_cell_setting 'orthorhombic'
loop_
_space_group_symop_operation_xyz
x,y,z
1/2-x,-y,z
1/2+x,-y,-z
-x,y,-z
-x,-y,-z
1/2+x,y,-z
1/2-x,y,z
x,-y,z
loop_
_atom_site_type_symbol
_atom_site_label
_atom_site_fract_x
_atom_site_fract_y
_atom_site_fract_z
Si Si1 0.583002 0.299069 0.827523
Si Si2 0.921619 0.000000 0.930547
Si Si3 0.914936 0.785564 0.565230
Si Si4 0.085215 0.787422 0.695267
O O1 0.750000 0.261200 0.810914
O O2 0.572802 0.500000 0.849181
O O3 0.489376 0.272081 0.762440
O O4 0.540627 0.167745 0.885640
O O5 0.750000 0.000000 0.940635
O O6 0.000000 0.000000 0.000000
O O7 0.750000 0.729157 0.564248
O O8 0.000000 0.729862 0.500000
O O9 0.995997 0.728964 0.631425
O O10 0.914928 0.000000 0.565195
O O11 0.250000 0.730248 0.691454
O O12 0.084061 0.000000 0.695277
#
# Coordination Sequence:
#
# PCOD9401007 Si02
#       4
#     8   4   8   8
#     4  10  21  38  60  85 114 151 192 232 279 335
#     4  10  22  40  62  88 119 150 185 228 276 334
#     4   9  16  26  43  70 106 147 192 241 290 340
#     4  10  19  31  51  79 111 148 191 238 288 340
#
# _framework density 19.379225000000002
#
# number of rings (size 3 to 8) (size 9 to 14) (size 15 to 20)
#    0.000    2.286    1.429    1.714    0.000    6.857 
#    0.000    0.000    0.000    0.857    0.000    0.000 
#    0.000    0.000    0.000    0.000    0.000    0.000 
#
# Total GULP energy -156445.010938 kJ/mol
# GULP energy per Si atom -5587.321819 kJ/mol
# Density = 1.933512 g / cm^3
# Si number density = 19.379225 Si / 1000 Ang^3
#
#
#
# Elastic Constant Matrix: (Units=GPa)
#
#
# Indices 1 2 3 4 5 6 
#
# 1 149.0389 45.9787 114.6429 0.0000 0.0000 0.0000
# 2 45.9787 67.9293 55.3864 0.0000 0.0000 0.0000
# 3 114.6429 55.3864 206.0515 0.0000 0.0000 0.0000
# 4 0.0000 0.0000 0.0000 -13.7148 0.0000 0.0000
# 5 0.0000 0.0000 0.0000 0.0000 45.3967 0.0000
# 6 0.0000 0.0000 0.0000 0.0000 0.0000 10.1231
#
#
#
# Elastic Compliance Matrix: (Units=1/GPa)
#
#
# Indices 1 2 3 4 5 6 
#
# 1 0.012358 -0.003533 -0.005926 0.000000 0.000000 0.000000
# 2 -0.003533 0.019863 -0.003374 0.000000 0.000000 0.000000
# 3 -0.005926 -0.003374 0.009057 0.000000 0.000000 0.000000
# 4 0.000000 0.000000 0.000000 -0.072914 0.000000 0.000000
# 5 0.000000 0.000000 0.000000 0.000000 0.022028 0.000000
# 6 0.000000 0.000000 0.000000 0.000000 0.000000 0.098784
#
#
# Mechanical properties :
#
#
# Convention : Reuss Voigt Hill
#
# Bulk Modulus (GPa) = 64.04836 95.00397 79.52616
# Shear Modulus (GPa) = 41.65081 22.16177 31.90629
#
# Velocity S-wave (km/s) = 4.64103 3.38536 4.06201
# Velocity P-wave (km/s) = 7.86388 8.02564 7.94517
#
# Compressibility (1/GPa) = 0.01561320
#
# Stress axis : x y z
#
# Youngs Moduli (GPa) = 80.91943 50.34474 110.40987
#
# Poissons Ratio (x) = 0.17785 0.65430
# Poissons Ratio (y) = 0.28587 0.37248
# Poissons Ratio (z) = 0.47954 0.16984
#
# Static dielectric constant tensor:
#      x y z
#    x 1.656520 0.000000 0.000000 
#    y 0.000000 1.718680 0.000000 
#    z 0.000000 0.000000 1.610900 
# 
# From -- ./inp_files/31054.got.cif
#   From: 2010.05.17/outbox.cif.g08.bks.cpg/sg51_16_cif.got.tgz:31054.got - 2010.06.03 11:52:47.
