data_PCOD9401682
_publ_section_title
;
Structure prediction by ZEFSAII (Michael W. Deem and Ramdas Pophale) SiO2 
 PCOD9401682
Probable space group: P M M A
;
_chemical_formula_sum "Si O2"
_cell_formula_units_Z 64
_cell_length_a 9.101657
_cell_length_b 17.629731
_cell_length_c 21.248157
_cell_angle_alpha 90.000000
_cell_angle_beta 90.000000
_cell_angle_gamma 90.000000
_cell_volume 3409.474270
_symmetry_space_group_name_H-M "P M M A"
_symmetry_group_IT_number 51
_symmetry_cell_setting 'orthorhombic'
loop_
_space_group_symop_operation_xyz
x,y,z
1/2-x,-y,z
1/2+x,-y,-z
-x,y,-z
-x,-y,-z
1/2+x,y,-z
1/2-x,y,z
x,-y,z
loop_
_atom_site_type_symbol
_atom_site_label
_atom_site_fract_x
_atom_site_fract_y
_atom_site_fract_z
Si Si1 0.924040 0.081628 0.849736
Si Si2 0.575039 0.587378 0.207774
Si Si3 0.073269 0.712384 0.296099
Si Si4 0.921059 0.801966 0.063860
Si Si5 0.575525 0.755907 0.562369
Si Si6 0.418899 0.871003 0.731954
Si Si7 0.919859 0.085252 0.412310
Si Si8 0.077839 0.620148 0.934652
O O1 0.750000 0.090177 0.852806
O O2 0.001934 0.152479 0.881315
O O3 0.980787 0.082533 0.778896
O O4 0.964024 0.000000 0.879113
O O5 0.750000 0.607072 0.208382
O O6 0.559502 0.500000 0.227729
O O7 0.488746 0.643113 0.254627
O O8 0.526072 0.592299 0.134129
O O9 0.250000 0.718917 0.288302
O O10 0.042729 0.712672 0.371720
O O11 0.989986 0.787756 0.272846
O O12 0.750000 0.819967 0.061615
O O13 0.936401 0.711442 0.069644
O O14 0.000000 0.825596 0.000000
O O15 0.500000 0.722657 0.500000
O O16 0.750000 0.757170 0.554702
O O17 0.516242 0.842594 0.567951
O O18 0.250000 0.866672 0.754288
O O19 0.417693 0.907882 0.663258
O O20 0.750000 0.094728 0.433986
O O21 0.969745 0.000000 0.429301
O O22 0.250000 0.600321 0.940160
O O23 0.000000 0.596145 0.000000
#
# Coordination Sequence:
#
# PCOD9401682 Si02
#       8
#     8   8   8   8   8   8   8   8
#     4  11  23  35  48  70 100 133 173 225 280 329
#     4  10  21  37  58  86 119 151 182 218 264 321
#     4  10  21  37  58  84 112 143 182 227 274 326
#     4  10  20  35  54  72  94 129 174 222 271 323
#     4  10  21  36  55  80 108 142 185 231 278 328
#     4  10  19  33  54  77 102 136 179 222 267 323
#     4   9  18  32  50  74 106 143 181 222 269 321
#     4   9  19  35  55  81 111 144 182 221 261 311
#
# _framework density 18.771222000000002
#
# number of rings (size 3 to 8) (size 9 to 14) (size 15 to 20)
#    0.000    2.125    0.000    3.000    0.000    6.750 
#    0.000    0.000    0.000    0.375    0.000    0.000 
#    0.000    0.000    0.000    0.000    0.000    0.000 
#
# Total GULP energy -357082.376418 kJ/mol
# GULP energy per Si atom -5579.412132 kJ/mol
# Density = 1.872850 g / cm^3
# Si number density = 18.771222 Si / 1000 Ang^3
#
#
#
# Elastic Constant Matrix: (Units=GPa)
#
#
# Indices 1 2 3 4 5 6 
#
# 1 62.2739 40.3963 32.6399 0.0000 0.0000 0.0000
# 2 40.3963 69.2455 46.3206 0.0000 0.0000 0.0000
# 3 32.6399 46.3206 98.1518 0.0000 0.0000 0.0000
# 4 0.0000 0.0000 0.0000 -2.0216 0.0000 0.0000
# 5 0.0000 0.0000 0.0000 0.0000 36.1191 0.0000
# 6 0.0000 0.0000 0.0000 0.0000 0.0000 16.5028
#
#
#
# Elastic Compliance Matrix: (Units=1/GPa)
#
#
# Indices 1 2 3 4 5 6 
#
# 1 0.026152 -0.013794 -0.002187 0.000000 0.000000 0.000000
# 2 -0.013794 0.028379 -0.008806 0.000000 0.000000 0.000000
# 3 -0.002187 -0.008806 0.015071 0.000000 0.000000 0.000000
# 4 0.000000 0.000000 0.000000 -0.494669 0.000000 0.000000
# 5 0.000000 0.000000 0.000000 0.000000 0.027686 0.000000
# 6 0.000000 0.000000 0.000000 0.000000 0.000000 0.060596
#
#
# Mechanical properties :
#
#
# Convention : Reuss Voigt Hill
#
# Bulk Modulus (GPa) = 49.92706 52.04279 50.98492
# Shear Modulus (GPa) = -17.82302 17.47437 -0.17433
#
# Velocity S-wave (km/s) = -3.08472 3.05440 -0.30508
# Velocity P-wave (km/s) = 3.73739 6.34225 5.20539
#
# Compressibility (1/GPa) = 0.02002922
#
# Stress axis : x y z
#
# Youngs Moduli (GPa) = 38.23774 35.23774 66.35115
#
# Poissons Ratio (x) = 0.48605 0.14513
# Poissons Ratio (y) = 0.52743 0.58427
# Poissons Ratio (z) = 0.08363 0.31029
#
# Static dielectric constant tensor:
#      x y z
#    x 1.633000 0.000000 0.000000 
#    y 0.000000 1.639820 0.000000 
#    z 0.000000 0.000000 1.648640 
# 
# From -- ./inp_files/32429.got.cif
#   From: 2010.05.17/outbox.cif.g08.bks.cpg/sg51_17_cif.got.tgz:32429.got - 2010.06.03 11:52:47.
