data_PCOD9401765
_publ_section_title
;
Structure prediction by ZEFSAII (Michael W. Deem and Ramdas Pophale) SiO2 
 PCOD9401765
Probable space group: P M M A
;
_chemical_formula_sum "Si O2"
_cell_formula_units_Z 48
_cell_length_a 18.872563
_cell_length_b 15.864414
_cell_length_c 7.680881
_cell_angle_alpha 90.000000
_cell_angle_beta 90.000000
_cell_angle_gamma 90.000000
_cell_volume 2299.672306
_symmetry_space_group_name_H-M "P M M A"
_symmetry_group_IT_number 51
_symmetry_cell_setting 'orthorhombic'
loop_
_space_group_symop_operation_xyz
x,y,z
1/2-x,-y,z
1/2+x,-y,-z
-x,y,-z
-x,-y,-z
1/2+x,y,-z
1/2-x,y,z
x,-y,z
loop_
_atom_site_type_symbol
_atom_site_label
_atom_site_fract_x
_atom_site_fract_y
_atom_site_fract_z
Si Si1 0.664405 0.729653 0.603553
Si Si2 0.336559 0.593483 0.111817
Si Si3 0.826300 0.853473 0.141572
Si Si4 0.624059 0.903553 0.770577
Si Si5 0.528195 0.099120 0.317052
Si Si6 0.329989 0.664357 0.766611
O O1 0.750000 0.727673 0.594972
O O2 0.640374 0.667920 0.758952
O O3 0.645845 0.826764 0.645177
O O4 0.638247 0.690662 0.419755
O O5 0.250000 0.598204 0.104089
O O6 0.354721 0.500000 0.176899
O O7 0.363310 0.605163 0.913238
O O8 0.750000 0.880459 0.218763
O O9 0.896941 0.870867 0.248825
O O10 0.823620 0.752738 0.130491
O O11 0.835143 0.892889 0.951432
O O12 0.540052 0.891637 0.806717
O O13 0.633703 0.000000 0.704471
O O14 0.500000 0.135801 0.500000
O O15 0.538415 0.000000 0.343444
O O16 0.250000 0.632149 0.729672
#
# Coordination Sequence:
#
# PCOD9401765 Si02
#       6
#     8   8   8   8   8   8
#     4  10  19  33  54  81 117 156 203 255 301 360
#     4   9  17  31  52  80 115 152 193 247 312 371
#     4  11  21  36  58  84 116 157 206 257 307 359
#     4  11  22  36  56  82 116 160 205 250 303 360
#     4  10  22  39  56  79 115 157 207 259 306 366
#     4   9  18  32  51  78 113 150 192 247 303 357
#
# _framework density 20.872540000000001
#
# number of rings (size 3 to 8) (size 9 to 14) (size 15 to 20)
#    0.000    2.000    1.667    2.500    0.000    4.333 
#    0.000    5.000    0.000   12.000    0.000    2.333 
#    0.000    4.000    0.000    0.000    0.000    0.000 
#
# Total GULP energy -267435.033691 kJ/mol
# GULP energy per Si atom -5571.563202 kJ/mol
# Density = 2.082503 g / cm^3
# Si number density = 20.872540 Si / 1000 Ang^3
#
#
#
# Elastic Constant Matrix: (Units=GPa)
#
#
# Indices 1 2 3 4 5 6 
#
# 1 76.1851 10.3463 13.1024 0.0000 0.0000 0.0000
# 2 10.3463 96.9196 47.2819 0.0000 0.0000 0.0000
# 3 13.1024 47.2819 106.9885 0.0000 0.0000 0.0000
# 4 0.0000 0.0000 0.0000 14.8059 0.0000 0.0000
# 5 0.0000 0.0000 0.0000 0.0000 20.0412 0.0000
# 6 0.0000 0.0000 0.0000 0.0000 0.0000 116.8426
#
#
#
# Elastic Compliance Matrix: (Units=1/GPa)
#
#
# Indices 1 2 3 4 5 6 
#
# 1 0.013458 -0.000806 -0.001292 0.000000 0.000000 0.000000
# 2 -0.000806 0.013202 -0.005736 0.000000 0.000000 0.000000
# 3 -0.001292 -0.005736 0.012040 0.000000 0.000000 0.000000
# 4 0.000000 0.000000 0.000000 0.067540 0.000000 0.000000
# 5 0.000000 0.000000 0.000000 0.000000 0.049897 0.000000
# 6 0.000000 0.000000 0.000000 0.000000 0.000000 0.008559
#
#
# Mechanical properties :
#
#
# Convention : Reuss Voigt Hill
#
# Bulk Modulus (GPa) = 43.41831 46.83938 45.12885
# Shear Modulus (GPa) = 26.59003 44.29546 35.44274
#
# Velocity S-wave (km/s) = 3.57308 4.61172 4.12522
# Velocity P-wave (km/s) = 6.15381 7.13068 6.66018
#
# Compressibility (1/GPa) = 0.02303176
#
# Stress axis : x y z
#
# Youngs Moduli (GPa) = 74.30746 75.74580 83.05798
#
# Poissons Ratio (x) = 0.06109 0.10728
# Poissons Ratio (y) = 0.05993 0.47639
# Poissons Ratio (z) = 0.09598 0.43445
#
# Static dielectric constant tensor:
#      x y z
#    x 1.781640 0.000000 0.000000 
#    y 0.000000 1.757290 0.000000 
#    z 0.000000 0.000000 1.828900 
# 
# From -- ./inp_files/9652.got.cif
#   From: 2010.05.17/outbox.cif.g08.bks.cpg/sg51_5_cif.got.tgz:9652.got - 2010.06.03 11:52:47.
