data_PCOD9401859
_publ_section_title
;
Structure prediction by ZEFSAII (Michael W. Deem and Ramdas Pophale) SiO2 
 PCOD9401859
Probable space group: P M M A
;
_chemical_formula_sum "Si O2"
_cell_formula_units_Z 64
_cell_length_a 21.138825
_cell_length_b 7.650157
_cell_length_c 20.288820
_cell_angle_alpha 90.000000
_cell_angle_beta 90.000000
_cell_angle_gamma 90.000000
_cell_volume 3281.013223
_symmetry_space_group_name_H-M "P M M A"
_symmetry_group_IT_number 51
_symmetry_cell_setting 'orthorhombic'
loop_
_space_group_symop_operation_xyz
x,y,z
1/2-x,-y,z
1/2+x,-y,-z
-x,y,-z
-x,-y,-z
1/2+x,y,-z
1/2-x,y,z
x,-y,z
loop_
_atom_site_type_symbol
_atom_site_label
_atom_site_fract_x
_atom_site_fract_y
_atom_site_fract_z
Si Si1 0.076669 0.793425 0.840870
Si Si2 0.820064 0.207874 0.430583
Si Si3 0.435935 0.210632 0.188588
Si Si4 0.600973 0.290632 0.306527
Si Si5 0.959838 0.707507 0.663085
Si Si6 0.821403 0.213353 0.902567
Si Si7 0.568129 0.204922 0.520328
Si Si8 0.321603 0.213632 0.945361
O O1 0.106608 0.771157 0.768458
O O2 0.123926 0.722305 0.896269
O O3 0.004847 0.722290 0.835721
O O4 0.070307 0.000000 0.853992
O O5 0.750000 0.281814 0.439352
O O6 0.845258 0.232824 0.356559
O O7 0.873518 0.281591 0.479566
O O8 0.816109 0.000000 0.442656
O O9 0.430143 0.252612 0.265900
O O10 0.377149 0.274486 0.145281
O O11 0.437472 0.000000 0.183135
O O12 0.598975 0.500000 0.305572
O O13 0.532529 0.225927 0.333062
O O14 0.962054 0.500000 0.654988
O O15 0.925896 0.781016 0.598829
O O16 0.750000 0.268425 0.884176
O O17 0.821633 0.000000 0.901164
O O18 0.832807 0.264176 0.978634
O O19 0.500000 0.282401 0.500000
O O20 0.565637 0.000000 0.502487
O O21 0.250000 0.267720 0.926932
O O22 0.321900 0.000000 0.943558
#
# Coordination Sequence:
#
# PCOD9401859 Si02
#       8
#     8   8   8   8   8   8   8   8
#     4   9  17  28  45  70  98 126 159 199 243 289
#     4  10  21  36  53  75 102 129 159 198 243 288
#     4   9  17  29  47  71  97 124 158 203 245 285
#     4  10  20  33  49  70  98 131 165 199 237 285
#     4  10  20  33  51  74  99 128 163 200 240 289
#     4   8  14  26  45  69  95 123 158 201 249 295
#     4  10  19  33  56  79  97 124 162 202 240 284
#     4   8  14  25  42  66  95 124 156 197 244 293
#
# _framework density 19.506170000000001
#
# number of rings (size 3 to 8) (size 9 to 14) (size 15 to 20)
#    0.000    2.750    1.250    1.500    0.000    3.000 
#    0.000    4.375    0.000    4.875    0.000    5.250 
#    0.000    0.000    0.000    0.000    0.000    0.000 
#
# Total GULP energy -356952.150640 kJ/mol
# GULP energy per Si atom -5577.377354 kJ/mol
# Density = 1.946177 g / cm^3
# Si number density = 19.506170 Si / 1000 Ang^3
#
#
#
# Elastic Constant Matrix: (Units=GPa)
#
#
# Indices 1 2 3 4 5 6 
#
# 1 162.2965 3.0138 108.1071 0.0000 0.0000 0.0000
# 2 3.0138 35.1772 -11.3457 0.0000 0.0000 0.0000
# 3 108.1071 -11.3457 118.5330 0.0000 0.0000 0.0000
# 4 0.0000 0.0000 0.0000 -105.6285 0.0000 0.0000
# 5 0.0000 0.0000 0.0000 0.0000 49.5650 0.0000
# 6 0.0000 0.0000 0.0000 0.0000 0.0000 -0.3254
#
#
#
# Elastic Compliance Matrix: (Units=1/GPa)
#
#
# Indices 1 2 3 4 5 6 
#
# 1 0.017105 -0.006704 -0.016242 0.000000 0.000000 0.000000
# 2 -0.006704 0.031961 0.009174 0.000000 0.000000 0.000000
# 3 -0.016242 0.009174 0.024128 0.000000 0.000000 0.000000
# 4 0.000000 0.000000 0.000000 -0.009467 0.000000 0.000000
# 5 0.000000 0.000000 0.000000 0.000000 0.020176 0.000000
# 6 0.000000 0.000000 0.000000 0.000000 0.000000 -3.072669
#
#
# Mechanical properties :
#
#
# Convention : Reuss Voigt Hill
#
# Bulk Modulus (GPa) = 21.90658 57.28412 39.59535
# Shear Modulus (GPa) = -1.69721 3.13765 0.72022
#
# Velocity S-wave (km/s) = -0.93380 1.26966 0.60830
# Velocity P-wave (km/s) = 3.17684 5.61964 4.56468
#
# Compressibility (1/GPa) = 0.04564839
#
# Stress axis : x y z
#
# Youngs Moduli (GPa) = 58.46144 31.28849 41.44500
#
# Poissons Ratio (x) = 0.20976 0.67317
# Poissons Ratio (y) = 0.39193 -0.38020
# Poissons Ratio (z) = 0.94956 -0.28703
#
# Static dielectric constant tensor:
#      x y z
#    x 1.698350 0.000000 0.000000 
#    y 0.000000 1.705770 0.000000 
#    z 0.000000 0.000000 1.656400 
# 
# From -- ./inp_files/33774.got.cif
#   From: 2010.05.17/outbox.cif.g08.bks.cpg/sg51_17_cif.got.tgz:33774.got - 2010.06.03 11:52:47.
