data_PCOD9401793
_publ_section_title
;
Structure prediction by ZEFSAII (Michael W. Deem and Ramdas Pophale) SiO2 
 PCOD9401793
Probable space group: P M M A
;
_chemical_formula_sum "Si O2"
_cell_formula_units_Z 56
_cell_length_a 15.688068
_cell_length_b 15.192510
_cell_length_c 12.768739
_cell_angle_alpha 90.000000
_cell_angle_beta 90.000000
_cell_angle_gamma 90.000000
_cell_volume 3043.315682
_symmetry_space_group_name_H-M "P M M A"
_symmetry_group_IT_number 51
_symmetry_cell_setting 'orthorhombic'
loop_
_space_group_symop_operation_xyz
x,y,z
1/2-x,-y,z
1/2+x,-y,-z
-x,y,-z
-x,-y,-z
1/2+x,y,-z
1/2-x,y,z
x,-y,z
loop_
_atom_site_type_symbol
_atom_site_label
_atom_site_fract_x
_atom_site_fract_y
_atom_site_fract_z
Si Si1 0.096528 0.214168 0.457647
Si Si2 0.147523 0.101976 0.264457
Si Si3 0.897990 0.403124 0.484470
Si Si4 0.648930 0.780849 0.163285
Si Si5 0.399710 0.098846 0.023522
Si Si6 0.852977 0.596791 0.239677
Si Si7 0.649388 0.901490 0.349700
O O1 0.104807 0.167989 0.346084
O O2 0.132091 0.313884 0.459431
O O3 0.141190 0.151870 0.543025
O O4 0.000000 0.218851 0.500000
O O5 0.250000 0.111679 0.270933
O O6 0.118958 0.116611 0.144921
O O7 0.127082 0.000000 0.291270
O O8 0.863968 0.500000 0.516248
O O9 0.877609 0.391698 0.361447
O O10 0.000000 0.406851 0.500000
O O11 0.750000 0.773957 0.182840
O O12 0.614930 0.681733 0.176501
O O13 0.612204 0.844274 0.254180
O O14 0.637169 0.827773 0.052931
O O15 0.365451 0.000000 0.999628
O O16 0.500000 0.097060 0.000000
O O17 0.750000 0.594714 0.234318
O O18 0.884158 0.500000 0.205599
O O19 0.750000 0.910629 0.328912
O O20 0.612356 0.000000 0.356136
#
# Coordination Sequence:
#
# PCOD9401793 Si02
#       7
#     8   8   8   8   8   8   8
#     4  11  22  33  52  78 106 140 179 217 262 315
#     4  10  22  39  55  73 105 149 186 215 261 328
#     4   9  18  32  49  72 104 140 175 213 262 318
#     4  10  19  33  55  79 104 135 172 216 266 317
#     4  10  22  37  56  79 105 139 182 226 262 305
#     4   9  17  30  51  79 106 131 167 218 269 315
#     4  10  20  32  48  74 106 136 168 212 264 314
#
# _framework density 18.400981999999999
#
# number of rings (size 3 to 8) (size 9 to 14) (size 15 to 20)
#    0.000    2.143    1.429    1.714    2.000    4.286 
#    0.000    0.000    0.000    1.286    0.000    0.000 
#    0.000    0.000    0.000    0.000    0.000    0.000 
#
# Total GULP energy -312282.093077 kJ/mol
# GULP energy per Si atom -5576.465948 kJ/mol
# Density = 1.835910 g / cm^3
# Si number density = 18.400982 Si / 1000 Ang^3
#
#
#
# Elastic Constant Matrix: (Units=GPa)
#
#
# Indices 1 2 3 4 5 6 
#
# 1 20.0371 15.5825 3.1632 0.0000 0.0000 0.0000
# 2 15.5825 206.1966 89.1024 0.0000 0.0000 0.0000
# 3 3.1632 89.1024 89.2324 0.0000 0.0000 0.0000
# 4 0.0000 0.0000 0.0000 10.9093 0.0000 0.0000
# 5 0.0000 0.0000 0.0000 0.0000 22.1563 0.0000
# 6 0.0000 0.0000 0.0000 0.0000 0.0000 5.5008
#
#
#
# Elastic Compliance Matrix: (Units=1/GPa)
#
#
# Indices 1 2 3 4 5 6 
#
# 1 0.053740 -0.005696 0.003782 0.000000 0.000000 0.000000
# 2 -0.005696 0.009134 -0.008919 0.000000 0.000000 0.000000
# 3 0.003782 -0.008919 0.019979 0.000000 0.000000 0.000000
# 4 0.000000 0.000000 0.000000 0.091665 0.000000 0.000000
# 5 0.000000 0.000000 0.000000 0.000000 0.045134 0.000000
# 6 0.000000 0.000000 0.000000 0.000000 0.000000 0.181790
#
#
# Mechanical properties :
#
#
# Convention : Reuss Voigt Hill
#
# Bulk Modulus (GPa) = 16.34306 59.01804 37.68055
# Shear Modulus (GPa) = 11.27390 21.55449 16.41419
#
# Velocity S-wave (km/s) = 2.47792 3.42625 2.98992
# Velocity P-wave (km/s) = 4.13373 6.91341 5.69574
#
# Compressibility (1/GPa) = 0.06118805
#
# Stress axis : x y z
#
# Youngs Moduli (GPa) = 18.60817 109.47712 50.05320
#
# Poissons Ratio (x) = 0.62354 -0.18932
# Poissons Ratio (y) = 0.10598 0.44643
# Poissons Ratio (z) = -0.07038 0.97644
#
# Static dielectric constant tensor:
#      x y z
#    x 1.638530 0.000000 0.000000 
#    y 0.000000 1.692990 0.000000 
#    z 0.000000 0.000000 1.596280 
# 
# From -- ./inp_files/16584.got.cif
#   From: 2010.05.17/outbox.cif.g08.bks.cpg/sg51_9_cif.got.tgz:16584.got - 2010.06.03 11:52:47.
