data_PCOD9401861
_publ_section_title
;
Structure prediction by ZEFSAII (Michael W. Deem and Ramdas Pophale) SiO2 
 PCOD9401861
Probable space group: P M M A
;
_chemical_formula_sum "Si O2"
_cell_formula_units_Z 56
_cell_length_a 19.598701
_cell_length_b 9.264136
_cell_length_c 18.065094
_cell_angle_alpha 90.000000
_cell_angle_beta 90.000000
_cell_angle_gamma 90.000000
_cell_volume 3279.989361
_symmetry_space_group_name_H-M "P M M A"
_symmetry_group_IT_number 51
_symmetry_cell_setting 'orthorhombic'
loop_
_space_group_symop_operation_xyz
x,y,z
1/2-x,-y,z
1/2+x,-y,-z
-x,y,-z
-x,-y,-z
1/2+x,y,-z
1/2-x,y,z
x,-y,z
loop_
_atom_site_type_symbol
_atom_site_label
_atom_site_fract_x
_atom_site_fract_y
_atom_site_fract_z
Si Si1 0.830241 0.166819 0.087488
Si Si2 0.391383 0.667240 0.775792
Si Si3 0.053713 0.668109 0.196582
Si Si4 0.928811 0.173708 0.651699
Si Si5 0.429593 0.172538 0.043340
Si Si6 0.586868 0.173488 0.374416
Si Si7 0.828847 0.175740 0.519746
O O1 0.750000 0.171332 0.074969
O O2 0.850087 0.260992 0.157902
O O3 0.850911 0.000000 0.102574
O O4 0.870210 0.212417 0.013965
O O5 0.373476 0.500000 0.766351
O O6 0.471331 0.676710 0.797564
O O7 0.384030 0.752304 0.699036
O O8 0.073044 0.500000 0.197120
O O9 0.080400 0.749374 0.269568
O O10 0.074390 0.744456 0.120462
O O11 0.872123 0.218367 0.592006
O O12 0.005669 0.206993 0.622284
O O13 0.925624 0.000000 0.661154
O O14 0.427503 0.000000 0.057286
O O15 0.500000 0.204064 0.000000
O O16 0.628841 0.219444 0.446776
O O17 0.592426 0.000000 0.367616
O O18 0.750000 0.224137 0.519581
O O19 0.827978 0.000000 0.519422
#
# Coordination Sequence:
#
# PCOD9401861 Si02
#       7
#     8   8   8   8   8   8   8
#     4  10  21  36  53  75 104 136 169 207 254 304
#     4  10  20  33  50  75 105 135 168 207 252 303
#     4  10  20  33  52  78 104 132 169 211 255 302
#     4   9  17  31  52  75 100 131 169 212 256 302
#     4  10  19  33  56  80 101 129 170 214 253 296
#     4   9  17  30  51  76 102 131 168 210 255 305
#     4   9  17  30  50  76 101 128 168 216 261 302
#
# _framework density 17.073225999999998
#
# number of rings (size 3 to 8) (size 9 to 14) (size 15 to 20)
#    0.000    2.429    1.429    1.286    0.000    4.571 
#    0.000    2.857    0.000    9.000    0.000    0.000 
#    0.000    0.000    0.000    0.000    0.000    0.000 
#
# Total GULP energy -312343.609552 kJ/mol
# GULP energy per Si atom -5577.564456 kJ/mol
# Density = 1.703437 g / cm^3
# Si number density = 17.073226 Si / 1000 Ang^3
#
#
#
# Elastic Constant Matrix: (Units=GPa)
#
#
# Indices 1 2 3 4 5 6 
#
# 1 77.6520 40.3999 84.1849 0.0000 0.0000 0.0000
# 2 40.3999 43.3225 63.0629 0.0000 0.0000 0.0000
# 3 84.1849 63.0629 179.5839 0.0000 0.0000 0.0000
# 4 0.0000 0.0000 0.0000 -7.2663 0.0000 0.0000
# 5 0.0000 0.0000 0.0000 0.0000 17.6831 0.0000
# 6 0.0000 0.0000 0.0000 0.0000 0.0000 12.1716
#
#
#
# Elastic Compliance Matrix: (Units=1/GPa)
#
#
# Indices 1 2 3 4 5 6 
#
# 1 0.030635 -0.015678 -0.008856 0.000000 0.000000 0.000000
# 2 -0.015678 0.055244 -0.012050 0.000000 0.000000 0.000000
# 3 -0.008856 -0.012050 0.013951 0.000000 0.000000 0.000000
# 4 0.000000 0.000000 0.000000 -0.137622 0.000000 0.000000
# 5 0.000000 0.000000 0.000000 0.000000 0.056551 0.000000
# 6 0.000000 0.000000 0.000000 0.000000 0.000000 0.082158
#
#
# Mechanical properties :
#
#
# Convention : Reuss Voigt Hill
#
# Bulk Modulus (GPa) = 37.50480 75.09486 56.29983
# Shear Modulus (GPa) = 27.32645 12.04506 19.68576
#
# Velocity S-wave (km/s) = 4.00502 2.65900 3.39930
# Velocity P-wave (km/s) = 6.58799 7.31481 6.96090
#
# Compressibility (1/GPa) = 0.02666325
#
# Stress axis : x y z
#
# Youngs Moduli (GPa) = 32.64196 18.10165 71.67772
#
# Poissons Ratio (x) = 0.28379 0.63476
# Poissons Ratio (y) = 0.51175 0.86372
# Poissons Ratio (z) = 0.28907 0.21813
#
# Static dielectric constant tensor:
#      x y z
#    x 1.572280 0.000000 0.000000 
#    y 0.000000 1.568200 0.000000 
#    z 0.000000 0.000000 1.547800 
# 
# From -- ./inp_files/25687.got.cif
#   From: 2010.05.17/outbox.cif.g08.bks.cpg/sg51_13_cif.got.tgz:25687.got - 2010.06.03 11:52:47.
