data_PCOD9401774
_publ_section_title
;
Structure prediction by ZEFSAII (Michael W. Deem and Ramdas Pophale) SiO2 
 PCOD9401774
Probable space group: P M M A
;
_chemical_formula_sum "Si O2"
_cell_formula_units_Z 48
_cell_length_a 8.553731
_cell_length_b 15.945948
_cell_length_c 19.417020
_cell_angle_alpha 90.000000
_cell_angle_beta 90.000000
_cell_angle_gamma 90.000000
_cell_volume 2648.430068
_symmetry_space_group_name_H-M "P M M A"
_symmetry_group_IT_number 51
_symmetry_cell_setting 'orthorhombic'
loop_
_space_group_symop_operation_xyz
x,y,z
1/2-x,-y,z
1/2+x,-y,-z
-x,y,-z
-x,-y,-z
1/2+x,y,-z
1/2-x,y,z
x,-y,z
loop_
_atom_site_type_symbol
_atom_site_label
_atom_site_fract_x
_atom_site_fract_y
_atom_site_fract_z
Si Si1 0.062335 0.841560 0.160962
Si Si2 0.061174 0.590288 0.578507
Si Si3 0.561228 0.097257 0.688852
Si Si4 0.061919 0.316109 0.921419
Si Si5 0.936413 0.000000 0.077080
Si Si6 0.937648 0.225598 0.422039
Si Si7 0.061904 0.500000 0.922134
O O1 0.250000 0.842321 0.158665
O O2 0.012342 0.859206 0.239496
O O3 0.001276 0.756118 0.127688
O O4 0.998849 0.918281 0.115916
O O5 0.250000 0.590177 0.577772
O O6 0.010802 0.500000 0.609674
O O7 0.012588 0.681669 0.606241
O O8 0.000000 0.589827 0.500000
O O9 0.750000 0.096878 0.687078
O O10 0.499761 0.151684 0.625639
O O11 0.509365 0.000000 0.687471
O O12 0.250000 0.311920 0.924010
O O13 0.013397 0.408968 0.894343
O O14 0.000000 0.305860 0.000000
O O15 0.750000 0.000000 0.076680
O O16 0.000000 0.000000 0.000000
O O17 0.750000 0.223127 0.423736
O O18 0.000000 0.217970 0.500000
O O19 0.250000 0.500000 0.922650
O O20 0.000000 0.500000 0.000000
#
# Coordination Sequence:
#
# PCOD9401774 Si02
#       7
#     8   8   8   8   4   8   4
#     4  11  22  39  58  79 108 145 184 228 280 331
#     4   8  14  26  46  74 107 138 168 205 254 307
#     4  10  22  41  60  76 102 142 181 224 277 328
#     4  10  19  33  54  83 113 146 185 227 272 322
#     4  12  24  38  58  84 113 144 181 228 272 326
#     4  10  20  34  56  85 112 141 179 224 267 317
#     4   8  16  30  50  76 110 144 181 224 269 318
#
# _framework density 18.123944999999999
#
# number of rings (size 3 to 8) (size 9 to 14) (size 15 to 20)
#    0.000    2.167    0.833    2.750    0.000    3.333 
#    0.000    0.000    1.833    0.000    0.000    0.000 
#    0.000    0.000    0.000    0.000    0.000    0.000 
#
# Total GULP energy -267574.819180 kJ/mol
# GULP energy per Si atom -5574.475400 kJ/mol
# Density = 1.808269 g / cm^3
# Si number density = 18.123945 Si / 1000 Ang^3
#
#
#
# Elastic Constant Matrix: (Units=GPa)
#
#
# Indices 1 2 3 4 5 6 
#
# 1 37.1710 40.5167 24.7377 0.0000 0.0000 0.0000
# 2 40.5167 215.0037 83.7646 0.0000 0.0000 0.0000
# 3 24.7377 83.7646 93.5529 0.0000 0.0000 0.0000
# 4 0.0000 0.0000 0.0000 -29.3465 0.0000 0.0000
# 5 0.0000 0.0000 0.0000 0.0000 24.3936 0.0000
# 6 0.0000 0.0000 0.0000 0.0000 0.0000 -11.7139
#
#
#
# Elastic Compliance Matrix: (Units=1/GPa)
#
#
# Indices 1 2 3 4 5 6 
#
# 1 0.035436 -0.004649 -0.005208 0.000000 0.000000 0.000000
# 2 -0.004649 0.007753 -0.005712 0.000000 0.000000 0.000000
# 3 -0.005208 -0.005712 0.017181 0.000000 0.000000 0.000000
# 4 0.000000 0.000000 0.000000 -0.034076 0.000000 0.000000
# 5 0.000000 0.000000 0.000000 0.000000 0.040994 0.000000
# 6 0.000000 0.000000 0.000000 0.000000 0.000000 -0.085368
#
#
# Mechanical properties :
#
#
# Convention : Reuss Voigt Hill
#
# Bulk Modulus (GPa) = 34.20948 71.52949 52.86948
# Shear Modulus (GPa) = 219.29311 9.78054 114.53682
#
# Velocity S-wave (km/s) = 11.01177 2.32555 7.95824
# Velocity P-wave (km/s) = 13.43856 6.83838 10.66204
#
# Compressibility (1/GPa) = 0.02923166
#
# Stress axis : x y z
#
# Youngs Moduli (GPa) = 28.22013 128.98934 58.20494
#
# Poissons Ratio (x) = 0.59965 0.30311
# Poissons Ratio (y) = 0.13119 0.33248
# Poissons Ratio (z) = 0.14696 0.73681
#
# Static dielectric constant tensor:
#      x y z
#    x 1.616960 0.000000 0.000000 
#    y 0.000000 1.668610 0.000000 
#    z 0.000000 0.000000 1.594270 
# 
# From -- ./inp_files/27670.got.cif
#   From: 2010.05.17/outbox.cif.g08.bks.cpg/sg51_14_cif.got.tgz:27670.got - 2010.06.03 11:52:47.
