data_PCOD9401537
_publ_section_title
;
Structure prediction by ZEFSAII (Michael W. Deem and Ramdas Pophale) SiO2 
 PCOD9401537
Probable space group: P M M A
;
_chemical_formula_sum "Si O2"
_cell_formula_units_Z 52
_cell_length_a 8.830746
_cell_length_b 23.187905
_cell_length_c 15.840251
_cell_angle_alpha 90.000000
_cell_angle_beta 90.000000
_cell_angle_gamma 90.000000
_cell_volume 3243.552746
_symmetry_space_group_name_H-M "P M M A"
_symmetry_group_IT_number 51
_symmetry_cell_setting 'orthorhombic'
loop_
_space_group_symop_operation_xyz
x,y,z
1/2-x,-y,z
1/2+x,-y,-z
-x,y,-z
-x,-y,-z
1/2+x,y,-z
1/2-x,y,z
x,-y,z
loop_
_atom_site_type_symbol
_atom_site_label
_atom_site_fract_x
_atom_site_fract_y
_atom_site_fract_z
Si Si1 0.932998 0.127576 0.095120
Si Si2 0.077223 0.649409 0.585138
Si Si3 0.432289 0.434571 0.908327
Si Si4 0.565151 0.658060 0.231379
Si Si5 0.568752 0.000000 0.093203
Si Si6 0.425086 0.789769 0.587950
Si Si7 0.431334 0.785849 0.232436
O O1 0.750000 0.132842 0.091178
O O2 0.001424 0.173724 0.159381
O O3 0.973210 0.062821 0.128626
O O4 0.000000 0.133719 0.000000
O O5 0.250000 0.630456 0.582535
O O6 0.013702 0.634474 0.677033
O O7 0.073728 0.719585 0.584573
O O8 0.000000 0.628823 0.500000
O O9 0.250000 0.433396 0.913711
O O10 0.477175 0.500000 0.884192
O O11 0.477771 0.386568 0.841041
O O12 0.500000 0.422393 0.000000
O O13 0.750000 0.663837 0.233887
O O14 0.494796 0.721102 0.219036
O O15 0.750000 0.000000 0.087208
O O16 0.500000 0.000000 0.000000
O O17 0.500000 0.809692 0.500000
O O18 0.250000 0.807844 0.592922
O O19 0.511541 0.805139 0.674259
O O20 0.250000 0.785781 0.230303
#
# Coordination Sequence:
#
# PCOD9401537 Si02
#       7
#     8   8   8   8   4   8   8
#     4  10  19  33  50  70  96 126 159 196 236 280
#     4   8  14  24  40  61  85 114 145 177 217 264
#     4   9  18  33  52  70  87 112 150 193 235 280
#     4   9  18  32  47  65  92 123 152 188 235 282
#     4   8  16  30  50  70  89 118 157 196 234 276
#     4   9  16  28  45  66  93 125 158 195 235 277
#     4  11  21  31  45  70 100 130 161 193 234 281
#
# _framework density 16.031803
#
# number of rings (size 3 to 8) (size 9 to 14) (size 15 to 20)
#    0.000    2.769    0.000    3.231    0.000    5.538 
#    0.000    1.538    0.000    0.462    0.000    0.538 
#    0.000    0.000    0.000    0.000    0.000    1.692 
#
# Total GULP energy -289480.883196 kJ/mol
# GULP energy per Si atom -5566.940061 kJ/mol
# Density = 1.599531 g / cm^3
# Si number density = 16.031803 Si / 1000 Ang^3
#
#
#
# Elastic Constant Matrix: (Units=GPa)
#
#
# Indices 1 2 3 4 5 6 
#
# 1 66.0008 37.3203 54.3732 0.0000 0.0000 0.0000
# 2 37.3203 80.0900 84.1719 0.0000 0.0000 0.0000
# 3 54.3732 84.1719 142.5971 0.0000 0.0000 0.0000
# 4 0.0000 0.0000 0.0000 -2.9568 0.0000 0.0000
# 5 0.0000 0.0000 0.0000 0.0000 29.2900 0.0000
# 6 0.0000 0.0000 0.0000 0.0000 0.0000 9.8188
#
#
#
# Elastic Compliance Matrix: (Units=1/GPa)
#
#
# Indices 1 2 3 4 5 6 
#
# 1 0.022538 -0.003873 -0.006308 0.000000 0.000000 0.000000
# 2 -0.003873 0.033555 -0.018330 0.000000 0.000000 0.000000
# 3 -0.006308 -0.018330 0.020238 0.000000 0.000000 0.000000
# 4 0.000000 0.000000 0.000000 -0.338202 0.000000 0.000000
# 5 0.000000 0.000000 0.000000 0.000000 0.034141 0.000000
# 6 0.000000 0.000000 0.000000 0.000000 0.000000 0.101846
#
#
# Mechanical properties :
#
#
# Convention : Reuss Voigt Hill
#
# Bulk Modulus (GPa) = 51.78896 71.15765 61.47330
# Shear Modulus (GPa) = -80.09289 14.75189 -32.67050
#
# Velocity S-wave (km/s) = -7.07582 3.03671 -4.51916
# Velocity P-wave (km/s) = 5.86364 7.53506 3.34626
#
# Compressibility (1/GPa) = 0.01930914
#
# Stress axis : x y z
#
# Youngs Moduli (GPa) = 44.37008 29.80213 49.41306
#
# Poissons Ratio (x) = 0.11542 0.31168
# Poissons Ratio (y) = 0.17184 0.90573
# Poissons Ratio (z) = 0.27987 0.54627
#
# Static dielectric constant tensor:
#      x y z
#    x 1.518420 0.000000 0.000000 
#    y 0.000000 1.531520 0.000000 
#    z 0.000000 0.000000 1.537470 
# 
# From -- ./inp_files/22052.got.cif
#   From: 2010.05.17/outbox.cif.g08.bks.cpg/sg51_12_cif.got.tgz:22052.got - 2010.06.03 11:52:47.
