data_PCOD9401277
_publ_section_title
;
Structure prediction by ZEFSAII (Michael W. Deem and Ramdas Pophale) SiO2 
 PCOD9401277
Probable space group: P M M A
;
_chemical_formula_sum "Si O2"
_cell_formula_units_Z 48
_cell_length_a 18.395878
_cell_length_b 9.017924
_cell_length_c 16.926516
_cell_angle_alpha 90.000000
_cell_angle_beta 90.000000
_cell_angle_gamma 90.000000
_cell_volume 2807.984251
_symmetry_space_group_name_H-M "P M M A"
_symmetry_group_IT_number 51
_symmetry_cell_setting 'orthorhombic'
loop_
_space_group_symop_operation_xyz
x,y,z
1/2-x,-y,z
1/2+x,-y,-z
-x,y,-z
-x,-y,-z
1/2+x,y,-z
1/2-x,y,z
x,-y,z
loop_
_atom_site_type_symbol
_atom_site_label
_atom_site_fract_x
_atom_site_fract_y
_atom_site_fract_z
Si Si1 0.084830 0.678200 0.487644
Si Si2 0.950193 0.823715 0.238584
Si Si3 0.334807 0.321584 0.649831
Si Si4 0.669238 0.678176 0.829416
Si Si5 0.896194 0.176140 0.677514
Si Si6 0.479871 0.321136 0.088771
O O1 0.088698 0.500000 0.478227
O O2 0.129947 0.719972 0.565474
O O3 0.113535 0.754303 0.408463
O O4 0.000000 0.717947 0.500000
O O5 0.880994 0.754194 0.281378
O O6 0.021009 0.793175 0.293495
O O7 0.968407 0.751292 0.154351
O O8 0.943047 0.000000 0.230858
O O9 0.250000 0.282883 0.652309
O O10 0.341547 0.500000 0.657098
O O11 0.750000 0.718370 0.857747
O O12 0.666312 0.500000 0.820430
O O13 0.653743 0.751354 0.744672
O O14 0.602739 0.720462 0.886854
O O15 0.885628 0.000000 0.675623
O O16 0.485851 0.500000 0.094170
O O17 0.500000 0.276757 0.000000
#
# Coordination Sequence:
#
# PCOD9401277 Si02
#       6
#     8   8   8   8   8   8
#     4  10  19  32  52  75 101 137 179 221 262 306
#     4  10  20  34  53  76 104 137 171 210 258 316
#     4  10  21  36  53  74 101 136 180 225 265 307
#     4   9  18  33  53  76 104 137 172 213 261 311
#     4  10  20  32  50  76 104 136 174 213 257 311
#     4   9  18  34  57  82 106 135 174 216 258 310
#
# _framework density 17.094114000000001
#
# number of rings (size 3 to 8) (size 9 to 14) (size 15 to 20)
#    0.000    2.333    1.667    1.000    0.000    4.000 
#    0.000    2.500    0.000    3.000    0.000    0.000 
#    0.000    0.000    0.000    0.000    0.000    0.000 
#
# Total GULP energy -267819.225116 kJ/mol
# GULP energy per Si atom -5579.567190 kJ/mol
# Density = 1.705521 g / cm^3
# Si number density = 17.094114 Si / 1000 Ang^3
#
#
#
# Elastic Constant Matrix: (Units=GPa)
#
#
# Indices 1 2 3 4 5 6 
#
# 1 128.7740 41.4524 83.8389 0.0000 0.0000 0.0000
# 2 41.4524 18.8685 45.3324 0.0000 0.0000 0.0000
# 3 83.8389 45.3324 163.5949 0.0000 0.0000 0.0000
# 4 0.0000 0.0000 0.0000 2.3363 0.0000 0.0000
# 5 0.0000 0.0000 0.0000 0.0000 17.4598 0.0000
# 6 0.0000 0.0000 0.0000 0.0000 0.0000 5.5553
#
#
#
# Elastic Compliance Matrix: (Units=1/GPa)
#
#
# Indices 1 2 3 4 5 6 
#
# 1 0.030149 -0.087102 0.008685 0.000000 0.000000 0.000000
# 2 -0.087102 0.410201 -0.069030 0.000000 0.000000 0.000000
# 3 0.008685 -0.069030 0.020790 0.000000 0.000000 0.000000
# 4 0.000000 0.000000 0.000000 0.428019 0.000000 0.000000
# 5 0.000000 0.000000 0.000000 0.000000 0.057274 0.000000
# 6 0.000000 0.000000 0.000000 0.000000 0.000000 0.180009
#
#
# Mechanical properties :
#
#
# Convention : Reuss Voigt Hill
#
# Bulk Modulus (GPa) = 6.01512 72.49832 39.25672
# Shear Modulus (GPa) = 3.38581 14.44453 8.91517
#
# Velocity S-wave (km/s) = 1.40890 2.91004 2.28619
# Velocity P-wave (km/s) = 2.48458 7.33447 5.47575
#
# Compressibility (1/GPa) = 0.16624765
#
# Stress axis : x y z
#
# Youngs Moduli (GPa) = 33.16856 2.43783 48.10044
#
# Poissons Ratio (x) = 0.21234 -0.41777
# Poissons Ratio (y) = 2.88904 3.32035
# Poissons Ratio (z) = -0.28808 0.16828
#
# Static dielectric constant tensor:
#      x y z
#    x 1.582220 0.000000 0.000000 
#    y 0.000000 1.562480 0.000000 
#    z 0.000000 0.000000 1.544330 
# 
# From -- ./inp_files/24727.got.cif
#   From: 2010.05.17/outbox.cif.g08.bks.cpg/sg51_13_cif.got.tgz:24727.got - 2010.06.03 11:52:47.
