data_PCOD9401090
_publ_section_title
;
Structure prediction by ZEFSAII (Michael W. Deem and Ramdas Pophale) SiO2 
 PCOD9401090
Probable space group: P M M A
;
_chemical_formula_sum "Si O2"
_cell_formula_units_Z 44
_cell_length_a 9.073227
_cell_length_b 13.672464
_cell_length_c 18.864127
_cell_angle_alpha 90.000000
_cell_angle_beta 90.000000
_cell_angle_gamma 90.000000
_cell_volume 2340.158517
_symmetry_space_group_name_H-M "P M M A"
_symmetry_group_IT_number 51
_symmetry_cell_setting 'orthorhombic'
loop_
_space_group_symop_operation_xyz
x,y,z
1/2-x,-y,z
1/2+x,-y,-z
-x,y,-z
-x,-y,-z
1/2+x,y,-z
1/2-x,y,z
x,-y,z
loop_
_atom_site_type_symbol
_atom_site_label
_atom_site_fract_x
_atom_site_fract_y
_atom_site_fract_z
Si Si1 0.923816 0.707767 0.791175
Si Si2 0.072978 0.389621 0.353467
Si Si3 0.421677 0.793412 0.571672
Si Si4 0.078418 0.887727 0.720328
Si Si5 0.573824 0.000000 0.076754
Si Si6 0.073719 0.781138 0.922706
O O1 0.750000 0.703488 0.804955
O O2 0.961792 0.630029 0.729708
O O3 0.969441 0.810275 0.754795
O O4 0.011232 0.706269 0.864826
O O5 0.250000 0.378488 0.360607
O O6 0.032192 0.500000 0.373349
O O7 0.994029 0.306954 0.399586
O O8 0.500000 0.825413 0.500000
O O9 0.250000 0.776240 0.557841
O O10 0.433467 0.870446 0.635924
O O11 0.250000 0.865121 0.740178
O O12 0.050184 0.000000 0.739008
O O13 0.536167 0.107947 0.105293
O O14 0.750000 0.000000 0.070842
O O15 0.500000 0.000000 0.000000
O O16 0.250000 0.774112 0.928893
O O17 0.000000 0.769990 0.000000
#
# Coordination Sequence:
#
# PCOD9401090 Si02
#       6
#     8   8   8   8   4   8
#     4  10  20  33  51  77 103 130 168 212 257 305
#     4   9  19  37  58  77 100 131 167 209 257 307
#     4  10  20  34  53  78 106 135 168 209 252 299
#     4   9  19  35  52  71 100 139 178 210 245 292
#     4   8  16  28  42  62  90 126 163 196 233 280
#     4  10  19  32  49  71 101 137 173 210 253 298
#
# _framework density 18.802144999999999
#
# number of rings (size 3 to 8) (size 9 to 14) (size 15 to 20)
#    0.000    2.545    0.000    1.636    1.273    3.636 
#    0.000    0.000    0.000    0.545    0.000    0.000 
#    0.000    0.000    0.000    0.000    0.000    0.000 
#
# Total GULP energy -245354.255869 kJ/mol
# GULP energy per Si atom -5576.233088 kJ/mol
# Density = 1.875935 g / cm^3
# Si number density = 18.802145 Si / 1000 Ang^3
#
#
#
# Elastic Constant Matrix: (Units=GPa)
#
#
# Indices 1 2 3 4 5 6 
#
# 1 35.7926 -3.3504 20.7185 0.0000 0.0000 0.0000
# 2 -3.3504 22.1863 -22.6134 0.0000 0.0000 0.0000
# 3 20.7185 -22.6134 62.2959 0.0000 0.0000 0.0000
# 4 0.0000 0.0000 0.0000 14.2237 0.0000 0.0000
# 5 0.0000 0.0000 0.0000 0.0000 37.1132 0.0000
# 6 0.0000 0.0000 0.0000 0.0000 0.0000 16.8334
#
#
#
# Elastic Compliance Matrix: (Units=1/GPa)
#
#
# Indices 1 2 3 4 5 6 
#
# 1 0.036156 -0.010788 -0.015941 0.000000 0.000000 0.000000
# 2 -0.010788 0.074761 0.030726 0.000000 0.000000 0.000000
# 3 -0.015941 0.030726 0.032508 0.000000 0.000000 0.000000
# 4 0.000000 0.000000 0.000000 0.070305 0.000000 0.000000
# 5 0.000000 0.000000 0.000000 0.000000 0.026945 0.000000
# 6 0.000000 0.000000 0.000000 0.000000 0.000000 0.059406
#
#
# Mechanical properties :
#
#
# Convention : Reuss Voigt Hill
#
# Bulk Modulus (GPa) = 6.60414 12.19826 9.40120
# Shear Modulus (GPa) = 14.59603 22.00207 18.29905
#
# Velocity S-wave (km/s) = 2.78923 3.42451 3.12307
# Velocity P-wave (km/s) = 3.72735 4.70512 4.24449
#
# Compressibility (1/GPa) = 0.15142013
#
# Stress axis : x y z
#
# Youngs Moduli (GPa) = 27.65771 13.37592 30.76206
#
# Poissons Ratio (x) = 0.14429 0.49037
# Poissons Ratio (y) = 0.29836 -0.94520
# Poissons Ratio (z) = 0.44089 -0.41099
#
# Static dielectric constant tensor:
#      x y z
#    x 1.628690 0.000000 0.000000 
#    y 0.000000 1.641940 0.000000 
#    z 0.000000 0.000000 1.682240 
# 
# From -- ./inp_files/27357.got.cif
#   From: 2010.05.17/outbox.cif.g08.bks.cpg/sg51_14_cif.got.tgz:27357.got - 2010.06.03 11:52:47.
