data_PCOD9401542
_publ_section_title
;
Structure prediction by ZEFSAII (Michael W. Deem and Ramdas Pophale) SiO2 
 PCOD9401542
Probable space group: P M M A
;
_chemical_formula_sum "Si O2"
_cell_formula_units_Z 52
_cell_length_a 8.820748
_cell_length_b 22.929556
_cell_length_c 15.803814
_cell_angle_alpha 90.000000
_cell_angle_beta 90.000000
_cell_angle_gamma 90.000000
_cell_volume 3196.413600
_symmetry_space_group_name_H-M "P M M A"
_symmetry_group_IT_number 51
_symmetry_cell_setting 'orthorhombic'
loop_
_space_group_symop_operation_xyz
x,y,z
1/2-x,-y,z
1/2+x,-y,-z
-x,y,-z
-x,-y,-z
1/2+x,y,-z
1/2-x,y,z
x,-y,z
loop_
_atom_site_type_symbol
_atom_site_label
_atom_site_fract_x
_atom_site_fract_y
_atom_site_fract_z
Si Si1 0.931547 0.282894 0.732270
Si Si2 0.076737 0.144913 0.914425
Si Si3 0.930423 0.932040 0.592761
Si Si4 0.433214 0.371034 0.595365
Si Si5 0.931471 0.500000 0.406490
Si Si6 0.425440 0.286868 0.911845
Si Si7 0.933394 0.153441 0.269632
O O1 0.750000 0.281763 0.729684
O O2 0.997789 0.324163 0.659250
O O3 0.987459 0.302824 0.825753
O O4 0.997438 0.217796 0.719233
O O5 0.250000 0.126125 0.917075
O O6 0.072686 0.215881 0.915011
O O7 0.013176 0.129633 0.822297
O O8 0.000000 0.124026 0.000000
O O9 0.750000 0.921632 0.591188
O O10 0.000000 0.922842 0.500000
O O11 0.011008 0.889354 0.658002
O O12 0.955936 0.000000 0.615250
O O13 0.500000 0.364947 0.500000
O O14 0.250000 0.365691 0.591648
O O15 0.473551 0.436483 0.629035
O O16 0.750000 0.500000 0.412411
O O17 0.000000 0.500000 0.500000
O O18 0.250000 0.304863 0.906628
O O19 0.500000 0.307062 0.000000
O O20 0.750000 0.158175 0.267827
#
# Coordination Sequence:
#
# PCOD9401542 Si02
#       7
#     8   8   8   8   4   8   8
#     4  11  21  32  47  72 103 134 165 200 244 292
#     4   8  15  26  43  67  94 123 154 188 229 276
#     4  10  21  37  56  76  96 122 159 201 243 290
#     4  10  19  33  50  71  98 129 164 202 243 290
#     4   8  16  30  50  70  91 122 161 202 242 284
#     4   9  16  28  45  67  95 128 163 201 241 285
#     4  10  20  34  51  73 100 129 161 200 244 289
#
# _framework density 16.268232000000001
#
# number of rings (size 3 to 8) (size 9 to 14) (size 15 to 20)
#    0.000    2.462    0.000    4.154    0.000    6.462 
#    0.000    3.077    0.000    0.462    0.000    0.538 
#    0.000    0.000    0.000    0.000    0.000    0.000 
#
# Total GULP energy -289680.544280 kJ/mol
# GULP energy per Si atom -5570.779698 kJ/mol
# Density = 1.623121 g / cm^3
# Si number density = 16.268232 Si / 1000 Ang^3
#
#
#
# Elastic Constant Matrix: (Units=GPa)
#
#
# Indices 1 2 3 4 5 6 
#
# 1 101.4597 47.2285 65.7591 0.0000 0.0000 0.0000
# 2 47.2285 66.5629 75.0565 0.0000 0.0000 0.0000
# 3 65.7591 75.0565 135.3187 0.0000 0.0000 0.0000
# 4 0.0000 0.0000 0.0000 -5.3726 0.0000 0.0000
# 5 0.0000 0.0000 0.0000 0.0000 30.9330 0.0000
# 6 0.0000 0.0000 0.0000 0.0000 0.0000 15.9666
#
#
#
# Elastic Compliance Matrix: (Units=1/GPa)
#
#
# Indices 1 2 3 4 5 6 
#
# 1 0.015417 -0.006650 -0.003803 0.000000 0.000000 0.000000
# 2 -0.006650 0.042978 -0.020607 0.000000 0.000000 0.000000
# 3 -0.003803 -0.020607 0.020668 0.000000 0.000000 0.000000
# 4 0.000000 0.000000 0.000000 -0.186128 0.000000 0.000000
# 5 0.000000 0.000000 0.000000 0.000000 0.032328 0.000000
# 6 0.000000 0.000000 0.000000 0.000000 0.000000 0.062631
#
#
# Mechanical properties :
#
#
# Convention : Reuss Voigt Hill
#
# Bulk Modulus (GPa) = 59.02285 75.49216 67.25750
# Shear Modulus (GPa) = 89.82964 15.99187 52.91076
#
# Velocity S-wave (km/s) = 7.43893 3.13870 5.70917
# Velocity P-wave (km/s) = 10.49492 7.72274 9.21369
#
# Compressibility (1/GPa) = 0.01694259
#
# Stress axis : x y z
#
# Youngs Moduli (GPa) = 64.86477 23.26771 48.38378
#
# Poissons Ratio (x) = 0.15473 0.18402
# Poissons Ratio (y) = 0.43135 0.99703
# Poissons Ratio (z) = 0.24670 0.47947
#
# Static dielectric constant tensor:
#      x y z
#    x 1.583440 0.000000 0.000000 
#    y 0.000000 1.536700 0.000000 
#    z 0.000000 0.000000 1.545670 
# 
# From -- ./inp_files/21522.got.cif
#   From: 2010.05.17/outbox.cif.g08.bks.cpg/sg51_11_cif.got.tgz:21522.got - 2010.06.03 11:52:47.
