data_PCOD9401375
_publ_section_title
;
Structure prediction by ZEFSAII (Michael W. Deem and Ramdas Pophale) SiO2 
 PCOD9401375
Probable space group: P M M A
;
_chemical_formula_sum "Si O2"
_cell_formula_units_Z 56
_cell_length_a 14.820945
_cell_length_b 15.216286
_cell_length_c 12.006964
_cell_angle_alpha 90.000000
_cell_angle_beta 90.000000
_cell_angle_gamma 90.000000
_cell_volume 2707.807374
_symmetry_space_group_name_H-M "P M M A"
_symmetry_group_IT_number 51
_symmetry_cell_setting 'orthorhombic'
loop_
_space_group_symop_operation_xyz
x,y,z
1/2-x,-y,z
1/2+x,-y,-z
-x,y,-z
-x,-y,-z
1/2+x,y,-z
1/2-x,y,z
x,-y,z
loop_
_atom_site_type_symbol
_atom_site_label
_atom_site_fract_x
_atom_site_fract_y
_atom_site_fract_z
Si Si1 0.392708 0.898808 0.017599
Si Si2 0.022888 0.098694 0.380140
Si Si3 0.644679 0.219154 0.766597
Si Si4 0.454041 0.598149 0.233519
Si Si5 0.651349 0.134094 0.239047
Si Si6 0.350622 0.661287 0.775860
Si Si7 0.350839 0.401874 0.012254
O O1 0.369300 0.824023 0.109276
O O2 0.368621 0.000000 0.053087
O O3 0.500000 0.896252 0.000000
O O4 0.354180 0.882391 0.893852
O O5 0.933999 0.095871 0.302892
O O6 0.000000 0.139118 0.500000
O O7 0.098182 0.150817 0.314948
O O8 0.055146 0.000000 0.400561
O O9 0.750000 0.227844 0.749764
O O10 0.598055 0.312514 0.736874
O O11 0.424526 0.500000 0.271328
O O12 0.559643 0.610296 0.259751
O O13 0.429691 0.600009 0.101510
O O14 0.750000 0.103505 0.277289
O O15 0.645184 0.238402 0.261361
O O16 0.250000 0.625655 0.749751
O O17 0.357773 0.663429 0.910514
O O18 0.250000 0.390774 0.065042
O O19 0.351482 0.500000 0.961732
#
# Coordination Sequence:
#
# PCOD9401375 Si02
#       7
#     8   8   8   8   8   8   8
#     4  11  21  36  61  92 132 175 209 251 314 385
#     4  11  25  46  70  95 125 163 212 266 319 374
#     4  12  25  42  64  95 133 170 214 262 314 379
#     4  11  21  35  56  83 120 165 209 256 311 369
#     4  11  22  38  62  94 131 167 206 254 311 381
#     4  10  19  32  52  80 116 161 206 251 306 368
#     4   9  17  28  44  74 117 162 207 250 295 357
#
# _framework density 20.68094
#
# number of rings (size 3 to 8) (size 9 to 14) (size 15 to 20)
#    0.000    1.286    2.857    3.429    0.000    7.429 
#    0.000    1.429    0.000    0.429    0.000    0.000 
#    0.000    0.000    0.000    0.000    0.000    0.000 
#
# Total GULP energy -312413.332793 kJ/mol
# GULP energy per Si atom -5578.809514 kJ/mol
# Density = 2.063387 g / cm^3
# Si number density = 20.680940 Si / 1000 Ang^3
#
#
#
# Elastic Constant Matrix: (Units=GPa)
#
#
# Indices 1 2 3 4 5 6 
#
# 1 140.9065 43.5307 16.9623 0.0000 0.0000 0.0000
# 2 43.5307 99.1362 13.3544 0.0000 0.0000 0.0000
# 3 16.9623 13.3544 55.9946 0.0000 0.0000 0.0000
# 4 0.0000 0.0000 0.0000 -20.1262 0.0000 0.0000
# 5 0.0000 0.0000 0.0000 0.0000 -1.7321 0.0000
# 6 0.0000 0.0000 0.0000 0.0000 0.0000 -19.8390
#
#
#
# Elastic Compliance Matrix: (Units=1/GPa)
#
#
# Indices 1 2 3 4 5 6 
#
# 1 0.008367 -0.003443 -0.001713 0.000000 0.000000 0.000000
# 2 -0.003443 0.011839 -0.001781 0.000000 0.000000 0.000000
# 3 -0.001713 -0.001781 0.018803 0.000000 0.000000 0.000000
# 4 0.000000 0.000000 0.000000 -0.049686 0.000000 0.000000
# 5 0.000000 0.000000 0.000000 0.000000 -0.577331 0.000000
# 6 0.000000 0.000000 0.000000 0.000000 0.000000 -0.050406
#
#
# Mechanical properties :
#
#
# Convention : Reuss Voigt Hill
#
# Bulk Modulus (GPa) = 39.78628 49.30357 44.54492
# Shear Modulus (GPa) = -8.11474 6.47319 -0.82078
#
# Velocity S-wave (km/s) = -1.98300 1.77111 -0.63066
# Velocity P-wave (km/s) = 3.74658 5.29852 4.58863
#
# Compressibility (1/GPa) = 0.02513430
#
# Stress axis : x y z
#
# Youngs Moduli (GPa) = 119.51938 84.46776 53.18426
#
# Poissons Ratio (x) = 0.29083 0.09113
# Poissons Ratio (y) = 0.41151 0.09469
# Poissons Ratio (z) = 0.20478 0.15040
#
# Static dielectric constant tensor:
#      x y z
#    x 1.625320 0.000000 0.000000 
#    y 0.000000 1.818110 0.000000 
#    z 0.000000 0.000000 1.712410 
# 
# From -- ./inp_files/16577.got.cif
#   From: 2010.05.17/outbox.cif.g08.bks.cpg/sg51_9_cif.got.tgz:16577.got - 2010.06.03 11:52:47.
