data_PCOD9401475
_publ_section_title
;
Structure prediction by ZEFSAII (Michael W. Deem and Ramdas Pophale) SiO2 
 PCOD9401475
Probable space group: P M M A
;
_chemical_formula_sum "Si O2"
_cell_formula_units_Z 48
_cell_length_a 24.176126
_cell_length_b 7.427944
_cell_length_c 11.140575
_cell_angle_alpha 90.000000
_cell_angle_beta 90.000000
_cell_angle_gamma 90.000000
_cell_volume 2000.612316
_symmetry_space_group_name_H-M "P M M A"
_symmetry_group_IT_number 51
_symmetry_cell_setting 'orthorhombic'
loop_
_space_group_symop_operation_xyz
x,y,z
1/2-x,-y,z
1/2+x,-y,-z
-x,y,-z
-x,-y,-z
1/2+x,y,-z
1/2-x,y,z
x,-y,z
loop_
_atom_site_type_symbol
_atom_site_label
_atom_site_fract_x
_atom_site_fract_y
_atom_site_fract_z
Si Si1 0.416775 0.281448 0.579695
Si Si2 0.312242 0.280847 0.713675
Si Si3 0.981328 0.283052 0.173186
Si Si4 0.187481 0.209010 0.203719
Si Si5 0.077471 0.291826 0.319020
Si Si6 0.624557 0.718027 0.042162
O O1 0.417366 0.500000 0.572799
O O2 0.354508 0.223385 0.610627
O O3 0.451990 0.241926 0.698438
O O4 0.434872 0.212541 0.449867
O O5 0.250000 0.216506 0.701299
O O6 0.311388 0.500000 0.712382
O O7 0.339412 0.231489 0.840971
O O8 0.983282 0.500000 0.152940
O O9 0.938370 0.218518 0.071551
O O10 0.043166 0.218462 0.204829
O O11 0.250000 0.283449 0.202849
O O12 0.142542 0.289555 0.293965
O O13 0.191091 0.000000 0.234264
O O14 0.158262 0.223862 0.074015
O O15 0.059946 0.500000 0.326019
O O16 0.622039 0.500000 0.035437
#
# Coordination Sequence:
#
# PCOD9401475 Si02
#       6
#     8   8   8   8   8   8
#     4   8  14  25  45  76 110 137 160 195 245 295
#     4   8  13  22  41  72 103 126 156 205 254 287
#     4   8  15  29  52  84 113 130 153 202 261 300
#     4  11  25  41  52  66  97 138 174 213 259 298
#     4  10  19  32  54  80 105 136 171 202 237 297
#     4   9  17  32  55  78  99 127 166 209 253 304
#
# _framework density 23.992654000000002
#
# number of rings (size 3 to 8) (size 9 to 14) (size 15 to 20)
#    0.000    3.000    0.000    3.500    0.000    5.333 
#    0.000    5.833    0.000    6.000    0.000    9.333 
#    0.000    0.000    0.000    0.000    0.000    0.000 
#
# Total GULP energy -267837.780870 kJ/mol
# GULP energy per Si atom -5579.953768 kJ/mol
# Density = 2.393805 g / cm^3
# Si number density = 23.992654 Si / 1000 Ang^3
#
#
#
# Elastic Constant Matrix: (Units=GPa)
#
#
# Indices 1 2 3 4 5 6 
#
# 1 134.9244 -6.6490 13.1713 0.0000 0.0000 0.0000
# 2 -6.6490 68.9582 -9.4796 0.0000 0.0000 0.0000
# 3 13.1713 -9.4796 92.5128 0.0000 0.0000 0.0000
# 4 0.0000 0.0000 0.0000 22.8333 0.0000 0.0000
# 5 0.0000 0.0000 0.0000 0.0000 23.0638 0.0000
# 6 0.0000 0.0000 0.0000 0.0000 0.0000 -31.0623
#
#
#
# Elastic Compliance Matrix: (Units=1/GPa)
#
#
# Indices 1 2 3 4 5 6 
#
# 1 0.007539 0.000588 -0.001013 0.000000 0.000000 0.000000
# 2 0.000588 0.014755 0.001428 0.000000 0.000000 0.000000
# 3 -0.001013 0.001428 0.011100 0.000000 0.000000 0.000000
# 4 0.000000 0.000000 0.000000 0.043796 0.000000 0.000000
# 5 0.000000 0.000000 0.000000 0.000000 0.043358 0.000000
# 6 0.000000 0.000000 0.000000 0.000000 0.000000 -0.032193
#
#
# Mechanical properties :
#
#
# Convention : Reuss Voigt Hill
#
# Bulk Modulus (GPa) = 28.24920 32.27564 30.26242
# Shear Modulus (GPa) = 50.94318 22.92381 36.93349
#
# Velocity S-wave (km/s) = 4.61291 3.09439 3.92773
# Velocity P-wave (km/s) = 6.33810 5.12333 5.76281
#
# Compressibility (1/GPa) = 0.03539924
#
# Stress axis : x y z
#
# Youngs Moduli (GPa) = 132.63610 67.77581 90.09080
#
# Poissons Ratio (x) = -0.03983 0.09128
# Poissons Ratio (y) = -0.07795 -0.12867
# Poissons Ratio (z) = 0.13439 -0.09680
#
# Static dielectric constant tensor:
#      x y z
#    x 1.952370 0.000000 0.000000 
#    y 0.000000 1.989480 0.000000 
#    z 0.000000 0.000000 1.905490 
# 
# From -- ./inp_files/18602.got.cif
#   From: 2010.05.17/outbox.cif.g08.bks.cpg/sg51_10_cif.got.tgz:18602.got - 2010.06.03 11:52:47.
