data_PCOD9401801
_publ_section_title
;
Structure prediction by ZEFSAII (Michael W. Deem and Ramdas Pophale) SiO2 
 PCOD9401801
Probable space group: P M M A
;
_chemical_formula_sum "Si O2"
_cell_formula_units_Z 56
_cell_length_a 14.813843
_cell_length_b 7.603159
_cell_length_c 23.334030
_cell_angle_alpha 90.000000
_cell_angle_beta 90.000000
_cell_angle_gamma 90.000000
_cell_volume 2628.158554
_symmetry_space_group_name_H-M "P M M A"
_symmetry_group_IT_number 51
_symmetry_cell_setting 'orthorhombic'
loop_
_space_group_symop_operation_xyz
x,y,z
1/2-x,-y,z
1/2+x,-y,-z
-x,y,-z
-x,-y,-z
1/2+x,y,-z
1/2-x,y,z
x,-y,z
loop_
_atom_site_type_symbol
_atom_site_label
_atom_site_fract_x
_atom_site_fract_y
_atom_site_fract_z
Si Si1 0.153706 0.289213 0.409861
Si Si2 0.588956 0.204265 0.472023
Si Si3 0.537471 0.785362 0.914263
Si Si4 0.962445 0.292235 0.692547
Si Si5 0.352437 0.207556 0.194781
Si Si6 0.849411 0.788180 0.348432
Si Si7 0.645799 0.214179 0.029242
O O1 0.250000 0.251286 0.381357
O O2 0.145940 0.500000 0.416098
O O3 0.153175 0.212871 0.473330
O O4 0.075716 0.221448 0.368145
O O5 0.500000 0.289694 0.500000
O O6 0.626046 0.278730 0.412710
O O7 0.568627 0.000000 0.459750
O O8 0.584250 0.721069 0.856126
O O9 0.433896 0.729222 0.926770
O O10 0.534318 0.000000 0.913514
O O11 0.602960 0.737725 0.967425
O O12 0.948289 0.500000 0.691128
O O13 0.904589 0.225199 0.745405
O O14 0.068698 0.257055 0.693349
O O15 0.250000 0.279870 0.196504
O O16 0.343895 0.000000 0.183119
O O17 0.750000 0.724049 0.332139
O O18 0.845116 0.000000 0.351211
O O19 0.750000 0.274164 0.036838
O O20 0.648833 0.000000 0.031049
#
# Coordination Sequence:
#
# PCOD9401801 Si02
#       7
#     8   8   8   8   8   8   8
#     4  10  21  35  51  73 101 132 166 206 253 305
#     4  10  19  33  55  80 105 130 159 201 253 311
#     4   8  14  24  40  67 102 136 171 212 259 315
#     4  11  23  38  55  74 102 136 175 219 260 307
#     4  10  20  34  53  76 103 137 176 218 265 315
#     4  10  21  38  58  79 104 134 170 212 258 311
#     4   8  12  20  38  66 101 137 169 207 259 313
#
# _framework density 21.307694999999999
#
# number of rings (size 3 to 8) (size 9 to 14) (size 15 to 20)
#    0.000    2.429    1.429    2.571    0.000    5.143 
#    0.000    0.714    0.000    2.571    0.000    2.000 
#    0.000    1.143    0.000    0.000    0.000    0.000 
#
# Total GULP energy -312288.060456 kJ/mol
# GULP energy per Si atom -5576.572508 kJ/mol
# Density = 2.125920 g / cm^3
# Si number density = 21.307695 Si / 1000 Ang^3
#
#
#
# Elastic Constant Matrix: (Units=GPa)
#
#
# Indices 1 2 3 4 5 6 
#
# 1 202.7720 2.6906 67.0419 0.0000 0.0000 0.0000
# 2 2.6906 45.2787 -1.6718 0.0000 0.0000 0.0000
# 3 67.0419 -1.6718 96.6802 0.0000 0.0000 0.0000
# 4 0.0000 0.0000 0.0000 37.9735 0.0000 0.0000
# 5 0.0000 0.0000 0.0000 0.0000 18.2593 0.0000
# 6 0.0000 0.0000 0.0000 0.0000 0.0000 34.5138
#
#
#
# Elastic Compliance Matrix: (Units=1/GPa)
#
#
# Indices 1 2 3 4 5 6 
#
# 1 0.006412 -0.000546 -0.004456 0.000000 0.000000 0.000000
# 2 -0.000546 0.022146 0.000761 0.000000 0.000000 0.000000
# 3 -0.004456 0.000761 0.013446 0.000000 0.000000 0.000000
# 4 0.000000 0.000000 0.000000 0.026334 0.000000 0.000000
# 5 0.000000 0.000000 0.000000 0.000000 0.054767 0.000000
# 6 0.000000 0.000000 0.000000 0.000000 0.000000 0.028974
#
#
# Mechanical properties :
#
#
# Convention : Reuss Voigt Hill
#
# Bulk Modulus (GPa) = 29.82919 53.42803 41.62861
# Shear Modulus (GPa) = 29.11475 36.59400 32.85437
#
# Velocity S-wave (km/s) = 3.70049 4.14866 3.93097
# Velocity P-wave (km/s) = 5.68224 6.93379 6.33898
#
# Compressibility (1/GPa) = 0.03352421
#
# Stress axis : x y z
#
# Youngs Moduli (GPa) = 155.95494 45.15496 74.36930
#
# Poissons Ratio (x) = 0.02463 0.33138
# Poissons Ratio (y) = 0.08508 -0.05661
# Poissons Ratio (z) = 0.69491 -0.03437
#
# Static dielectric constant tensor:
#      x y z
#    x 1.912520 0.000000 0.000000 
#    y 0.000000 1.797970 0.000000 
#    z 0.000000 0.000000 1.754280 
# 
# From -- ./inp_files/33469.got.cif
#   From: 2010.05.17/outbox.cif.g08.bks.cpg/sg51_17_cif.got.tgz:33469.got - 2010.06.03 11:52:47.
