data_PCOD9401583
_publ_section_title
;
Structure prediction by ZEFSAII (Michael W. Deem and Ramdas Pophale) SiO2 
 PCOD9401583
Probable space group: P M M A
;
_chemical_formula_sum "Si O2"
_cell_formula_units_Z 64
_cell_length_a 28.574637
_cell_length_b 9.060467
_cell_length_c 13.487444
_cell_angle_alpha 90.000000
_cell_angle_beta 90.000000
_cell_angle_gamma 90.000000
_cell_volume 3491.893257
_symmetry_space_group_name_H-M "P M M A"
_symmetry_group_IT_number 51
_symmetry_cell_setting 'orthorhombic'
loop_
_space_group_symop_operation_xyz
x,y,z
1/2-x,-y,z
1/2+x,-y,-z
-x,y,-z
-x,-y,-z
1/2+x,y,-z
1/2-x,y,z
x,-y,z
loop_
_atom_site_type_symbol
_atom_site_label
_atom_site_fract_x
_atom_site_fract_y
_atom_site_fract_z
Si Si1 0.479599 0.170920 0.221797
Si Si2 0.306340 0.327316 0.797411
Si Si3 0.456647 0.329035 0.924258
Si Si4 0.035114 0.663536 0.409443
Si Si5 0.355545 0.327742 0.407217
Si Si6 0.860162 0.176854 0.022296
Si Si7 0.306402 0.827779 0.591589
Si Si8 0.371193 0.822493 0.198478
O O1 0.520468 0.267293 0.175309
O O2 0.478641 0.204671 0.337555
O O3 0.426751 0.214431 0.189264
O O4 0.486411 0.000000 0.196728
O O5 0.250000 0.315547 0.802428
O O6 0.319005 0.500000 0.796350
O O7 0.328252 0.249376 0.893348
O O8 0.321531 0.252229 0.693668
O O9 0.442737 0.500000 0.917101
O O10 0.412704 0.232681 0.956767
O O11 0.500000 0.316645 0.000000
O O12 0.031835 0.500000 0.359346
O O13 0.089492 0.681083 0.436156
O O14 0.000000 0.662176 0.500000
O O15 0.342428 0.500000 0.402319
O O16 0.326957 0.246345 0.492965
O O17 0.352098 0.255774 0.297377
O O18 0.858098 0.000000 0.029482
O O19 0.848574 0.217066 0.907592
O O20 0.250000 0.817900 0.587518
O O21 0.319488 0.000000 0.595550
O O22 0.368230 0.000000 0.211715
#
# Coordination Sequence:
#
# PCOD9401583 Si02
#       8
#     8   8   8   8   8   8   8   8
#     4  10  19  33  52  74 106 145 187 232 275 324
#     4  10  22  41  63  87 116 148 185 233 289 346
#     4  11  22  34  52  79 112 149 190 234 278 329
#     4   9  19  35  52  73 106 146 184 223 272 331
#     4  10  20  34  57  84 110 145 187 234 284 334
#     4  11  22  37  59  85 115 152 195 240 288 343
#     4  10  21  39  63  87 113 147 187 233 287 344
#     4   9  19  35  54  78 111 151 189 229 279 335
#
# _framework density 18.328167000000001
#
# number of rings (size 3 to 8) (size 9 to 14) (size 15 to 20)
#    0.000    2.000    1.250    2.250    0.000    5.250 
#    0.000    4.375    0.000    0.750    0.000    0.000 
#    0.000    0.000    0.000    0.000    0.000    0.000 
#
# Total GULP energy -357003.959781 kJ/mol
# GULP energy per Si atom -5578.186872 kJ/mol
# Density = 1.828645 g / cm^3
# Si number density = 18.328167 Si / 1000 Ang^3
#
#
#
# Elastic Constant Matrix: (Units=GPa)
#
#
# Indices 1 2 3 4 5 6 
#
# 1 26.0442 38.4999 46.5256 0.0000 0.0000 0.0000
# 2 38.4999 100.4286 78.0030 0.0000 0.0000 0.0000
# 3 46.5256 78.0030 145.1945 0.0000 0.0000 0.0000
# 4 0.0000 0.0000 0.0000 30.9326 0.0000 0.0000
# 5 0.0000 0.0000 0.0000 0.0000 32.4173 0.0000
# 6 0.0000 0.0000 0.0000 0.0000 0.0000 26.9936
#
#
#
# Elastic Compliance Matrix: (Units=1/GPa)
#
#
# Indices 1 2 3 4 5 6 
#
# 1 0.124700 -0.028776 -0.024499 0.000000 0.000000 0.000000
# 2 -0.028776 0.023728 -0.003526 0.000000 0.000000 0.000000
# 3 -0.024499 -0.003526 0.016632 0.000000 0.000000 0.000000
# 4 0.000000 0.000000 0.000000 0.032328 0.000000 0.000000
# 5 0.000000 0.000000 0.000000 0.000000 0.030848 0.000000
# 6 0.000000 0.000000 0.000000 0.000000 0.000000 0.037046
#
#
# Mechanical properties :
#
#
# Convention : Reuss Voigt Hill
#
# Bulk Modulus (GPa) = 19.43373 66.41380 42.92377
# Shear Modulus (GPa) = 12.62509 25.31129 18.96819
#
# Velocity S-wave (km/s) = 2.62741 3.72022 3.22051
# Velocity P-wave (km/s) = 4.45316 7.40054 6.10732
#
# Compressibility (1/GPa) = 0.05145692
#
# Stress axis : x y z
#
# Youngs Moduli (GPa) = 8.01926 42.14474 60.12453
#
# Poissons Ratio (x) = 1.21276 1.47299
# Poissons Ratio (y) = 0.23076 0.21202
# Poissons Ratio (z) = 0.19646 0.14862
#
# Static dielectric constant tensor:
#      x y z
#    x 1.614300 0.000000 0.000000 
#    y 0.000000 1.632970 0.000000 
#    z 0.000000 0.000000 1.639080 
# 
# From -- ./inp_files/19640.got.cif
#   From: 2010.05.17/outbox.cif.g08.bks.cpg/sg51_10_cif.got.tgz:19640.got - 2010.06.03 11:52:47.
