data_PCOD9401265
_publ_section_title
;
Structure prediction by ZEFSAII (Michael W. Deem and Ramdas Pophale) SiO2 
 PCOD9401265
Probable space group: P M M A
;
_chemical_formula_sum "Si O2"
_cell_formula_units_Z 64
_cell_length_a 19.284221
_cell_length_b 9.102276
_cell_length_c 21.826022
_cell_angle_alpha 90.000000
_cell_angle_beta 90.000000
_cell_angle_gamma 90.000000
_cell_volume 3831.128233
_symmetry_space_group_name_H-M "P M M A"
_symmetry_group_IT_number 51
_symmetry_cell_setting 'orthorhombic'
loop_
_space_group_symop_operation_xyz
x,y,z
1/2-x,-y,z
1/2+x,-y,-z
-x,y,-z
-x,-y,-z
1/2+x,y,-z
1/2-x,y,z
x,-y,z
loop_
_atom_site_type_symbol
_atom_site_label
_atom_site_fract_x
_atom_site_fract_y
_atom_site_fract_z
Si Si1 0.031743 0.674099 0.067055
Si Si2 0.668105 0.324728 0.526760
Si Si3 0.637395 0.833669 0.767136
Si Si4 0.093653 0.675787 0.349546
Si Si5 0.325976 0.177419 0.099678
Si Si6 0.521619 0.168202 0.185185
Si Si7 0.167925 0.174604 0.602524
Si Si8 0.561741 0.323755 0.305657
O O1 0.035434 0.500000 0.079766
O O2 0.108604 0.743548 0.069897
O O3 0.986195 0.751665 0.120034
O O4 0.000000 0.696583 0.000000
O O5 0.750000 0.302814 0.540228
O O6 0.657706 0.500000 0.517150
O O7 0.622251 0.276235 0.584587
O O8 0.651159 0.239514 0.464540
O O9 0.639282 0.740355 0.705757
O O10 0.674207 0.778709 0.828457
O O11 0.556980 0.837036 0.788534
O O12 0.660188 0.000000 0.754537
O O13 0.098644 0.500000 0.347571
O O14 0.013304 0.714136 0.336138
O O15 0.250000 0.209515 0.073110
O O16 0.336549 0.000000 0.098478
O O17 0.562689 0.256553 0.237279
O O18 0.545760 0.000000 0.178679
O O19 0.250000 0.201004 0.612867
O O20 0.121487 0.254963 0.652833
O O21 0.155873 0.000000 0.604000
O O22 0.566675 0.500000 0.303144
#
# Coordination Sequence:
#
# PCOD9401265 Si02
#       8
#     8   8   8   8   8   8   8   8
#     4  10  20  33  51  77 107 138 172 208 248 296
#     4   9  18  33  49  64  89 126 164 201 243 293
#     4   8  15  27  43  65  94 126 157 192 235 281
#     4   9  18  30  45  69  98 127 161 199 239 287
#     4   9  18  32  49  71 100 134 173 213 250 293
#     4   9  17  31  51  74 100 128 160 198 238 283
#     4  10  21  36  52  70  92 120 160 208 255 305
#     4  10  19  32  52  75 100 128 158 199 249 297
#
# _framework density 16.705261
#
# number of rings (size 3 to 8) (size 9 to 14) (size 15 to 20)
#    0.000    2.750    0.000    2.250    0.000    7.000 
#    0.000    2.500    0.000    0.750    0.000    3.500 
#    0.000    0.000    0.000    0.000    0.000    0.000 
#
# Total GULP energy -356653.068431 kJ/mol
# GULP energy per Si atom -5572.704194 kJ/mol
# Density = 1.666724 g / cm^3
# Si number density = 16.705261 Si / 1000 Ang^3
#
#
#
# Elastic Constant Matrix: (Units=GPa)
#
#
# Indices 1 2 3 4 5 6 
#
# 1 62.0666 48.2176 57.7458 0.0000 0.0000 0.0000
# 2 48.2176 75.5219 71.1110 0.0000 0.0000 0.0000
# 3 57.7458 71.1110 125.3945 0.0000 0.0000 0.0000
# 4 0.0000 0.0000 0.0000 17.6426 0.0000 0.0000
# 5 0.0000 0.0000 0.0000 0.0000 14.7144 0.0000
# 6 0.0000 0.0000 0.0000 0.0000 0.0000 15.3550
#
#
#
# Elastic Compliance Matrix: (Units=1/GPa)
#
#
# Indices 1 2 3 4 5 6 
#
# 1 0.034875 -0.015329 -0.007367 0.000000 0.000000 0.000000
# 2 -0.015329 0.035151 -0.012875 0.000000 0.000000 0.000000
# 3 -0.007367 -0.012875 0.018669 0.000000 0.000000 0.000000
# 4 0.000000 0.000000 0.000000 0.056681 0.000000 0.000000
# 5 0.000000 0.000000 0.000000 0.000000 0.067961 0.000000
# 6 0.000000 0.000000 0.000000 0.000000 0.000000 0.065125
#
#
# Mechanical properties :
#
#
# Convention : Reuss Voigt Hill
#
# Bulk Modulus (GPa) = 56.97251 68.57020 62.77136
# Shear Modulus (GPa) = 14.06649 15.26965 14.66807
#
# Velocity S-wave (km/s) = 2.90494 3.02663 2.96641
# Velocity P-wave (km/s) = 6.74019 7.30412 7.02781
#
# Compressibility (1/GPa) = 0.01755232
#
# Stress axis : x y z
#
# Youngs Moduli (GPa) = 28.67395 28.44861 53.56545
#
# Poissons Ratio (x) = 0.43610 0.39462
# Poissons Ratio (y) = 0.43955 0.68964
# Poissons Ratio (z) = 0.21124 0.36627
#
# Static dielectric constant tensor:
#      x y z
#    x 1.571760 0.000000 0.000000 
#    y 0.000000 1.564180 0.000000 
#    z 0.000000 0.000000 1.545170 
# 
# From -- ./inp_files/33951.got.cif
#   From: 2010.05.17/outbox.cif.g08.bks.cpg/sg51_17_cif.got.tgz:33951.got - 2010.06.03 11:52:47.
