data_PCOD9401410
_publ_section_title
;
Structure prediction by ZEFSAII (Michael W. Deem and Ramdas Pophale) SiO2 
 PCOD9401410
Probable space group: P M M A
;
_chemical_formula_sum "Si O2"
_cell_formula_units_Z 48
_cell_length_a 8.822904
_cell_length_b 20.892263
_cell_length_c 14.814451
_cell_angle_alpha 90.000000
_cell_angle_beta 90.000000
_cell_angle_gamma 90.000000
_cell_volume 2730.754135
_symmetry_space_group_name_H-M "P M M A"
_symmetry_group_IT_number 51
_symmetry_cell_setting 'orthorhombic'
loop_
_space_group_symop_operation_xyz
x,y,z
1/2-x,-y,z
1/2+x,-y,-z
-x,y,-z
-x,-y,-z
1/2+x,y,-z
1/2-x,y,z
x,-y,z
loop_
_atom_site_type_symbol
_atom_site_label
_atom_site_fract_x
_atom_site_fract_y
_atom_site_fract_z
Si Si1 0.431058 0.425896 0.902716
Si Si2 0.432147 0.684435 0.214459
Si Si3 0.567970 0.261040 0.593265
Si Si4 0.431682 0.810281 0.099776
Si Si5 0.432297 0.928440 0.790877
Si Si6 0.431403 0.118469 0.593026
O O1 0.250000 0.422025 0.908063
O O2 0.473742 0.500000 0.885080
O O3 0.492258 0.377732 0.827941
O O4 0.500000 0.407798 0.000000
O O5 0.250000 0.678252 0.208552
O O6 0.471714 0.698342 0.318365
O O7 0.476272 0.747063 0.156297
O O8 0.500000 0.287115 0.500000
O O9 0.750000 0.256107 0.587197
O O10 0.499799 0.189757 0.604105
O O11 0.250000 0.811933 0.094861
O O12 0.490103 0.872844 0.152041
O O13 0.500000 0.807602 0.000000
O O14 0.250000 0.922462 0.800199
O O15 0.467209 0.919119 0.684633
O O16 0.476746 0.000000 0.819512
O O17 0.500000 0.091676 0.500000
O O18 0.250000 0.122560 0.584001
#
# Coordination Sequence:
#
# PCOD9401410 Si02
#       6
#     8   8   8   8   8   8
#     4  10  21  36  56  84 117 151 186 222 265 319
#     4  10  21  36  57  84 113 144 181 224 268 319
#     4  10  19  33  53  81 112 141 178 221 267 320
#     4  11  23  39  57  80 107 137 179 226 273 325
#     4  10  22  39  56  76 104 140 182 225 273 328
#     4  10  19  32  53  78 106 139 175 219 271 324
#
# _framework density 17.577562
#
# number of rings (size 3 to 8) (size 9 to 14) (size 15 to 20)
#    0.000    1.833    1.667    3.500    0.000    6.667 
#    0.000    0.000    0.000    0.500    0.000    0.000 
#    0.000    0.000    0.000    0.000    0.000    0.000 
#
# Total GULP energy -268079.524799 kJ/mol
# GULP energy per Si atom -5584.990100 kJ/mol
# Density = 1.753755 g / cm^3
# Si number density = 17.577562 Si / 1000 Ang^3
#
#
#
# Elastic Constant Matrix: (Units=GPa)
#
#
# Indices 1 2 3 4 5 6 
#
# 1 44.5768 32.5306 46.8064 0.0000 0.0000 0.0000
# 2 32.5306 83.9923 61.5903 0.0000 0.0000 0.0000
# 3 46.8064 61.5903 137.3765 0.0000 0.0000 0.0000
# 4 0.0000 0.0000 0.0000 10.4337 0.0000 0.0000
# 5 0.0000 0.0000 0.0000 0.0000 32.3881 0.0000
# 6 0.0000 0.0000 0.0000 0.0000 0.0000 22.9818
#
#
#
# Elastic Compliance Matrix: (Units=1/GPa)
#
#
# Indices 1 2 3 4 5 6 
#
# 1 0.038074 -0.007797 -0.009477 0.000000 0.000000 0.000000
# 2 -0.007797 0.019334 -0.006011 0.000000 0.000000 0.000000
# 3 -0.009477 -0.006011 0.013203 0.000000 0.000000 0.000000
# 4 0.000000 0.000000 0.000000 0.095843 0.000000 0.000000
# 5 0.000000 0.000000 0.000000 0.000000 0.030876 0.000000
# 6 0.000000 0.000000 0.000000 0.000000 0.000000 0.043513
#
#
# Mechanical properties :
#
#
# Convention : Reuss Voigt Hill
#
# Bulk Modulus (GPa) = 41.59631 60.86670 51.23151
# Shear Modulus (GPa) = 16.92472 21.49528 19.21000
#
# Velocity S-wave (km/s) = 3.10636 3.50077 3.30945
# Velocity P-wave (km/s) = 6.04829 7.14445 6.61910
#
# Compressibility (1/GPa) = 0.02404059
#
# Stress axis : x y z
#
# Youngs Moduli (GPa) = 26.26471 51.72304 75.73911
#
# Poissons Ratio (x) = 0.40329 0.71776
# Poissons Ratio (y) = 0.20479 0.45529
# Poissons Ratio (z) = 0.24890 0.31093
#
# Static dielectric constant tensor:
#      x y z
#    x 1.589470 0.000000 0.000000 
#    y 0.000000 1.578610 0.000000 
#    z 0.000000 0.000000 1.595970 
# 
# From -- ./inp_files/21102.got.cif
#   From: 2010.05.17/outbox.cif.g08.bks.cpg/sg51_11_cif.got.tgz:21102.got - 2010.06.03 11:52:47.
