data_PCOD9401688
_publ_section_title
;
Structure prediction by ZEFSAII (Michael W. Deem and Ramdas Pophale) SiO2 
 PCOD9401688
Probable space group: P M M A
;
_chemical_formula_sum "Si O2"
_cell_formula_units_Z 40
_cell_length_a 29.986289
_cell_length_b 8.057686
_cell_length_c 7.551201
_cell_angle_alpha 90.000000
_cell_angle_beta 90.000000
_cell_angle_gamma 90.000000
_cell_volume 1824.521949
_symmetry_space_group_name_H-M "P M M A"
_symmetry_group_IT_number 51
_symmetry_cell_setting 'orthorhombic'
loop_
_space_group_symop_operation_xyz
x,y,z
1/2-x,-y,z
1/2+x,-y,-z
-x,y,-z
-x,-y,-z
1/2+x,y,-z
1/2-x,y,z
x,-y,z
loop_
_atom_site_type_symbol
_atom_site_label
_atom_site_fract_x
_atom_site_fract_y
_atom_site_fract_z
Si Si1 0.047886 0.500000 0.733938
Si Si2 0.105934 0.822036 0.324295
Si Si3 0.896828 0.812706 0.262577
Si Si4 0.444851 0.500000 0.299812
Si Si5 0.200973 0.305492 0.253649
Si Si6 0.201672 0.200187 0.848164
O O1 0.071933 0.665395 0.805330
O O2 0.053786 0.500000 0.517249
O O3 0.995312 0.500000 0.765797
O O4 0.092562 0.826764 0.529503
O O5 0.081813 0.663769 0.242810
O O6 0.158964 0.794769 0.322241
O O7 0.095170 0.000000 0.241918
O O8 0.844865 0.759906 0.245541
O O9 0.901854 0.000000 0.187747
O O10 0.250000 0.248311 0.314187
O O11 0.195932 0.500000 0.296938
O O12 0.200134 0.282054 0.041559
O O13 0.250000 0.246822 0.766608
O O14 0.201897 0.000000 0.869215
#
# Coordination Sequence:
#
# PCOD9401688 Si02
#       6
#     4   8   8   4   8   8
#     4   9  18  32  54  73 104 136 161 209 262 299
#     4  10  19  33  54  77 104 135 167 209 255 297
#     4   9  19  33  52  79 104 131 170 209 251 302
#     4   9  18  34  50  77 104 130 169 209 252 309
#     4  10  20  33  50  75 105 137 174 208 243 298
#     4   9  18  33  51  73 103 137 171 206 246 297
#
# _framework density 21.923552000000001
#
# number of rings (size 3 to 8) (size 9 to 14) (size 15 to 20)
#    0.000    2.600    1.000    0.600    1.400    2.800 
#    0.000    6.000    0.000    2.400    0.000    4.200 
#    0.000    0.000    0.000    0.000    0.000    0.000 
#
# Total GULP energy -223174.998895 kJ/mol
# GULP energy per Si atom -5579.374972 kJ/mol
# Density = 2.187365 g / cm^3
# Si number density = 21.923552 Si / 1000 Ang^3
#
#
#
# Elastic Constant Matrix: (Units=GPa)
#
#
# Indices 1 2 3 4 5 6 
#
# 1 131.4175 98.9718 -13.4344 0.0000 0.0000 0.0000
# 2 98.9718 151.2929 2.0851 0.0000 0.0000 0.0000
# 3 -13.4344 2.0851 39.8015 0.0000 0.0000 0.0000
# 4 0.0000 0.0000 0.0000 5.7930 0.0000 0.0000
# 5 0.0000 0.0000 0.0000 0.0000 45.4678 0.0000
# 6 0.0000 0.0000 0.0000 0.0000 0.0000 -24.6658
#
#
#
# Elastic Compliance Matrix: (Units=1/GPa)
#
#
# Indices 1 2 3 4 5 6 
#
# 1 0.016349 -0.010779 0.006083 0.000000 0.000000 0.000000
# 2 -0.010779 0.013721 -0.004357 0.000000 0.000000 0.000000
# 3 0.006083 -0.004357 0.027406 0.000000 0.000000 0.000000
# 4 0.000000 0.000000 0.000000 0.172622 0.000000 0.000000
# 5 0.000000 0.000000 0.000000 0.000000 0.021994 0.000000
# 6 0.000000 0.000000 0.000000 0.000000 0.000000 -0.040542
#
#
# Mechanical properties :
#
#
# Convention : Reuss Voigt Hill
#
# Bulk Modulus (GPa) = 25.39992 55.30633 40.35312
# Shear Modulus (GPa) = 20.59491 20.97829 20.78660
#
# Velocity S-wave (km/s) = 3.06828 3.09671 3.08253
# Velocity P-wave (km/s) = 4.91562 6.16991 5.57813
#
# Compressibility (1/GPa) = 0.03937020
#
# Stress axis : x y z
#
# Youngs Moduli (GPa) = 61.16665 72.88132 36.48814
#
# Poissons Ratio (x) = 0.78557 -0.22196
# Poissons Ratio (y) = 0.65930 0.15898
# Poissons Ratio (z) = -0.37208 0.31755
#
# Static dielectric constant tensor:
#      x y z
#    x 1.778540 0.000000 0.000000 
#    y 0.000000 1.805950 0.000000 
#    z 0.000000 0.000000 1.818390 
# 
# From -- ./inp_files/12148.got.cif
#   From: 2010.05.17/outbox.cif.g08.bks.cpg/sg51_7_cif.got.tgz:12148.got - 2010.06.03 11:52:47.
