data_PCOD9401669
_publ_section_title
;
Structure prediction by ZEFSAII (Michael W. Deem and Ramdas Pophale) SiO2 
 PCOD9401669
Probable space group: P M M A
;
_chemical_formula_sum "Si O2"
_cell_formula_units_Z 56
_cell_length_a 8.811429
_cell_length_b 20.675980
_cell_length_c 15.736231
_cell_angle_alpha 90.000000
_cell_angle_beta 90.000000
_cell_angle_gamma 90.000000
_cell_volume 2866.904140
_symmetry_space_group_name_H-M "P M M A"
_symmetry_group_IT_number 51
_symmetry_cell_setting 'orthorhombic'
loop_
_space_group_symop_operation_xyz
x,y,z
1/2-x,-y,z
1/2+x,-y,-z
-x,y,-z
-x,-y,-z
1/2+x,y,-z
1/2-x,y,z
x,-y,z
loop_
_atom_site_type_symbol
_atom_site_label
_atom_site_fract_x
_atom_site_fract_y
_atom_site_fract_z
Si Si1 0.928214 0.248277 0.858641
Si Si2 0.069607 0.618946 0.913331
Si Si3 0.932755 0.929597 0.269547
Si Si4 0.431317 0.426754 0.262047
Si Si5 0.931765 0.671973 0.588965
Si Si6 0.926443 0.898145 0.912084
Si Si7 0.067717 0.209819 0.678003
O O1 0.750000 0.263439 0.845230
O O2 0.937224 0.180102 0.907021
O O3 0.008744 0.307579 0.904262
O O4 0.009550 0.236710 0.768594
O O5 0.250000 0.618108 0.918183
O O6 0.012709 0.585030 0.827466
O O7 0.000000 0.590986 0.000000
O O8 0.750000 0.927962 0.266225
O O9 0.980200 0.865710 0.321446
O O10 0.992931 0.922616 0.173263
O O11 0.980677 0.000000 0.303044
O O12 0.250000 0.419335 0.248781
O O13 0.459740 0.500000 0.291392
O O14 0.478062 0.374918 0.333236
O O15 0.750000 0.672736 0.585063
O O16 0.000000 0.649100 0.500000
O O17 0.993778 0.743587 0.608965
O O18 0.750000 0.915878 0.909302
O O19 0.000000 0.920227 0.000000
O O20 0.250000 0.213739 0.673336
#
# Coordination Sequence:
#
# PCOD9401669 Si02
#       7
#     8   8   8   8   8   8   8
#     4  10  19  33  53  79 112 150 195 247 301 354
#     4  12  24  37  58  86 119 161 208 255 302 354
#     4   9  19  35  54  77 108 149 193 237 291 354
#     4  10  23  44  66  89 123 164 202 246 299 355
#     4  11  23  40  66  96 127 158 196 244 297 359
#     4  10  20  31  46  70 103 144 192 245 298 350
#     4  10  19  34  59  88 118 152 193 241 295 353
#
# _framework density 19.533266000000001
#
# number of rings (size 3 to 8) (size 9 to 14) (size 15 to 20)
#    0.000    1.714    1.429    3.429    0.000    5.429 
#    0.000    0.000    0.000    0.429    0.000    0.000 
#    0.000    0.000    0.000    0.000    0.000    0.000 
#
# Total GULP energy -312854.889100 kJ/mol
# GULP energy per Si atom -5586.694448 kJ/mol
# Density = 1.948881 g / cm^3
# Si number density = 19.533266 Si / 1000 Ang^3
#
#
#
# Elastic Constant Matrix: (Units=GPa)
#
#
# Indices 1 2 3 4 5 6 
#
# 1 63.8062 32.6089 32.5893 0.0000 0.0000 0.0000
# 2 32.6089 115.8122 39.5523 0.0000 0.0000 0.0000
# 3 32.5893 39.5523 83.1122 0.0000 0.0000 0.0000
# 4 0.0000 0.0000 0.0000 -4.4722 0.0000 0.0000
# 5 0.0000 0.0000 0.0000 0.0000 29.2650 0.0000
# 6 0.0000 0.0000 0.0000 0.0000 0.0000 18.1409
#
#
#
# Elastic Compliance Matrix: (Units=1/GPa)
#
#
# Indices 1 2 3 4 5 6 
#
# 1 0.020828 -0.003672 -0.006419 0.000000 0.000000 0.000000
# 2 -0.003672 0.010958 -0.003775 0.000000 0.000000 0.000000
# 3 -0.006419 -0.003775 0.016345 0.000000 0.000000 0.000000
# 4 0.000000 0.000000 0.000000 -0.223603 0.000000 0.000000
# 5 0.000000 0.000000 0.000000 0.000000 0.034171 0.000000
# 6 0.000000 0.000000 0.000000 0.000000 0.000000 0.055124
#
#
# Mechanical properties :
#
#
# Convention : Reuss Voigt Hill
#
# Bulk Modulus (GPa) = 49.02311 52.47018 50.74664
# Shear Modulus (GPa) = -96.81431 19.11874 -38.84778
#
# Velocity S-wave (km/s) = -7.04779 3.13194 -4.46444
# Velocity P-wave (km/s) = 6.40912 6.32447 0.73411
#
# Compressibility (1/GPa) = 0.02039854
#
# Stress axis : x y z
#
# Youngs Moduli (GPa) = 48.01273 91.25924 61.17918
#
# Poissons Ratio (x) = 0.33511 0.39273
# Poissons Ratio (y) = 0.17631 0.23094
# Poissons Ratio (z) = 0.30821 0.34449
#
# Static dielectric constant tensor:
#      x y z
#    x 1.650270 0.000000 0.000000 
#    y 0.000000 1.723240 0.000000 
#    z 0.000000 0.000000 1.672830 
# 
# From -- ./inp_files/21777.got.cif
#   From: 2010.05.17/outbox.cif.g08.bks.cpg/sg51_11_cif.got.tgz:21777.got - 2010.06.03 11:52:47.
