data_PCOD9401399
_publ_section_title
;
Structure prediction by ZEFSAII (Michael W. Deem and Ramdas Pophale) SiO2 
 PCOD9401399
Probable space group: P M M A
;
_chemical_formula_sum "Si O2"
_cell_formula_units_Z 48
_cell_length_a 7.478078
_cell_length_b 14.978579
_cell_length_c 20.963562
_cell_angle_alpha 90.000000
_cell_angle_beta 90.000000
_cell_angle_gamma 90.000000
_cell_volume 2348.149168
_symmetry_space_group_name_H-M "P M M A"
_symmetry_group_IT_number 51
_symmetry_cell_setting 'orthorhombic'
loop_
_space_group_symop_operation_xyz
x,y,z
1/2-x,-y,z
1/2+x,-y,-z
-x,y,-z
-x,-y,-z
1/2+x,y,-z
1/2-x,y,z
x,-y,z
loop_
_atom_site_type_symbol
_atom_site_label
_atom_site_fract_x
_atom_site_fract_y
_atom_site_fract_z
Si Si1 0.040918 0.775722 0.814951
Si Si2 0.958914 0.597670 0.599198
Si Si3 0.963897 0.209578 0.569477
Si Si4 0.033066 0.897454 0.306452
Si Si5 0.464474 0.101010 0.926348
Si Si6 0.466871 0.599107 0.749016
O O1 0.250000 0.759397 0.828720
O O2 0.964223 0.827082 0.876091
O O3 0.966077 0.680733 0.791811
O O4 0.027232 0.841960 0.754813
O O5 0.750000 0.594579 0.581320
O O6 0.037072 0.500000 0.582800
O O7 0.037799 0.689050 0.571857
O O8 0.969960 0.607858 0.675953
O O9 0.750000 0.215992 0.577273
O O10 0.029063 0.151651 0.629032
O O11 0.000000 0.170067 0.500000
O O12 0.250000 0.897067 0.306351
O O13 0.974127 0.000000 0.303791
O O14 0.250000 0.097351 0.918125
O O15 0.532659 0.000000 0.914451
O O16 0.500000 0.123284 0.000000
O O17 0.250000 0.603130 0.746483
O O18 0.517786 0.500000 0.771582
#
# Coordination Sequence:
#
# PCOD9401399 Si02
#       6
#     8   8   8   8   8   8
#     4  10  19  32  53  78 103 130 163 203 245 288
#     4   9  17  31  50  70  94 124 158 199 247 296
#     4  10  21  35  49  68  95 127 163 202 247 297
#     4  10  21  36  52  72  98 127 163 207 251 295
#     4   9  18  32  49  72 102 133 165 200 239 285
#     4   9  17  29  48  75 102 127 158 197 242 291
#
# _framework density 20.441632999999999
#
# number of rings (size 3 to 8) (size 9 to 14) (size 15 to 20)
#    0.000    2.500    1.667    0.500    0.000    3.667 
#    0.000    1.667    0.000    0.500    0.000    0.000 
#    0.000    0.000    0.000    0.000    0.000    0.000 
#
# Total GULP energy -267942.782486 kJ/mol
# GULP energy per Si atom -5582.141302 kJ/mol
# Density = 2.039511 g / cm^3
# Si number density = 20.441633 Si / 1000 Ang^3
#
#
#
# Elastic Constant Matrix: (Units=GPa)
#
#
# Indices 1 2 3 4 5 6 
#
# 1 59.7787 -3.0379 -13.3493 0.0000 0.0000 0.0000
# 2 -3.0379 131.4545 61.6007 0.0000 0.0000 0.0000
# 3 -13.3493 61.6007 105.2990 0.0000 0.0000 0.0000
# 4 0.0000 0.0000 0.0000 -27.1119 0.0000 0.0000
# 5 0.0000 0.0000 0.0000 0.0000 19.0707 0.0000
# 6 0.0000 0.0000 0.0000 0.0000 0.0000 8.9858
#
#
#
# Elastic Compliance Matrix: (Units=1/GPa)
#
#
# Indices 1 2 3 4 5 6 
#
# 1 0.017287 -0.000864 0.002697 0.000000 0.000000 0.000000
# 2 -0.000864 0.010523 -0.006266 0.000000 0.000000 0.000000
# 3 0.002697 -0.006266 0.013504 0.000000 0.000000 0.000000
# 4 0.000000 0.000000 0.000000 -0.036884 0.000000 0.000000
# 5 0.000000 0.000000 0.000000 0.000000 0.052437 0.000000
# 6 0.000000 0.000000 0.000000 0.000000 0.000000 0.111287
#
#
# Mechanical properties :
#
#
# Convention : Reuss Voigt Hill
#
# Bulk Modulus (GPa) = 30.81824 42.99547 36.90686
# Shear Modulus (GPa) = 26.61894 16.94350 21.78122
#
# Velocity S-wave (km/s) = 3.61251 2.88214 3.26779
# Velocity P-wave (km/s) = 5.70168 5.67050 5.68611
#
# Compressibility (1/GPa) = 0.03244831
#
# Stress axis : x y z
#
# Youngs Moduli (GPa) = 57.84778 95.02565 74.05042
#
# Poissons Ratio (x) = 0.08215 -0.19973
# Poissons Ratio (y) = 0.05001 0.46399
# Poissons Ratio (z) = -0.15603 0.59542
#
# Static dielectric constant tensor:
#      x y z
#    x 1.781010 0.000000 0.000000 
#    y 0.000000 1.753430 0.000000 
#    z 0.000000 0.000000 1.691060 
# 
# From -- ./inp_files/23243.got.cif
#   From: 2010.05.17/outbox.cif.g08.bks.cpg/sg51_12_cif.got.tgz:23243.got - 2010.06.03 11:52:47.
