data_PCOD9401329
_publ_section_title
;
Structure prediction by ZEFSAII (Michael W. Deem and Ramdas Pophale) SiO2 
 PCOD9401329
Probable space group: P M M A
;
_chemical_formula_sum "Si O2"
_cell_formula_units_Z 64
_cell_length_a 24.869967
_cell_length_b 7.423206
_cell_length_c 15.061636
_cell_angle_alpha 90.000000
_cell_angle_beta 90.000000
_cell_angle_gamma 90.000000
_cell_volume 2780.602247
_symmetry_space_group_name_H-M "P M M A"
_symmetry_group_IT_number 51
_symmetry_cell_setting 'orthorhombic'
loop_
_space_group_symop_operation_xyz
x,y,z
1/2-x,-y,z
1/2+x,-y,-z
-x,y,-z
-x,-y,-z
1/2+x,y,-z
1/2-x,y,z
x,-y,z
loop_
_atom_site_type_symbol
_atom_site_label
_atom_site_fract_x
_atom_site_fract_y
_atom_site_fract_z
Si Si1 0.344192 0.780485 0.054146
Si Si2 0.999027 0.715374 0.287201
Si Si3 0.688382 0.720743 0.472912
Si Si4 0.120611 0.288780 0.692793
Si Si5 0.190411 0.217425 0.860152
Si Si6 0.104186 0.705038 0.381041
Si Si7 0.192348 0.218033 0.243335
Si Si8 0.533875 0.783160 0.915165
O O1 0.310561 0.730304 0.140445
O O2 0.405041 0.721420 0.072257
O O3 0.343819 0.000000 0.051147
O O4 0.322598 0.719148 0.959491
O O5 0.998678 0.500000 0.300241
O O6 0.047635 0.786652 0.348955
O O7 0.011543 0.740983 0.182608
O O8 0.939747 0.787106 0.310121
O O9 0.750000 0.780957 0.486430
O O10 0.690146 0.500000 0.477100
O O11 0.663986 0.779220 0.378263
O O12 0.644176 0.783689 0.544867
O O13 0.115229 0.500000 0.672685
O O14 0.145303 0.270966 0.790377
O O15 0.250000 0.278901 0.832744
O O16 0.190947 0.000000 0.861980
O O17 0.092954 0.500000 0.410401
O O18 0.141810 0.704502 0.294307
O O19 0.250000 0.273347 0.282163
O O20 0.188682 0.000000 0.248572
O O21 0.534511 0.000000 0.919959
O O22 0.500000 0.717889 0.000000
#
# Coordination Sequence:
#
# PCOD9401329 Si02
#       8
#     8   8   8   8   8   8   8   8
#     4   9  17  31  50  75 105 138 175 213 260 316
#     4  10  21  35  52  79 111 142 177 222 271 315
#     4   9  18  34  57  81 104 137 180 223 269 324
#     4  10  21  37  56  78 107 143 181 221 270 325
#     4  10  20  35  56  81 108 139 179 227 273 317
#     4  10  20  35  55  79 108 140 177 219 266 317
#     4  10  19  32  52  77 105 139 176 215 263 318
#     4  10  19  32  53  77 103 142 187 222 255 310
#
# _framework density 23.016597000000001
#
# number of rings (size 3 to 8) (size 9 to 14) (size 15 to 20)
#    0.000    2.250    1.250    1.875    0.000    5.250 
#    0.000    4.375    0.000    3.750    0.000    2.625 
#    0.000    0.000    0.000    0.000    0.000    0.000 
#
# Total GULP energy -357502.518114 kJ/mol
# GULP energy per Si atom -5585.976846 kJ/mol
# Density = 2.296421 g / cm^3
# Si number density = 23.016597 Si / 1000 Ang^3
#
#
#
# Elastic Constant Matrix: (Units=GPa)
#
#
# Indices 1 2 3 4 5 6 
#
# 1 152.2788 3.9565 26.7746 0.0000 0.0000 0.0000
# 2 3.9565 74.5325 -8.2449 0.0000 0.0000 0.0000
# 3 26.7746 -8.2449 83.9476 0.0000 0.0000 0.0000
# 4 0.0000 0.0000 0.0000 16.5067 0.0000 0.0000
# 5 0.0000 0.0000 0.0000 0.0000 39.9140 0.0000
# 6 0.0000 0.0000 0.0000 0.0000 0.0000 11.4391
#
#
#
# Elastic Compliance Matrix: (Units=1/GPa)
#
#
# Indices 1 2 3 4 5 6 
#
# 1 0.006986 -0.000624 -0.002289 0.000000 0.000000 0.000000
# 2 -0.000624 0.013620 0.001537 0.000000 0.000000 0.000000
# 3 -0.002289 0.001537 0.012793 0.000000 0.000000 0.000000
# 4 0.000000 0.000000 0.000000 0.060582 0.000000 0.000000
# 5 0.000000 0.000000 0.000000 0.000000 0.025054 0.000000
# 6 0.000000 0.000000 0.000000 0.000000 0.000000 0.087419
#
#
# Mechanical properties :
#
#
# Convention : Reuss Voigt Hill
#
# Bulk Modulus (GPa) = 32.63103 39.52571 36.07837
# Shear Modulus (GPa) = 22.78709 32.79013 27.78861
#
# Velocity S-wave (km/s) = 3.14989 3.77852 3.47843
# Velocity P-wave (km/s) = 5.23803 6.02049 5.64284
#
# Compressibility (1/GPa) = 0.03064568
#
# Stress axis : x y z
#
# Youngs Moduli (GPa) = 143.15082 73.42100 78.16604
#
# Poissons Ratio (x) = 0.04582 0.17895
# Poissons Ratio (y) = 0.08934 -0.12012
# Poissons Ratio (z) = 0.32772 -0.11283
#
# Static dielectric constant tensor:
#      x y z
#    x 1.857970 0.000000 0.000000 
#    y 0.000000 1.899580 0.000000 
#    z 0.000000 0.000000 1.829500 
# 
# From -- ./inp_files/26308.got.cif
#   From: 2010.05.17/outbox.cif.g08.bks.cpg/sg51_14_cif.got.tgz:26308.got - 2010.06.03 11:52:47.
