data_PCOD9401746
_publ_section_title
;
Structure prediction by ZEFSAII (Michael W. Deem and Ramdas Pophale) SiO2 
 PCOD9401746
Probable space group: P M M A
;
_chemical_formula_sum "Si O2"
_cell_formula_units_Z 64
_cell_length_a 20.192261
_cell_length_b 16.114864
_cell_length_c 9.934739
_cell_angle_alpha 90.000000
_cell_angle_beta 90.000000
_cell_angle_gamma 90.000000
_cell_volume 3232.719760
_symmetry_space_group_name_H-M "P M M A"
_symmetry_group_IT_number 51
_symmetry_cell_setting 'orthorhombic'
loop_
_space_group_symop_operation_xyz
x,y,z
1/2-x,-y,z
1/2+x,-y,-z
-x,y,-z
-x,-y,-z
1/2+x,y,-z
1/2-x,y,z
x,-y,z
loop_
_atom_site_type_symbol
_atom_site_label
_atom_site_fract_x
_atom_site_fract_y
_atom_site_fract_z
Si Si1 0.323519 0.822349 0.500891
Si Si2 0.322604 0.850774 0.809571
Si Si3 0.326607 0.626541 0.567467
Si Si4 0.326017 0.653910 0.870016
Si Si5 0.066219 0.399951 0.084250
Si Si6 0.949279 0.096807 0.623402
Si Si7 0.949997 0.594296 0.610114
Si Si8 0.533957 0.098814 0.129922
O O1 0.250000 0.839824 0.445357
O O2 0.328198 0.863920 0.648629
O O3 0.327490 0.724722 0.533318
O O4 0.383431 0.852759 0.410065
O O5 0.250000 0.881587 0.852798
O O6 0.324973 0.752574 0.841037
O O7 0.388066 0.888246 0.871637
O O8 0.250000 0.599381 0.552627
O O9 0.346302 0.614850 0.724741
O O10 0.379512 0.590276 0.464809
O O11 0.250000 0.628127 0.896481
O O12 0.373187 0.633890 0.994596
O O13 0.074328 0.500000 0.090199
O O14 0.058654 0.369610 0.239396
O O15 0.000000 0.381397 0.000000
O O16 0.000000 0.097778 0.500000
O O17 0.993542 0.132440 0.743665
O O18 0.930754 0.000000 0.646990
O O19 0.975559 0.500000 0.631818
O O20 0.000000 0.634945 0.500000
O O21 0.523466 0.000000 0.133784
O O22 0.500000 0.135901 0.000000
#
# Coordination Sequence:
#
# PCOD9401746 Si02
#       8
#     8   8   8   8   8   8   8   8
#     4   9  18  34  55  80 110 141 179 228 275 321
#     4   9  18  35  57  80 107 141 183 227 270 324
#     4   9  19  36  55  77 108 144 180 220 269 327
#     4   9  19  36  56  79 109 143 180 224 271 323
#     4  10  21  37  56  79 109 141 177 226 274 320
#     4  10  19  33  54  81 109 138 180 229 273 321
#     4  10  21  37  56  80 110 142 179 224 272 324
#     4  10  21  37  54  77 112 147 180 224 275 327
#
# _framework density 19.797571999999999
#
# number of rings (size 3 to 8) (size 9 to 14) (size 15 to 20)
#    0.000    2.500    1.250    2.250    0.000    4.000 
#    4.500    4.375    0.000    2.250    0.000    0.000 
#    0.000    0.000    0.000    0.000    0.000    0.000 
#
# Total GULP energy -356787.344630 kJ/mol
# GULP energy per Si atom -5574.802260 kJ/mol
# Density = 1.975251 g / cm^3
# Si number density = 19.797572 Si / 1000 Ang^3
#
#
#
# Elastic Constant Matrix: (Units=GPa)
#
#
# Indices 1 2 3 4 5 6 
#
# 1 146.7481 17.2533 84.5779 0.0000 0.0000 0.0000
# 2 17.2533 16.6350 14.9535 0.0000 0.0000 0.0000
# 3 84.5779 14.9535 153.0722 0.0000 0.0000 0.0000
# 4 0.0000 0.0000 0.0000 27.3855 0.0000 0.0000
# 5 0.0000 0.0000 0.0000 0.0000 35.9293 0.0000
# 6 0.0000 0.0000 0.0000 0.0000 0.0000 30.7133
#
#
#
# Elastic Compliance Matrix: (Units=1/GPa)
#
#
# Indices 1 2 3 4 5 6 
#
# 1 0.010561 -0.006258 -0.005224 0.000000 0.000000 0.000000
# 2 -0.006258 0.069609 -0.003343 0.000000 0.000000 0.000000
# 3 -0.005224 -0.003343 0.009746 0.000000 0.000000 0.000000
# 4 0.000000 0.000000 0.000000 0.036516 0.000000 0.000000
# 5 0.000000 0.000000 0.000000 0.000000 0.027832 0.000000
# 6 0.000000 0.000000 0.000000 0.000000 0.000000 0.032559
#
#
# Mechanical properties :
#
#
# Convention : Reuss Voigt Hill
#
# Bulk Modulus (GPa) = 16.59268 61.11387 38.85327
# Shear Modulus (GPa) = 21.13626 32.11699 26.62662
#
# Velocity S-wave (km/s) = 3.27099 4.03211 3.67133
# Velocity P-wave (km/s) = 4.76080 7.25352 6.13510
#
# Compressibility (1/GPa) = 0.06026754
#
# Stress axis : x y z
#
# Youngs Moduli (GPa) = 94.68845 14.36598 102.60776
#
# Poissons Ratio (x) = 0.08990 0.53602
# Poissons Ratio (y) = 0.59252 0.34297
# Poissons Ratio (z) = 0.49465 0.04802
#
# Static dielectric constant tensor:
#      x y z
#    x 1.679980 0.000000 0.000000 
#    y 0.000000 1.734580 0.000000 
#    z 0.000000 0.000000 1.700480 
# 
# From -- ./inp_files/11217.got.cif
#   From: 2010.05.17/outbox.cif.g08.bks.cpg/sg51_6_cif.got.tgz:11217.got - 2010.06.03 11:52:47.
