data_PCOD9401685
_publ_section_title
;
Structure prediction by ZEFSAII (Michael W. Deem and Ramdas Pophale) SiO2 
 PCOD9401685
Probable space group: P M M A
;
_chemical_formula_sum "Si O2"
_cell_formula_units_Z 56
_cell_length_a 7.643895
_cell_length_b 20.334006
_cell_length_c 16.476858
_cell_angle_alpha 90.000000
_cell_angle_beta 90.000000
_cell_angle_gamma 90.000000
_cell_volume 2561.014628
_symmetry_space_group_name_H-M "P M M A"
_symmetry_group_IT_number 51
_symmetry_cell_setting 'orthorhombic'
loop_
_space_group_symop_operation_xyz
x,y,z
1/2-x,-y,z
1/2+x,-y,-z
-x,y,-z
-x,-y,-z
1/2+x,y,-z
1/2-x,y,z
x,-y,z
loop_
_atom_site_type_symbol
_atom_site_label
_atom_site_fract_x
_atom_site_fract_y
_atom_site_fract_z
Si Si1 0.040020 0.070887 0.595563
Si Si2 0.464589 0.789092 0.656921
Si Si3 0.464264 0.424041 0.749998
Si Si4 0.957636 0.786288 0.160762
Si Si5 0.040457 0.346336 0.589847
Si Si6 0.457500 0.928888 0.095495
Si Si7 0.040231 0.654052 0.910063
O O1 0.250000 0.070679 0.605866
O O2 0.972558 0.138301 0.633529
O O3 0.000000 0.073118 0.500000
O O4 0.973723 0.000000 0.627008
O O5 0.250000 0.790730 0.655064
O O6 0.522068 0.774036 0.748334
O O7 0.522339 0.729129 0.600204
O O8 0.250000 0.422066 0.749844
O O9 0.516920 0.500000 0.750311
O O10 0.522844 0.388021 0.667258
O O11 0.522427 0.387470 0.832361
O O12 0.750000 0.777117 0.163773
O O13 0.026124 0.729388 0.101388
O O14 0.984099 0.861642 0.136432
O O15 0.250000 0.344873 0.596669
O O16 0.000000 0.371799 0.500000
O O17 0.250000 0.930835 0.104471
O O18 0.528928 0.000000 0.124947
O O19 0.500000 0.924601 0.000000
O O20 0.250000 0.653976 0.904926
O O21 0.000000 0.629059 0.000000
#
# Coordination Sequence:
#
# PCOD9401685 Si02
#       7
#     8   8   8   8   8   8   8
#     4   9  17  29  45  66  93 126 166 211 258 308
#     4   9  17  31  51  73 100 135 176 219 261 316
#     4   9  18  35  58  81 109 147 185 219 265 330
#     4  10  19  33  54  77 103 137 179 226 272 320
#     4  10  19  34  56  81 109 143 183 225 269 319
#     4  10  21  36  52  73 103 138 177 222 271 323
#     4  10  20  35  56  82 110 142 182 226 272 324
#
# _framework density 21.866333000000001
#
# number of rings (size 3 to 8) (size 9 to 14) (size 15 to 20)
#    0.000    2.429    1.429    1.286    0.000    3.714 
#    0.000    3.571    0.000    2.571    0.000    0.000 
#    0.000    0.000    0.000    0.000    0.000    0.000 
#
# Total GULP energy -312485.614986 kJ/mol
# GULP energy per Si atom -5580.100268 kJ/mol
# Density = 2.181656 g / cm^3
# Si number density = 21.866333 Si / 1000 Ang^3
#
#
#
# Elastic Constant Matrix: (Units=GPa)
#
#
# Indices 1 2 3 4 5 6 
#
# 1 39.2168 9.4910 2.0123 0.0000 0.0000 0.0000
# 2 9.4910 154.9159 81.4921 0.0000 0.0000 0.0000
# 3 2.0123 81.4921 149.0245 0.0000 0.0000 0.0000
# 4 0.0000 0.0000 0.0000 22.8843 0.0000 0.0000
# 5 0.0000 0.0000 0.0000 0.0000 18.3312 0.0000
# 6 0.0000 0.0000 0.0000 0.0000 0.0000 -7.1944
#
#
#
# Elastic Compliance Matrix: (Units=1/GPa)
#
#
# Indices 1 2 3 4 5 6 
#
# 1 0.025939 -0.001972 0.000728 0.000000 0.000000 0.000000
# 2 -0.001972 0.009212 -0.005011 0.000000 0.000000 0.000000
# 3 0.000728 -0.005011 0.009441 0.000000 0.000000 0.000000
# 4 0.000000 0.000000 0.000000 0.043698 0.000000 0.000000
# 5 0.000000 0.000000 0.000000 0.000000 0.054552 0.000000
# 6 0.000000 0.000000 0.000000 0.000000 0.000000 -0.138997
#
#
# Mechanical properties :
#
#
# Convention : Reuss Voigt Hill
#
# Bulk Modulus (GPa) = 31.17008 58.79420 44.98214
# Shear Modulus (GPa) = 184.85990 23.48167 104.17079
#
# Velocity S-wave (km/s) = 9.20459 3.28056 6.90965
# Velocity P-wave (km/s) = 11.28059 6.42618 9.18007
#
# Compressibility (1/GPa) = 0.03208205
#
# Stress axis : x y z
#
# Youngs Moduli (GPa) = 38.55168 108.55660 105.92643
#
# Poissons Ratio (x) = 0.21410 -0.07714
# Poissons Ratio (y) = 0.07603 0.53077
# Poissons Ratio (z) = -0.02807 0.54395
#
# Static dielectric constant tensor:
#      x y z
#    x 1.811430 0.000000 0.000000 
#    y 0.000000 1.825310 0.000000 
#    z 0.000000 0.000000 1.778700 
# 
# From -- ./inp_files/21791.got.cif
#   From: 2010.05.17/outbox.cif.g08.bks.cpg/sg51_11_cif.got.tgz:21791.got - 2010.06.03 11:52:47.
