data_PCOD9401592
_publ_section_title
;
Structure prediction by ZEFSAII (Michael W. Deem and Ramdas Pophale) SiO2 
 PCOD9401592
Probable space group: P M M A
;
_chemical_formula_sum "Si O2"
_cell_formula_units_Z 44
_cell_length_a 8.260235
_cell_length_b 19.290096
_cell_length_c 14.381230
_cell_angle_alpha 90.000000
_cell_angle_beta 90.000000
_cell_angle_gamma 90.000000
_cell_volume 2291.515631
_symmetry_space_group_name_H-M "P M M A"
_symmetry_group_IT_number 51
_symmetry_cell_setting 'orthorhombic'
loop_
_space_group_symop_operation_xyz
x,y,z
1/2-x,-y,z
1/2+x,-y,-z
-x,y,-z
-x,-y,-z
1/2+x,y,-z
1/2-x,y,z
x,-y,z
loop_
_atom_site_type_symbol
_atom_site_label
_atom_site_fract_x
_atom_site_fract_y
_atom_site_fract_z
Si Si1 0.554139 0.422757 0.393832
Si Si2 0.944065 0.848073 0.607161
Si Si3 0.557453 0.288603 0.284984
Si Si4 0.054030 0.000000 0.391689
Si Si5 0.445905 0.926131 0.108053
Si Si6 0.556381 0.225935 0.894324
O O1 0.500000 0.412819 0.500000
O O2 0.750000 0.422304 0.391559
O O3 0.500292 0.500000 0.364093
O O4 0.493463 0.358545 0.332879
O O5 0.750000 0.848748 0.609961
O O6 0.000000 0.842767 0.500000
O O7 0.000255 0.780485 0.661855
O O8 0.999929 0.924186 0.644560
O O9 0.750000 0.290072 0.290824
O O10 0.506612 0.281470 0.178214
O O11 0.000000 0.000000 0.500000
O O12 0.250000 0.000000 0.385859
O O13 0.250000 0.926072 0.113225
O O14 0.501507 0.850629 0.140614
O O15 0.501261 0.000000 0.149575
O O16 0.500000 0.927384 0.000000
O O17 0.750000 0.225489 0.893011
O O18 0.500000 0.235498 0.000000
#
# Coordination Sequence:
#
# PCOD9401592 Si02
#       6
#     8   8   8   4   8   8
#     4   9  19  36  58  84 113 143 172 208 258 316
#     4  10  19  33  52  75 104 139 178 220 265 314
#     4  11  22  35  53  79 109 140 177 219 264 319
#     4   8  16  30  48  68  95 136 179 218 260 306
#     4   8  14  26  45  67  90 121 162 210 262 310
#     4  10  20  35  54  75 103 139 180 226 272 321
#
# _framework density 19.201264999999999
#
# number of rings (size 3 to 8) (size 9 to 14) (size 15 to 20)
#    0.000    2.545    0.000    2.182    0.000    4.364 
#    1.636    0.000    0.000    0.545    0.000    0.000 
#    0.000    0.000    0.000    0.000    0.000    0.000 
#
# Total GULP energy -245353.598543 kJ/mol
# GULP energy per Si atom -5576.218149 kJ/mol
# Density = 1.915756 g / cm^3
# Si number density = 19.201265 Si / 1000 Ang^3
#
#
#
# Elastic Constant Matrix: (Units=GPa)
#
#
# Indices 1 2 3 4 5 6 
#
# 1 22.9502 25.5447 9.1987 0.0000 0.0000 0.0000
# 2 25.5447 184.4715 89.3860 0.0000 0.0000 0.0000
# 3 9.1987 89.3860 85.0555 0.0000 0.0000 0.0000
# 4 0.0000 0.0000 0.0000 29.7956 0.0000 0.0000
# 5 0.0000 0.0000 0.0000 0.0000 21.4662 0.0000
# 6 0.0000 0.0000 0.0000 0.0000 0.0000 18.4692
#
#
#
# Elastic Compliance Matrix: (Units=1/GPa)
#
#
# Indices 1 2 3 4 5 6 
#
# 1 0.052163 -0.009148 0.003972 0.000000 0.000000 0.000000
# 2 -0.009148 0.012650 -0.012305 0.000000 0.000000 0.000000
# 3 0.003972 -0.012305 0.024258 0.000000 0.000000 0.000000
# 4 0.000000 0.000000 0.000000 0.033562 0.000000 0.000000
# 5 0.000000 0.000000 0.000000 0.000000 0.046585 0.000000
# 6 0.000000 0.000000 0.000000 0.000000 0.000000 0.054144
#
#
# Mechanical properties :
#
#
# Convention : Reuss Voigt Hill
#
# Bulk Modulus (GPa) = 18.48069 60.08177 39.28123
# Shear Modulus (GPa) = 18.09242 25.16941 21.63092
#
# Velocity S-wave (km/s) = 3.07294 3.62445 3.36003
# Velocity P-wave (km/s) = 4.71553 6.99099 5.96281
#
# Compressibility (1/GPa) = 0.05411053
#
# Stress axis : x y z
#
# Youngs Moduli (GPa) = 19.17084 79.05230 41.22280
#
# Poissons Ratio (x) = 0.72318 -0.16376
# Poissons Ratio (y) = 0.17538 0.50723
# Poissons Ratio (z) = -0.07616 0.97270
#
# Static dielectric constant tensor:
#      x y z
#    x 1.700910 0.000000 0.000000 
#    y 0.000000 1.716790 0.000000 
#    z 0.000000 0.000000 1.687370 
# 
# From -- ./inp_files/20958.got.cif
#   From: 2010.05.17/outbox.cif.g08.bks.cpg/sg51_11_cif.got.tgz:20958.got - 2010.06.03 11:52:47.
