data_PCOD9401281
_publ_section_title
;
Structure prediction by ZEFSAII (Michael W. Deem and Ramdas Pophale) SiO2 
 PCOD9401281
Probable space group: P M M A
;
_chemical_formula_sum "Si O2"
_cell_formula_units_Z 44
_cell_length_a 8.407927
_cell_length_b 16.830849
_cell_length_c 16.299193
_cell_angle_alpha 90.000000
_cell_angle_beta 90.000000
_cell_angle_gamma 90.000000
_cell_volume 2306.540360
_symmetry_space_group_name_H-M "P M M A"
_symmetry_group_IT_number 51
_symmetry_cell_setting 'orthorhombic'
loop_
_space_group_symop_operation_xyz
x,y,z
1/2-x,-y,z
1/2+x,-y,-z
-x,y,-z
-x,-y,-z
1/2+x,y,-z
1/2-x,y,z
x,-y,z
loop_
_atom_site_type_symbol
_atom_site_label
_atom_site_fract_x
_atom_site_fract_y
_atom_site_fract_z
Si Si1 0.434847 0.623179 0.714606
Si Si2 0.938355 0.794901 0.734383
Si Si3 0.064168 0.587845 0.113694
Si Si4 0.939618 0.500000 0.591056
Si Si5 0.437819 0.763894 0.912359
Si Si6 0.059715 0.906105 0.590224
O O1 0.250000 0.608628 0.734530
O O2 0.467093 0.716179 0.707439
O O3 0.543257 0.591267 0.788438
O O4 0.486842 0.576371 0.635244
O O5 0.750000 0.780758 0.730408
O O6 0.983806 0.802810 0.831129
O O7 0.985010 0.862322 0.669042
O O8 0.250000 0.594501 0.091148
O O9 0.004760 0.500000 0.088138
O O10 0.975896 0.668721 0.088254
O O11 0.750000 0.500000 0.597394
O O12 0.000000 0.500000 0.500000
O O13 0.250000 0.774085 0.906416
O O14 0.500000 0.794559 0.000000
O O15 0.250000 0.896545 0.593149
O O16 0.000000 0.877953 0.500000
O O17 0.021547 0.000000 0.595080
#
# Coordination Sequence:
#
# PCOD9401281 Si02
#       6
#     8   8   8   4   8   8
#     4  11  21  35  54  76 104 142 188 234 285 341
#     4  11  22  38  61  88 119 156 196 238 290 349
#     4  10  19  32  52  75 103 140 184 236 291 344
#     4  12  24  38  52  72 101 138 185 238 292 344
#     4  11  22  37  56  80 113 151 197 246 296 351
#     4  10  21  39  64  95 128 158 191 234 286 345
#
# _framework density 19.076188999999999
#
# number of rings (size 3 to 8) (size 9 to 14) (size 15 to 20)
#    0.000    1.273    0.909    9.000    0.000    3.273 
#    0.000    3.636    0.000    0.545    0.000    0.000 
#    0.000    0.000    0.000    0.000    0.000    0.000 
#
# Total GULP energy -245678.133028 kJ/mol
# GULP energy per Si atom -5583.593932 kJ/mol
# Density = 1.903277 g / cm^3
# Si number density = 19.076189 Si / 1000 Ang^3
#
#
#
# Elastic Constant Matrix: (Units=GPa)
#
#
# Indices 1 2 3 4 5 6 
#
# 1 79.4806 11.2382 15.8866 0.0000 0.0000 0.0000
# 2 11.2382 47.6541 40.6707 0.0000 0.0000 0.0000
# 3 15.8866 40.6707 157.8569 0.0000 0.0000 0.0000
# 4 0.0000 0.0000 0.0000 -17.9740 0.0000 0.0000
# 5 0.0000 0.0000 0.0000 0.0000 32.9934 0.0000
# 6 0.0000 0.0000 0.0000 0.0000 0.0000 27.8365
#
#
#
# Elastic Compliance Matrix: (Units=1/GPa)
#
#
# Indices 1 2 3 4 5 6 
#
# 1 0.013070 -0.002512 -0.000668 0.000000 0.000000 0.000000
# 2 -0.002512 0.027382 -0.006802 0.000000 0.000000 0.000000
# 3 -0.000668 -0.006802 0.008155 0.000000 0.000000 0.000000
# 4 0.000000 0.000000 0.000000 -0.055636 0.000000 0.000000
# 5 0.000000 0.000000 0.000000 0.000000 0.030309 0.000000
# 6 0.000000 0.000000 0.000000 0.000000 0.000000 0.035924
#
#
# Mechanical properties :
#
#
# Convention : Reuss Voigt Hill
#
# Bulk Modulus (GPa) = 34.91300 46.73139 40.82220
# Shear Modulus (GPa) = 56.35912 23.05092 39.70502
#
# Velocity S-wave (km/s) = 5.44136 3.47992 4.56718
# Velocity P-wave (km/s) = 7.60391 6.37941 7.01841
#
# Compressibility (1/GPa) = 0.02864263
#
# Stress axis : x y z
#
# Youngs Moduli (GPa) = 76.50850 36.52004 122.63034
#
# Poissons Ratio (x) = 0.09174 0.08194
# Poissons Ratio (y) = 0.19220 0.83413
# Poissons Ratio (z) = 0.05112 0.24841
#
# Static dielectric constant tensor:
#      x y z
#    x 1.637900 0.000000 0.000000 
#    y 0.000000 1.662940 0.000000 
#    z 0.000000 0.000000 1.675450 
# 
# From -- ./inp_files/20876.got.cif
#   From: 2010.05.17/outbox.cif.g08.bks.cpg/sg51_11_cif.got.tgz:20876.got - 2010.06.03 11:52:47.
