data_PCOD9401871
_publ_section_title
;
Structure prediction by ZEFSAII (Michael W. Deem and Ramdas Pophale) SiO2 
 PCOD9401871
Probable space group: P M M A
;
_chemical_formula_sum "Si O2"
_cell_formula_units_Z 48
_cell_length_a 32.182406
_cell_length_b 8.693903
_cell_length_c 9.296940
_cell_angle_alpha 90.000000
_cell_angle_beta 90.000000
_cell_angle_gamma 90.000000
_cell_volume 2601.197500
_symmetry_space_group_name_H-M "P M M A"
_symmetry_group_IT_number 51
_symmetry_cell_setting 'orthorhombic'
loop_
_space_group_symop_operation_xyz
x,y,z
1/2-x,-y,z
1/2+x,-y,-z
-x,y,-z
-x,-y,-z
1/2+x,y,-z
1/2-x,y,z
x,-y,z
loop_
_atom_site_type_symbol
_atom_site_label
_atom_site_fract_x
_atom_site_fract_y
_atom_site_fract_z
Si Si1 0.750000 0.676891 0.829282
Si Si2 0.160012 0.313007 0.840090
Si Si3 0.500127 0.814100 0.166432
Si Si4 0.750000 0.677227 0.179626
Si Si5 0.081937 0.185739 0.342639
Si Si6 0.837740 0.815718 0.838566
Si Si7 0.921313 0.315715 0.337487
O O1 0.750000 0.500000 0.782924
O O2 0.792779 0.757769 0.785869
O O3 0.750000 0.678044 0.004667
O O4 0.161890 0.500000 0.847156
O O5 0.204960 0.256132 0.781371
O O6 0.121283 0.267756 0.742206
O O7 0.154866 0.251555 0.001930
O O8 0.457518 0.768583 0.245549
O O9 0.539456 0.747625 0.250037
O O10 0.502682 0.000000 0.169830
O O11 0.500000 0.765453 0.000000
O O12 0.750000 0.500000 0.229261
O O13 0.124702 0.232405 0.265028
O O14 0.078082 0.254262 0.500722
O O15 0.081701 0.000000 0.352719
O O16 0.837312 0.000000 0.848318
O O17 0.922763 0.500000 0.338413
#
# Coordination Sequence:
#
# PCOD9401871 Si02
#       7
#     4   8   8   4   8   8   8
#     4   9  17  31  52  79 112 146 176 216 272 323
#     4   9  18  33  53  78 107 139 176 221 273 320
#     4  10  21  39  61  81 103 137 180 223 271 325
#     4   7  12  27  50  71  96 132 170 208 252 305
#     4  10  22  38  55  77 108 144 179 220 270 322
#     4  10  19  33  56  83 107 138 184 230 267 311
#     4  11  23  36  53  80 112 144 178 220 270 324
#
# _framework density 18.453040999999999
#
# number of rings (size 3 to 8) (size 9 to 14) (size 15 to 20)
#    0.000    2.333    0.000    3.750    0.000    7.000 
#    0.000    0.833    0.000    1.000    0.000    0.000 
#    0.000    0.000    0.000    0.000    0.000    0.000 
#
# Total GULP energy -267846.709669 kJ/mol
# GULP energy per Si atom -5580.139785 kJ/mol
# Density = 1.841104 g / cm^3
# Si number density = 18.453041 Si / 1000 Ang^3
#
#
#
# Elastic Constant Matrix: (Units=GPa)
#
#
# Indices 1 2 3 4 5 6 
#
# 1 220.6578 43.0894 110.0635 0.0000 0.0000 0.0000
# 2 43.0894 22.6820 30.2151 0.0000 0.0000 0.0000
# 3 110.0635 30.2151 135.2109 0.0000 0.0000 0.0000
# 4 0.0000 0.0000 0.0000 7.7106 0.0000 0.0000
# 5 0.0000 0.0000 0.0000 0.0000 -9.4281 0.0000
# 6 0.0000 0.0000 0.0000 0.0000 0.0000 29.6178
#
#
#
# Elastic Compliance Matrix: (Units=1/GPa)
#
#
# Indices 1 2 3 4 5 6 
#
# 1 0.009125 -0.010593 -0.005060 0.000000 0.000000 0.000000
# 2 -0.010593 0.075073 -0.008153 0.000000 0.000000 0.000000
# 3 -0.005060 -0.008153 0.013337 0.000000 0.000000 0.000000
# 4 0.000000 0.000000 0.000000 0.129691 0.000000 0.000000
# 5 0.000000 0.000000 0.000000 0.000000 -0.106066 0.000000
# 6 0.000000 0.000000 0.000000 0.000000 0.000000 0.033763
#
#
# Mechanical properties :
#
#
# Convention : Reuss Voigt Hill
#
# Bulk Modulus (GPa) = 20.03162 82.80962 51.42062
# Shear Modulus (GPa) = 22.81263 18.59226 20.70245
#
# Velocity S-wave (km/s) = 3.51985 3.17763 3.35311
# Velocity P-wave (km/s) = 5.23433 7.64437 6.55113
#
# Compressibility (1/GPa) = 0.04992108
#
# Stress axis : x y z
#
# Youngs Moduli (GPa) = 109.59406 13.32034 74.97937
#
# Poissons Ratio (x) = 0.14111 0.37942
# Poissons Ratio (y) = 1.16095 0.61133
# Poissons Ratio (z) = 0.55458 0.10860
#
# Static dielectric constant tensor:
#      x y z
#    x 1.653390 0.000000 0.000000 
#    y 0.000000 1.630130 0.000000 
#    z 0.000000 0.000000 1.593410 
# 
# From -- ./inp_files/12962.got.cif
#   From: 2010.05.17/outbox.cif.g08.bks.cpg/sg51_7_cif.got.tgz:12962.got - 2010.06.03 11:52:47.
