data_PCOD9401926
_publ_section_title
;
Structure prediction by ZEFSAII (Michael W. Deem and Ramdas Pophale) SiO2 
 PCOD9401926
Probable space group: P M M A
;
_chemical_formula_sum "Si O2"
_cell_formula_units_Z 48
_cell_length_a 31.520556
_cell_length_b 8.815740
_cell_length_c 9.929679
_cell_angle_alpha 90.000000
_cell_angle_beta 90.000000
_cell_angle_gamma 90.000000
_cell_volume 2759.229673
_symmetry_space_group_name_H-M "P M M A"
_symmetry_group_IT_number 51
_symmetry_cell_setting 'orthorhombic'
loop_
_space_group_symop_operation_xyz
x,y,z
1/2-x,-y,z
1/2+x,-y,-z
-x,y,-z
-x,-y,-z
1/2+x,y,-z
1/2-x,y,z
x,-y,z
loop_
_atom_site_type_symbol
_atom_site_label
_atom_site_fract_x
_atom_site_fract_y
_atom_site_fract_z
Si Si1 0.138930 0.682231 0.588539
Si Si2 0.932626 0.818096 0.218774
Si Si3 0.110301 0.682479 0.297767
Si Si4 0.987058 0.682951 0.652834
Si Si5 0.369649 0.182007 0.013500
Si Si6 0.298972 0.183050 0.798455
O O1 0.137315 0.500000 0.596740
O O2 0.098283 0.748809 0.667393
O O3 0.135456 0.727796 0.432600
O O4 0.179723 0.744400 0.666821
O O5 0.979261 0.755184 0.245440
O O6 0.932103 0.000000 0.229250
O O7 0.910809 0.775899 0.076714
O O8 0.110852 0.500000 0.291384
O O9 0.061128 0.729108 0.317005
O O10 0.128393 0.747410 0.160093
O O11 0.989829 0.500000 0.660995
O O12 0.000000 0.725978 0.500000
O O13 0.369119 0.000000 0.025016
O O14 0.328753 0.227512 0.924536
O O15 0.250000 0.225465 0.815341
O O16 0.301669 0.000000 0.786778
#
# Coordination Sequence:
#
# PCOD9401926 Si02
#       6
#     8   8   8   8   8   8
#     4  10  19  34  55  79 108 138 173 217 263 311
#     4  10  20  34  52  77 105 140 184 223 263 308
#     4  10  21  35  52  76 107 143 178 218 266 314
#     4  10  19  34  52  73 105 143 185 227 267 307
#     4   9  20  36  53  76 108 141 173 217 267 317
#     4   9  19  38  61  83 106 134 172 215 261 319
#
# _framework density 17.396159999999998
#
# number of rings (size 3 to 8) (size 9 to 14) (size 15 to 20)
#    0.000    2.333    1.667    2.000    0.000    6.667 
#    0.000    4.167    0.000    3.000    0.000    0.000 
#    0.000    0.000    0.000    0.000    0.000    0.000 
#
# Total GULP energy -267809.514936 kJ/mol
# GULP energy per Si atom -5579.364895 kJ/mol
# Density = 1.735657 g / cm^3
# Si number density = 17.396160 Si / 1000 Ang^3
#
#
#
# Elastic Constant Matrix: (Units=GPa)
#
#
# Indices 1 2 3 4 5 6 
#
# 1 114.2286 28.0211 67.7499 0.0000 0.0000 0.0000
# 2 28.0211 18.4888 34.1770 0.0000 0.0000 0.0000
# 3 67.7499 34.1770 159.6959 0.0000 0.0000 0.0000
# 4 0.0000 0.0000 0.0000 32.6810 0.0000 0.0000
# 5 0.0000 0.0000 0.0000 0.0000 15.4452 0.0000
# 6 0.0000 0.0000 0.0000 0.0000 0.0000 33.9619
#
#
#
# Elastic Compliance Matrix: (Units=1/GPa)
#
#
# Indices 1 2 3 4 5 6 
#
# 1 0.014467 -0.017506 -0.002391 0.000000 0.000000 0.000000
# 2 -0.017506 0.110673 -0.016259 0.000000 0.000000 0.000000
# 3 -0.002391 -0.016259 0.010756 0.000000 0.000000 0.000000
# 4 0.000000 0.000000 0.000000 0.030599 0.000000 0.000000
# 5 0.000000 0.000000 0.000000 0.000000 0.064745 0.000000
# 6 0.000000 0.000000 0.000000 0.000000 0.000000 0.029445
#
#
# Mechanical properties :
#
#
# Convention : Reuss Voigt Hill
#
# Bulk Modulus (GPa) = 15.72708 61.36768 38.54738
# Shear Modulus (GPa) = 14.11673 27.24863 20.68268
#
# Velocity S-wave (km/s) = 2.85175 3.96202 3.45182
# Velocity P-wave (km/s) = 4.46133 7.50222 6.17198
#
# Compressibility (1/GPa) = 0.06358459
#
# Stress axis : x y z
#
# Youngs Moduli (GPa) = 69.12403 9.03565 92.97272
#
# Poissons Ratio (x) = 0.15817 0.22230
# Poissons Ratio (y) = 1.21006 1.51162
# Poissons Ratio (z) = 0.16528 0.14691
#
# Static dielectric constant tensor:
#      x y z
#    x 1.583630 0.000000 0.000000 
#    y 0.000000 1.588060 0.000000 
#    z 0.000000 0.000000 1.579520 
# 
# From -- ./inp_files/12829.got.cif
#   From: 2010.05.17/outbox.cif.g08.bks.cpg/sg51_7_cif.got.tgz:12829.got - 2010.06.03 11:52:47.
