data_PCOD9401509
_publ_section_title
;
Structure prediction by ZEFSAII (Michael W. Deem and Ramdas Pophale) SiO2 
 PCOD9401509
Probable space group: P M M A
;
_chemical_formula_sum "Si O2"
_cell_formula_units_Z 52
_cell_length_a 25.642253
_cell_length_b 21.535147
_cell_length_c 5.132362
_cell_angle_alpha 90.000000
_cell_angle_beta 90.000000
_cell_angle_gamma 90.000000
_cell_volume 2834.140018
_symmetry_space_group_name_H-M "P M M A"
_symmetry_group_IT_number 51
_symmetry_cell_setting 'orthorhombic'
loop_
_space_group_symop_operation_xyz
x,y,z
1/2-x,-y,z
1/2+x,-y,-z
-x,y,-z
-x,-y,-z
1/2+x,y,-z
1/2-x,y,z
x,-y,z
loop_
_atom_site_type_symbol
_atom_site_label
_atom_site_fract_x
_atom_site_fract_y
_atom_site_fract_z
Si Si1 0.192966 0.925882 0.461256
Si Si2 0.688478 0.426574 0.855118
Si Si3 0.938115 0.189705 0.004246
Si Si4 0.437016 0.268969 0.496364
Si Si5 0.122689 0.606642 0.658432
Si Si6 0.537727 0.500000 0.251394
Si Si7 0.871090 0.073323 0.046381
O O1 0.250000 0.898237 0.505371
O O2 0.150621 0.906606 0.672760
O O3 0.196707 0.000000 0.504617
O O4 0.174323 0.918431 0.166814
O O5 0.750000 0.411033 0.831067
O O6 0.685088 0.500000 0.922683
O O7 0.657694 0.416747 0.584439
O O8 0.659717 0.389768 0.087577
O O9 0.922823 0.238403 0.779597
O O10 0.924418 0.218718 0.282016
O O11 0.915106 0.121525 0.966073
O O12 0.000000 0.184785 0.000000
O O13 0.500000 0.281046 0.500000
O O14 0.405311 0.330443 0.566853
O O15 0.076403 0.558833 0.733028
O O16 0.500000 0.500000 0.500000
O O17 0.500000 0.500000 0.000000
O O18 0.885855 0.000000 0.047525
#
# Coordination Sequence:
#
# PCOD9401509 Si02
#       7
#     8   8   8   8   8   4   8
#     4   9  17  30  50  78 110 141 175 217 274 344
#     4  11  22  39  62  89 118 152 197 238 282 343
#     4  10  21  38  57  80 110 148 194 231 272 341
#     4  10  22  39  60  81 109 155 195 224 274 354
#     4  12  22  40  61  87 118 154 190 236 293 329
#     4  12  24  36  55  90 125 144 176 236 292 334
#     4  10  19  32  55  83 110 140 182 236 291 332
#
# _framework density 18.347715999999998
#
# number of rings (size 3 to 8) (size 9 to 14) (size 15 to 20)
#    0.000    1.538    1.538    4.154    0.000    5.231 
#    0.000    0.000    0.000   24.000    0.000    0.000 
#    0.000    0.000    0.000    0.000    0.000    0.000 
#
# Total GULP energy -290126.687959 kJ/mol
# GULP energy per Si atom -5579.359384 kJ/mol
# Density = 1.830596 g / cm^3
# Si number density = 18.347716 Si / 1000 Ang^3
#
#
#
# Elastic Constant Matrix: (Units=GPa)
#
#
# Indices 1 2 3 4 5 6 
#
# 1 91.3829 54.6254 44.7471 0.0000 0.0000 0.0000
# 2 54.6254 86.3315 14.7235 0.0000 0.0000 0.0000
# 3 44.7471 14.7235 98.1658 0.0000 0.0000 0.0000
# 4 0.0000 0.0000 0.0000 16.5640 0.0000 0.0000
# 5 0.0000 0.0000 0.0000 0.0000 33.1834 0.0000
# 6 0.0000 0.0000 0.0000 0.0000 0.0000 2.4775
#
#
#
# Elastic Compliance Matrix: (Units=1/GPa)
#
#
# Indices 1 2 3 4 5 6 
#
# 1 0.022886 -0.013035 -0.008477 0.000000 0.000000 0.000000
# 2 -0.013035 0.019312 0.003045 0.000000 0.000000 0.000000
# 3 -0.008477 0.003045 0.013594 0.000000 0.000000 0.000000
# 4 0.000000 0.000000 0.000000 0.060372 0.000000 0.000000
# 5 0.000000 0.000000 0.000000 0.000000 0.030136 0.000000
# 6 0.000000 0.000000 0.000000 0.000000 0.000000 0.403638
#
#
# Mechanical properties :
#
#
# Convention : Reuss Voigt Hill
#
# Bulk Modulus (GPa) = 53.02739 56.00802 54.51771
# Shear Modulus (GPa) = 8.42948 21.23059 14.83003
#
# Velocity S-wave (km/s) = 2.14576 3.40534 2.84611
# Velocity P-wave (km/s) = 5.92479 6.78631 6.37013
#
# Compressibility (1/GPa) = 0.01885818
#
# Stress axis : x y z
#
# Youngs Moduli (GPa) = 43.69551 51.78230 73.56101
#
# Poissons Ratio (x) = 0.67498 0.62357
# Poissons Ratio (y) = 0.56957 -0.22401
# Poissons Ratio (z) = 0.37040 -0.15769
#
# Static dielectric constant tensor:
#      x y z
#    x 1.621270 0.000000 0.000000 
#    y 0.000000 1.611670 0.000000 
#    z 0.000000 0.000000 1.667630 
# 
# From -- ./inp_files/2580.got.cif
#   From: 2010.05.17/outbox.cif.g08.bks.cpg/sg51_2_cif.got.tgz:2580.got - 2010.06.03 11:52:47.
