data_PCOD9401299
_publ_section_title
;
Structure prediction by ZEFSAII (Michael W. Deem and Ramdas Pophale) SiO2 
 PCOD9401299
Probable space group: P M M A
;
_chemical_formula_sum "Si O2"
_cell_formula_units_Z 64
_cell_length_a 18.187461
_cell_length_b 9.097082
_cell_length_c 22.442660
_cell_angle_alpha 90.000000
_cell_angle_beta 90.000000
_cell_angle_gamma 90.000000
_cell_volume 3713.201477
_symmetry_space_group_name_H-M "P M M A"
_symmetry_group_IT_number 51
_symmetry_cell_setting 'orthorhombic'
loop_
_space_group_symop_operation_xyz
x,y,z
1/2-x,-y,z
1/2+x,-y,-z
-x,y,-z
-x,-y,-z
1/2+x,y,-z
1/2-x,y,z
x,-y,z
loop_
_atom_site_type_symbol
_atom_site_label
_atom_site_fract_x
_atom_site_fract_y
_atom_site_fract_z
Si Si1 0.168515 0.323421 0.797807
Si Si2 0.166554 0.175162 0.051926
Si Si3 0.460573 0.174413 0.364227
Si Si4 0.164519 0.677380 0.443923
Si Si5 0.969622 0.327232 0.888728
Si Si6 0.934884 0.666838 0.450674
Si Si7 0.987271 0.326656 0.248657
Si Si8 0.118236 0.175103 0.918688
O O1 0.250000 0.287954 0.774686
O O2 0.163432 0.500000 0.805647
O O3 0.098729 0.281852 0.757307
O O4 0.157235 0.249875 0.862255
O O5 0.250000 0.208422 0.069496
O O6 0.107149 0.265174 0.088718
O O7 0.153883 0.000000 0.059551
O O8 0.156079 0.206865 0.981681
O O9 0.390170 0.245939 0.397253
O O10 0.533115 0.229567 0.399899
O O11 0.470097 0.234235 0.297646
O O12 0.454951 0.000000 0.366374
O O13 0.250000 0.714667 0.435777
O O14 0.156217 0.500000 0.438235
O O15 0.135421 0.714211 0.510606
O O16 0.977232 0.500000 0.901982
O O17 0.980284 0.308600 0.817712
O O18 0.035725 0.238413 0.919524
O O19 0.924307 0.500000 0.427984
O O20 0.000000 0.661230 0.500000
O O21 0.990789 0.500000 0.264107
O O22 0.117144 0.000000 0.910132
#
# Coordination Sequence:
#
# PCOD9401299 Si02
#       8
#     8   8   8   8   8   8   8   8
#     4   9  18  33  53  77 102 128 164 213 262 302
#     4  10  21  35  50  72 103 135 165 201 252 314
#     4  11  21  32  51  78 105 136 173 209 248 295
#     4   9  18  34  56  80 105 135 171 209 249 293
#     4  10  21  36  54  75  97 127 171 218 260 300
#     4   8  15  30  52  75 100 131 164 197 237 288
#     4   9  19  36  54  71  97 135 175 212 250 297
#     4  10  19  32  52  76 102 133 165 198 248 316
#
# _framework density 17.235800999999999
#
# number of rings (size 3 to 8) (size 9 to 14) (size 15 to 20)
#    0.000    2.500    0.000    4.125    0.000    8.500 
#    0.000    1.250    0.000    4.500    0.000    0.000 
#    0.000    0.000    0.000    0.000    0.000    0.000 
#
# Total GULP energy -356928.274160 kJ/mol
# GULP energy per Si atom -5577.004284 kJ/mol
# Density = 1.719657 g / cm^3
# Si number density = 17.235801 Si / 1000 Ang^3
#
#
#
# Elastic Constant Matrix: (Units=GPa)
#
#
# Indices 1 2 3 4 5 6 
#
# 1 105.4752 34.3588 30.7942 0.0000 0.0000 0.0000
# 2 34.3588 41.3283 24.9071 0.0000 0.0000 0.0000
# 3 30.7942 24.9071 32.6209 0.0000 0.0000 0.0000
# 4 0.0000 0.0000 0.0000 42.0677 0.0000 0.0000
# 5 0.0000 0.0000 0.0000 0.0000 18.1840 0.0000
# 6 0.0000 0.0000 0.0000 0.0000 0.0000 15.8457
#
#
#
# Elastic Compliance Matrix: (Units=1/GPa)
#
#
# Indices 1 2 3 4 5 6 
#
# 1 0.014058 -0.006834 -0.008053 0.000000 0.000000 0.000000
# 2 -0.006834 0.048144 -0.030308 0.000000 0.000000 0.000000
# 3 -0.008053 -0.030308 0.061398 0.000000 0.000000 0.000000
# 4 0.000000 0.000000 0.000000 0.023771 0.000000 0.000000
# 5 0.000000 0.000000 0.000000 0.000000 0.054994 0.000000
# 6 0.000000 0.000000 0.000000 0.000000 0.000000 0.063109
#
#
# Mechanical properties :
#
#
# Convention : Reuss Voigt Hill
#
# Bulk Modulus (GPa) = 30.11111 39.94940 35.03026
# Shear Modulus (GPa) = 13.62647 21.17709 17.40178
#
# Velocity S-wave (km/s) = 2.81480 3.50904 3.18091
# Velocity P-wave (km/s) = 5.29831 6.29653 5.81887
#
# Compressibility (1/GPa) = 0.03321034
#
# Stress axis : x y z
#
# Youngs Moduli (GPa) = 71.13239 20.77113 16.28721
#
# Poissons Ratio (x) = 0.14196 0.13116
# Poissons Ratio (y) = 0.48615 0.49363
# Poissons Ratio (z) = 0.57281 0.62952
#
# Static dielectric constant tensor:
#      x y z
#    x 1.598610 0.000000 0.000000 
#    y 0.000000 1.573270 0.000000 
#    z 0.000000 0.000000 1.572680 
# 
# From -- ./inp_files/33938.got.cif
#   From: 2010.05.17/outbox.cif.g08.bks.cpg/sg51_17_cif.got.tgz:33938.got - 2010.06.03 11:52:47.
