data_PCOD9401783
_publ_section_title
;
Structure prediction by ZEFSAII (Michael W. Deem and Ramdas Pophale) SiO2 
 PCOD9401783
Probable space group: P M M A
;
_chemical_formula_sum "Si O2"
_cell_formula_units_Z 64
_cell_length_a 22.871059
_cell_length_b 9.453616
_cell_length_c 16.838043
_cell_angle_alpha 90.000000
_cell_angle_beta 90.000000
_cell_angle_gamma 90.000000
_cell_volume 3640.624153
_symmetry_space_group_name_H-M "P M M A"
_symmetry_group_IT_number 51
_symmetry_cell_setting 'orthorhombic'
loop_
_space_group_symop_operation_xyz
x,y,z
1/2-x,-y,z
1/2+x,-y,-z
-x,y,-z
-x,-y,-z
1/2+x,y,-z
1/2-x,y,z
x,-y,z
loop_
_atom_site_type_symbol
_atom_site_label
_atom_site_fract_x
_atom_site_fract_y
_atom_site_fract_z
Si Si1 0.102895 0.839204 0.306154
Si Si2 0.092463 0.335331 0.057857
Si Si3 0.816452 0.167042 0.242692
Si Si4 0.520473 0.665796 0.586837
Si Si5 0.683559 0.662355 0.796588
Si Si6 0.492159 0.836731 0.161737
Si Si7 0.425061 0.333908 0.726111
Si Si8 0.316047 0.331391 0.923389
O O1 0.159594 0.763791 0.271200
O O2 0.056079 0.837812 0.232996
O O3 0.073634 0.753974 0.377426
O O4 0.113850 0.000000 0.328136
O O5 0.073917 0.500000 0.050749
O O6 0.140618 0.328188 0.128311
O O7 0.039092 0.238153 0.086935
O O8 0.130023 0.294259 0.980717
O O9 0.750000 0.183883 0.272425
O O10 0.865132 0.252329 0.290623
O O11 0.818267 0.238105 0.155497
O O12 0.829525 0.000000 0.238735
O O13 0.500000 0.712776 0.500000
O O14 0.536237 0.500000 0.582203
O O15 0.468312 0.678214 0.651100
O O16 0.750000 0.693761 0.819400
O O17 0.680351 0.500000 0.768680
O O18 0.544096 0.742977 0.198756
O O19 0.508662 0.000000 0.146243
O O20 0.416218 0.500000 0.742830
O O21 0.250000 0.311946 0.958589
O O22 0.320708 0.500000 0.905835
#
# Coordination Sequence:
#
# PCOD9401783 Si02
#       8
#     8   8   8   8   8   8   8   8
#     4   9  17  28  43  66  96 127 157 190 228 272
#     4   9  16  27  44  67  95 126 164 209 251 289
#     4  10  21  36  53  73  98 128 161 199 243 289
#     4   9  18  33  54  79 102 122 148 185 230 280
#     4   9  16  26  42  64  91 127 167 201 235 276
#     4   9  17  29  45  67  97 130 161 195 238 287
#     4  10  19  33  55  78  99 125 157 195 237 284
#     4   9  17  30  48  69  94 126 166 212 256 295
#
# _framework density 17.579402000000002
#
# number of rings (size 3 to 8) (size 9 to 14) (size 15 to 20)
#    0.000    2.750    0.000    1.875    0.000    6.750 
#    0.000    0.625    0.000    6.750    0.000    1.750 
#    0.000    0.000    0.000    0.000    0.000    0.000 
#
# Total GULP energy -356824.408653 kJ/mol
# GULP energy per Si atom -5575.381385 kJ/mol
# Density = 1.753939 g / cm^3
# Si number density = 17.579402 Si / 1000 Ang^3
#
#
#
# Elastic Constant Matrix: (Units=GPa)
#
#
# Indices 1 2 3 4 5 6 
#
# 1 51.0074 34.0143 -0.7534 0.0000 0.0000 0.0000
# 2 34.0143 77.9520 10.8978 0.0000 0.0000 0.0000
# 3 -0.7534 10.8978 29.9239 0.0000 0.0000 0.0000
# 4 0.0000 0.0000 0.0000 12.2477 0.0000 0.0000
# 5 0.0000 0.0000 0.0000 0.0000 18.0308 0.0000
# 6 0.0000 0.0000 0.0000 0.0000 0.0000 24.5358
#
#
#
# Elastic Compliance Matrix: (Units=1/GPa)
#
#
# Indices 1 2 3 4 5 6 
#
# 1 0.028493 -0.013205 0.005527 0.000000 0.000000 0.000000
# 2 -0.013205 0.019637 -0.007484 0.000000 0.000000 0.000000
# 3 0.005527 -0.007484 0.036283 0.000000 0.000000 0.000000
# 4 0.000000 0.000000 0.000000 0.081648 0.000000 0.000000
# 5 0.000000 0.000000 0.000000 0.000000 0.055461 0.000000
# 6 0.000000 0.000000 0.000000 0.000000 0.000000 0.040757
#
#
# Mechanical properties :
#
#
# Convention : Reuss Voigt Hill
#
# Bulk Modulus (GPa) = 18.48881 27.46674 22.97778
# Shear Modulus (GPa) = 16.09623 18.61119 17.35371
#
# Velocity S-wave (km/s) = 3.02922 3.25729 3.14532
# Velocity P-wave (km/s) = 4.77232 5.45938 5.12737
#
# Compressibility (1/GPa) = 0.05408678
#
# Stress axis : x y z
#
# Youngs Moduli (GPa) = 35.09686 50.92483 27.56133
#
# Poissons Ratio (x) = 0.67248 -0.15232
# Poissons Ratio (y) = 0.46347 0.20627
# Poissons Ratio (z) = -0.19396 0.38112
#
# Static dielectric constant tensor:
#      x y z
#    x 1.622960 0.000000 0.000000 
#    y 0.000000 1.590470 0.000000 
#    z 0.000000 0.000000 1.582960 
# 
# From -- ./inp_files/30551.got.cif
#   From: 2010.05.17/outbox.cif.g08.bks.cpg/sg51_16_cif.got.tgz:30551.got - 2010.06.03 11:52:47.
