data_PCOD9401594
_publ_section_title
;
Structure prediction by ZEFSAII (Michael W. Deem and Ramdas Pophale) SiO2 
 PCOD9401594
Probable space group: P M M A
;
_chemical_formula_sum "Si O2"
_cell_formula_units_Z 48
_cell_length_a 9.898254
_cell_length_b 17.345007
_cell_length_c 14.747336
_cell_angle_alpha 90.000000
_cell_angle_beta 90.000000
_cell_angle_gamma 90.000000
_cell_volume 2531.900583
_symmetry_space_group_name_H-M "P M M A"
_symmetry_group_IT_number 51
_symmetry_cell_setting 'orthorhombic'
loop_
_space_group_symop_operation_xyz
x,y,z
1/2-x,-y,z
1/2+x,-y,-z
-x,y,-z
-x,-y,-z
1/2+x,y,-z
1/2-x,y,z
x,-y,z
loop_
_atom_site_type_symbol
_atom_site_label
_atom_site_fract_x
_atom_site_fract_y
_atom_site_fract_z
Si Si1 0.114267 0.500000 0.930938
Si Si2 0.090816 0.000000 0.590042
Si Si3 0.401247 0.647526 0.805410
Si Si4 0.408550 0.753988 0.416851
Si Si5 0.910389 0.150247 0.287095
Si Si6 0.094672 0.587919 0.351844
Si Si7 0.410700 0.195056 0.910223
O O1 0.250000 0.500000 0.987521
O O2 0.109257 0.425064 0.870572
O O3 0.000000 0.500000 0.000000
O O4 0.065483 0.074240 0.653402
O O5 0.000000 0.000000 0.500000
O O6 0.250000 0.000000 0.564866
O O7 0.250000 0.663960 0.768625
O O8 0.498811 0.617597 0.727584
O O9 0.441659 0.720802 0.866273
O O10 0.500000 0.783201 0.500000
O O11 0.250000 0.777974 0.419332
O O12 0.488043 0.785784 0.328519
O O13 0.409006 0.660529 0.419786
O O14 0.750000 0.170140 0.298027
O O15 0.933078 0.141278 0.178808
O O16 0.250000 0.584825 0.319820
O O17 0.059282 0.500000 0.381497
O O18 0.250000 0.193062 0.932511
O O19 0.500000 0.180973 0.000000
#
# Coordination Sequence:
#
# PCOD9401594 Si02
#       7
#     4   4   8   8   8   8   8
#     4  10  20  30  44  70 101 136 183 236 289 344
#     4  10  22  40  65  96 126 156 191 234 289 348
#     4  10  19  33  52  75 104 142 190 240 291 345
#     4  11  23  38  59  86 115 151 195 242 294 354
#     4  10  21  40  64  90 122 157 193 238 290 346
#     4  10  21  36  54  78 109 146 191 243 295 346
#     4  10  21  36  57  84 116 154 196 239 285 340
#
# _framework density 18.958089999999999
#
# number of rings (size 3 to 8) (size 9 to 14) (size 15 to 20)
#    0.000    1.833    2.500    1.500    0.000    5.000 
#    0.000    0.417    0.000    0.000    0.000    0.000 
#    0.000    0.000    0.000    0.000    0.000    0.000 
#
# Total GULP energy -267317.452397 kJ/mol
# GULP energy per Si atom -5569.113592 kJ/mol
# Density = 1.891494 g / cm^3
# Si number density = 18.958090 Si / 1000 Ang^3
#
#
#
# Elastic Constant Matrix: (Units=GPa)
#
#
# Indices 1 2 3 4 5 6 
#
# 1 114.0804 29.7201 72.3014 0.0000 0.0000 0.0000
# 2 29.7201 100.1504 28.3354 0.0000 0.0000 0.0000
# 3 72.3014 28.3354 109.7341 0.0000 0.0000 0.0000
# 4 0.0000 0.0000 0.0000 19.6420 0.0000 0.0000
# 5 0.0000 0.0000 0.0000 0.0000 34.6111 0.0000
# 6 0.0000 0.0000 0.0000 0.0000 0.0000 19.2371
#
#
#
# Elastic Compliance Matrix: (Units=1/GPa)
#
#
# Indices 1 2 3 4 5 6 
#
# 1 0.015355 -0.001828 -0.009645 0.000000 0.000000 0.000000
# 2 -0.001828 0.010990 -0.001633 0.000000 0.000000 0.000000
# 3 -0.009645 -0.001633 0.015889 0.000000 0.000000 0.000000
# 4 0.000000 0.000000 0.000000 0.050911 0.000000 0.000000
# 5 0.000000 0.000000 0.000000 0.000000 0.028892 0.000000
# 6 0.000000 0.000000 0.000000 0.000000 0.000000 0.051983
#
#
# Mechanical properties :
#
#
# Convention : Reuss Voigt Hill
#
# Bulk Modulus (GPa) = 62.41595 64.96431 63.69013
# Shear Modulus (GPa) = 24.32230 27.60525 25.96377
#
# Velocity S-wave (km/s) = 3.58572 3.82005 3.70474
# Velocity P-wave (km/s) = 7.08080 7.33477 7.20890
#
# Compressibility (1/GPa) = 0.01602155
#
# Stress axis : x y z
#
# Youngs Moduli (GPa) = 65.12720 90.99579 62.93472
#
# Poissons Ratio (x) = 0.16632 0.60699
# Poissons Ratio (y) = 0.11904 0.10280
# Poissons Ratio (z) = 0.62814 0.14864
#
# Static dielectric constant tensor:
#      x y z
#    x 1.677670 0.000000 0.000000 
#    y 0.000000 1.693520 0.000000 
#    z 0.000000 0.000000 1.646950 
# 
# From -- ./inp_files/21188.got.cif
#   From: 2010.05.17/outbox.cif.g08.bks.cpg/sg51_11_cif.got.tgz:21188.got - 2010.06.03 11:52:47.
