data_PCOD9401638
_publ_section_title
;
Structure prediction by ZEFSAII (Michael W. Deem and Ramdas Pophale) SiO2 
 PCOD9401638
Probable space group: P M M A
;
_chemical_formula_sum "Si O2"
_cell_formula_units_Z 48
_cell_length_a 8.532760
_cell_length_b 32.243238
_cell_length_c 9.397665
_cell_angle_alpha 90.000000
_cell_angle_beta 90.000000
_cell_angle_gamma 90.000000
_cell_volume 2585.521414
_symmetry_space_group_name_H-M "P M M A"
_symmetry_group_IT_number 51
_symmetry_cell_setting 'orthorhombic'
loop_
_space_group_symop_operation_xyz
x,y,z
1/2-x,-y,z
1/2+x,-y,-z
-x,y,-z
-x,-y,-z
1/2+x,y,-z
1/2-x,y,z
x,-y,z
loop_
_atom_site_type_symbol
_atom_site_label
_atom_site_fract_x
_atom_site_fract_y
_atom_site_fract_z
Si Si1 0.939366 0.419134 0.339124
Si Si2 0.062047 0.909916 0.160997
Si Si3 0.939443 0.500000 0.161101
Si Si4 0.938993 0.000000 0.837837
Si Si5 0.937595 0.166602 0.340434
Si Si6 0.560718 0.259537 0.339721
Si Si7 0.939529 0.661416 0.160075
O O1 0.750000 0.419300 0.343774
O O2 0.990152 0.459178 0.248041
O O3 0.989843 0.377496 0.256915
O O4 0.000000 0.420480 0.500000
O O5 0.250000 0.908724 0.159471
O O6 0.011660 0.955207 0.222979
O O7 0.999950 0.870722 0.246053
O O8 0.000000 0.907852 0.000000
O O9 0.750000 0.500000 0.156363
O O10 0.000000 0.500000 0.000000
O O11 0.750000 0.000000 0.839964
O O12 0.000000 0.000000 0.000000
O O13 0.750000 0.165457 0.340941
O O14 0.987295 0.213066 0.293327
O O15 0.000000 0.161484 0.500000
O O16 0.500000 0.266432 0.500000
O O17 0.750000 0.260515 0.344522
O O18 0.507536 0.295905 0.234905
O O19 0.750000 0.661401 0.156570
O O20 0.000000 0.657675 0.000000
#
# Coordination Sequence:
#
# PCOD9401638 Si02
#       7
#     8   8   4   4   8   8   8
#     4  10  21  36  55  79 107 138 177 217 257 308
#     4  10  19  33  53  77 103 133 169 210 254 303
#     4  10  21  36  54  80 110 140 175 218 262 308
#     4   8  16  30  49  72  99 130 166 206 250 300
#     4  10  20  35  53  75 103 135 170 211 257 307
#     4   9  19  35  54  75 100 131 170 210 252 304
#     4  10  21  36  53  77 106 136 171 213 257 305
#
# _framework density 18.564920999999998
#
# number of rings (size 3 to 8) (size 9 to 14) (size 15 to 20)
#    0.000    2.333    0.000    2.250    0.000    4.000 
#    0.000    2.083    0.000    0.000    0.000    0.000 
#    0.000    0.000    0.000    0.000    0.000    0.000 
#
# Total GULP energy -267781.835218 kJ/mol
# GULP energy per Si atom -5578.788234 kJ/mol
# Density = 1.852267 g / cm^3
# Si number density = 18.564921 Si / 1000 Ang^3
#
#
#
# Elastic Constant Matrix: (Units=GPa)
#
#
# Indices 1 2 3 4 5 6 
#
# 1 18.6452 38.4798 21.7873 0.0000 0.0000 0.0000
# 2 38.4798 221.4341 118.6696 0.0000 0.0000 0.0000
# 3 21.7873 118.6696 130.2624 0.0000 0.0000 0.0000
# 4 0.0000 0.0000 0.0000 42.5355 0.0000 0.0000
# 5 0.0000 0.0000 0.0000 0.0000 35.6231 0.0000
# 6 0.0000 0.0000 0.0000 0.0000 0.0000 19.8995
#
#
#
# Elastic Compliance Matrix: (Units=1/GPa)
#
#
# Indices 1 2 3 4 5 6 
#
# 1 0.083766 -0.013772 -0.001464 0.000000 0.000000 0.000000
# 2 -0.013772 0.011088 -0.007798 0.000000 0.000000 0.000000
# 3 -0.001464 -0.007798 0.015026 0.000000 0.000000 0.000000
# 4 0.000000 0.000000 0.000000 0.023510 0.000000 0.000000
# 5 0.000000 0.000000 0.000000 0.000000 0.028072 0.000000
# 6 0.000000 0.000000 0.000000 0.000000 0.000000 0.050253
#
#
# Mechanical properties :
#
#
# Convention : Reuss Voigt Hill
#
# Bulk Modulus (GPa) = 15.67110 80.91278 48.29194
# Shear Modulus (GPa) = 17.91777 32.37197 25.14487
#
# Velocity S-wave (km/s) = 3.11004 4.18031 3.68425
# Velocity P-wave (km/s) = 4.62126 8.18403 6.64584
#
# Compressibility (1/GPa) = 0.06381172
#
# Stress axis : x y z
#
# Youngs Moduli (GPa) = 11.93804 90.18536 66.55215
#
# Poissons Ratio (x) = 1.24200 0.09746
# Poissons Ratio (y) = 0.16441 0.51898
# Poissons Ratio (z) = 0.01748 0.70327
#
# Static dielectric constant tensor:
#      x y z
#    x 1.641180 0.000000 0.000000 
#    y 0.000000 1.678510 0.000000 
#    z 0.000000 0.000000 1.601280 
# 
# From -- ./inp_files/6186.got.cif
#   From: 2010.05.17/outbox.cif.g08.bks.cpg/sg51_4_cif.got.tgz:6186.got - 2010.06.03 11:52:47.
