data_PCOD9401279
_publ_section_title
;
Structure prediction by ZEFSAII (Michael W. Deem and Ramdas Pophale) SiO2 
 PCOD9401279
Probable space group: P M M A
;
_chemical_formula_sum "Si O2"
_cell_formula_units_Z 48
_cell_length_a 33.364437
_cell_length_b 8.926374
_cell_length_c 9.395856
_cell_angle_alpha 90.000000
_cell_angle_beta 90.000000
_cell_angle_gamma 90.000000
_cell_volume 2798.306183
_symmetry_space_group_name_H-M "P M M A"
_symmetry_group_IT_number 51
_symmetry_cell_setting 'orthorhombic'
loop_
_space_group_symop_operation_xyz
x,y,z
1/2-x,-y,z
1/2+x,-y,-z
-x,y,-z
-x,-y,-z
1/2+x,y,-z
1/2-x,y,z
x,-y,z
loop_
_atom_site_type_symbol
_atom_site_label
_atom_site_fract_x
_atom_site_fract_y
_atom_site_fract_z
Si Si1 0.455822 0.322046 0.561860
Si Si2 0.626387 0.680341 0.925002
Si Si3 0.665578 0.171670 0.352105
Si Si4 0.918438 0.827234 0.177023
Si Si5 0.616628 0.819169 0.614961
Si Si6 0.294318 0.320342 0.903805
O O1 0.500000 0.297652 0.500000
O O2 0.447944 0.500000 0.568168
O O3 0.449883 0.252511 0.718813
O O4 0.423310 0.245134 0.458877
O O5 0.624879 0.500000 0.918214
O O6 0.592390 0.740471 0.032961
O O7 0.669301 0.727438 0.993470
O O8 0.621544 0.751791 0.770653
O O9 0.623071 0.173302 0.267780
O O10 0.653613 0.223064 0.510051
O O11 0.695056 0.267589 0.255545
O O12 0.679643 0.000000 0.357250
O O13 0.929117 0.000000 0.149517
O O14 0.614664 0.000000 0.617586
O O15 0.250000 0.266226 0.945143
O O16 0.294264 0.500000 0.906265
#
# Coordination Sequence:
#
# PCOD9401279 Si02
#       6
#     8   8   8   8   8   8
#     4  10  20  34  53  77 103 130 164 207 252 298
#     4  10  19  32  52  75 102 135 169 207 251 299
#     4   8  16  30  48  70  94 124 161 199 239 286
#     4   9  17  31  51  73  99 131 167 203 241 293
#     4  10  20  34  52  74 101 131 166 206 248 298
#     4   9  18  32  50  73  99 128 164 204 246 294
#
# _framework density 17.153234999999999
#
# number of rings (size 3 to 8) (size 9 to 14) (size 15 to 20)
#    0.000    2.667    0.000    3.000    0.000    7.000 
#    0.000    1.667    0.000    8.000    0.000    0.000 
#    0.000    0.000    0.000    0.000    0.000    0.000 
#
# Total GULP energy -267480.183848 kJ/mol
# GULP energy per Si atom -5572.503830 kJ/mol
# Density = 1.711419 g / cm^3
# Si number density = 17.153235 Si / 1000 Ang^3
#
#
#
# Elastic Constant Matrix: (Units=GPa)
#
#
# Indices 1 2 3 4 5 6 
#
# 1 51.1559 29.7239 30.5236 0.0000 0.0000 0.0000
# 2 29.7239 60.0341 41.0186 0.0000 0.0000 0.0000
# 3 30.5236 41.0186 135.4722 0.0000 0.0000 0.0000
# 4 0.0000 0.0000 0.0000 31.4706 0.0000 0.0000
# 5 0.0000 0.0000 0.0000 0.0000 14.3414 0.0000
# 6 0.0000 0.0000 0.0000 0.0000 0.0000 13.1604
#
#
#
# Elastic Compliance Matrix: (Units=1/GPa)
#
#
# Indices 1 2 3 4 5 6 
#
# 1 0.028194 -0.012128 -0.002680 0.000000 0.000000 0.000000
# 2 -0.012128 0.026219 -0.005206 0.000000 0.000000 0.000000
# 3 -0.002680 -0.005206 0.009562 0.000000 0.000000 0.000000
# 4 0.000000 0.000000 0.000000 0.031776 0.000000 0.000000
# 5 0.000000 0.000000 0.000000 0.000000 0.069728 0.000000
# 6 0.000000 0.000000 0.000000 0.000000 0.000000 0.075986
#
#
# Mechanical properties :
#
#
# Convention : Reuss Voigt Hill
#
# Bulk Modulus (GPa) = 41.76032 49.91048 45.83540
# Shear Modulus (GPa) = 17.27257 21.48755 19.38006
#
# Velocity S-wave (km/s) = 3.17670 3.54316 3.36493
# Velocity P-wave (km/s) = 6.15252 6.77486 6.47118
#
# Compressibility (1/GPa) = 0.02394618
#
# Stress axis : x y z
#
# Youngs Moduli (GPa) = 35.46797 38.14010 104.58271
#
# Poissons Ratio (x) = 0.46257 0.28032
# Poissons Ratio (y) = 0.43016 0.54446
# Poissons Ratio (z) = 0.09507 0.19856
#
# Static dielectric constant tensor:
#      x y z
#    x 1.585600 0.000000 0.000000 
#    y 0.000000 1.579390 0.000000 
#    z 0.000000 0.000000 1.575000 
# 
# From -- ./inp_files/12850.got.cif
#   From: 2010.05.17/outbox.cif.g08.bks.cpg/sg51_7_cif.got.tgz:12850.got - 2010.06.03 11:52:47.
