data_PCOD9401763
_publ_section_title
;
Structure prediction by ZEFSAII (Michael W. Deem and Ramdas Pophale) SiO2 
 PCOD9401763
Probable space group: P M M A
;
_chemical_formula_sum "Si O2"
_cell_formula_units_Z 64
_cell_length_a 8.833261
_cell_length_b 24.802457
_cell_length_c 15.735452
_cell_angle_alpha 90.000000
_cell_angle_beta 90.000000
_cell_angle_gamma 90.000000
_cell_volume 3447.426302
_symmetry_space_group_name_H-M "P M M A"
_symmetry_group_IT_number 51
_symmetry_cell_setting 'orthorhombic'
loop_
_space_group_symop_operation_xyz
x,y,z
1/2-x,-y,z
1/2+x,-y,-z
-x,y,-z
-x,-y,-z
1/2+x,y,-z
1/2-x,y,z
x,-y,z
loop_
_atom_site_type_symbol
_atom_site_label
_atom_site_fract_x
_atom_site_fract_y
_atom_site_fract_z
Si Si1 0.071542 0.402098 0.913813
Si Si2 0.428874 0.291312 0.131547
Si Si3 0.069251 0.936502 0.409129
Si Si4 0.570217 0.141186 0.269394
Si Si5 0.930274 0.735050 0.310624
Si Si6 0.569943 0.832913 0.911101
Si Si7 0.431991 0.644218 0.411341
Si Si8 0.069107 0.561200 0.262753
O O1 0.250000 0.407713 0.916928
O O2 0.024825 0.339057 0.908779
O O3 0.007604 0.427321 0.827413
O O4 0.000000 0.425023 0.000000
O O5 0.250000 0.303178 0.124219
O O6 0.479020 0.287618 0.229504
O O7 0.458590 0.231711 0.095293
O O8 0.250000 0.930484 0.412180
O O9 0.000000 0.919457 0.500000
O O10 0.002903 0.902278 0.331699
O O11 0.033440 0.000000 0.398012
O O12 0.750000 0.133014 0.263458
O O13 0.544118 0.200817 0.309183
O O14 0.501201 0.142137 0.174381
O O15 0.750000 0.725794 0.300976
O O16 0.995189 0.702181 0.389610
O O17 0.750000 0.840976 0.910480
O O18 0.500000 0.852372 0.000000
O O19 0.500000 0.624745 0.500000
O O20 0.250000 0.647648 0.414914
O O21 0.475896 0.603664 0.335111
O O22 0.250000 0.566646 0.250968
O O23 0.036514 0.500000 0.289750
#
# Coordination Sequence:
#
# PCOD9401763 Si02
#       8
#     8   8   8   8   8   8   8   8
#     4  12  24  37  58  85 114 148 187 231 281 341
#     4  10  19  33  54  81 114 151 189 231 281 335
#     4  10  21  38  61  88 118 154 198 247 297 347
#     4  10  21  36  57  86 120 158 198 241 290 344
#     4  10  20  35  56  84 118 153 190 232 282 339
#     4  10  20  33  52  80 117 158 199 241 286 339
#     4  11  23  39  62  87 115 149 187 232 286 345
#     4  10  23  44  65  84 110 144 185 236 289 344
#
# _framework density 18.564574
#
# number of rings (size 3 to 8) (size 9 to 14) (size 15 to 20)
#    0.000    1.625    1.250    3.750    0.000    6.500 
#    0.000    0.000    0.000    0.375    0.000    0.000 
#    0.000    0.000    0.000    0.000    0.000    0.000 
#
# Total GULP energy -357572.008820 kJ/mol
# GULP energy per Si atom -5587.062638 kJ/mol
# Density = 1.852232 g / cm^3
# Si number density = 18.564574 Si / 1000 Ang^3
#
#
#
# Elastic Constant Matrix: (Units=GPa)
#
#
# Indices 1 2 3 4 5 6 
#
# 1 59.0907 39.9618 61.6069 0.0000 0.0000 0.0000
# 2 39.9618 63.3609 60.3586 0.0000 0.0000 0.0000
# 3 61.6069 60.3586 148.6586 0.0000 0.0000 0.0000
# 4 0.0000 0.0000 0.0000 -6.2955 0.0000 0.0000
# 5 0.0000 0.0000 0.0000 0.0000 33.8408 0.0000
# 6 0.0000 0.0000 0.0000 0.0000 0.0000 21.1063
#
#
#
# Elastic Compliance Matrix: (Units=1/GPa)
#
#
# Indices 1 2 3 4 5 6 
#
# 1 0.035960 -0.013835 -0.009285 0.000000 0.000000 0.000000
# 2 -0.013835 0.031060 -0.006878 0.000000 0.000000 0.000000
# 3 -0.009285 -0.006878 0.013367 0.000000 0.000000 0.000000
# 4 0.000000 0.000000 0.000000 -0.158845 0.000000 0.000000
# 5 0.000000 0.000000 0.000000 0.000000 0.029550 0.000000
# 6 0.000000 0.000000 0.000000 0.000000 0.000000 0.047379
#
#
# Mechanical properties :
#
#
# Convention : Reuss Voigt Hill
#
# Bulk Modulus (GPa) = 49.03899 66.10719 57.57309
# Shear Modulus (GPa) = 76.61146 17.00917 46.81032
#
# Velocity S-wave (km/s) = 6.43095 3.03019 5.02689
# Velocity P-wave (km/s) = 9.03413 6.92310 8.04813
#
# Compressibility (1/GPa) = 0.02039194
#
# Stress axis : x y z
#
# Youngs Moduli (GPa) = 27.80876 32.19584 74.80936
#
# Poissons Ratio (x) = 0.44542 0.69463
# Poissons Ratio (y) = 0.38472 0.51452
# Poissons Ratio (z) = 0.25821 0.22143
#
# Static dielectric constant tensor:
#      x y z
#    x 1.615650 0.000000 0.000000 
#    y 0.000000 1.640560 0.000000 
#    z 0.000000 0.000000 1.656120 
# 
# From -- ./inp_files/22390.got.cif
#   From: 2010.05.17/outbox.cif.g08.bks.cpg/sg51_12_cif.got.tgz:22390.got - 2010.06.03 11:52:47.
