data_PCOD9401988
_publ_section_title
;
Structure prediction by ZEFSAII (Michael W. Deem and Ramdas Pophale) SiO2 
 PCOD9401988
Probable space group: P M M A
;
_chemical_formula_sum "Si O2"
_cell_formula_units_Z 48
_cell_length_a 8.349866
_cell_length_b 15.329776
_cell_length_c 19.596310
_cell_angle_alpha 90.000000
_cell_angle_beta 90.000000
_cell_angle_gamma 90.000000
_cell_volume 2508.358552
_symmetry_space_group_name_H-M "P M M A"
_symmetry_group_IT_number 51
_symmetry_cell_setting 'orthorhombic'
loop_
_space_group_symop_operation_xyz
x,y,z
1/2-x,-y,z
1/2+x,-y,-z
-x,y,-z
-x,-y,-z
1/2+x,y,-z
1/2-x,y,z
x,-y,z
loop_
_atom_site_type_symbol
_atom_site_label
_atom_site_fract_x
_atom_site_fract_y
_atom_site_fract_z
Si Si1 0.442114 0.849719 0.925720
Si Si2 0.558433 0.901312 0.773638
Si Si3 0.054577 0.591286 0.785666
Si Si4 0.942264 0.400350 0.577819
Si Si5 0.557775 0.740098 0.313025
Si Si6 0.941827 0.352764 0.070158
O O1 0.250000 0.854551 0.926192
O O2 0.498636 0.885199 0.851964
O O3 0.494951 0.748103 0.925528
O O4 0.500000 0.886094 0.000000
O O5 0.750000 0.895441 0.775983
O O6 0.499511 0.833695 0.715377
O O7 0.510426 0.000000 0.755362
O O8 0.250000 0.592700 0.783886
O O9 0.000270 0.500000 0.755215
O O10 0.999598 0.675508 0.746712
O O11 0.002574 0.598079 0.863256
O O12 0.750000 0.399938 0.580884
O O13 0.996523 0.500000 0.598778
O O14 0.000000 0.390370 0.500000
O O15 0.003303 0.316701 0.621176
O O16 0.750000 0.743812 0.315552
O O17 0.750000 0.352177 0.070626
O O18 0.000000 0.391492 0.000000
#
# Coordination Sequence:
#
# PCOD9401988 Si02
#       6
#     8   8   8   8   8   8
#     4  10  19  34  55  79 106 141 188 243 305 364
#     4  11  24  40  58  82 112 149 195 247 303 361
#     4   9  17  30  49  74 105 141 181 223 272 333
#     4  10  21  38  62  95 132 166 200 236 276 329
#     4  11  21  37  60  86 117 154 193 237 292 346
#     4   9  17  30  46  68  97 134 179 225 275 331
#
# _framework density 19.136019999999998
#
# number of rings (size 3 to 8) (size 9 to 14) (size 15 to 20)
#    0.000    2.000    1.667    2.500    0.000    4.333 
#    0.000    0.000    0.000    2.500    0.000    0.000 
#    0.000    0.000    0.000    0.000    0.000    0.000 
#
# Total GULP energy -267359.637915 kJ/mol
# GULP energy per Si atom -5569.992457 kJ/mol
# Density = 1.909247 g / cm^3
# Si number density = 19.136020 Si / 1000 Ang^3
#
#
#
# Elastic Constant Matrix: (Units=GPa)
#
#
# Indices 1 2 3 4 5 6 
#
# 1 38.0952 34.7487 25.5035 0.0000 0.0000 0.0000
# 2 34.7487 151.4683 73.8130 0.0000 0.0000 0.0000
# 3 25.5035 73.8130 137.6310 0.0000 0.0000 0.0000
# 4 0.0000 0.0000 0.0000 34.5620 0.0000 0.0000
# 5 0.0000 0.0000 0.0000 0.0000 30.8850 0.0000
# 6 0.0000 0.0000 0.0000 0.0000 0.0000 27.9078
#
#
#
# Elastic Compliance Matrix: (Units=1/GPa)
#
#
# Indices 1 2 3 4 5 6 
#
# 1 0.034012 -0.006406 -0.002867 0.000000 0.000000 0.000000
# 2 -0.006406 0.010144 -0.004254 0.000000 0.000000 0.000000
# 3 -0.002867 -0.004254 0.010078 0.000000 0.000000 0.000000
# 4 0.000000 0.000000 0.000000 0.028934 0.000000 0.000000
# 5 0.000000 0.000000 0.000000 0.000000 0.032378 0.000000
# 6 0.000000 0.000000 0.000000 0.000000 0.000000 0.035832
#
#
# Mechanical properties :
#
#
# Convention : Reuss Voigt Hill
#
# Bulk Modulus (GPa) = 36.78854 66.14722 51.46788
# Shear Modulus (GPa) = 26.66768 31.54625 29.10697
#
# Velocity S-wave (km/s) = 3.73713 4.06461 3.90430
# Velocity P-wave (km/s) = 6.15532 7.52795 6.87597
#
# Compressibility (1/GPa) = 0.02718238
#
# Stress axis : x y z
#
# Youngs Moduli (GPa) = 29.40097 98.57647 99.22261
#
# Poissons Ratio (x) = 0.63144 0.28449
# Poissons Ratio (y) = 0.18833 0.42205
# Poissons Ratio (z) = 0.08430 0.41930
#
# Static dielectric constant tensor:
#      x y z
#    x 1.698080 0.000000 0.000000 
#    y 0.000000 1.689770 0.000000 
#    z 0.000000 0.000000 1.687970 
# 
# From -- ./inp_files/27581.got.cif
#   From: 2010.05.17/outbox.cif.g08.bks.cpg/sg51_14_cif.got.tgz:27581.got - 2010.06.03 11:52:47.
