data_PCOD9401165
_publ_section_title
;
Structure prediction by ZEFSAII (Michael W. Deem and Ramdas Pophale) SiO2 
 PCOD9401165
Probable space group: P M M A
;
_chemical_formula_sum "Si O2"
_cell_formula_units_Z 48
_cell_length_a 8.731574
_cell_length_b 16.203286
_cell_length_c 19.109123
_cell_angle_alpha 90.000000
_cell_angle_beta 90.000000
_cell_angle_gamma 90.000000
_cell_volume 2703.562367
_symmetry_space_group_name_H-M "P M M A"
_symmetry_group_IT_number 51
_symmetry_cell_setting 'orthorhombic'
loop_
_space_group_symop_operation_xyz
x,y,z
1/2-x,-y,z
1/2+x,-y,-z
-x,y,-z
-x,-y,-z
1/2+x,y,-z
1/2-x,y,z
x,-y,z
loop_
_atom_site_type_symbol
_atom_site_label
_atom_site_fract_x
_atom_site_fract_y
_atom_site_fract_z
Si Si1 0.068602 0.000000 0.422101
Si Si2 0.433222 0.840451 0.652124
Si Si3 0.432243 0.750349 0.789102
Si Si4 0.932422 0.593070 0.712039
Si Si5 0.066675 0.316453 0.077896
Si Si6 0.933278 0.334710 0.422799
Si Si7 0.934506 0.500000 0.921680
O O1 0.000000 0.000000 0.500000
O O2 0.013509 0.081099 0.381026
O O3 0.250000 0.000000 0.427759
O O4 0.250000 0.853614 0.651880
O O5 0.480886 0.818574 0.731795
O O6 0.462699 0.758246 0.606032
O O7 0.250000 0.754770 0.796149
O O8 0.478331 0.663906 0.752962
O O9 0.507830 0.748506 0.865195
O O10 0.750000 0.606176 0.719855
O O11 0.966659 0.500000 0.735708
O O12 0.982965 0.605040 0.631672
O O13 0.250000 0.314370 0.074219
O O14 0.019647 0.409108 0.104657
O O15 0.000000 0.305159 0.000000
O O16 0.750000 0.347949 0.421394
O O17 0.000000 0.343409 0.500000
O O18 0.750000 0.500000 0.921279
O O19 0.000000 0.500000 0.000000
#
# Coordination Sequence:
#
# PCOD9401165 Si02
#       7
#     4   8   8   8   8   8   4
#     4  12  24  36  58  88 115 142 173 208 256 314
#     4   9  20  38  56  77 107 138 171 209 255 312
#     4  10  21  36  54  76 103 139 177 217 266 315
#     4  10  21  35  50  69  95 131 175 219 263 310
#     4  10  19  32  50  74 105 140 181 225 269 318
#     4  10  20  34  53  74  98 131 169 212 260 307
#     4   8  16  28  42  64  96 132 171 216 265 308
#
# _framework density 17.754352999999998
#
# number of rings (size 3 to 8) (size 9 to 14) (size 15 to 20)
#    0.000    2.167    0.000    4.250    1.167    7.667 
#    0.000    0.000    0.000    0.000    0.000    0.583 
#    0.000    0.000    0.000    0.000    0.000    0.000 
#
# Total GULP energy -267826.083634 kJ/mol
# GULP energy per Si atom -5579.710076 kJ/mol
# Density = 1.771394 g / cm^3
# Si number density = 17.754353 Si / 1000 Ang^3
#
#
#
# Elastic Constant Matrix: (Units=GPa)
#
#
# Indices 1 2 3 4 5 6 
#
# 1 38.5241 28.3966 28.2443 0.0000 0.0000 0.0000
# 2 28.3966 68.6926 33.3801 0.0000 0.0000 0.0000
# 3 28.2443 33.3801 126.2155 0.0000 0.0000 0.0000
# 4 0.0000 0.0000 0.0000 24.3227 0.0000 0.0000
# 5 0.0000 0.0000 0.0000 0.0000 31.9478 0.0000
# 6 0.0000 0.0000 0.0000 0.0000 0.0000 23.7048
#
#
#
# Elastic Compliance Matrix: (Units=1/GPa)
#
#
# Indices 1 2 3 4 5 6 
#
# 1 0.040180 -0.014046 -0.005277 0.000000 0.000000 0.000000
# 2 -0.014046 0.021614 -0.002573 0.000000 0.000000 0.000000
# 3 -0.005277 -0.002573 0.009784 0.000000 0.000000 0.000000
# 4 0.000000 0.000000 0.000000 0.041114 0.000000 0.000000
# 5 0.000000 0.000000 0.000000 0.000000 0.031301 0.000000
# 6 0.000000 0.000000 0.000000 0.000000 0.000000 0.042186
#
#
# Mechanical properties :
#
#
# Convention : Reuss Voigt Hill
#
# Bulk Modulus (GPa) = 35.98779 45.94158 40.96469
# Shear Modulus (GPa) = 20.90019 25.55580 23.22800
#
# Velocity S-wave (km/s) = 3.43474 3.79807 3.62097
# Velocity P-wave (km/s) = 6.00364 6.72058 6.37220
#
# Compressibility (1/GPa) = 0.02778720
#
# Stress axis : x y z
#
# Youngs Moduli (GPa) = 24.88821 46.26564 102.20446
#
# Poissons Ratio (x) = 0.64983 0.53930
# Poissons Ratio (y) = 0.34957 0.26299
# Poissons Ratio (z) = 0.13133 0.11905
#
# Static dielectric constant tensor:
#      x y z
#    x 1.583340 0.000000 0.000000 
#    y 0.000000 1.603000 0.000000 
#    z 0.000000 0.000000 1.635390 
# 
# From -- ./inp_files/27692.got.cif
#   From: 2010.05.17/outbox.cif.g08.bks.cpg/sg51_14_cif.got.tgz:27692.got - 2010.06.03 11:52:47.
