data_PCOD9401350
_publ_section_title
;
Structure prediction by ZEFSAII (Michael W. Deem and Ramdas Pophale) SiO2 
 PCOD9401350
Probable space group: P M M A
;
_chemical_formula_sum "Si O2"
_cell_formula_units_Z 36
_cell_length_a 8.382777
_cell_length_b 24.446202
_cell_length_c 9.227689
_cell_angle_alpha 90.000000
_cell_angle_beta 90.000000
_cell_angle_gamma 90.000000
_cell_volume 1891.003176
_symmetry_space_group_name_H-M "P M M A"
_symmetry_group_IT_number 51
_symmetry_cell_setting 'orthorhombic'
loop_
_space_group_symop_operation_xyz
x,y,z
1/2-x,-y,z
1/2+x,-y,-z
-x,y,-z
-x,-y,-z
1/2+x,y,-z
1/2-x,y,z
x,-y,z
loop_
_atom_site_type_symbol
_atom_site_label
_atom_site_fract_x
_atom_site_fract_y
_atom_site_fract_z
Si Si1 0.442795 0.000000 0.164685
Si Si2 0.440817 0.783898 0.163985
Si Si3 0.557284 0.558686 0.333093
Si Si4 0.442915 0.891628 0.335360
Si Si5 0.058451 0.678230 0.666106
O O1 0.496933 0.945492 0.248560
O O2 0.250000 0.000000 0.164876
O O3 0.500000 0.000000 0.000000
O O4 0.250000 0.784999 0.163991
O O5 0.498525 0.836499 0.255162
O O6 0.496207 0.728150 0.239536
O O7 0.500000 0.787141 0.000000
O O8 0.500000 0.558484 0.500000
O O9 0.750000 0.558605 0.331116
O O10 0.503280 0.500000 0.268758
O O11 0.505212 0.618104 0.275823
O O12 0.500000 0.893017 0.500000
O O13 0.250000 0.891520 0.334974
O O14 0.250000 0.679522 0.665285
O O15 0.000000 0.683660 0.500000
#
# Coordination Sequence:
#
# PCOD9401350 Si02
#       5
#     4   8   8   8   8
#     4  10  21  38  58  84 114 144 179 216 258 308
#     4  11  23  38  55  77 105 139 178 220 268 320
#     4   8  14  25  43  69 100 132 167 209 257 307
#     4  10  22  38  58  83 110 140 177 219 262 310
#     4  10  19  32  52  78 107 139 175 217 263 313
#
# _framework density 19.037516
#
# number of rings (size 3 to 8) (size 9 to 14) (size 15 to 20)
#    0.000    2.222    0.000    3.000    0.000    5.333 
#    0.000    0.000    0.000    0.667    0.000    0.000 
#    0.000    0.000    0.000    0.000    0.000    0.000 
#
# Total GULP energy -200820.632144 kJ/mol
# GULP energy per Si atom -5578.350893 kJ/mol
# Density = 1.899419 g / cm^3
# Si number density = 19.037516 Si / 1000 Ang^3
#
#
#
# Elastic Constant Matrix: (Units=GPa)
#
#
# Indices 1 2 3 4 5 6 
#
# 1 22.9602 31.1086 17.0964 0.0000 0.0000 0.0000
# 2 31.1086 247.2235 108.5512 0.0000 0.0000 0.0000
# 3 17.0964 108.5512 132.0715 0.0000 0.0000 0.0000
# 4 0.0000 0.0000 0.0000 -8.5198 0.0000 0.0000
# 5 0.0000 0.0000 0.0000 0.0000 31.6263 0.0000
# 6 0.0000 0.0000 0.0000 0.0000 0.0000 23.4854
#
#
#
# Elastic Compliance Matrix: (Units=1/GPa)
#
#
# Indices 1 2 3 4 5 6 
#
# 1 0.052894 -0.005710 -0.002154 0.000000 0.000000 0.000000
# 2 -0.005710 0.006945 -0.004969 0.000000 0.000000 0.000000
# 3 -0.002154 -0.004969 0.011935 0.000000 0.000000 0.000000
# 4 0.000000 0.000000 0.000000 -0.117374 0.000000 0.000000
# 5 0.000000 0.000000 0.000000 0.000000 0.031619 0.000000
# 6 0.000000 0.000000 0.000000 0.000000 0.000000 0.042580
#
#
# Mechanical properties :
#
#
# Convention : Reuss Voigt Hill
#
# Bulk Modulus (GPa) = 21.68842 79.52972 50.60907
# Shear Modulus (GPa) = 71.80352 25.68500 48.74426
#
# Velocity S-wave (km/s) = 6.14807 3.67710 5.06556
# Velocity P-wave (km/s) = 7.86228 7.73912 7.80095
#
# Compressibility (1/GPa) = 0.04610756
#
# Stress axis : x y z
#
# Youngs Moduli (GPa) = 18.90582 143.98092 83.78839
#
# Poissons Ratio (x) = 0.82213 0.18047
# Poissons Ratio (y) = 0.10795 0.41637
# Poissons Ratio (z) = 0.04072 0.71549
#
# Static dielectric constant tensor:
#      x y z
#    x 1.664130 0.000000 0.000000 
#    y 0.000000 1.714730 0.000000 
#    z 0.000000 0.000000 1.597900 
# 
# From -- ./inp_files/5275.got.cif
#   From: 2010.05.17/outbox.cif.g08.bks.cpg/sg51_3_cif.got.tgz:5275.got - 2010.06.03 11:52:47.
