data_PCOD9401626
_publ_section_title
;
Structure prediction by ZEFSAII (Michael W. Deem and Ramdas Pophale) SiO2 
 PCOD9401626
Probable space group: P M M A
;
_chemical_formula_sum "Si O2"
_cell_formula_units_Z 64
_cell_length_a 9.576618
_cell_length_b 18.874986
_cell_length_c 20.214948
_cell_angle_alpha 90.000000
_cell_angle_beta 90.000000
_cell_angle_gamma 90.000000
_cell_volume 3654.024298
_symmetry_space_group_name_H-M "P M M A"
_symmetry_group_IT_number 51
_symmetry_cell_setting 'orthorhombic'
loop_
_space_group_symop_operation_xyz
x,y,z
1/2-x,-y,z
1/2+x,-y,-z
-x,y,-z
-x,-y,-z
1/2+x,y,-z
1/2-x,y,z
x,-y,z
loop_
_atom_site_type_symbol
_atom_site_label
_atom_site_fract_x
_atom_site_fract_y
_atom_site_fract_z
Si Si1 0.917563 0.083257 0.067856
Si Si2 0.405899 0.084279 0.440346
Si Si3 0.414965 0.842817 0.661893
Si Si4 0.083503 0.706532 0.567878
Si Si5 0.918870 0.186157 0.186916
Si Si6 0.920449 0.347963 0.197246
Si Si7 0.420082 0.581672 0.664398
Si Si8 0.909392 0.585082 0.061042
O O1 0.750000 0.092132 0.058076
O O2 0.964285 0.134704 0.127632
O O3 0.940637 0.000000 0.084525
O O4 0.000000 0.098376 0.000000
O O5 0.500000 0.112883 0.500000
O O6 0.250000 0.114472 0.441844
O O7 0.487713 0.101238 0.374099
O O8 0.395571 0.000000 0.448631
O O9 0.250000 0.859699 0.655313
O O10 0.437581 0.768912 0.622314
O O11 0.450903 0.839112 0.738946
O O12 0.250000 0.704711 0.554375
O O13 0.040911 0.633233 0.604078
O O14 0.000000 0.717224 0.500000
O O15 0.750000 0.187819 0.182749
O O16 0.967319 0.267519 0.184917
O O17 0.750000 0.347563 0.200388
O O18 0.966602 0.382739 0.266260
O O19 0.961831 0.392389 0.132981
O O20 0.250000 0.581191 0.665900
O O21 0.466009 0.500000 0.658776
O O22 0.750000 0.610447 0.054325
O O23 0.907980 0.500000 0.058458
O O24 0.000000 0.612034 0.000000
#
# Coordination Sequence:
#
# PCOD9401626 Si02
#       8
#     8   8   8   8   8   8   8   8
#     4   9  18  33  52  74 101 133 168 205 247 295
#     4  10  21  36  53  75 103 134 169 208 250 300
#     4  10  19  33  53  76 103 134 168 210 258 306
#     4  10  20  33  50  74 101 130 166 207 254 304
#     4   9  17  30  50  74 100 129 165 209 250 292
#     4   9  15  27  47  71  97 125 162 209 251 290
#     4   9  16  28  48  72  97 127 166 211 255 298
#     4   9  17  28  44  68  96 126 160 198 243 295
#
# _framework density 17.514935000000001
#
# number of rings (size 3 to 8) (size 9 to 14) (size 15 to 20)
#    0.000    2.625    1.250    1.125    0.000    5.000 
#    0.000    1.875    0.000    3.000    0.000    0.000 
#    0.000    0.000    0.000    0.000    0.000    0.000 
#
# Total GULP energy -356558.121130 kJ/mol
# GULP energy per Si atom -5571.220643 kJ/mol
# Density = 1.747507 g / cm^3
# Si number density = 17.514935 Si / 1000 Ang^3
#
#
#
# Elastic Constant Matrix: (Units=GPa)
#
#
# Indices 1 2 3 4 5 6 
#
# 1 36.3385 24.4535 44.7335 0.0000 0.0000 0.0000
# 2 24.4535 58.8470 45.1415 0.0000 0.0000 0.0000
# 3 44.7335 45.1415 131.3242 0.0000 0.0000 0.0000
# 4 0.0000 0.0000 0.0000 33.5347 0.0000 0.0000
# 5 0.0000 0.0000 0.0000 0.0000 22.8951 0.0000
# 6 0.0000 0.0000 0.0000 0.0000 0.0000 10.2877
#
#
#
# Elastic Compliance Matrix: (Units=1/GPa)
#
#
# Indices 1 2 3 4 5 6 
#
# 1 0.052085 -0.010911 -0.013991 0.000000 0.000000 0.000000
# 2 -0.010911 0.025364 -0.005002 0.000000 0.000000 0.000000
# 3 -0.013991 -0.005002 0.014100 0.000000 0.000000 0.000000
# 4 0.000000 0.000000 0.000000 0.029820 0.000000 0.000000
# 5 0.000000 0.000000 0.000000 0.000000 0.043677 0.000000
# 6 0.000000 0.000000 0.000000 0.000000 0.000000 0.097204
#
#
# Mechanical properties :
#
#
# Convention : Reuss Voigt Hill
#
# Bulk Modulus (GPa) = 31.50531 50.57408 41.03970
# Shear Modulus (GPa) = 15.03129 20.82224 17.92677
#
# Velocity S-wave (km/s) = 2.93268 3.45168 3.20271
# Velocity P-wave (km/s) = 5.43086 6.69500 6.09579
#
# Compressibility (1/GPa) = 0.03174068
#
# Stress axis : x y z
#
# Youngs Moduli (GPa) = 19.19941 39.42553 70.92125
#
# Poissons Ratio (x) = 0.43016 0.99229
# Poissons Ratio (y) = 0.20948 0.35476
# Poissons Ratio (z) = 0.26863 0.19721
#
# Static dielectric constant tensor:
#      x y z
#    x 1.586910 0.000000 0.000000 
#    y 0.000000 1.622960 0.000000 
#    z 0.000000 0.000000 1.596220 
# 
# From -- ./inp_files/28449.got.cif
#   From: 2010.05.17/outbox.cif.g08.bks.cpg/sg51_15_cif.got.tgz:28449.got - 2010.06.03 11:52:47.
