data_PCOD9401640
_publ_section_title
;
Structure prediction by ZEFSAII (Michael W. Deem and Ramdas Pophale) SiO2 
 PCOD9401640
Probable space group: P M M A
;
_chemical_formula_sum "Si O2"
_cell_formula_units_Z 32
_cell_length_a 8.634739
_cell_length_b 21.110770
_cell_length_c 9.904231
_cell_angle_alpha 90.000000
_cell_angle_beta 90.000000
_cell_angle_gamma 90.000000
_cell_volume 1805.402544
_symmetry_space_group_name_H-M "P M M A"
_symmetry_group_IT_number 51
_symmetry_cell_setting 'orthorhombic'
loop_
_space_group_symop_operation_xyz
x,y,z
1/2-x,-y,z
1/2+x,-y,-z
-x,y,-z
-x,-y,-z
1/2+x,y,-z
1/2-x,y,z
x,-y,z
loop_
_atom_site_type_symbol
_atom_site_label
_atom_site_fract_x
_atom_site_fract_y
_atom_site_fract_z
Si Si1 0.563837 0.361411 0.652442
Si Si2 0.563321 0.889358 0.148068
Si Si3 0.435687 0.256150 0.851666
Si Si4 0.062704 0.000000 0.651165
Si Si5 0.436333 0.500000 0.347749
O O1 0.500000 0.356393 0.500000
O O2 0.750000 0.358422 0.648535
O O3 0.499547 0.305363 0.743647
O O4 0.516707 0.431353 0.709172
O O5 0.750000 0.891410 0.141385
O O6 0.516944 0.816743 0.177846
O O7 0.512855 0.938505 0.262591
O O8 0.500000 0.906542 0.000000
O O9 0.250000 0.258680 0.853412
O O10 0.500000 0.271634 0.000000
O O11 0.000000 0.000000 0.500000
O O12 0.250000 0.000000 0.645780
O O13 0.250000 0.500000 0.351824
O O14 0.500000 0.500000 0.500000
#
# Coordination Sequence:
#
# PCOD9401640 Si02
#       5
#     8   8   8   4   4
#     4  10  19  33  53  77 103 134 170 211 255 303
#     4   9  19  35  55  76 100 131 170 208 247 298
#     4  10  20  35  53  76 104 135 170 211 255 303
#     4  10  21  36  52  76 106 134 165 206 250 294
#     4   8  16  30  49  72  99 130 168 208 250 300
#
# _framework density 17.724578000000001
#
# number of rings (size 3 to 8) (size 9 to 14) (size 15 to 20)
#    0.000    2.500    0.000    1.875    0.000    4.000 
#    0.000    3.125    0.000    0.000    0.000    0.000 
#    0.000    0.000    0.000    0.000    0.000    0.000 
#
# Total GULP energy -178410.260666 kJ/mol
# GULP energy per Si atom -5575.320646 kJ/mol
# Density = 1.768424 g / cm^3
# Si number density = 17.724578 Si / 1000 Ang^3
#
#
#
# Elastic Constant Matrix: (Units=GPa)
#
#
# Indices 1 2 3 4 5 6 
#
# 1 31.1710 38.2919 31.8191 0.0000 0.0000 0.0000
# 2 38.2919 153.3689 115.1781 0.0000 0.0000 0.0000
# 3 31.8191 115.1781 126.8905 0.0000 0.0000 0.0000
# 4 0.0000 0.0000 0.0000 47.5468 0.0000 0.0000
# 5 0.0000 0.0000 0.0000 0.0000 34.3116 0.0000
# 6 0.0000 0.0000 0.0000 0.0000 0.0000 23.5458
#
#
#
# Elastic Compliance Matrix: (Units=1/GPa)
#
#
# Indices 1 2 3 4 5 6 
#
# 1 0.046776 -0.009015 -0.003546 0.000000 0.000000 0.000000
# 2 -0.009015 0.022220 -0.017908 0.000000 0.000000 0.000000
# 3 -0.003546 -0.017908 0.025026 0.000000 0.000000 0.000000
# 4 0.000000 0.000000 0.000000 0.021032 0.000000 0.000000
# 5 0.000000 0.000000 0.000000 0.000000 0.029145 0.000000
# 6 0.000000 0.000000 0.000000 0.000000 0.000000 0.042470
#
#
# Mechanical properties :
#
#
# Convention : Reuss Voigt Hill
#
# Bulk Modulus (GPa) = 30.22848 75.77873 53.00361
# Shear Modulus (GPa) = 19.33217 29.49025 24.41121
#
# Velocity S-wave (km/s) = 3.30616 4.08340 3.71516
# Velocity P-wave (km/s) = 5.62724 8.06713 6.95501
#
# Compressibility (1/GPa) = 0.03308139
#
# Stress axis : x y z
#
# Youngs Moduli (GPa) = 21.37846 45.00418 39.95922
#
# Poissons Ratio (x) = 0.40573 0.14170
# Poissons Ratio (y) = 0.19274 0.71561
# Poissons Ratio (z) = 0.07581 0.80596
#
# Static dielectric constant tensor:
#      x y z
#    x 1.602430 0.000000 0.000000 
#    y 0.000000 1.642770 0.000000 
#    z 0.000000 0.000000 1.553840 
# 
# From -- ./inp_files/5172.got.cif
#   From: 2010.05.17/outbox.cif.g08.bks.cpg/sg51_3_cif.got.tgz:5172.got - 2010.06.03 11:52:47.
