data_PCOD9401895
_publ_section_title
;
Structure prediction by ZEFSAII (Michael W. Deem and Ramdas Pophale) SiO2 
 PCOD9401895
Probable space group: P M M A
;
_chemical_formula_sum "Si O2"
_cell_formula_units_Z 56
_cell_length_a 8.478493
_cell_length_b 15.167634
_cell_length_c 23.957807
_cell_angle_alpha 90.000000
_cell_angle_beta 90.000000
_cell_angle_gamma 90.000000
_cell_volume 3080.942325
_symmetry_space_group_name_H-M "P M M A"
_symmetry_group_IT_number 51
_symmetry_cell_setting 'orthorhombic'
loop_
_space_group_symop_operation_xyz
x,y,z
1/2-x,-y,z
1/2+x,-y,-z
-x,y,-z
-x,-y,-z
1/2+x,y,-z
1/2-x,y,z
x,-y,z
loop_
_atom_site_type_symbol
_atom_site_label
_atom_site_fract_x
_atom_site_fract_y
_atom_site_fract_z
Si Si1 0.063234 0.352374 0.851359
Si Si2 0.439184 0.099388 0.563344
Si Si3 0.440828 0.237111 0.347828
Si Si4 0.937781 0.500000 0.935931
Si Si5 0.441326 0.096069 0.258000
Si Si6 0.560926 0.841203 0.865070
Si Si7 0.440915 0.601404 0.273431
Si Si8 0.062170 0.000000 0.937990
O O1 0.250000 0.364863 0.849558
O O2 0.993339 0.417454 0.898155
O O3 0.018358 0.253601 0.868842
O O4 0.998337 0.369894 0.788449
O O5 0.500000 0.105940 0.500000
O O6 0.250000 0.100267 0.564172
O O7 0.499266 0.184081 0.598047
O O8 0.490713 0.000000 0.583844
O O9 0.250000 0.238854 0.351547
O O10 0.494789 0.172251 0.298384
O O11 0.490570 0.333132 0.324014
O O12 0.750000 0.500000 0.938894
O O13 0.000000 0.500000 0.000000
O O14 0.250000 0.094632 0.261059
O O15 0.482086 0.118417 0.195018
O O16 0.501283 0.000000 0.274019
O O17 0.750000 0.830899 0.867395
O O18 0.504388 0.912502 0.909013
O O19 0.250000 0.605252 0.271330
O O20 0.488914 0.500000 0.282827
O O21 0.250000 0.000000 0.934940
O O22 0.000000 0.000000 0.000000
#
# Coordination Sequence:
#
# PCOD9401895 Si02
#       8
#     8   8   8   4   8   8   8   4
#     4  12  24  39  61  92 123 153 192 244 302 359
#     4  10  21  37  57  84 119 161 203 247 296 351
#     4  10  19  33  56  87 119 155 198 241 289 350
#     4  12  26  46  68  90 116 150 193 244 303 372
#     4   9  16  28  51  82 112 146 188 230 279 339
#     4  11  21  39  63  86 114 155 196 238 290 353
#     4  10  20  36  60  88 119 159 201 241 294 359
#     4  12  26  44  62  86 114 152 199 248 297 354
#
# _framework density 18.176255999999999
#
# number of rings (size 3 to 8) (size 9 to 14) (size 15 to 20)
#    0.000    1.429    2.857    3.857    0.000    2.571 
#    0.000    2.857    0.000    0.429    0.000    0.000 
#    0.000    0.000    0.000    0.000    0.000    0.000 
#
# Total GULP energy -312466.067717 kJ/mol
# GULP energy per Si atom -5579.751209 kJ/mol
# Density = 1.813489 g / cm^3
# Si number density = 18.176256 Si / 1000 Ang^3
#
#
#
# Elastic Constant Matrix: (Units=GPa)
#
#
# Indices 1 2 3 4 5 6 
#
# 1 50.7391 29.4340 24.2416 0.0000 0.0000 0.0000
# 2 29.4340 169.4092 69.6749 0.0000 0.0000 0.0000
# 3 24.2416 69.6749 116.9108 0.0000 0.0000 0.0000
# 4 0.0000 0.0000 0.0000 53.4220 0.0000 0.0000
# 5 0.0000 0.0000 0.0000 0.0000 27.4105 0.0000
# 6 0.0000 0.0000 0.0000 0.0000 0.0000 14.7566
#
#
#
# Elastic Compliance Matrix: (Units=1/GPa)
#
#
# Indices 1 2 3 4 5 6 
#
# 1 0.022750 -0.002666 -0.003128 0.000000 0.000000 0.000000
# 2 -0.002666 0.008132 -0.004294 0.000000 0.000000 0.000000
# 3 -0.003128 -0.004294 0.011761 0.000000 0.000000 0.000000
# 4 0.000000 0.000000 0.000000 0.018719 0.000000 0.000000
# 5 0.000000 0.000000 0.000000 0.000000 0.036482 0.000000
# 6 0.000000 0.000000 0.000000 0.000000 0.000000 0.067766
#
#
# Mechanical properties :
#
#
# Convention : Reuss Voigt Hill
#
# Bulk Modulus (GPa) = 44.50983 64.86224 54.68603
# Shear Modulus (GPa) = 25.86987 33.36507 29.61747
#
# Velocity S-wave (km/s) = 3.77673 4.28909 4.04104
# Velocity P-wave (km/s) = 6.59995 7.76473 7.20591
#
# Compressibility (1/GPa) = 0.02246695
#
# Stress axis : x y z
#
# Youngs Moduli (GPa) = 43.95628 122.97182 85.02677
#
# Poissons Ratio (x) = 0.32785 0.26599
# Poissons Ratio (y) = 0.11719 0.36507
# Poissons Ratio (z) = 0.13751 0.52799
#
# Static dielectric constant tensor:
#      x y z
#    x 1.619780 0.000000 0.000000 
#    y 0.000000 1.669820 0.000000 
#    z 0.000000 0.000000 1.608710 
# 
# From -- ./inp_files/32047.got.cif
#   From: 2010.05.17/outbox.cif.g08.bks.cpg/sg51_17_cif.got.tgz:32047.got - 2010.06.03 11:52:47.
