data_PCOD9401040
_publ_section_title
;
Structure prediction by ZEFSAII (Michael W. Deem and Ramdas Pophale) SiO2 
 PCOD9401040
Probable space group: P M M A
;
_chemical_formula_sum "Si O2"
_cell_formula_units_Z 64
_cell_length_a 19.290118
_cell_length_b 18.536502
_cell_length_c 9.985787
_cell_angle_alpha 90.000000
_cell_angle_beta 90.000000
_cell_angle_gamma 90.000000
_cell_volume 3570.630948
_symmetry_space_group_name_H-M "P M M A"
_symmetry_group_IT_number 51
_symmetry_cell_setting 'orthorhombic'
loop_
_space_group_symop_operation_xyz
x,y,z
1/2-x,-y,z
1/2+x,-y,-z
-x,y,-z
-x,-y,-z
1/2+x,y,-z
1/2-x,y,z
x,-y,z
loop_
_atom_site_type_symbol
_atom_site_label
_atom_site_fract_x
_atom_site_fract_y
_atom_site_fract_z
Si Si1 0.829507 0.205529 0.964471
Si Si2 0.959351 0.805619 0.139474
Si Si3 0.669055 0.339773 0.772350
Si Si4 0.532888 0.643835 0.146970
Si Si5 0.828462 0.584441 0.050052
Si Si6 0.948306 0.583441 0.620945
Si Si7 0.476569 0.914266 0.349266
Si Si8 0.826245 0.085464 0.749348
O O1 0.750000 0.221830 0.000875
O O2 0.850451 0.266521 0.854093
O O3 0.831996 0.130262 0.885669
O O4 0.880180 0.200674 0.089869
O O5 0.979064 0.726128 0.191996
O O6 0.980554 0.866382 0.244278
O O7 0.000000 0.818455 0.000000
O O8 0.750000 0.333461 0.731276
O O9 0.617302 0.365175 0.655475
O O10 0.664438 0.398629 0.891887
O O11 0.613688 0.627523 0.129929
O O12 0.495507 0.590232 0.246948
O O13 0.500000 0.636684 0.000000
O O14 0.750000 0.604336 0.087344
O O15 0.838681 0.500000 0.072416
O O16 0.926598 0.500000 0.599427
O O17 0.000000 0.604791 0.500000
O O18 0.500000 0.900101 0.500000
O O19 0.394696 0.897264 0.334733
O O20 0.485747 0.000000 0.321753
O O21 0.750000 0.103580 0.690295
O O22 0.827275 0.000000 0.774292
#
# Coordination Sequence:
#
# PCOD9401040 Si02
#       8
#     8   8   8   8   8   8   8   8
#     4  10  19  34  57  86 119 144 183 243 294 340
#     4  11  20  34  56  84 111 146 187 229 294 341
#     4  10  19  35  58  82 111 148 190 240 289 343
#     4  11  21  35  56  80 111 144 185 232 288 353
#     4  10  19  31  53  82 106 138 188 238 285 339
#     4  11  24  39  54  80 115 149 190 241 292 343
#     4  10  22  38  56  84 120 155 195 238 284 343
#     4   9  18  34  57  81 109 149 193 234 281 341
#
# _framework density 17.924002000000002
#
# number of rings (size 3 to 8) (size 9 to 14) (size 15 to 20)
#    0.000    1.750    3.750    1.500    0.000    2.500 
#    0.000    1.250    0.000    1.500    0.000    0.000 
#    0.000    0.000    0.000    0.000    0.000    0.000 
#
# Total GULP energy -356858.249961 kJ/mol
# GULP energy per Si atom -5575.910156 kJ/mol
# Density = 1.788321 g / cm^3
# Si number density = 17.924002 Si / 1000 Ang^3
#
#
#
# Elastic Constant Matrix: (Units=GPa)
#
#
# Indices 1 2 3 4 5 6 
#
# 1 132.4342 46.0020 39.8054 0.0000 0.0000 0.0000
# 2 46.0020 52.1888 35.0742 0.0000 0.0000 0.0000
# 3 39.8054 35.0742 46.8726 0.0000 0.0000 0.0000
# 4 0.0000 0.0000 0.0000 22.5913 0.0000 0.0000
# 5 0.0000 0.0000 0.0000 0.0000 27.0418 0.0000
# 6 0.0000 0.0000 0.0000 0.0000 0.0000 22.3616
#
#
#
# Elastic Compliance Matrix: (Units=1/GPa)
#
#
# Indices 1 2 3 4 5 6 
#
# 1 0.011300 -0.007063 -0.004311 0.000000 0.000000 0.000000
# 2 -0.007063 0.042961 -0.026149 0.000000 0.000000 0.000000
# 3 -0.004311 -0.026149 0.044562 0.000000 0.000000 0.000000
# 4 0.000000 0.000000 0.000000 0.044265 0.000000 0.000000
# 5 0.000000 0.000000 0.000000 0.000000 0.036980 0.000000
# 6 0.000000 0.000000 0.000000 0.000000 0.000000 0.044720
#
#
# Mechanical properties :
#
#
# Convention : Reuss Voigt Hill
#
# Bulk Modulus (GPa) = 42.05722 52.58431 47.32076
# Shear Modulus (GPa) = 16.24649 21.77319 19.00984
#
# Velocity S-wave (km/s) = 3.01393 3.48911 3.26019
# Velocity P-wave (km/s) = 5.96882 6.75521 6.37416
#
# Compressibility (1/GPa) = 0.02377713
#
# Stress axis : x y z
#
# Youngs Moduli (GPa) = 88.49431 23.27707 22.44059
#
# Poissons Ratio (x) = 0.16441 0.09674
# Poissons Ratio (y) = 0.62506 0.58679
# Poissons Ratio (z) = 0.38150 0.60866
#
# Static dielectric constant tensor:
#      x y z
#    x 1.672980 0.000000 0.000000 
#    y 0.000000 1.633110 0.000000 
#    z 0.000000 0.000000 1.566820 
# 
# From -- ./inp_files/11212.got.cif
#   From: 2010.05.17/outbox.cif.g08.bks.cpg/sg51_6_cif.got.tgz:11212.got - 2010.06.03 11:52:47.
