data_PCOD9401990
_publ_section_title
;
Structure prediction by ZEFSAII (Michael W. Deem and Ramdas Pophale) SiO2 
 PCOD9401990
Probable space group: P M M A
;
_chemical_formula_sum "Si O2"
_cell_formula_units_Z 64
_cell_length_a 15.284893
_cell_length_b 18.814792
_cell_length_c 12.105020
_cell_angle_alpha 90.000000
_cell_angle_beta 90.000000
_cell_angle_gamma 90.000000
_cell_volume 3481.186861
_symmetry_space_group_name_H-M "P M M A"
_symmetry_group_IT_number 51
_symmetry_cell_setting 'orthorhombic'
loop_
_space_group_symop_operation_xyz
x,y,z
1/2-x,-y,z
1/2+x,-y,-z
-x,y,-z
-x,-y,-z
1/2+x,y,-z
1/2-x,y,z
x,-y,z
loop_
_atom_site_type_symbol
_atom_site_label
_atom_site_fract_x
_atom_site_fract_y
_atom_site_fract_z
Si Si1 0.654841 0.156592 0.731410
Si Si2 0.996852 0.656037 0.873200
Si Si3 0.850655 0.820295 0.309189
Si Si4 0.646143 0.312768 0.457515
Si Si5 0.149772 0.326430 0.295299
Si Si6 0.605223 0.917519 0.505461
Si Si7 0.006811 0.827625 0.873383
Si Si8 0.148820 0.583736 0.737713
O O1 0.750000 0.132212 0.771635
O O2 0.655521 0.242178 0.728694
O O3 0.639760 0.127615 0.608591
O O4 0.573105 0.137306 0.806943
O O5 0.912896 0.638407 0.796207
O O6 0.997872 0.741783 0.875454
O O7 0.082520 0.625482 0.815063
O O8 0.000000 0.631115 0.000000
O O9 0.750000 0.803782 0.280854
O O10 0.887344 0.753276 0.382485
O O11 0.856425 0.885667 0.393368
O O12 0.906569 0.837181 0.200559
O O13 0.750000 0.296456 0.474996
O O14 0.610758 0.327179 0.580092
O O15 0.638639 0.382575 0.383492
O O16 0.250000 0.354515 0.293789
O O17 0.500000 0.910641 0.500000
O O18 0.627323 0.000000 0.520151
O O19 0.000000 0.851650 0.000000
O O20 0.250000 0.595916 0.770591
O O21 0.131767 0.500000 0.738817
#
# Coordination Sequence:
#
# PCOD9401990 Si02
#       8
#     8   8   8   8   8   8   8   8
#     4  10  19  34  55  79 111 148 184 224 279 340
#     4  10  21  35  54  80 110 146 187 230 273 326
#     4  11  20  34  59  85 112 148 187 230 280 336
#     4   9  17  32  55  82 109 140 180 223 277 336
#     4   9  18  33  55  83 110 141 179 227 281 329
#     4  11  22  35  56  88 121 150 181 228 289 343
#     4  10  21  36  54  82 115 146 186 237 283 322
#     4  10  21  37  56  79 110 147 185 229 280 333
#
# _framework density 18.384535
#
# number of rings (size 3 to 8) (size 9 to 14) (size 15 to 20)
#    0.000    2.000    3.750    0.375    0.000    2.750 
#    0.000    3.750    0.000    2.625    0.000    1.750 
#    0.000    0.000    0.000    0.000    0.000    0.000 
#
# Total GULP energy -356812.773764 kJ/mol
# GULP energy per Si atom -5575.199590 kJ/mol
# Density = 1.834269 g / cm^3
# Si number density = 18.384535 Si / 1000 Ang^3
#
#
#
# Elastic Constant Matrix: (Units=GPa)
#
#
# Indices 1 2 3 4 5 6 
#
# 1 90.5424 17.8026 69.6512 0.0000 0.0000 0.0000
# 2 17.8026 27.4619 9.1298 0.0000 0.0000 0.0000
# 3 69.6512 9.1298 144.8166 0.0000 0.0000 0.0000
# 4 0.0000 0.0000 0.0000 7.2227 0.0000 0.0000
# 5 0.0000 0.0000 0.0000 0.0000 9.0379 0.0000
# 6 0.0000 0.0000 0.0000 0.0000 0.0000 9.5323
#
#
#
# Elastic Compliance Matrix: (Units=1/GPa)
#
#
# Indices 1 2 3 4 5 6 
#
# 1 0.019860 -0.009907 -0.008927 0.000000 0.000000 0.000000
# 2 -0.009907 0.042135 0.002108 0.000000 0.000000 0.000000
# 3 -0.008927 0.002108 0.011066 0.000000 0.000000 0.000000
# 4 0.000000 0.000000 0.000000 0.138453 0.000000 0.000000
# 5 0.000000 0.000000 0.000000 0.000000 0.110645 0.000000
# 6 0.000000 0.000000 0.000000 0.000000 0.000000 0.104906
#
#
# Mechanical properties :
#
#
# Convention : Reuss Voigt Hill
#
# Bulk Modulus (GPa) = 25.24608 50.66532 37.95570
# Shear Modulus (GPa) = 10.55476 16.24107 13.39792
#
# Velocity S-wave (km/s) = 2.39866 2.97544 2.70248
# Velocity P-wave (km/s) = 4.62963 6.27876 5.51617
#
# Compressibility (1/GPa) = 0.03961011
#
# Stress axis : x y z
#
# Youngs Moduli (GPa) = 50.35293 23.73311 90.36658
#
# Poissons Ratio (x) = 0.23511 0.80673
# Poissons Ratio (y) = 0.49882 -0.19052
# Poissons Ratio (z) = 0.44951 -0.05004
#
# Static dielectric constant tensor:
#      x y z
#    x 1.677030 0.000000 0.000000 
#    y 0.000000 1.616250 0.000000 
#    z 0.000000 0.000000 1.635290 
# 
# From -- ./inp_files/16884.got.cif
#   From: 2010.05.17/outbox.cif.g08.bks.cpg/sg51_9_cif.got.tgz:16884.got - 2010.06.03 11:52:47.
