data_PCOD9401740
_publ_section_title
;
Structure prediction by ZEFSAII (Michael W. Deem and Ramdas Pophale) SiO2 
 PCOD9401740
Probable space group: P M M A
;
_chemical_formula_sum "Si O2"
_cell_formula_units_Z 56
_cell_length_a 9.137064
_cell_length_b 14.888302
_cell_length_c 23.518935
_cell_angle_alpha 90.000000
_cell_angle_beta 90.000000
_cell_angle_gamma 90.000000
_cell_volume 3199.406983
_symmetry_space_group_name_H-M "P M M A"
_symmetry_group_IT_number 51
_symmetry_cell_setting 'orthorhombic'
loop_
_space_group_symop_operation_xyz
x,y,z
1/2-x,-y,z
1/2+x,-y,-z
-x,y,-z
-x,-y,-z
1/2+x,y,-z
1/2-x,y,z
x,-y,z
loop_
_atom_site_type_symbol
_atom_site_label
_atom_site_fract_x
_atom_site_fract_y
_atom_site_fract_z
Si Si1 0.574342 0.895892 0.224263
Si Si2 0.914913 0.396302 0.238128
Si Si3 0.584373 0.354384 0.370893
Si Si4 0.073498 0.397571 0.061317
Si Si5 0.573885 0.000000 0.562575
Si Si6 0.575955 0.856523 0.356324
Si Si7 0.079202 0.500000 0.440402
Si Si8 0.423101 0.736140 0.160982
O O1 0.750000 0.885851 0.220796
O O2 0.534492 0.873066 0.290099
O O3 0.501074 0.827977 0.179765
O O4 0.536928 0.000000 0.213723
O O5 0.750000 0.367298 0.220290
O O6 0.934119 0.500000 0.222663
O O7 0.920189 0.386481 0.305753
O O8 0.035084 0.333768 0.210450
O O9 0.750000 0.371426 0.392148
O O10 0.558455 0.248186 0.370440
O O11 0.472238 0.412417 0.406211
O O12 0.250000 0.394204 0.056286
O O13 0.036681 0.500000 0.081318
O O14 0.028393 0.318403 0.104465
O O15 0.000000 0.386022 0.000000
O O16 0.500000 0.000000 0.500000
O O17 0.516131 0.915945 0.599968
O O18 0.750000 0.000000 0.557641
O O19 0.750000 0.879070 0.361091
O O20 0.250000 0.500000 0.448064
O O21 0.000000 0.500000 0.500000
O O22 0.250000 0.750618 0.157400
#
# Coordination Sequence:
#
# PCOD9401740 Si02
#       8
#     8   8   8   8   4   8   4   8
#     4  10  20  37  60  84 113 151 192 232 281 343
#     4  10  19  33  54  80 112 150 188 223 269 331
#     4  10  20  38  61  82 109 144 183 229 276 329
#     4   9  19  36  56  81 117 160 200 239 283 331
#     4  12  26  42  62  86 114 144 183 232 287 352
#     4  10  20  39  64  85 111 146 184 231 285 338
#     4  12  26  42  60  80 108 146 189 232 279 338
#     4  11  22  34  53  85 123 152 186 237 290 340
#
# _framework density 17.503243000000001
#
# number of rings (size 3 to 8) (size 9 to 14) (size 15 to 20)
#    0.000    1.714    2.857    2.143    0.000    4.571 
#    0.000    1.429    0.000    0.429    0.000    0.000 
#    0.000    0.000    0.000    0.000    0.000    0.000 
#
# Total GULP energy -312552.039746 kJ/mol
# GULP energy per Si atom -5581.286424 kJ/mol
# Density = 1.746340 g / cm^3
# Si number density = 17.503243 Si / 1000 Ang^3
#
#
#
# Elastic Constant Matrix: (Units=GPa)
#
#
# Indices 1 2 3 4 5 6 
#
# 1 70.6913 59.2917 51.7618 0.0000 0.0000 0.0000
# 2 59.2917 128.2312 63.5501 0.0000 0.0000 0.0000
# 3 51.7618 63.5501 100.3646 0.0000 0.0000 0.0000
# 4 0.0000 0.0000 0.0000 58.1124 0.0000 0.0000
# 5 0.0000 0.0000 0.0000 0.0000 30.1329 0.0000
# 6 0.0000 0.0000 0.0000 0.0000 0.0000 26.0859
#
#
#
# Elastic Compliance Matrix: (Units=1/GPa)
#
#
# Indices 1 2 3 4 5 6 
#
# 1 0.027774 -0.008370 -0.009024 0.000000 0.000000 0.000000
# 2 -0.008370 0.013887 -0.004477 0.000000 0.000000 0.000000
# 3 -0.009024 -0.004477 0.017452 0.000000 0.000000 0.000000
# 4 0.000000 0.000000 0.000000 0.017208 0.000000 0.000000
# 5 0.000000 0.000000 0.000000 0.000000 0.033186 0.000000
# 6 0.000000 0.000000 0.000000 0.000000 0.000000 0.038335
#
#
# Mechanical properties :
#
#
# Convention : Reuss Voigt Hill
#
# Bulk Modulus (GPa) = 65.05359 72.05492 68.55426
# Shear Modulus (GPa) = 25.41840 31.17846 28.29843
#
# Velocity S-wave (km/s) = 3.81492 4.22512 4.02525
# Velocity P-wave (km/s) = 7.52676 8.06586 7.80097
#
# Compressibility (1/GPa) = 0.01537194
#
# Stress axis : x y z
#
# Youngs Moduli (GPa) = 36.00498 72.01012 57.29864
#
# Poissons Ratio (x) = 0.60270 0.51709
# Poissons Ratio (y) = 0.30135 0.25650
# Poissons Ratio (z) = 0.32492 0.32235
#
# Static dielectric constant tensor:
#      x y z
#    x 1.594370 0.000000 0.000000 
#    y 0.000000 1.604980 0.000000 
#    z 0.000000 0.000000 1.580750 
# 
# From -- ./inp_files/32088.got.cif
#   From: 2010.05.17/outbox.cif.g08.bks.cpg/sg51_17_cif.got.tgz:32088.got - 2010.06.03 11:52:47.
