data_PCOD9401412
_publ_section_title
;
Structure prediction by ZEFSAII (Michael W. Deem and Ramdas Pophale) SiO2 
 PCOD9401412
Probable space group: P M M A
;
_chemical_formula_sum "Si O2"
_cell_formula_units_Z 52
_cell_length_a 7.491552
_cell_length_b 15.541266
_cell_length_c 21.100895
_cell_angle_alpha 90.000000
_cell_angle_beta 90.000000
_cell_angle_gamma 90.000000
_cell_volume 2456.739274
_symmetry_space_group_name_H-M "P M M A"
_symmetry_group_IT_number 51
_symmetry_cell_setting 'orthorhombic'
loop_
_space_group_symop_operation_xyz
x,y,z
1/2-x,-y,z
1/2+x,-y,-z
-x,y,-z
-x,-y,-z
1/2+x,y,-z
1/2-x,y,z
x,-y,z
loop_
_atom_site_type_symbol
_atom_site_label
_atom_site_fract_x
_atom_site_fract_y
_atom_site_fract_z
Si Si1 0.463689 0.402868 0.073077
Si Si2 0.961904 0.000000 0.427491
Si Si3 0.968139 0.405338 0.707648
Si Si4 0.963183 0.171871 0.365935
Si Si5 0.036685 0.099213 0.226758
Si Si6 0.468803 0.724357 0.182453
Si Si7 0.051863 0.351766 0.425853
O O1 0.250000 0.406558 0.081078
O O2 0.532627 0.500000 0.084566
O O3 0.528528 0.332500 0.122924
O O4 0.500000 0.380924 0.000000
O O5 0.034471 0.087368 0.400112
O O6 0.000000 0.000000 0.500000
O O7 0.750000 0.000000 0.413489
O O8 0.750000 0.399957 0.705800
O O9 0.013350 0.500000 0.733106
O O10 0.025819 0.328599 0.754261
O O11 0.037352 0.397415 0.635225
O O12 0.750000 0.182183 0.374476
O O13 0.999323 0.146386 0.293584
O O14 0.048129 0.254352 0.399078
O O15 0.250000 0.091892 0.219979
O O16 0.973434 0.175659 0.180088
O O17 0.967120 0.000000 0.224614
O O18 0.250000 0.725365 0.183873
O O19 0.250000 0.388032 0.427237
O O20 0.000000 0.354033 0.500000
#
# Coordination Sequence:
#
# PCOD9401412 Si02
#       7
#     8   4   8   8   8   8   8
#     4   9  17  30  52  81 112 143 174 209 250 299
#     4  10  22  34  46  66  90 120 159 204 255 316
#     4   9  17  30  51  76  99 127 169 216 258 305
#     4  11  21  35  51  70  97 130 168 210 264 319
#     4  10  19  32  53  79 103 131 169 214 258 302
#     4   9  16  30  52  79 106 135 172 211 253 301
#     4  11  22  36  52  72  97 129 171 216 265 316
#
# _framework density 21.166267000000001
#
# number of rings (size 3 to 8) (size 9 to 14) (size 15 to 20)
#    0.000    2.154    2.308    1.846    0.000    4.615 
#    0.000    0.769    0.000    1.846    0.000    0.000 
#    0.000    0.000    0.000    0.000    0.000    0.000 
#
# Total GULP energy -289791.250890 kJ/mol
# GULP energy per Si atom -5572.908671 kJ/mol
# Density = 2.111809 g / cm^3
# Si number density = 21.166267 Si / 1000 Ang^3
#
#
#
# Elastic Constant Matrix: (Units=GPa)
#
#
# Indices 1 2 3 4 5 6 
#
# 1 61.6080 3.8451 -0.4696 0.0000 0.0000 0.0000
# 2 3.8451 161.1335 72.1278 0.0000 0.0000 0.0000
# 3 -0.4696 72.1278 122.1123 0.0000 0.0000 0.0000
# 4 0.0000 0.0000 0.0000 35.3876 0.0000 0.0000
# 5 0.0000 0.0000 0.0000 0.0000 17.5679 0.0000
# 6 0.0000 0.0000 0.0000 0.0000 0.0000 -9.0994
#
#
#
# Elastic Compliance Matrix: (Units=1/GPa)
#
#
# Indices 1 2 3 4 5 6 
#
# 1 0.016270 -0.000566 0.000397 0.000000 0.000000 0.000000
# 2 -0.000566 0.008456 -0.004997 0.000000 0.000000 0.000000
# 3 0.000397 -0.004997 0.011142 0.000000 0.000000 0.000000
# 4 0.000000 0.000000 0.000000 0.028258 0.000000 0.000000
# 5 0.000000 0.000000 0.000000 0.000000 0.056922 0.000000
# 6 0.000000 0.000000 0.000000 0.000000 0.000000 -0.109897
#
#
# Mechanical properties :
#
#
# Convention : Reuss Voigt Hill
#
# Bulk Modulus (GPa) = 39.15976 55.09560 47.12768
# Shear Modulus (GPa) = 166.68526 26.72791 96.70658
#
# Velocity S-wave (km/s) = 8.88377 3.55739 6.76670
# Velocity P-wave (km/s) = 11.12518 6.55437 9.13043
#
# Compressibility (1/GPa) = 0.02553642
#
# Stress axis : x y z
#
# Youngs Moduli (GPa) = 61.46278 118.25407 89.74788
#
# Poissons Ratio (x) = 0.06692 -0.03561
# Poissons Ratio (y) = 0.03478 0.44848
# Poissons Ratio (z) = -0.02439 0.59093
#
# Static dielectric constant tensor:
#      x y z
#    x 1.791550 0.000000 0.000000 
#    y 0.000000 1.570420 0.000000 
#    z 0.000000 0.000000 1.765580 
# 
# From -- ./inp_files/31686.got.cif
#   From: 2010.05.17/outbox.cif.g08.bks.cpg/sg51_16_cif.got.tgz:31686.got - 2010.06.03 11:52:47.
