data_PCOD9401909
_publ_section_title
;
Structure prediction by ZEFSAII (Michael W. Deem and Ramdas Pophale) SiO2 
 PCOD9401909
Probable space group: P M M A
;
_chemical_formula_sum "Si O2"
_cell_formula_units_Z 40
_cell_length_a 8.743027
_cell_length_b 15.791629
_cell_length_c 14.771470
_cell_angle_alpha 90.000000
_cell_angle_beta 90.000000
_cell_angle_gamma 90.000000
_cell_volume 2039.447212
_symmetry_space_group_name_H-M "P M M A"
_symmetry_group_IT_number 51
_symmetry_cell_setting 'orthorhombic'
loop_
_space_group_symop_operation_xyz
x,y,z
1/2-x,-y,z
1/2+x,-y,-z
-x,y,-z
-x,-y,-z
1/2+x,y,-z
1/2-x,y,z
x,-y,z
loop_
_atom_site_type_symbol
_atom_site_label
_atom_site_fract_x
_atom_site_fract_y
_atom_site_fract_z
Si Si1 0.566616 0.095108 0.290860
Si Si2 0.567194 0.160046 0.092511
Si Si3 0.932061 0.747750 0.600426
Si Si4 0.432790 0.650222 0.094951
Si Si5 0.067842 0.404884 0.717436
O O1 0.750000 0.104173 0.303278
O O2 0.536783 0.108810 0.183984
O O3 0.484236 0.167922 0.346897
O O4 0.522169 0.000000 0.317650
O O5 0.750000 0.170881 0.083318
O O6 0.490033 0.252372 0.102890
O O7 0.500000 0.122044 0.000000
O O8 0.750000 0.743691 0.596948
O O9 0.000000 0.748521 0.500000
O O10 0.995554 0.667093 0.655078
O O11 0.250000 0.647469 0.093244
O O12 0.497792 0.603527 0.182453
O O13 0.500000 0.617489 0.000000
O O14 0.250000 0.391205 0.723085
O O15 0.039733 0.500000 0.682780
#
# Coordination Sequence:
#
# PCOD9401909 Si02
#       5
#     8   8   8   8   8
#     4  10  22  41  65  93 128 169 212 260 313 370
#     4  10  19  33  57  87 126 169 212 257 305 363
#     4  12  26  45  70  95 124 162 205 259 319 378
#     4  11  21  35  59  90 127 170 213 257 307 366
#     4  11  24  43  67  95 128 165 207 258 313 373
#
# _framework density 19.613159
#
# number of rings (size 3 to 8) (size 9 to 14) (size 15 to 20)
#    0.000    1.200    2.000    6.000    0.000    4.400 
#    0.000    0.000    0.000    0.000    0.000    0.000 
#    0.000    0.000    0.000    0.000    0.000    0.000 
#
# Total GULP energy -223728.983095 kJ/mol
# GULP energy per Si atom -5593.224577 kJ/mol
# Density = 1.956852 g / cm^3
# Si number density = 19.613159 Si / 1000 Ang^3
#
#
#
# Elastic Constant Matrix: (Units=GPa)
#
#
# Indices 1 2 3 4 5 6 
#
# 1 142.4651 88.6885 80.9976 0.0000 0.0000 0.0000
# 2 88.6885 138.0996 83.0816 0.0000 0.0000 0.0000
# 3 80.9976 83.0816 149.3797 0.0000 0.0000 0.0000
# 4 0.0000 0.0000 0.0000 -9.6579 0.0000 0.0000
# 5 0.0000 0.0000 0.0000 0.0000 39.1379 0.0000
# 6 0.0000 0.0000 0.0000 0.0000 0.0000 10.0649
#
#
#
# Elastic Compliance Matrix: (Units=1/GPa)
#
#
# Indices 1 2 3 4 5 6 
#
# 1 0.012850 -0.006102 -0.003574 0.000000 0.000000 0.000000
# 2 -0.006102 0.013780 -0.004355 0.000000 0.000000 0.000000
# 3 -0.003574 -0.004355 0.011054 0.000000 0.000000 0.000000
# 4 0.000000 0.000000 0.000000 -0.103542 0.000000 0.000000
# 5 0.000000 0.000000 0.000000 0.000000 0.025551 0.000000
# 6 0.000000 0.000000 0.000000 0.000000 0.000000 0.099355
#
#
# Mechanical properties :
#
#
# Convention : Reuss Voigt Hill
#
# Bulk Modulus (GPa) = 103.92939 103.94221 103.93580
# Shear Modulus (GPa) = 55.35947 19.72076 37.54011
#
# Velocity S-wave (km/s) = 5.31855 3.17438 4.37971
# Velocity P-wave (km/s) = 9.52998 8.15762 8.87038
#
# Compressibility (1/GPa) = 0.00962192
#
# Stress axis : x y z
#
# Youngs Moduli (GPa) = 77.82151 72.56643 90.46155
#
# Poissons Ratio (x) = 0.44283 0.32327
# Poissons Ratio (y) = 0.47490 0.39400
# Poissons Ratio (z) = 0.27810 0.31606
#
# Static dielectric constant tensor:
#      x y z
#    x 1.652430 0.000000 0.000000 
#    y 0.000000 1.693970 0.000000 
#    z 0.000000 0.000000 1.675100 
# 
# From -- ./inp_files/20492.got.cif
#   From: 2010.05.17/outbox.cif.g08.bks.cpg/sg51_11_cif.got.tgz:20492.got - 2010.06.03 11:52:47.
