data_PCOD9401371
_publ_section_title
;
Structure prediction by ZEFSAII (Michael W. Deem and Ramdas Pophale) SiO2 
 PCOD9401371
Probable space group: P M M A
;
_chemical_formula_sum "Si O2"
_cell_formula_units_Z 64
_cell_length_a 22.932568
_cell_length_b 8.210797
_cell_length_c 15.799513
_cell_angle_alpha 90.000000
_cell_angle_beta 90.000000
_cell_angle_gamma 90.000000
_cell_volume 2974.963937
_symmetry_space_group_name_H-M "P M M A"
_symmetry_group_IT_number 51
_symmetry_cell_setting 'orthorhombic'
loop_
_space_group_symop_operation_xyz
x,y,z
1/2-x,-y,z
1/2+x,-y,-z
-x,y,-z
-x,-y,-z
1/2+x,y,-z
1/2-x,y,z
x,-y,z
loop_
_atom_site_type_symbol
_atom_site_label
_atom_site_fract_x
_atom_site_fract_y
_atom_site_fract_z
Si Si1 0.378019 0.193097 0.403855
Si Si2 0.313144 0.300468 0.044587
Si Si3 0.100181 0.693019 0.905352
Si Si4 0.864569 0.686945 0.418210
Si Si5 0.858774 0.694961 0.780532
Si Si6 0.683144 0.191597 0.243140
Si Si7 0.988945 0.190917 0.375549
Si Si8 0.493108 0.303114 0.190913
O O1 0.347426 0.265758 0.486391
O O2 0.350749 0.232658 0.312590
O O3 0.445986 0.250645 0.398307
O O4 0.380160 0.000000 0.414577
O O5 0.250000 0.253502 0.009674
O O6 0.315626 0.500000 0.045022
O O7 0.319123 0.249262 0.141982
O O8 0.364752 0.238263 0.984994
O O9 0.095199 0.500000 0.920254
O O10 0.139567 0.720220 0.821685
O O11 0.034872 0.750586 0.885093
O O12 0.851305 0.500000 0.402226
O O13 0.836485 0.784480 0.340524
O O14 0.934257 0.717392 0.414525
O O15 0.853415 0.500000 0.771629
O O16 0.924672 0.730714 0.812449
O O17 0.750000 0.248551 0.233126
O O18 0.680589 0.000000 0.223719
O O19 0.984286 0.215958 0.275183
O O20 0.984270 0.000000 0.397314
O O21 0.499161 0.500000 0.201410
#
# Coordination Sequence:
#
# PCOD9401371 Si02
#       8
#     8   8   8   8   8   8   8   8
#     4  10  21  36  55  80 111 147 186 228 280 335
#     4   9  18  33  55  82 110 144 188 235 280 329
#     4  10  19  33  56  84 112 144 183 228 281 339
#     4  12  23  35  55  82 111 146 187 229 274 328
#     4   9  18  34  54  78 111 147 188 237 284 334
#     4  11  24  40  57  79 111 150 189 231 279 333
#     4  10  19  32  52  79 113 150 183 221 272 330
#     4   9  17  29  49  80 113 146 183 226 281 337
#
# _framework density 21.512865999999999
#
# number of rings (size 3 to 8) (size 9 to 14) (size 15 to 20)
#    0.000    2.000    1.250    3.000    0.000    5.000 
#    0.000    3.750    0.000    3.375    0.000    4.375 
#    0.000    0.000    0.000    0.000    0.000    0.000 
#
# Total GULP energy -357340.043150 kJ/mol
# GULP energy per Si atom -5583.438174 kJ/mol
# Density = 2.146390 g / cm^3
# Si number density = 21.512866 Si / 1000 Ang^3
#
#
#
# Elastic Constant Matrix: (Units=GPa)
#
#
# Indices 1 2 3 4 5 6 
#
# 1 10.3922 0.0900 9.9746 0.0000 0.0000 0.0000
# 2 0.0900 11.5952 -9.2629 0.0000 0.0000 0.0000
# 3 9.9746 -9.2629 61.0479 0.0000 0.0000 0.0000
# 4 0.0000 0.0000 0.0000 342.2915 0.0000 0.0000
# 5 0.0000 0.0000 0.0000 0.0000 8.0858 0.0000
# 6 0.0000 0.0000 0.0000 0.0000 0.0000 1.5987
#
#
#
# Elastic Compliance Matrix: (Units=1/GPa)
#
#
# Indices 1 2 3 4 5 6 
#
# 1 0.117507 -0.018491 -0.022005 0.000000 0.000000 0.000000
# 2 -0.018491 0.101047 0.018353 0.000000 0.000000 0.000000
# 3 -0.022005 0.018353 0.022761 0.000000 0.000000 0.000000
# 4 0.000000 0.000000 0.000000 0.002921 0.000000 0.000000
# 5 0.000000 0.000000 0.000000 0.000000 0.123673 0.000000
# 6 0.000000 0.000000 0.000000 0.000000 0.000000 0.625506
#
#
# Mechanical properties :
#
#
# Convention : Reuss Voigt Hill
#
# Bulk Modulus (GPa) = 5.07537 9.40431 7.23984
# Shear Modulus (GPa) = 4.53154 75.87745 40.20450
#
# Velocity S-wave (km/s) = 1.45293 5.94536 4.32772
# Velocity P-wave (km/s) = 2.27575 7.17710 5.32399
#
# Compressibility (1/GPa) = 0.19702992
#
# Stress axis : x y z
#
# Youngs Moduli (GPa) = 8.51016 9.89635 43.93541
#
# Poissons Ratio (x) = 0.18299 0.96680
# Poissons Ratio (y) = 0.15736 -0.80635
# Poissons Ratio (z) = 0.18727 -0.18163
#
# Static dielectric constant tensor:
#      x y z
#    x 1.800390 0.000000 0.000000 
#    y 0.000000 1.753710 0.000000 
#    z 0.000000 0.000000 1.797740 
# 
# From -- ./inp_files/26219.got.cif
#   From: 2010.05.17/outbox.cif.g08.bks.cpg/sg51_14_cif.got.tgz:26219.got - 2010.06.03 11:52:47.
