data_PCOD9401945
_publ_section_title
;
Structure prediction by ZEFSAII (Michael W. Deem and Ramdas Pophale) SiO2 
 PCOD9401945
Probable space group: P M M A
;
_chemical_formula_sum "Si O2"
_cell_formula_units_Z 52
_cell_length_a 8.571171
_cell_length_b 23.578853
_cell_length_c 14.719130
_cell_angle_alpha 90.000000
_cell_angle_beta 90.000000
_cell_angle_gamma 90.000000
_cell_volume 2974.712343
_symmetry_space_group_name_H-M "P M M A"
_symmetry_group_IT_number 51
_symmetry_cell_setting 'orthorhombic'
loop_
_space_group_symop_operation_xyz
x,y,z
1/2-x,-y,z
1/2+x,-y,-z
-x,y,-z
-x,-y,-z
1/2+x,y,-z
1/2-x,y,z
x,-y,z
loop_
_atom_site_type_symbol
_atom_site_label
_atom_site_fract_x
_atom_site_fract_y
_atom_site_fract_z
Si Si1 0.060624 0.673095 0.211795
Si Si2 0.061654 0.564355 0.100633
Si Si3 0.436546 0.780780 0.897706
Si Si4 0.437750 0.278812 0.403033
Si Si5 0.435852 0.000000 0.897541
Si Si6 0.937819 0.109316 0.792593
Si Si7 0.937740 0.853095 0.597042
O O1 0.250000 0.676524 0.208258
O O2 0.012349 0.612400 0.171643
O O3 0.012184 0.685507 0.315414
O O4 0.993120 0.723018 0.149581
O O5 0.250000 0.564628 0.097560
O O6 0.010792 0.500000 0.122780
O O7 0.000000 0.578221 0.000000
O O8 0.250000 0.783557 0.898249
O O9 0.504691 0.833625 0.841563
O O10 0.500000 0.783216 0.000000
O O11 0.500000 0.299041 0.500000
O O12 0.250000 0.278998 0.405714
O O13 0.488039 0.212898 0.391513
O O14 0.495065 0.944609 0.844566
O O15 0.250000 0.000000 0.900970
O O16 0.500000 0.000000 0.000000
O O17 0.750000 0.107668 0.796047
O O18 0.986564 0.112925 0.686712
O O19 0.750000 0.853430 0.593954
O O20 0.000000 0.873525 0.500000
#
# Coordination Sequence:
#
# PCOD9401945 Si02
#       7
#     8   8   8   8   4   8   8
#     4  10  19  34  53  76 108 140 178 224 272 324
#     4   9  18  32  51  74 102 140 182 223 268 321
#     4  12  24  36  53  79 110 142 177 222 273 325
#     4   9  17  31  50  76 106 140 174 217 267 321
#     4  12  26  44  63  86 111 146 189 228 268 322
#     4  11  22  41  62  83 111 146 183 225 272 320
#     4   9  18  33  56  82 111 141 176 218 269 322
#
# _framework density 17.480681000000001
#
# number of rings (size 3 to 8) (size 9 to 14) (size 15 to 20)
#    0.000    1.846    1.538    3.462    0.000    3.692 
#    0.000    0.385    0.000    0.462    0.000    0.000 
#    0.000    0.000    0.000    0.000    0.000    0.000 
#
# Total GULP energy -290335.168384 kJ/mol
# GULP energy per Si atom -5583.368623 kJ/mol
# Density = 1.744089 g / cm^3
# Si number density = 17.480681 Si / 1000 Ang^3
#
#
#
# Elastic Constant Matrix: (Units=GPa)
#
#
# Indices 1 2 3 4 5 6 
#
# 1 48.4662 31.8812 43.2081 0.0000 0.0000 0.0000
# 2 31.8812 107.8092 87.1134 0.0000 0.0000 0.0000
# 3 43.2081 87.1134 193.1847 0.0000 0.0000 0.0000
# 4 0.0000 0.0000 0.0000 28.0906 0.0000 0.0000
# 5 0.0000 0.0000 0.0000 0.0000 30.5778 0.0000
# 6 0.0000 0.0000 0.0000 0.0000 0.0000 -51.9936
#
#
#
# Elastic Compliance Matrix: (Units=1/GPa)
#
#
# Indices 1 2 3 4 5 6 
#
# 1 0.027353 -0.004948 -0.003886 0.000000 0.000000 0.000000
# 2 -0.004948 0.015488 -0.005877 0.000000 0.000000 0.000000
# 3 -0.003886 -0.005877 0.008696 0.000000 0.000000 0.000000
# 4 0.000000 0.000000 0.000000 0.035599 0.000000 0.000000
# 5 0.000000 0.000000 0.000000 0.000000 0.032704 0.000000
# 6 0.000000 0.000000 0.000000 0.000000 0.000000 -0.019233
#
#
# Mechanical properties :
#
#
# Convention : Reuss Voigt Hill
#
# Bulk Modulus (GPa) = 45.22324 74.87395 60.04859
# Shear Modulus (GPa) = 36.38981 13.81878 25.10430
#
# Velocity S-wave (km/s) = 4.56753 2.81466 3.79372
# Velocity P-wave (km/s) = 7.33096 7.31358 7.32228
#
# Compressibility (1/GPa) = 0.02211253
#
# Stress axis : x y z
#
# Youngs Moduli (GPa) = 36.55943 64.56600 114.99676
#
# Poissons Ratio (x) = 0.31950 0.44692
# Poissons Ratio (y) = 0.18091 0.67587
# Poissons Ratio (z) = 0.14208 0.37947
#
# Static dielectric constant tensor:
#      x y z
#    x 1.593410 0.000000 0.000000 
#    y 0.000000 1.579320 0.000000 
#    z 0.000000 0.000000 1.583330 
# 
# From -- ./inp_files/21625.got.cif
#   From: 2010.05.17/outbox.cif.g08.bks.cpg/sg51_11_cif.got.tgz:21625.got - 2010.06.03 11:52:47.
