data_PCOD9401370
_publ_section_title
;
Structure prediction by ZEFSAII (Michael W. Deem and Ramdas Pophale) SiO2 
 PCOD9401370
Probable space group: P M M A
;
_chemical_formula_sum "Si O2"
_cell_formula_units_Z 64
_cell_length_a 8.742817
_cell_length_b 22.164112
_cell_length_c 16.938834
_cell_angle_alpha 90.000000
_cell_angle_beta 90.000000
_cell_angle_gamma 90.000000
_cell_volume 3282.352628
_symmetry_space_group_name_H-M "P M M A"
_symmetry_group_IT_number 51
_symmetry_cell_setting 'orthorhombic'
loop_
_space_group_symop_operation_xyz
x,y,z
1/2-x,-y,z
1/2+x,-y,-z
-x,y,-z
-x,-y,-z
1/2+x,y,-z
1/2-x,y,z
x,-y,z
loop_
_atom_site_type_symbol
_atom_site_label
_atom_site_fract_x
_atom_site_fract_y
_atom_site_fract_z
Si Si1 0.574175 0.093548 0.916073
Si Si2 0.433558 0.435226 0.747509
Si Si3 0.929994 0.070807 0.737191
Si Si4 0.427346 0.737689 0.384116
Si Si5 0.569761 0.136434 0.416725
Si Si6 0.569848 0.302113 0.224503
Si Si7 0.926292 0.238773 0.918660
Si Si8 0.930098 0.402111 0.580657
O O1 0.750000 0.072313 0.916763
O O2 0.509986 0.077890 0.828187
O O3 0.572950 0.166228 0.917668
O O4 0.500000 0.073791 0.000000
O O5 0.250000 0.436601 0.749946
O O6 0.490685 0.500000 0.778442
O O7 0.478942 0.371974 0.787096
O O8 0.487162 0.428003 0.657266
O O9 0.750000 0.088316 0.740057
O O10 0.004665 0.107799 0.664876
O O11 0.941423 0.000000 0.717978
O O12 0.250000 0.754374 0.395255
O O13 0.530863 0.792135 0.414001
O O14 0.469167 0.727221 0.293045
O O15 0.452036 0.670712 0.418320
O O16 0.500000 0.112961 0.500000
O O17 0.750000 0.127014 0.418299
O O18 0.750000 0.300762 0.246221
O O19 0.534994 0.263914 0.148319
O O20 0.750000 0.258262 0.908721
O O21 0.000000 0.259422 0.000000
O O22 0.750000 0.414031 0.585714
O O23 0.000000 0.425860 0.500000
#
# Coordination Sequence:
#
# PCOD9401370 Si02
#       8
#     8   8   8   8   8   8   8   8
#     4   9  19  35  57  86 118 150 182 220 269 327
#     4   9  19  35  52  70  96 133 175 217 261 311
#     4  10  22  41  62  84 114 152 192 233 277 328
#     4  10  20  35  55  80 109 139 175 219 271 329
#     4  12  25  40  60  84 111 146 189 238 290 340
#     4  10  19  32  53  80 108 139 177 220 269 324
#     4  10  19  32  52  79 112 144 175 215 265 321
#     4  10  20  32  49  73 101 133 168 211 261 314
#
# _framework density 19.49821
#
# number of rings (size 3 to 8) (size 9 to 14) (size 15 to 20)
#    0.000    2.000    0.000    3.750    0.000    6.250 
#    0.000    0.000    0.000    0.375    0.000    0.000 
#    0.000    0.000    0.000    0.000    0.000    0.000 
#
# Total GULP energy -356978.724631 kJ/mol
# GULP energy per Si atom -5577.792572 kJ/mol
# Density = 1.945383 g / cm^3
# Si number density = 19.498210 Si / 1000 Ang^3
#
#
#
# Elastic Constant Matrix: (Units=GPa)
#
#
# Indices 1 2 3 4 5 6 
#
# 1 35.4484 21.3502 30.1938 0.0000 0.0000 0.0000
# 2 21.3502 49.6627 22.4007 0.0000 0.0000 0.0000
# 3 30.1938 22.4007 97.9762 0.0000 0.0000 0.0000
# 4 0.0000 0.0000 0.0000 -14.1494 0.0000 0.0000
# 5 0.0000 0.0000 0.0000 0.0000 29.6495 0.0000
# 6 0.0000 0.0000 0.0000 0.0000 0.0000 8.6734
#
#
#
# Elastic Compliance Matrix: (Units=1/GPa)
#
#
# Indices 1 2 3 4 5 6 
#
# 1 0.046604 -0.015116 -0.010906 0.000000 0.000000 0.000000
# 2 -0.015116 0.027354 -0.001596 0.000000 0.000000 0.000000
# 3 -0.010906 -0.001596 0.013932 0.000000 0.000000 0.000000
# 4 0.000000 0.000000 0.000000 -0.070674 0.000000 0.000000
# 5 0.000000 0.000000 0.000000 0.000000 0.033727 0.000000
# 6 0.000000 0.000000 0.000000 0.000000 0.000000 0.115296
#
#
# Mechanical properties :
#
#
# Convention : Reuss Voigt Hill
#
# Bulk Modulus (GPa) = 30.62349 36.77520 33.69935
# Shear Modulus (GPa) = 21.51845 12.11087 16.81466
#
# Velocity S-wave (km/s) = 3.32567 2.49495 2.93980
# Velocity P-wave (km/s) = 5.52147 5.21550 5.37067
#
# Compressibility (1/GPa) = 0.03265467
#
# Stress axis : x y z
#
# Youngs Moduli (GPa) = 21.45759 36.55780 71.77530
#
# Poissons Ratio (x) = 0.55260 0.78279
# Poissons Ratio (y) = 0.32435 0.11453
# Poissons Ratio (z) = 0.23402 0.05834
#
# Static dielectric constant tensor:
#      x y z
#    x 1.726720 0.000000 0.000000 
#    y 0.000000 1.721430 0.000000 
#    z 0.000000 0.000000 1.642920 
# 
# From -- ./inp_files/22233.got.cif
#   From: 2010.05.17/outbox.cif.g08.bks.cpg/sg51_12_cif.got.tgz:22233.got - 2010.06.03 11:52:47.
