data_PCOD9401838
_publ_section_title
;
Structure prediction by ZEFSAII (Michael W. Deem and Ramdas Pophale) SiO2 
 PCOD9401838
Probable space group: P M M A
;
_chemical_formula_sum "Si O2"
_cell_formula_units_Z 64
_cell_length_a 15.262370
_cell_length_b 7.520808
_cell_length_c 25.155096
_cell_angle_alpha 90.000000
_cell_angle_beta 90.000000
_cell_angle_gamma 90.000000
_cell_volume 2887.436609
_symmetry_space_group_name_H-M "P M M A"
_symmetry_group_IT_number 51
_symmetry_cell_setting 'orthorhombic'
loop_
_space_group_symop_operation_xyz
x,y,z
1/2-x,-y,z
1/2+x,-y,-z
-x,y,-z
-x,-y,-z
1/2+x,y,-z
1/2-x,y,z
x,-y,z
loop_
_atom_site_type_symbol
_atom_site_label
_atom_site_fract_x
_atom_site_fract_y
_atom_site_fract_z
Si Si1 0.150805 0.289452 0.223142
Si Si2 0.847550 0.716867 0.095713
Si Si3 0.911730 0.292592 0.475407
Si Si4 0.848569 0.716137 0.972814
Si Si5 0.535023 0.281993 0.875097
Si Si6 0.843889 0.785691 0.585527
Si Si7 0.346906 0.287376 0.638041
Si Si8 0.468630 0.789166 0.324081
O O1 0.250000 0.217786 0.228801
O O2 0.159416 0.500000 0.214071
O O3 0.096284 0.218826 0.172841
O O4 0.090819 0.267749 0.274973
O O5 0.750000 0.775102 0.112665
O O6 0.846400 0.500000 0.096458
O O7 0.933628 0.774305 0.127496
O O8 0.860518 0.770546 0.033944
O O9 0.930053 0.500000 0.464430
O O10 0.847933 0.280800 0.525464
O O11 0.874834 0.216828 0.420536
O O12 0.000000 0.209471 0.500000
O O13 0.750000 0.767832 0.955880
O O14 0.850866 0.500000 0.973183
O O15 0.920895 0.773802 0.930745
O O16 0.534877 0.500000 0.874478
O O17 0.750000 0.736516 0.610160
O O18 0.923440 0.718298 0.621740
O O19 0.848119 0.000000 0.583270
O O20 0.250000 0.220397 0.652853
O O21 0.339766 0.500000 0.633617
O O22 0.428834 0.254908 0.676631
O O23 0.462454 0.000000 0.326524
#
# Coordination Sequence:
#
# PCOD9401838 Si02
#       8
#     8   8   8   8   8   8   8   8
#     4  10  21  36  54  76 101 131 171 220 273 325
#     4   8  13  20  32  55  89 128 165 200 245 306
#     4  10  19  33  55  82 112 142 170 204 247 303
#     4   8  12  18  31  54  86 124 163 201 247 307
#     4   9  15  24  39  60  90 128 167 208 256 314
#     4  10  21  35  52  76 105 137 173 212 256 306
#     4  10  21  38  59  83 112 143 176 214 256 305
#     4  11  23  39  58  77 103 137 177 222 266 313
#
# _framework density 22.164988999999998
#
# number of rings (size 3 to 8) (size 9 to 14) (size 15 to 20)
#    0.000    2.500    1.250    2.625    0.000    6.000 
#    0.000    0.625    0.000    2.250    0.000    0.000 
#    0.000    2.000    0.000    3.000    0.000    2.500 
#
# Total GULP energy -357176.509350 kJ/mol
# GULP energy per Si atom -5580.882959 kJ/mol
# Density = 2.211454 g / cm^3
# Si number density = 22.164989 Si / 1000 Ang^3
#
#
#
# Elastic Constant Matrix: (Units=GPa)
#
#
# Indices 1 2 3 4 5 6 
#
# 1 221.7619 6.9102 72.1919 0.0000 0.0000 0.0000
# 2 6.9102 57.9958 0.3172 0.0000 0.0000 0.0000
# 3 72.1919 0.3172 66.7612 0.0000 0.0000 0.0000
# 4 0.0000 0.0000 0.0000 20.5361 0.0000 0.0000
# 5 0.0000 0.0000 0.0000 0.0000 30.4064 0.0000
# 6 0.0000 0.0000 0.0000 0.0000 0.0000 49.6277
#
#
#
# Elastic Compliance Matrix: (Units=1/GPa)
#
#
# Indices 1 2 3 4 5 6 
#
# 1 0.006995 -0.000792 -0.007561 0.000000 0.000000 0.000000
# 2 -0.000792 0.017333 0.000774 0.000000 0.000000 0.000000
# 3 -0.007561 0.000774 0.023151 0.000000 0.000000 0.000000
# 4 0.000000 0.000000 0.000000 0.048695 0.000000 0.000000
# 5 0.000000 0.000000 0.000000 0.000000 0.032888 0.000000
# 6 0.000000 0.000000 0.000000 0.000000 0.000000 0.020150
#
#
# Mechanical properties :
#
#
# Convention : Reuss Voigt Hill
#
# Bulk Modulus (GPa) = 30.93888 56.15081 43.54485
# Shear Modulus (GPa) = 28.54826 37.92068 33.23447
#
# Velocity S-wave (km/s) = 3.59275 4.14071 3.87643
# Velocity P-wave (km/s) = 5.58563 6.94613 6.30270
#
# Compressibility (1/GPa) = 0.03232179
#
# Stress axis : x y z
#
# Youngs Moduli (GPa) = 142.95394 57.69413 43.19537
#
# Poissons Ratio (x) = 0.04570 0.32658
# Poissons Ratio (y) = 0.11324 -0.03344
# Poissons Ratio (z) = 1.08081 -0.04467
#
# Static dielectric constant tensor:
#      x y z
#    x 1.866800 0.000000 0.000000 
#    y 0.000000 1.840820 0.000000 
#    z 0.000000 0.000000 1.788670 
# 
# From -- ./inp_files/35757.got.cif
#   From: 2010.05.17/outbox.cif.g08.bks.cpg/sg51_18_cif.got.tgz:35757.got - 2010.06.03 11:52:47.
