data_PCOD9401808
_publ_section_title
;
Structure prediction by ZEFSAII (Michael W. Deem and Ramdas Pophale) SiO2 
 PCOD9401808
Probable space group: P M M A
;
_chemical_formula_sum "Si O2"
_cell_formula_units_Z 64
_cell_length_a 18.148077
_cell_length_b 8.793697
_cell_length_c 22.195057
_cell_angle_alpha 90.000000
_cell_angle_beta 90.000000
_cell_angle_gamma 90.000000
_cell_volume 3542.080077
_symmetry_space_group_name_H-M "P M M A"
_symmetry_group_IT_number 51
_symmetry_cell_setting 'orthorhombic'
loop_
_space_group_symop_operation_xyz
x,y,z
1/2-x,-y,z
1/2+x,-y,-z
-x,y,-z
-x,-y,-z
1/2+x,y,-z
1/2-x,y,z
x,-y,z
loop_
_atom_site_type_symbol
_atom_site_label
_atom_site_fract_x
_atom_site_fract_y
_atom_site_fract_z
Si Si1 0.664555 0.316019 0.218257
Si Si2 0.668782 0.182990 0.629982
Si Si3 0.665219 0.681963 0.996343
Si Si4 0.981405 0.816573 0.567168
Si Si5 0.450514 0.682074 0.683663
Si Si6 0.395334 0.318565 0.251669
Si Si7 0.597091 0.182045 0.877850
Si Si8 0.425085 0.817868 0.894076
O O1 0.750000 0.270784 0.217998
O O2 0.661076 0.500000 0.213791
O O3 0.621764 0.271577 0.279332
O O4 0.620843 0.247735 0.161905
O O5 0.750000 0.221638 0.606605
O O6 0.600831 0.230609 0.587789
O O7 0.656079 0.257623 0.695018
O O8 0.664528 0.000000 0.636660
O O9 0.750000 0.721441 0.011267
O O10 0.658340 0.500000 0.997862
O O11 0.644504 0.743066 0.930569
O O12 0.610483 0.754042 0.045023
O O13 0.000000 0.763207 0.500000
O O14 0.035779 0.757246 0.619125
O O15 0.984051 0.000000 0.567338
O O16 0.449698 0.500000 0.675921
O O17 0.521525 0.718887 0.725508
O O18 0.389423 0.500000 0.246047
O O19 0.380914 0.240710 0.188006
O O20 0.511066 0.224257 0.888061
O O21 0.603348 0.000000 0.880865
O O22 0.420459 0.000000 0.894090
#
# Coordination Sequence:
#
# PCOD9401808 Si02
#       8
#     8   8   8   8   8   8   8   8
#     4  10  20  35  56  81 110 144 181 222 271 325
#     4   9  18  33  53  77 108 145 182 222 271 323
#     4  11  25  42  58  78 106 142 183 227 275 326
#     4   9  18  33  54  79 107 143 185 225 265 316
#     4   9  18  33  53  78 107 139 177 218 262 315
#     4  10  19  33  55  80 106 138 176 220 269 318
#     4  11  23  38  58  83 109 141 180 223 272 328
#     4  11  23  38  58  83 110 140 180 226 272 325
#
# _framework density 18.068477999999999
#
# number of rings (size 3 to 8) (size 9 to 14) (size 15 to 20)
#    0.000    2.000    1.250    2.250    0.000    7.750 
#    0.000    0.625    0.000    0.750    0.000    0.000 
#    0.000    0.000    0.000    0.000    0.000    0.000 
#
# Total GULP energy -357383.413394 kJ/mol
# GULP energy per Si atom -5584.115834 kJ/mol
# Density = 1.802735 g / cm^3
# Si number density = 18.068478 Si / 1000 Ang^3
#
#
#
# Elastic Constant Matrix: (Units=GPa)
#
#
# Indices 1 2 3 4 5 6 
#
# 1 45.4961 11.7371 6.6529 0.0000 0.0000 0.0000
# 2 11.7371 11.0938 10.3422 0.0000 0.0000 0.0000
# 3 6.6529 10.3422 105.9106 0.0000 0.0000 0.0000
# 4 0.0000 0.0000 0.0000 34.2359 0.0000 0.0000
# 5 0.0000 0.0000 0.0000 0.0000 16.2195 0.0000
# 6 0.0000 0.0000 0.0000 0.0000 0.0000 20.9965
#
#
#
# Elastic Compliance Matrix: (Units=1/GPa)
#
#
# Indices 1 2 3 4 5 6 
#
# 1 0.030407 -0.033433 0.001355 0.000000 0.000000 0.000000
# 2 -0.033433 0.135928 -0.011173 0.000000 0.000000 0.000000
# 3 0.001355 -0.011173 0.010448 0.000000 0.000000 0.000000
# 4 0.000000 0.000000 0.000000 0.029209 0.000000 0.000000
# 5 0.000000 0.000000 0.000000 0.000000 0.061654 0.000000
# 6 0.000000 0.000000 0.000000 0.000000 0.000000 0.047627
#
#
# Mechanical properties :
#
#
# Convention : Reuss Voigt Hill
#
# Bulk Modulus (GPa) = 11.07669 24.44056 17.75863
# Shear Modulus (GPa) = 11.57757 23.20825 17.39291
#
# Velocity S-wave (km/s) = 2.53407 3.58783 3.10596
# Velocity P-wave (km/s) = 3.83480 5.54250 4.76577
#
# Compressibility (1/GPa) = 0.09027967
#
# Stress axis : x y z
#
# Youngs Moduli (GPa) = 32.88729 7.35683 95.71301
#
# Poissons Ratio (x) = 0.24596 -0.12966
# Poissons Ratio (y) = 1.09952 1.06943
# Poissons Ratio (z) = -0.04455 0.08220
#
# Static dielectric constant tensor:
#      x y z
#    x 1.625720 0.000000 0.000000 
#    y 0.000000 1.603710 0.000000 
#    z 0.000000 0.000000 1.588410 
# 
# From -- ./inp_files/33762.got.cif
#   From: 2010.05.17/outbox.cif.g08.bks.cpg/sg51_17_cif.got.tgz:33762.got - 2010.06.03 11:52:47.
