data_PCOD9401553
_publ_section_title
;
Structure prediction by ZEFSAII (Michael W. Deem and Ramdas Pophale) SiO2 
 PCOD9401553
Probable space group: P M M A
;
_chemical_formula_sum "Si O2"
_cell_formula_units_Z 52
_cell_length_a 8.861697
_cell_length_b 16.109625
_cell_length_c 22.125388
_cell_angle_alpha 90.000000
_cell_angle_beta 90.000000
_cell_angle_gamma 90.000000
_cell_volume 3158.589759
_symmetry_space_group_name_H-M "P M M A"
_symmetry_group_IT_number 51
_symmetry_cell_setting 'orthorhombic'
loop_
_space_group_symop_operation_xyz
x,y,z
1/2-x,-y,z
1/2+x,-y,-z
-x,y,-z
-x,-y,-z
1/2+x,y,-z
1/2-x,y,z
x,-y,z
loop_
_atom_site_type_symbol
_atom_site_label
_atom_site_fract_x
_atom_site_fract_y
_atom_site_fract_z
Si Si1 0.070115 0.500000 0.713130
Si Si2 0.579795 0.903750 0.216902
Si Si3 0.928040 0.347396 0.935096
Si Si4 0.072207 0.248125 0.171872
Si Si5 0.067662 0.677610 0.301086
Si Si6 0.933601 0.000000 0.433126
Si Si7 0.074482 0.500000 0.155953
Si Si8 0.926467 0.158384 0.353509
O O1 0.250000 0.500000 0.705659
O O2 0.000100 0.586100 0.687171
O O3 0.026116 0.500000 0.784477
O O4 0.750000 0.877889 0.199432
O O5 0.460273 0.847043 0.184044
O O6 0.566393 0.885971 0.288175
O O7 0.561538 0.000000 0.205226
O O8 0.750000 0.337348 0.946045
O O9 0.990773 0.273435 0.893314
O O10 0.948437 0.422835 0.888331
O O11 0.000000 0.359814 0.000000
O O12 0.250000 0.265745 0.169873
O O13 0.017306 0.296480 0.232292
O O14 0.250000 0.674244 0.302402
O O15 0.011741 0.753484 0.344102
O O16 0.980210 0.913781 0.399508
O O17 0.000000 0.000000 0.500000
O O18 0.750000 0.000000 0.432834
O O19 0.250000 0.500000 0.176730
O O20 0.750000 0.176334 0.366628
#
# Coordination Sequence:
#
# PCOD9401553 Si02
#       8
#     4   8   8   8   8   4   4   8
#     4  12  22  31  49  76 102 133 172 211 256 313
#     4   9  16  28  48  71  95 123 156 196 246 297
#     4  10  20  33  48  64  88 121 157 199 248 301
#     4   9  18  31  46  66  92 122 154 196 251 300
#     4  10  19  33  51  71 101 136 169 212 262 308
#     4  10  20  34  54  80 118 156 183 216 251 290
#     4  10  19  35  49  62  94 127 155 199 248 299
#     4   9  17  32  50  74 107 141 175 212 252 294
#
# _framework density 16.463042999999999
#
# number of rings (size 3 to 8) (size 9 to 14) (size 15 to 20)
#    0.000    2.308    2.308    1.385    0.000    2.769 
#    0.000    0.000    0.000    0.462    0.000    0.538 
#    0.000    0.000    0.000    0.000    0.000    0.000 
#
# Total GULP energy -289471.283847 kJ/mol
# GULP energy per Si atom -5566.755459 kJ/mol
# Density = 1.642557 g / cm^3
# Si number density = 16.463043 Si / 1000 Ang^3
#
#
#
# Elastic Constant Matrix: (Units=GPa)
#
#
# Indices 1 2 3 4 5 6 
#
# 1 42.5501 43.0708 28.1523 0.0000 0.0000 0.0000
# 2 43.0708 100.6919 38.5414 0.0000 0.0000 0.0000
# 3 28.1523 38.5414 51.7378 0.0000 0.0000 0.0000
# 4 0.0000 0.0000 0.0000 38.1458 0.0000 0.0000
# 5 0.0000 0.0000 0.0000 0.0000 18.7055 0.0000
# 6 0.0000 0.0000 0.0000 0.0000 0.0000 20.5595
#
#
#
# Elastic Compliance Matrix: (Units=1/GPa)
#
#
# Indices 1 2 3 4 5 6 
#
# 1 0.048908 -0.015015 -0.015427 0.000000 0.000000 0.000000
# 2 -0.015015 0.018502 -0.005613 0.000000 0.000000 0.000000
# 3 -0.015427 -0.005613 0.031904 0.000000 0.000000 0.000000
# 4 0.000000 0.000000 0.000000 0.026215 0.000000 0.000000
# 5 0.000000 0.000000 0.000000 0.000000 0.053460 0.000000
# 6 0.000000 0.000000 0.000000 0.000000 0.000000 0.048639
#
#
# Mechanical properties :
#
#
# Convention : Reuss Voigt Hill
#
# Bulk Modulus (GPa) = 36.75956 46.05654 41.40805
# Shear Modulus (GPa) = 16.19136 21.16318 18.67727
#
# Velocity S-wave (km/s) = 3.13948 3.58927 3.37188
# Velocity P-wave (km/s) = 5.95976 6.72411 6.35344
#
# Compressibility (1/GPa) = 0.02720381
#
# Stress axis : x y z
#
# Youngs Moduli (GPa) = 20.44669 54.04690 31.34431
#
# Poissons Ratio (x) = 0.81153 0.48355
# Poissons Ratio (y) = 0.30701 0.17593
# Poissons Ratio (z) = 0.31543 0.30335
#
# Static dielectric constant tensor:
#      x y z
#    x 1.572660 0.000000 0.000000 
#    y 0.000000 1.611830 0.000000 
#    z 0.000000 0.000000 1.536940 
# 
# From -- ./inp_files/31812.got.cif
#   From: 2010.05.17/outbox.cif.g08.bks.cpg/sg51_16_cif.got.tgz:31812.got - 2010.06.03 11:52:47.
