data_PCOD9401287
_publ_section_title
;
Structure prediction by ZEFSAII (Michael W. Deem and Ramdas Pophale) SiO2 
 PCOD9401287
Probable space group: P M M A
;
_chemical_formula_sum "Si O2"
_cell_formula_units_Z 56
_cell_length_a 18.469506
_cell_length_b 9.868760
_cell_length_c 18.518208
_cell_angle_alpha 90.000000
_cell_angle_beta 90.000000
_cell_angle_gamma 90.000000
_cell_volume 3375.334550
_symmetry_space_group_name_H-M "P M M A"
_symmetry_group_IT_number 51
_symmetry_cell_setting 'orthorhombic'
loop_
_space_group_symop_operation_xyz
x,y,z
1/2-x,-y,z
1/2+x,-y,-z
-x,y,-z
-x,-y,-z
1/2+x,y,-z
1/2-x,y,z
x,-y,z
loop_
_atom_site_type_symbol
_atom_site_label
_atom_site_fract_x
_atom_site_fract_y
_atom_site_fract_z
Si Si1 0.163332 0.651908 0.941453
Si Si2 0.425441 0.162079 0.041556
Si Si3 0.913529 0.157935 0.790237
Si Si4 0.023704 0.656934 0.416887
Si Si5 0.836786 0.344230 0.224294
Si Si6 0.443356 0.843133 0.694880
Si Si7 0.165775 0.660962 0.328028
O O1 0.250000 0.649343 0.941545
O O2 0.137368 0.500000 0.959866
O O3 0.141164 0.681603 0.858929
O O4 0.135344 0.760791 0.997093
O O5 0.420728 0.199209 0.126067
O O6 0.417329 0.000000 0.037345
O O7 0.500000 0.196892 0.000000
O O8 0.862834 0.251928 0.740216
O O9 0.993226 0.162927 0.755008
O O10 0.889275 0.000000 0.787103
O O11 0.009572 0.500000 0.395157
O O12 0.107667 0.683583 0.393277
O O13 0.000000 0.668536 0.500000
O O14 0.975846 0.761754 0.372197
O O15 0.750000 0.335677 0.228496
O O16 0.857374 0.500000 0.241759
O O17 0.874875 0.236810 0.274971
O O18 0.428553 0.000000 0.678937
O O19 0.250000 0.693429 0.344819
O O20 0.162549 0.500000 0.311226
#
# Coordination Sequence:
#
# PCOD9401287 Si02
#       7
#     8   8   8   8   8   8   8
#     4   9  19  34  49  67  93 125 162 204 249 295
#     4  10  20  33  48  68  96 128 165 208 251 298
#     4   9  19  33  48  69  97 130 165 202 248 298
#     4   9  18  34  55  77 103 135 167 198 240 296
#     4   9  18  33  51  70  95 128 164 202 245 294
#     4  10  19  32  52  75  99 127 161 202 244 289
#     4   9  18  33  53  76 100 128 166 209 247 288
#
# _framework density 16.590947
#
# number of rings (size 3 to 8) (size 9 to 14) (size 15 to 20)
#    0.000    2.714    0.000    2.143    0.000    4.857 
#    0.000    5.000    0.000    2.571    0.000    0.000 
#    0.000    0.000    0.000    0.000    0.000    0.000 
#
# Total GULP energy -311938.974544 kJ/mol
# GULP energy per Si atom -5570.338831 kJ/mol
# Density = 1.655319 g / cm^3
# Si number density = 16.590947 Si / 1000 Ang^3
#
#
#
# Elastic Constant Matrix: (Units=GPa)
#
#
# Indices 1 2 3 4 5 6 
#
# 1 58.3664 43.0517 53.3890 0.0000 0.0000 0.0000
# 2 43.0517 72.7141 64.9871 0.0000 0.0000 0.0000
# 3 53.3890 64.9871 95.4656 0.0000 0.0000 0.0000
# 4 0.0000 0.0000 0.0000 16.2450 0.0000 0.0000
# 5 0.0000 0.0000 0.0000 0.0000 16.5883 0.0000
# 6 0.0000 0.0000 0.0000 0.0000 0.0000 27.2524
#
#
#
# Elastic Compliance Matrix: (Units=1/GPa)
#
#
# Indices 1 2 3 4 5 6 
#
# 1 0.037135 -0.008748 -0.014813 0.000000 0.000000 0.000000
# 2 -0.008748 0.037179 -0.020417 0.000000 0.000000 0.000000
# 3 -0.014813 -0.020417 0.032658 0.000000 0.000000 0.000000
# 4 0.000000 0.000000 0.000000 0.061557 0.000000 0.000000
# 5 0.000000 0.000000 0.000000 0.000000 0.060284 0.000000
# 6 0.000000 0.000000 0.000000 0.000000 0.000000 0.036694
#
#
# Mechanical properties :
#
#
# Convention : Reuss Voigt Hill
#
# Bulk Modulus (GPa) = 52.58547 61.04465 56.81506
# Shear Modulus (GPa) = 13.89652 16.35835 15.12744
#
# Velocity S-wave (km/s) = 2.89727 3.14344 3.02286
# Velocity P-wave (km/s) = 6.55410 7.07452 6.81928
#
# Compressibility (1/GPa) = 0.01901666
#
# Stress axis : x y z
#
# Youngs Moduli (GPa) = 26.92854 26.89664 30.62050
#
# Poissons Ratio (x) = 0.23529 0.45358
# Poissons Ratio (y) = 0.23557 0.62519
# Poissons Ratio (z) = 0.39889 0.54915
#
# Static dielectric constant tensor:
#      x y z
#    x 1.529910 0.000000 0.000000 
#    y 0.000000 1.554260 0.000000 
#    z 0.000000 0.000000 1.553800 
# 
# From -- ./inp_files/30387.got.cif
#   From: 2010.05.17/outbox.cif.g08.bks.cpg/sg51_16_cif.got.tgz:30387.got - 2010.06.03 11:52:47.
