data_PCOD9401643
_publ_section_title
;
Structure prediction by ZEFSAII (Michael W. Deem and Ramdas Pophale) SiO2 
 PCOD9401643
Probable space group: P M M A
;
_chemical_formula_sum "Si O2"
_cell_formula_units_Z 48
_cell_length_a 9.297224
_cell_length_b 7.819039
_cell_length_c 35.391823
_cell_angle_alpha 90.000000
_cell_angle_beta 90.000000
_cell_angle_gamma 90.000000
_cell_volume 2572.821210
_symmetry_space_group_name_H-M "P M M A"
_symmetry_group_IT_number 51
_symmetry_cell_setting 'orthorhombic'
loop_
_space_group_symop_operation_xyz
x,y,z
1/2-x,-y,z
1/2+x,-y,-z
-x,y,-z
-x,-y,-z
1/2+x,y,-z
1/2-x,y,z
x,-y,z
loop_
_atom_site_type_symbol
_atom_site_label
_atom_site_fract_x
_atom_site_fract_y
_atom_site_fract_z
Si Si1 0.914697 0.791529 0.825313
Si Si2 0.915047 0.296476 0.676252
Si Si3 0.575312 0.500000 0.540344
Si Si4 0.422162 0.799870 0.902138
Si Si5 0.577429 0.500000 0.040041
Si Si6 0.914017 0.793354 0.248528
Si Si7 0.424737 0.811673 0.406198
O O1 0.750000 0.732969 0.825677
O O2 0.997392 0.747501 0.863739
O O3 0.997498 0.731605 0.787927
O O4 0.913398 0.000000 0.824018
O O5 0.750000 0.236703 0.682506
O O6 0.910858 0.500000 0.670705
O O7 0.971528 0.218861 0.637019
O O8 0.008621 0.255301 0.712681
O O9 0.750000 0.500000 0.536402
O O10 0.500000 0.500000 0.500000
O O11 0.531496 0.664510 0.565101
O O12 0.250000 0.789541 0.895963
O O13 0.459738 0.668711 0.935451
O O14 0.456180 0.000000 0.910457
O O15 0.750000 0.500000 0.034777
O O16 0.500000 0.500000 0.000000
O O17 0.750000 0.731764 0.247513
O O18 0.911260 0.000000 0.246663
O O19 0.250000 0.804402 0.404615
O O20 0.468451 0.000000 0.418882
#
# Coordination Sequence:
#
# PCOD9401643 Si02
#       7
#     8   8   4   8   4   8   8
#     4   9  17  31  53  79 105 137 181 228 268 311
#     4  10  19  33  53  77 104 136 181 231 271 314
#     4  10  20  36  56  81 110 139 174 215 264 323
#     4   9  18  35  57  79 107 143 179 218 269 325
#     4  10  22  38  56  81 110 139 174 217 266 323
#     4  10  20  33  50  75 108 145 182 220 266 321
#     4   9  17  32  56  81 106 139 177 219 267 318
#
# _framework density 18.656562999999998
#
# number of rings (size 3 to 8) (size 9 to 14) (size 15 to 20)
#    0.000    2.500    0.833    1.500    0.000    5.333 
#    1.500    0.833    0.000    1.000    0.000    0.000 
#    0.000    0.000    0.000    0.000    0.000    0.000 
#
# Total GULP energy -267875.541585 kJ/mol
# GULP energy per Si atom -5580.740450 kJ/mol
# Density = 1.861410 g / cm^3
# Si number density = 18.656563 Si / 1000 Ang^3
#
#
#
# Elastic Constant Matrix: (Units=GPa)
#
#
# Indices 1 2 3 4 5 6 
#
# 1 65.5755 36.0647 70.8679 0.0000 0.0000 0.0000
# 2 36.0647 96.7238 77.7820 0.0000 0.0000 0.0000
# 3 70.8679 77.7820 192.2239 0.0000 0.0000 0.0000
# 4 0.0000 0.0000 0.0000 32.5579 0.0000 0.0000
# 5 0.0000 0.0000 0.0000 0.0000 37.5555 0.0000
# 6 0.0000 0.0000 0.0000 0.0000 0.0000 10.6791
#
#
#
# Elastic Compliance Matrix: (Units=1/GPa)
#
#
# Indices 1 2 3 4 5 6 
#
# 1 0.025899 -0.002933 -0.008362 0.000000 0.000000 0.000000
# 2 -0.002933 0.015658 -0.005255 0.000000 0.000000 0.000000
# 3 -0.008362 -0.005255 0.010411 0.000000 0.000000 0.000000
# 4 0.000000 0.000000 0.000000 0.030714 0.000000 0.000000
# 5 0.000000 0.000000 0.000000 0.000000 0.026627 0.000000
# 6 0.000000 0.000000 0.000000 0.000000 0.000000 0.093641
#
#
# Mechanical properties :
#
#
# Convention : Reuss Voigt Hill
#
# Bulk Modulus (GPa) = 52.99363 80.43917 66.71640
# Shear Modulus (GPa) = 20.63235 27.47909 24.05572
#
# Velocity S-wave (km/s) = 3.32912 3.84199 3.59471
# Velocity P-wave (km/s) = 6.57601 7.93036 7.28472
#
# Compressibility (1/GPa) = 0.01887019
#
# Stress axis : x y z
#
# Youngs Moduli (GPa) = 38.61176 63.86596 96.05043
#
# Poissons Ratio (x) = 0.18730 0.80313
# Poissons Ratio (y) = 0.11323 0.50471
# Poissons Ratio (z) = 0.32285 0.33559
#
# Static dielectric constant tensor:
#      x y z
#    x 1.630950 0.000000 0.000000 
#    y 0.000000 1.667380 0.000000 
#    z 0.000000 0.000000 1.600930 
# 
# From -- ./inp_files/37177.got.cif
#   From: 2010.05.17/outbox.cif.g08.bks.cpg/sg51_19_cif.got.tgz:37177.got - 2010.06.03 11:52:47.
