data_PCOD9401462
_publ_section_title
;
Structure prediction by ZEFSAII (Michael W. Deem and Ramdas Pophale) SiO2 
 PCOD9401462
Probable space group: P M M A
;
_chemical_formula_sum "Si O2"
_cell_formula_units_Z 40
_cell_length_a 21.011450
_cell_length_b 8.694558
_cell_length_c 11.347501
_cell_angle_alpha 90.000000
_cell_angle_beta 90.000000
_cell_angle_gamma 90.000000
_cell_volume 2073.021292
_symmetry_space_group_name_H-M "P M M A"
_symmetry_group_IT_number 51
_symmetry_cell_setting 'orthorhombic'
loop_
_space_group_symop_operation_xyz
x,y,z
1/2-x,-y,z
1/2+x,-y,-z
-x,y,-z
-x,-y,-z
1/2+x,y,-z
1/2-x,y,z
x,-y,z
loop_
_atom_site_type_symbol
_atom_site_label
_atom_site_fract_x
_atom_site_fract_y
_atom_site_fract_z
Si Si1 0.250000 0.182911 0.902883
Si Si2 0.860995 0.677387 0.255159
Si Si3 0.320659 0.832630 0.528004
Si Si4 0.004441 0.685258 0.640174
Si Si5 0.121705 0.823384 0.277830
Si Si6 0.250000 0.683128 0.163917
O O1 0.313865 0.233651 0.832471
O O2 0.250000 0.000000 0.917659
O O3 0.250000 0.267147 0.027892
O O4 0.865285 0.500000 0.217671
O O5 0.827685 0.695470 0.382056
O O6 0.931296 0.737426 0.291508
O O7 0.250000 0.831666 0.477950
O O8 0.365676 0.824960 0.417846
O O9 0.329042 0.000000 0.589247
O O10 0.006877 0.500000 0.635029
O O11 0.000000 0.735512 0.500000
O O12 0.945271 0.735678 0.721901
O O13 0.184189 0.748697 0.219449
O O14 0.115953 0.000000 0.236667
O O15 0.250000 0.500000 0.177934
#
# Coordination Sequence:
#
# PCOD9401462 Si02
#       6
#     4   8   8   8   8   4
#     4  12  26  45  66  87 118 155 207 263 309 360
#     4  11  22  37  60  89 125 162 204 249 299 361
#     4  10  19  32  53  86 125 159 195 243 302 362
#     4  10  21  37  57  91 133 169 202 243 301 366
#     4  11  22  38  61  91 127 163 203 250 304 363
#     4  12  26  45  68  89 116 157 209 259 309 362
#
# _framework density 19.295508000000002
#
# number of rings (size 3 to 8) (size 9 to 14) (size 15 to 20)
#    0.000    1.200    4.000    3.000    0.000    2.800 
#    0.000    1.000    0.000    6.000    0.000    0.000 
#    0.000    0.000    0.000    0.000    0.000    0.000 
#
# Total GULP energy -222809.236634 kJ/mol
# GULP energy per Si atom -5570.230916 kJ/mol
# Density = 1.925159 g / cm^3
# Si number density = 19.295508 Si / 1000 Ang^3
#
#
#
# Elastic Constant Matrix: (Units=GPa)
#
#
# Indices 1 2 3 4 5 6 
#
# 1 163.6380 32.8306 36.8641 0.0000 0.0000 0.0000
# 2 32.8306 50.8594 15.7047 0.0000 0.0000 0.0000
# 3 36.8641 15.7047 64.6414 0.0000 0.0000 0.0000
# 4 0.0000 0.0000 0.0000 21.5148 0.0000 0.0000
# 5 0.0000 0.0000 0.0000 0.0000 10.4901 0.0000
# 6 0.0000 0.0000 0.0000 0.0000 0.0000 20.6479
#
#
#
# Elastic Compliance Matrix: (Units=1/GPa)
#
#
# Indices 1 2 3 4 5 6 
#
# 1 0.007663 -0.003889 -0.003425 0.000000 0.000000 0.000000
# 2 -0.003889 0.023230 -0.003426 0.000000 0.000000 0.000000
# 3 -0.003425 -0.003426 0.018256 0.000000 0.000000 0.000000
# 4 0.000000 0.000000 0.000000 0.046480 0.000000 0.000000
# 5 0.000000 0.000000 0.000000 0.000000 0.095328 0.000000
# 6 0.000000 0.000000 0.000000 0.000000 0.000000 0.048431
#
#
# Mechanical properties :
#
#
# Convention : Reuss Voigt Hill
#
# Bulk Modulus (GPa) = 36.14209 49.99308 43.06758
# Shear Modulus (GPa) = 18.51232 23.44653 20.97943
#
# Velocity S-wave (km/s) = 3.10080 3.48965 3.30095
# Velocity P-wave (km/s) = 5.62062 6.49633 6.07428
#
# Compressibility (1/GPa) = 0.02766857
#
# Stress axis : x y z
#
# Youngs Moduli (GPa) = 130.49880 43.04722 54.77746
#
# Poissons Ratio (x) = 0.16741 0.18763
# Poissons Ratio (y) = 0.50749 0.18767
# Poissons Ratio (z) = 0.44699 0.14748
#
# Static dielectric constant tensor:
#      x y z
#    x 1.831380 0.000000 0.000000 
#    y 0.000000 1.724400 0.000000 
#    z 0.000000 0.000000 1.652530 
# 
# From -- ./inp_files/18004.got.cif
#   From: 2010.05.17/outbox.cif.g08.bks.cpg/sg51_10_cif.got.tgz:18004.got - 2010.06.03 11:52:47.
