data_PCOD9401867
_publ_section_title
;
Structure prediction by ZEFSAII (Michael W. Deem and Ramdas Pophale) SiO2 
 PCOD9401867
Probable space group: P M M A
;
_chemical_formula_sum "Si O2"
_cell_formula_units_Z 64
_cell_length_a 17.737200
_cell_length_b 21.207007
_cell_length_c 9.419418
_cell_angle_alpha 90.000000
_cell_angle_beta 90.000000
_cell_angle_gamma 90.000000
_cell_volume 3543.141628
_symmetry_space_group_name_H-M "P M M A"
_symmetry_group_IT_number 51
_symmetry_cell_setting 'orthorhombic'
loop_
_space_group_symop_operation_xyz
x,y,z
1/2-x,-y,z
1/2+x,-y,-z
-x,y,-z
-x,-y,-z
1/2+x,y,-z
1/2-x,y,z
x,-y,z
loop_
_atom_site_type_symbol
_atom_site_label
_atom_site_fract_x
_atom_site_fract_y
_atom_site_fract_z
Si Si1 0.161429 0.877422 0.398902
Si Si2 0.162043 0.576130 0.851140
Si Si3 0.164450 0.239038 0.191737
Si Si4 0.167683 0.873756 0.993861
Si Si5 0.977747 0.575791 0.341194
Si Si6 0.047034 0.070320 0.193917
Si Si7 0.115842 0.922646 0.703215
Si Si8 0.070554 0.643483 0.099395
O O1 0.250000 0.888661 0.382251
O O2 0.145264 0.811011 0.317354
O O3 0.109840 0.926643 0.315688
O O4 0.140448 0.887118 0.561462
O O5 0.250000 0.593003 0.828610
O O6 0.157924 0.500000 0.866702
O O7 0.105180 0.593648 0.721393
O O8 0.128630 0.608106 0.993591
O O9 0.250000 0.260934 0.217395
O O10 0.108823 0.296519 0.172042
O O11 0.165078 0.198584 0.044899
O O12 0.250000 0.896732 0.051032
O O13 0.164113 0.895575 0.832987
O O14 0.091287 0.899981 0.063166
O O15 0.979577 0.500000 0.344504
O O16 0.000000 0.598266 0.500000
O O17 0.036852 0.599561 0.223193
O O18 0.970111 0.096394 0.258292
O O19 0.028138 0.000000 0.153222
O O20 0.122053 0.000000 0.690418
O O21 0.000000 0.662467 0.000000
#
# Coordination Sequence:
#
# PCOD9401867 Si02
#       8
#     8   8   8   8   8   8   8   8
#     4  10  21  36  53  73  99 134 172 209 256 313
#     4   9  17  31  54  84 116 149 186 230 275 315
#     4   9  20  38  54  71 102 141 178 219 265 315
#     4  10  21  36  54  75  99 131 170 211 259 313
#     4   9  18  34  55  82 118 152 182 222 272 325
#     4  10  20  34  51  73 101 130 159 198 255 317
#     4  11  22  35  54  81 107 129 163 216 270 320
#     4  10  19  33  56  82 106 141 189 231 270 318
#
# _framework density 18.063065999999999
#
# number of rings (size 3 to 8) (size 9 to 14) (size 15 to 20)
#    0.000    2.250    0.000    3.750    0.000    8.500 
#    0.000    6.250    0.000    4.500    0.000    0.000 
#    0.000    0.000    0.000    0.000    0.000    0.000 
#
# Total GULP energy -356318.325026 kJ/mol
# GULP energy per Si atom -5567.473829 kJ/mol
# Density = 1.802195 g / cm^3
# Si number density = 18.063066 Si / 1000 Ang^3
#
#
#
# Elastic Constant Matrix: (Units=GPa)
#
#
# Indices 1 2 3 4 5 6 
#
# 1 133.4365 41.2905 64.0330 0.0000 0.0000 0.0000
# 2 41.2905 28.8903 27.2506 0.0000 0.0000 0.0000
# 3 64.0330 27.2506 139.0710 0.0000 0.0000 0.0000
# 4 0.0000 0.0000 0.0000 9.3191 0.0000 0.0000
# 5 0.0000 0.0000 0.0000 0.0000 18.6073 0.0000
# 6 0.0000 0.0000 0.0000 0.0000 0.0000 18.3662
#
#
#
# Elastic Compliance Matrix: (Units=1/GPa)
#
#
# Indices 1 2 3 4 5 6 
#
# 1 0.014520 -0.017721 -0.003213 0.000000 0.000000 0.000000
# 2 -0.017721 0.064091 -0.004399 0.000000 0.000000 0.000000
# 3 -0.003213 -0.004399 0.009532 0.000000 0.000000 0.000000
# 4 0.000000 0.000000 0.000000 0.107307 0.000000 0.000000
# 5 0.000000 0.000000 0.000000 0.000000 0.053742 0.000000
# 6 0.000000 0.000000 0.000000 0.000000 0.000000 0.054448
#
#
# Mechanical properties :
#
#
# Convention : Reuss Voigt Hill
#
# Bulk Modulus (GPa) = 26.68381 62.94957 44.81669
# Shear Modulus (GPa) = 13.63152 20.51343 17.07247
#
# Velocity S-wave (km/s) = 2.75009 3.37361 3.07768
# Velocity P-wave (km/s) = 4.98885 7.07817 6.12328
#
# Compressibility (1/GPa) = 0.03747591
#
# Stress axis : x y z
#
# Youngs Moduli (GPa) = 68.87230 15.60293 104.91129
#
# Poissons Ratio (x) = 0.27650 0.33707
# Poissons Ratio (y) = 1.22050 0.46150
# Poissons Ratio (z) = 0.22128 0.06864
#
# Static dielectric constant tensor:
#      x y z
#    x 1.647450 0.000000 0.000000 
#    y 0.000000 1.618570 0.000000 
#    z 0.000000 0.000000 1.661220 
# 
# From -- ./inp_files/8725.got.cif
#   From: 2010.05.17/outbox.cif.g08.bks.cpg/sg51_5_cif.got.tgz:8725.got - 2010.06.03 11:52:47.
