data_PCOD9401037
_publ_section_title
;
Structure prediction by ZEFSAII (Michael W. Deem and Ramdas Pophale) SiO2 
 PCOD9401037
Probable space group: P M M A
;
_chemical_formula_sum "Si O2"
_cell_formula_units_Z 48
_cell_length_a 26.069727
_cell_length_b 7.823350
_cell_length_c 12.241734
_cell_angle_alpha 90.000000
_cell_angle_beta 90.000000
_cell_angle_gamma 90.000000
_cell_volume 2496.733462
_symmetry_space_group_name_H-M "P M M A"
_symmetry_group_IT_number 51
_symmetry_cell_setting 'orthorhombic'
loop_
_space_group_symop_operation_xyz
x,y,z
1/2-x,-y,z
1/2+x,-y,-z
-x,y,-z
-x,-y,-z
1/2+x,y,-z
1/2-x,y,z
x,-y,z
loop_
_atom_site_type_symbol
_atom_site_label
_atom_site_fract_x
_atom_site_fract_y
_atom_site_fract_z
Si Si1 0.405942 0.702335 0.740671
Si Si2 0.003214 0.201129 0.121586
Si Si3 0.903230 0.793790 0.730851
Si Si4 0.058845 0.705412 0.505590
Si Si5 0.691562 0.208704 0.873800
Si Si6 0.308356 0.793629 0.877036
O O1 0.415469 0.500000 0.741031
O O2 0.449168 0.782542 0.817996
O O3 0.414418 0.766347 0.617074
O O4 0.350289 0.734436 0.791031
O O5 0.048245 0.272050 0.198610
O O6 0.015285 0.000000 0.108689
O O7 0.000000 0.276332 0.000000
O O8 0.911570 0.749113 0.604980
O O9 0.850944 0.732715 0.787944
O O10 0.903016 0.000000 0.736576
O O11 0.056312 0.500000 0.510991
O O12 0.000000 0.770045 0.500000
O O13 0.750000 0.262859 0.850292
O O14 0.691541 0.000000 0.873078
O O15 0.678547 0.260328 0.998482
O O16 0.250000 0.737309 0.853894
O O17 0.308554 0.000000 0.876802
#
# Coordination Sequence:
#
# PCOD9401037 Si02
#       6
#     8   8   8   8   8   8
#     4  11  22  35  53  76 104 141 179 218 262 310
#     4  10  20  33  51  77 108 136 167 215 270 321
#     4  10  19  31  53  81 103 131 175 220 257 301
#     4  10  21  38  53  68 101 146 181 213 261 313
#     4   8  15  31  55  81 108 136 166 206 262 318
#     4   9  18  35  59  82 107 140 173 211 262 316
#
# _framework density 19.225121000000001
#
# number of rings (size 3 to 8) (size 9 to 14) (size 15 to 20)
#    0.000    2.333    1.667    2.500    0.000    5.000 
#    0.000    3.333    0.000    4.500    0.000    0.000 
#    0.000    0.000    0.000    0.000    0.000    0.000 
#
# Total GULP energy -267885.304918 kJ/mol
# GULP energy per Si atom -5580.943852 kJ/mol
# Density = 1.918136 g / cm^3
# Si number density = 19.225121 Si / 1000 Ang^3
#
#
#
# Elastic Constant Matrix: (Units=GPa)
#
#
# Indices 1 2 3 4 5 6 
#
# 1 121.1476 -5.3846 101.0664 0.0000 0.0000 0.0000
# 2 -5.3846 18.3199 2.0744 0.0000 0.0000 0.0000
# 3 101.0664 2.0744 194.5255 0.0000 0.0000 0.0000
# 4 0.0000 0.0000 0.0000 33.4043 0.0000 0.0000
# 5 0.0000 0.0000 0.0000 0.0000 18.8771 0.0000
# 6 0.0000 0.0000 0.0000 0.0000 0.0000 60.0267
#
#
#
# Elastic Compliance Matrix: (Units=1/GPa)
#
#
# Indices 1 2 3 4 5 6 
#
# 1 0.015070 0.005323 -0.007887 0.000000 0.000000 0.000000
# 2 0.005323 0.056531 -0.003368 0.000000 0.000000 0.000000
# 3 -0.007887 -0.003368 0.009274 0.000000 0.000000 0.000000
# 4 0.000000 0.000000 0.000000 0.029936 0.000000 0.000000
# 5 0.000000 0.000000 0.000000 0.000000 0.052974 0.000000
# 6 0.000000 0.000000 0.000000 0.000000 0.000000 0.016659
#
#
# Mechanical properties :
#
#
# Convention : Reuss Voigt Hill
#
# Bulk Modulus (GPa) = 14.49041 58.83393 36.66217
# Shear Modulus (GPa) = 23.22193 38.21072 30.71632
#
# Velocity S-wave (km/s) = 3.47925 4.46302 4.00148
# Velocity P-wave (km/s) = 4.86763 7.56486 6.36086
#
# Compressibility (1/GPa) = 0.06901115
#
# Stress axis : x y z
#
# Youngs Moduli (GPa) = 66.35585 17.68934 107.82694
#
# Poissons Ratio (x) = -0.09415 0.85038
# Poissons Ratio (y) = -0.35318 0.36318
# Poissons Ratio (z) = 0.52332 0.05958
#
# Static dielectric constant tensor:
#      x y z
#    x 1.653790 0.000000 0.000000 
#    y 0.000000 1.712820 0.000000 
#    z 0.000000 0.000000 1.658380 
# 
# From -- ./inp_files/18581.got.cif
#   From: 2010.05.17/outbox.cif.g08.bks.cpg/sg51_10_cif.got.tgz:18581.got - 2010.06.03 11:52:47.
