data_PCOD9401543
_publ_section_title
;
Structure prediction by ZEFSAII (Michael W. Deem and Ramdas Pophale) SiO2 
 PCOD9401543
Probable space group: P M M A
;
_chemical_formula_sum "Si O2"
_cell_formula_units_Z 40
_cell_length_a 8.826315
_cell_length_b 13.001958
_cell_length_c 21.262787
_cell_angle_alpha 90.000000
_cell_angle_beta 90.000000
_cell_angle_gamma 90.000000
_cell_volume 2440.104188
_symmetry_space_group_name_H-M "P M M A"
_symmetry_group_IT_number 51
_symmetry_cell_setting 'orthorhombic'
loop_
_space_group_symop_operation_xyz
x,y,z
1/2-x,-y,z
1/2+x,-y,-z
-x,y,-z
-x,-y,-z
1/2+x,y,-z
1/2-x,y,z
x,-y,z
loop_
_atom_site_type_symbol
_atom_site_label
_atom_site_fract_x
_atom_site_fract_y
_atom_site_fract_z
Si Si1 0.931095 0.674213 0.656853
Si Si2 0.931785 0.614376 0.801104
Si Si3 0.931869 0.822781 0.164251
Si Si4 0.566401 0.000000 0.069376
Si Si5 0.569071 0.500000 0.430547
Si Si6 0.932598 0.883889 0.307036
O O1 0.750000 0.669453 0.649096
O O2 0.967950 0.633329 0.727324
O O3 0.010221 0.599797 0.607262
O O4 0.989029 0.791510 0.655520
O O5 0.750000 0.618423 0.806481
O O6 0.983462 0.500000 0.819091
O O7 0.002134 0.708558 0.839053
O O8 0.750000 0.817670 0.162707
O O9 0.981479 0.900161 0.109720
O O10 0.972805 0.867815 0.233191
O O11 0.750000 0.000000 0.066686
O O12 0.500000 0.000000 0.000000
O O13 0.750000 0.500000 0.433012
O O14 0.500000 0.500000 0.500000
O O15 0.750000 0.874038 0.311897
O O16 0.974510 0.000000 0.325776
#
# Coordination Sequence:
#
# PCOD9401543 Si02
#       6
#     8   8   8   4   4   8
#     4  10  19  33  50  74 107 136 168 208 253 302
#     4   9  17  30  48  72 104 132 157 201 254 299
#     4   9  17  30  47  70  99 130 167 207 250 297
#     4  10  20  34  50  70 100 134 169 212 251 296
#     4  12  24  38  56  76 102 138 177 212 251 298
#     4   9  16  29  50  75 104 135 167 208 255 304
#
# _framework density 16.392741999999998
#
# number of rings (size 3 to 8) (size 9 to 14) (size 15 to 20)
#    0.000    2.400    2.000    1.500    0.000    2.400 
#    0.000    0.000    0.000    1.200    0.000    0.000 
#    0.000    0.000    0.000    0.000    0.000    0.000 
#
# Total GULP energy -223045.752306 kJ/mol
# GULP energy per Si atom -5576.143808 kJ/mol
# Density = 1.635543 g / cm^3
# Si number density = 16.392742 Si / 1000 Ang^3
#
#
#
# Elastic Constant Matrix: (Units=GPa)
#
#
# Indices 1 2 3 4 5 6 
#
# 1 41.2235 52.9162 39.1385 0.0000 0.0000 0.0000
# 2 52.9162 189.1500 71.8372 0.0000 0.0000 0.0000
# 3 39.1385 71.8372 89.2526 0.0000 0.0000 0.0000
# 4 0.0000 0.0000 0.0000 18.1361 0.0000 0.0000
# 5 0.0000 0.0000 0.0000 0.0000 22.7102 0.0000
# 6 0.0000 0.0000 0.0000 0.0000 0.0000 28.3743
#
#
#
# Elastic Compliance Matrix: (Units=1/GPa)
#
#
# Indices 1 2 3 4 5 6 
#
# 1 0.048617 -0.007927 -0.014939 0.000000 0.000000 0.000000
# 2 -0.007927 0.008907 -0.003693 0.000000 0.000000 0.000000
# 3 -0.014939 -0.003693 0.020727 0.000000 0.000000 0.000000
# 4 0.000000 0.000000 0.000000 0.055139 0.000000 0.000000
# 5 0.000000 0.000000 0.000000 0.000000 0.044033 0.000000
# 6 0.000000 0.000000 0.000000 0.000000 0.000000 0.035243
#
#
# Mechanical properties :
#
#
# Convention : Reuss Voigt Hill
#
# Bulk Modulus (GPa) = 39.78743 71.93445 55.86094
# Shear Modulus (GPa) = 18.23740 24.22639 21.23190
#
# Velocity S-wave (km/s) = 3.33908 3.84848 3.60279
# Velocity P-wave (km/s) = 6.26019 7.98279 7.17338
#
# Compressibility (1/GPa) = 0.02513356
#
# Stress axis : x y z
#
# Youngs Moduli (GPa) = 20.56889 112.27051 48.24588
#
# Poissons Ratio (x) = 0.89002 0.72073
# Poissons Ratio (y) = 0.16306 0.17816
# Poissons Ratio (z) = 0.30727 0.41459
#
# Static dielectric constant tensor:
#      x y z
#    x 1.549140 0.000000 0.000000 
#    y 0.000000 1.562770 0.000000 
#    z 0.000000 0.000000 1.521100 
# 
# From -- ./inp_files/31398.got.cif
#   From: 2010.05.17/outbox.cif.g08.bks.cpg/sg51_16_cif.got.tgz:31398.got - 2010.06.03 11:52:47.
