data_PCOD9401692
_publ_section_title
;
Structure prediction by ZEFSAII (Michael W. Deem and Ramdas Pophale) SiO2 
 PCOD9401692
Probable space group: P M M A
;
_chemical_formula_sum "Si O2"
_cell_formula_units_Z 48
_cell_length_a 8.176402
_cell_length_b 15.246712
_cell_length_c 19.407319
_cell_angle_alpha 90.000000
_cell_angle_beta 90.000000
_cell_angle_gamma 90.000000
_cell_volume 2419.379392
_symmetry_space_group_name_H-M "P M M A"
_symmetry_group_IT_number 51
_symmetry_cell_setting 'orthorhombic'
loop_
_space_group_symop_operation_xyz
x,y,z
1/2-x,-y,z
1/2+x,-y,-z
-x,y,-z
-x,-y,-z
1/2+x,y,-z
1/2-x,y,z
x,-y,z
loop_
_atom_site_type_symbol
_atom_site_label
_atom_site_fract_x
_atom_site_fract_y
_atom_site_fract_z
Si Si1 0.552268 0.336289 0.573638
Si Si2 0.059706 0.864441 0.573897
Si Si3 0.064073 0.760716 0.810891
Si Si4 0.448106 0.099801 0.921256
Si Si5 0.553768 0.403018 0.724839
Si Si6 0.438020 0.903461 0.282099
O O1 0.500000 0.377661 0.500000
O O2 0.750000 0.327252 0.573463
O O3 0.470809 0.240304 0.574939
O O4 0.502716 0.381315 0.645792
O O5 0.250000 0.883825 0.583916
O O6 0.000000 0.896002 0.500000
O O7 0.955958 0.901962 0.636230
O O8 0.250000 0.740914 0.829821
O O9 0.990569 0.820789 0.872588
O O10 0.990186 0.671913 0.779946
O O11 0.053131 0.829412 0.748079
O O12 0.250000 0.099377 0.916296
O O13 0.503910 0.000000 0.903034
O O14 0.500000 0.114572 0.000000
O O15 0.750000 0.405229 0.722450
O O16 0.492436 0.500000 0.743725
O O17 0.250000 0.883909 0.263520
O O18 0.482551 0.000000 0.256622
#
# Coordination Sequence:
#
# PCOD9401692 Si02
#       6
#     8   8   8   8   8   8
#     4  10  19  33  54  77 106 141 185 238 294 350
#     4  11  21  34  53  74 102 140 183 232 285 338
#     4  11  22  37  59  86 117 150 185 232 283 332
#     4   9  19  36  59  90 125 156 187 223 268 326
#     4  10  22  39  58  81 112 151 194 240 290 346
#     4  11  23  37  54  78 108 145 188 230 276 336
#
# _framework density 19.839797999999998
#
# number of rings (size 3 to 8) (size 9 to 14) (size 15 to 20)
#    0.000    1.667    1.667    4.500    0.000    5.000 
#    0.000    1.667    0.000    0.500    0.000    0.000 
#    0.000    0.000    0.000    0.000    0.000    0.000 
#
# Total GULP energy -267859.309074 kJ/mol
# GULP energy per Si atom -5580.402272 kJ/mol
# Density = 1.979464 g / cm^3
# Si number density = 19.839798 Si / 1000 Ang^3
#
#
#
# Elastic Constant Matrix: (Units=GPa)
#
#
# Indices 1 2 3 4 5 6 
#
# 1 32.8995 21.2243 -1.3720 0.0000 0.0000 0.0000
# 2 21.2243 134.6662 67.7755 0.0000 0.0000 0.0000
# 3 -1.3720 67.7755 130.8329 0.0000 0.0000 0.0000
# 4 0.0000 0.0000 0.0000 23.5301 0.0000 0.0000
# 5 0.0000 0.0000 0.0000 0.0000 26.8134 0.0000
# 6 0.0000 0.0000 0.0000 0.0000 0.0000 5.8987
#
#
#
# Elastic Compliance Matrix: (Units=1/GPa)
#
#
# Indices 1 2 3 4 5 6 
#
# 1 0.035648 -0.007854 0.004443 0.000000 0.000000 0.000000
# 2 -0.007854 0.011775 -0.006182 0.000000 0.000000 0.000000
# 3 0.004443 -0.006182 0.010892 0.000000 0.000000 0.000000
# 4 0.000000 0.000000 0.000000 0.042499 0.000000 0.000000
# 5 0.000000 0.000000 0.000000 0.000000 0.037295 0.000000
# 6 0.000000 0.000000 0.000000 0.000000 0.000000 0.169529
#
#
# Mechanical properties :
#
#
# Convention : Reuss Voigt Hill
#
# Bulk Modulus (GPa) = 25.55737 52.62826 39.09282
# Shear Modulus (GPa) = 14.71160 25.29984 20.00572
#
# Velocity S-wave (km/s) = 2.72604 3.57488 3.17892
# Velocity P-wave (km/s) = 4.77684 6.60484 5.76377
#
# Compressibility (1/GPa) = 0.03912765
#
# Stress axis : x y z
#
# Youngs Moduli (GPa) = 28.05219 84.92535 91.80634
#
# Poissons Ratio (x) = 0.66702 -0.40785
# Poissons Ratio (y) = 0.22033 0.56757
# Poissons Ratio (z) = -0.12462 0.52503
#
# Static dielectric constant tensor:
#      x y z
#    x 1.768860 0.000000 0.000000 
#    y 0.000000 1.722540 0.000000 
#    z 0.000000 0.000000 1.722930 
# 
# From -- ./inp_files/27582.got.cif
#   From: 2010.05.17/outbox.cif.g08.bks.cpg/sg51_14_cif.got.tgz:27582.got - 2010.06.03 11:52:47.
