data_PCOD9401323
_publ_section_title
;
Structure prediction by ZEFSAII (Michael W. Deem and Ramdas Pophale) SiO2 
 PCOD9401323
Probable space group: P M M A
;
_chemical_formula_sum "Si O2"
_cell_formula_units_Z 64
_cell_length_a 15.760444
_cell_length_b 14.677309
_cell_length_c 17.646319
_cell_angle_alpha 90.000000
_cell_angle_beta 90.000000
_cell_angle_gamma 90.000000
_cell_volume 4081.962509
_symmetry_space_group_name_H-M "P M M A"
_symmetry_group_IT_number 51
_symmetry_cell_setting 'orthorhombic'
loop_
_space_group_symop_operation_xyz
x,y,z
1/2-x,-y,z
1/2+x,-y,-z
-x,y,-z
-x,-y,-z
1/2+x,y,-z
1/2-x,y,z
x,-y,z
loop_
_atom_site_type_symbol
_atom_site_label
_atom_site_fract_x
_atom_site_fract_y
_atom_site_fract_z
Si Si1 0.008441 0.891037 0.589587
Si Si2 0.848264 0.889351 0.691200
Si Si3 0.646995 0.793152 0.311533
Si Si4 0.648528 0.102480 0.156585
Si Si5 0.147133 0.602051 0.754835
Si Si6 0.147653 0.602004 0.929804
Si Si7 0.098980 0.210191 0.994524
Si Si8 0.649264 0.897585 0.858253
O O1 0.089040 0.838723 0.624568
O O2 0.000000 0.876081 0.500000
O O3 0.920474 0.863080 0.631217
O O4 0.019893 0.000000 0.602408
O O5 0.750000 0.858795 0.677482
O O6 0.879619 0.862980 0.775844
O O7 0.844957 0.000000 0.691823
O O8 0.750000 0.801353 0.323443
O O9 0.624369 0.844420 0.232726
O O10 0.624655 0.687008 0.297752
O O11 0.750000 0.095720 0.160077
O O12 0.629358 0.157138 0.080281
O O13 0.612636 0.000000 0.154643
O O14 0.250000 0.601036 0.756600
O O15 0.119208 0.500000 0.732434
O O16 0.120321 0.618305 0.842326
O O17 0.250000 0.603108 0.929415
O O18 0.120181 0.500000 0.951826
O O19 0.118577 0.683721 0.982509
O O20 0.135363 0.167318 0.070948
O O21 0.000000 0.196997 0.000000
O O22 0.750000 0.906370 0.848654
O O23 0.614956 0.000000 0.873192
#
# Coordination Sequence:
#
# PCOD9401323 Si02
#       8
#     8   8   8   8   8   8   8   8
#     4  10  21  34  50  73 102 134 163 198 243 297
#     4   8  16  32  51  67  87 123 169 211 242 272
#     4  10  19  32  52  77 105 132 161 199 250 305
#     4  10  20  33  47  65  95 133 165 197 237 285
#     4   8  14  27  50  75  95 122 162 203 245 295
#     4   9  17  32  51  65  85 122 164 204 245 290
#     4  12  23  29  41  67  97 128 161 201 246 287
#     4   9  18  32  47  62  85 122 166 206 235 268
#
# _framework density 15.678732999999999
#
# number of rings (size 3 to 8) (size 9 to 14) (size 15 to 20)
#    0.000    2.500    1.250    3.375    1.750    3.500 
#    0.000    1.250    0.000    0.375    0.000    0.000 
#    0.000    0.500    0.000    0.250    0.000    0.000 
#
# Total GULP energy -356449.949722 kJ/mol
# GULP energy per Si atom -5569.530464 kJ/mol
# Density = 1.564305 g / cm^3
# Si number density = 15.678733 Si / 1000 Ang^3
#
#
#
# Elastic Constant Matrix: (Units=GPa)
#
#
# Indices 1 2 3 4 5 6 
#
# 1 40.5087 20.0155 37.2816 0.0000 0.0000 0.0000
# 2 20.0155 88.0566 55.2968 0.0000 0.0000 0.0000
# 3 37.2816 55.2968 107.9372 0.0000 0.0000 0.0000
# 4 0.0000 0.0000 0.0000 -15.1474 0.0000 0.0000
# 5 0.0000 0.0000 0.0000 0.0000 26.5368 0.0000
# 6 0.0000 0.0000 0.0000 0.0000 0.0000 12.6591
#
#
#
# Elastic Compliance Matrix: (Units=1/GPa)
#
#
# Indices 1 2 3 4 5 6 
#
# 1 0.036209 -0.000555 -0.012222 0.000000 0.000000 0.000000
# 2 -0.000555 0.016751 -0.008390 0.000000 0.000000 0.000000
# 3 -0.012222 -0.008390 0.017784 0.000000 0.000000 0.000000
# 4 0.000000 0.000000 0.000000 -0.066018 0.000000 0.000000
# 5 0.000000 0.000000 0.000000 0.000000 0.037684 0.000000
# 6 0.000000 0.000000 0.000000 0.000000 0.000000 0.078995
#
#
# Mechanical properties :
#
#
# Convention : Reuss Voigt Hill
#
# Bulk Modulus (GPa) = 35.19909 51.29890 43.24899
# Shear Modulus (GPa) = 28.86686 13.07027 20.96856
#
# Velocity S-wave (km/s) = 4.29551 2.89040 3.66100
# Velocity P-wave (km/s) = 6.86301 6.62790 6.74648
#
# Compressibility (1/GPa) = 0.02840983
#
# Stress axis : x y z
#
# Youngs Moduli (GPa) = 27.61754 59.69740 56.22925
#
# Poissons Ratio (x) = 0.03315 0.68724
# Poissons Ratio (y) = 0.01534 0.47176
# Poissons Ratio (z) = 0.33754 0.50085
#
# Static dielectric constant tensor:
#      x y z
#    x 1.531490 0.000000 0.000000 
#    y 0.000000 1.548200 0.000000 
#    z 0.000000 0.000000 1.766200 
# 
# From -- ./inp_files/29980.got.cif
#   From: 2010.05.17/outbox.cif.g08.bks.cpg/sg51_15_cif.got.tgz:29980.got - 2010.06.03 11:52:47.
