data_PCOD9401853
_publ_section_title
;
Structure prediction by ZEFSAII (Michael W. Deem and Ramdas Pophale) SiO2 
 PCOD9401853
Probable space group: P M M A
;
_chemical_formula_sum "Si O2"
_cell_formula_units_Z 48
_cell_length_a 22.719373
_cell_length_b 7.542289
_cell_length_c 12.351124
_cell_angle_alpha 90.000000
_cell_angle_beta 90.000000
_cell_angle_gamma 90.000000
_cell_volume 2116.440156
_symmetry_space_group_name_H-M "P M M A"
_symmetry_group_IT_number 51
_symmetry_cell_setting 'orthorhombic'
loop_
_space_group_symop_operation_xyz
x,y,z
1/2-x,-y,z
1/2+x,-y,-z
-x,y,-z
-x,-y,-z
1/2+x,y,-z
1/2-x,y,z
x,-y,z
loop_
_atom_site_type_symbol
_atom_site_label
_atom_site_fract_x
_atom_site_fract_y
_atom_site_fract_z
Si Si1 0.313331 0.288635 0.102441
Si Si2 0.912134 0.293768 0.734921
Si Si3 0.979916 0.214638 0.119701
Si Si4 0.814631 0.217051 0.378830
Si Si5 0.346739 0.213006 0.858135
Si Si6 0.066699 0.200972 0.503424
O O1 0.250000 0.217422 0.137038
O O2 0.313489 0.500000 0.116997
O O3 0.366377 0.220296 0.176173
O O4 0.320785 0.259416 0.974632
O O5 0.898942 0.500000 0.712693
O O6 0.975440 0.280980 0.790726
O O7 0.912923 0.197798 0.620896
O O8 0.914050 0.274993 0.141329
O O9 0.981067 0.000000 0.121748
O O10 0.000000 0.271366 0.000000
O O11 0.750000 0.271458 0.423818
O O12 0.816737 0.271376 0.252619
O O13 0.876549 0.277359 0.432579
O O14 0.815705 0.000000 0.385104
O O15 0.346632 0.000000 0.854029
O O16 0.000000 0.280997 0.500000
O O17 0.058440 0.000000 0.547247
#
# Coordination Sequence:
#
# PCOD9401853 Si02
#       6
#     8   8   8   8   8   8
#     4  10  22  38  53  75 113 155 187 221 273 331
#     4  11  23  37  56  82 113 147 186 229 276 332
#     4  10  19  33  55  83 114 145 181 224 276 337
#     4   9  18  33  55  83 110 139 182 235 286 333
#     4  10  19  34  58  85 112 143 182 231 281 334
#     4  10  21  39  61  81 108 145 185 232 288 341
#
# _framework density 22.679592
#
# number of rings (size 3 to 8) (size 9 to 14) (size 15 to 20)
#    0.000    2.000    1.667    2.000    0.000    6.333 
#    0.000    0.833    0.000    1.000    0.000    0.000 
#    0.000    0.000    0.000    0.000    0.000    0.000 
#
# Total GULP energy -268026.284264 kJ/mol
# GULP energy per Si atom -5583.880922 kJ/mol
# Density = 2.262797 g / cm^3
# Si number density = 22.679592 Si / 1000 Ang^3
#
#
#
# Elastic Constant Matrix: (Units=GPa)
#
#
# Indices 1 2 3 4 5 6 
#
# 1 190.4249 5.7703 47.2468 0.0000 0.0000 0.0000
# 2 5.7703 57.2903 -1.8880 0.0000 0.0000 0.0000
# 3 47.2468 -1.8880 101.6252 0.0000 0.0000 0.0000
# 4 0.0000 0.0000 0.0000 33.5655 0.0000 0.0000
# 5 0.0000 0.0000 0.0000 0.0000 18.9879 0.0000
# 6 0.0000 0.0000 0.0000 0.0000 0.0000 -102.3991
#
#
#
# Elastic Compliance Matrix: (Units=1/GPa)
#
#
# Indices 1 2 3 4 5 6 
#
# 1 0.005963 -0.000692 -0.002785 0.000000 0.000000 0.000000
# 2 -0.000692 0.017546 0.000648 0.000000 0.000000 0.000000
# 3 -0.002785 0.000648 0.011147 0.000000 0.000000 0.000000
# 4 0.000000 0.000000 0.000000 0.029793 0.000000 0.000000
# 5 0.000000 0.000000 0.000000 0.000000 0.052665 0.000000
# 6 0.000000 0.000000 0.000000 0.000000 0.000000 -0.009766
#
#
# Mechanical properties :
#
#
# Convention : Reuss Voigt Hill
#
# Bulk Modulus (GPa) = 34.48655 50.17761 42.33208
# Shear Modulus (GPa) = 40.75844 9.91161 25.33503
#
# Velocity S-wave (km/s) = 4.24387 2.09279 3.34591
# Velocity P-wave (km/s) = 6.26521 5.29266 5.79936
#
# Compressibility (1/GPa) = 0.02899681
#
# Stress axis : x y z
#
# Youngs Moduli (GPa) = 167.68739 56.99284 89.70975
#
# Poissons Ratio (x) = 0.03946 0.24987
# Poissons Ratio (y) = 0.11611 -0.05812
# Poissons Ratio (z) = 0.46707 -0.03693
#
# Static dielectric constant tensor:
#      x y z
#    x 1.860900 0.000000 0.000000 
#    y 0.000000 1.886420 0.000000 
#    z 0.000000 0.000000 1.795100 
# 
# From -- ./inp_files/18621.got.cif
#   From: 2010.05.17/outbox.cif.g08.bks.cpg/sg51_10_cif.got.tgz:18621.got - 2010.06.03 11:52:47.
