data_PCOD9401082
_publ_section_title
;
Structure prediction by ZEFSAII (Michael W. Deem and Ramdas Pophale) SiO2 
 PCOD9401082
Probable space group: P M M A
;
_chemical_formula_sum "Si O2"
_cell_formula_units_Z 44
_cell_length_a 8.893384
_cell_length_b 15.754269
_cell_length_c 17.838704
_cell_angle_alpha 90.000000
_cell_angle_beta 90.000000
_cell_angle_gamma 90.000000
_cell_volume 2499.358766
_symmetry_space_group_name_H-M "P M M A"
_symmetry_group_IT_number 51
_symmetry_cell_setting 'orthorhombic'
loop_
_space_group_symop_operation_xyz
x,y,z
1/2-x,-y,z
1/2+x,-y,-z
-x,y,-z
-x,-y,-z
1/2+x,y,-z
1/2-x,y,z
x,-y,z
loop_
_atom_site_type_symbol
_atom_site_label
_atom_site_fract_x
_atom_site_fract_y
_atom_site_fract_z
Si Si1 0.570763 0.000000 0.417637
Si Si2 0.430796 0.594239 0.741736
Si Si3 0.930225 0.342048 0.423368
Si Si4 0.924983 0.240242 0.802690
Si Si5 0.425317 0.828077 0.366347
Si Si6 0.432034 0.904015 0.082643
O O1 0.500000 0.000000 0.500000
O O2 0.509302 0.915889 0.378272
O O3 0.750000 0.000000 0.420962
O O4 0.250000 0.596921 0.744333
O O5 0.481751 0.500000 0.763721
O O6 0.472623 0.610863 0.654267
O O7 0.492515 0.670186 0.792640
O O8 0.750000 0.341117 0.429090
O O9 0.000000 0.377706 0.500000
O O10 0.994358 0.247122 0.411845
O O11 0.750000 0.256847 0.819774
O O12 0.931927 0.197292 0.720802
O O13 0.983024 0.171669 0.862695
O O14 0.250000 0.834504 0.388732
O O15 0.250000 0.900976 0.079055
O O16 0.472130 0.000000 0.109045
O O17 0.500000 0.893515 0.000000
#
# Coordination Sequence:
#
# PCOD9401082 Si02
#       6
#     4   8   8   8   8   8
#     4  12  24  36  48  66  93 128 171 216 259 302
#     4   9  19  35  53  74 102 135 171 215 266 312
#     4  10  19  32  49  69  97 129 167 213 262 312
#     4   9  19  34  55  79 104 136 171 209 254 301
#     4  10  20  34  51  70  94 129 170 210 257 306
#     4   9  18  33  54  81 113 143 170 202 245 298
#
# _framework density 17.604516
#
# number of rings (size 3 to 8) (size 9 to 14) (size 15 to 20)
#    0.000    2.364    0.000    2.455    1.273    2.909 
#    0.000    0.000    0.000    0.545    0.000    0.000 
#    0.000    0.000    0.000    0.000    0.000    0.000 
#
# Total GULP energy -245444.626671 kJ/mol
# GULP energy per Si atom -5578.286970 kJ/mol
# Density = 1.756445 g / cm^3
# Si number density = 17.604516 Si / 1000 Ang^3
#
#
#
# Elastic Constant Matrix: (Units=GPa)
#
#
# Indices 1 2 3 4 5 6 
#
# 1 52.7324 42.9587 19.7688 0.0000 0.0000 0.0000
# 2 42.9587 155.5715 53.1566 0.0000 0.0000 0.0000
# 3 19.7688 53.1566 66.0707 0.0000 0.0000 0.0000
# 4 0.0000 0.0000 0.0000 10.8020 0.0000 0.0000
# 5 0.0000 0.0000 0.0000 0.0000 25.3654 0.0000
# 6 0.0000 0.0000 0.0000 0.0000 0.0000 25.4799
#
#
#
# Elastic Compliance Matrix: (Units=1/GPa)
#
#
# Indices 1 2 3 4 5 6 
#
# 1 0.024796 -0.005947 -0.002635 0.000000 0.000000 0.000000
# 2 -0.005947 0.010291 -0.006500 0.000000 0.000000 0.000000
# 3 -0.002635 -0.006500 0.021153 0.000000 0.000000 0.000000
# 4 0.000000 0.000000 0.000000 0.092575 0.000000 0.000000
# 5 0.000000 0.000000 0.000000 0.000000 0.039424 0.000000
# 6 0.000000 0.000000 0.000000 0.000000 0.000000 0.039247
#
#
# Mechanical properties :
#
#
# Convention : Reuss Voigt Hill
#
# Bulk Modulus (GPa) = 38.34811 56.23808 47.29309
# Shear Modulus (GPa) = 18.77286 22.89550 20.83418
#
# Velocity S-wave (km/s) = 3.26907 3.61022 3.44387
# Velocity P-wave (km/s) = 6.00662 7.02801 6.53729
#
# Compressibility (1/GPa) = 0.02607691
#
# Stress axis : x y z
#
# Youngs Moduli (GPa) = 40.32910 97.17151 47.27383
#
# Poissons Ratio (x) = 0.57786 0.12455
# Poissons Ratio (y) = 0.23983 0.30729
# Poissons Ratio (z) = 0.10625 0.63164
#
# Static dielectric constant tensor:
#      x y z
#    x 1.594230 0.000000 0.000000 
#    y 0.000000 1.605130 0.000000 
#    z 0.000000 0.000000 3.151600 
# 
# From -- ./inp_files/27337.got.cif
#   From: 2010.05.17/outbox.cif.g08.bks.cpg/sg51_14_cif.got.tgz:27337.got - 2010.06.03 11:52:47.
