data_PCOD9401031
_publ_section_title
;
Structure prediction by ZEFSAII (Michael W. Deem and Ramdas Pophale) SiO2 
 PCOD9401031
Probable space group: P M M A
;
_chemical_formula_sum "Si O2"
_cell_formula_units_Z 56
_cell_length_a 22.242967
_cell_length_b 7.647634
_cell_length_c 15.465435
_cell_angle_alpha 90.000000
_cell_angle_beta 90.000000
_cell_angle_gamma 90.000000
_cell_volume 2630.764379
_symmetry_space_group_name_H-M "P M M A"
_symmetry_group_IT_number 51
_symmetry_cell_setting 'orthorhombic'
loop_
_space_group_symop_operation_xyz
x,y,z
1/2-x,-y,z
1/2+x,-y,-z
-x,y,-z
-x,-y,-z
1/2+x,y,-z
1/2-x,y,z
x,-y,z
loop_
_atom_site_type_symbol
_atom_site_label
_atom_site_fract_x
_atom_site_fract_y
_atom_site_fract_z
Si Si1 0.627822 0.207761 0.533191
Si Si2 0.454929 0.710032 0.308870
Si Si3 0.431756 0.297996 0.967598
Si Si4 0.117985 0.296633 0.141161
Si Si5 0.750000 0.790165 0.819471
Si Si6 0.080552 0.714796 0.771435
Si Si7 0.250000 0.212035 0.380952
Si Si8 0.681177 0.292957 0.353540
O O1 0.572317 0.246448 0.597017
O O2 0.688708 0.278912 0.577716
O O3 0.636418 0.269100 0.435166
O O4 0.631497 0.000000 0.529574
O O5 0.455054 0.500000 0.306186
O O6 0.411532 0.774365 0.230063
O O7 0.522169 0.769928 0.284608
O O8 0.409994 0.500000 0.959945
O O9 0.426534 0.226029 0.870809
O O10 0.500000 0.302255 0.000000
O O11 0.399793 0.212668 0.049934
O O12 0.097657 0.500000 0.138047
O O13 0.189022 0.286111 0.144785
O O14 0.750000 0.746336 0.718674
O O15 0.750000 0.000000 0.829052
O O16 0.079496 0.500000 0.771085
O O17 0.142906 0.773957 0.728077
O O18 0.250000 0.000000 0.389507
O O19 0.750000 0.222970 0.366463
O O20 0.687821 0.500000 0.342145
#
# Coordination Sequence:
#
# PCOD9401031 Si02
#       8
#     8   8   8   8   4   8   4   8
#     4  11  21  36  56  78 106 141 183 221 266 323
#     4  10  19  32  54  84 114 142 174 220 275 326
#     4   9  15  29  55  84 111 140 176 220 271 325
#     4  10  19  31  52  84 113 139 182 229 268 318
#     4  11  21  35  51  72 111 152 182 219 277 335
#     4   9  18  34  55  80 113 145 175 221 277 324
#     4   9  18  31  49  72  97 136 178 213 259 315
#     4  10  21  37  56  79 106 141 186 227 265 314
#
# _framework density 21.28659
#
# number of rings (size 3 to 8) (size 9 to 14) (size 15 to 20)
#    0.000    2.143    3.571    0.643    0.000    0.571 
#    1.286    3.571    0.000    2.143    0.000    0.000 
#    0.000    0.000    0.000    0.000    0.000    0.000 
#
# Total GULP energy -312193.154033 kJ/mol
# GULP energy per Si atom -5574.877751 kJ/mol
# Density = 2.123814 g / cm^3
# Si number density = 21.286590 Si / 1000 Ang^3
#
#
#
# Elastic Constant Matrix: (Units=GPa)
#
#
# Indices 1 2 3 4 5 6 
#
# 1 82.5144 7.6056 53.7126 0.0000 0.0000 0.0000
# 2 7.6056 38.4925 5.4261 0.0000 0.0000 0.0000
# 3 53.7126 5.4261 144.7956 0.0000 0.0000 0.0000
# 4 0.0000 0.0000 0.0000 109.6892 0.0000 0.0000
# 5 0.0000 0.0000 0.0000 0.0000 37.4480 0.0000
# 6 0.0000 0.0000 0.0000 0.0000 0.0000 -10.5210
#
#
#
# Elastic Compliance Matrix: (Units=1/GPa)
#
#
# Indices 1 2 3 4 5 6 
#
# 1 0.016188 -0.002365 -0.005917 0.000000 0.000000 0.000000
# 2 -0.002365 0.026462 -0.000115 0.000000 0.000000 0.000000
# 3 -0.005917 -0.000115 0.009105 0.000000 0.000000 0.000000
# 4 0.000000 0.000000 0.000000 0.009117 0.000000 0.000000
# 5 0.000000 0.000000 0.000000 0.000000 0.026704 0.000000
# 6 0.000000 0.000000 0.000000 0.000000 0.000000 -0.095048
#
#
# Mechanical properties :
#
#
# Convention : Reuss Voigt Hill
#
# Bulk Modulus (GPa) = 28.60010 44.36567 36.48288
# Shear Modulus (GPa) = 238.37861 40.59377 139.48619
#
# Velocity S-wave (km/s) = 10.59379 4.37167 8.10370
# Velocity P-wave (km/s) = 12.77117 6.80950 10.23407
#
# Compressibility (1/GPa) = 0.03496492
#
# Stress axis : x y z
#
# Youngs Moduli (GPa) = 61.77253 37.78942 109.82543
#
# Poissons Ratio (x) = 0.08936 0.64979
# Poissons Ratio (y) = 0.14607 0.01258
# Poissons Ratio (z) = 0.36548 0.00433
#
# Static dielectric constant tensor:
#      x y z
#    x 1.710740 0.000000 0.000000 
#    y 0.000000 1.801130 0.000000 
#    z 0.000000 0.000000 1.811050 
# 
# From -- ./inp_files/25917.got.cif
#   From: 2010.05.17/outbox.cif.g08.bks.cpg/sg51_13_cif.got.tgz:25917.got - 2010.06.03 11:52:47.
