data_PCOD9401442
_publ_section_title
;
Structure prediction by ZEFSAII (Michael W. Deem and Ramdas Pophale) SiO2 
 PCOD9401442
Probable space group: P M M A
;
_chemical_formula_sum "Si O2"
_cell_formula_units_Z 56
_cell_length_a 9.006442
_cell_length_b 14.443615
_cell_length_c 21.800293
_cell_angle_alpha 90.000000
_cell_angle_beta 90.000000
_cell_angle_gamma 90.000000
_cell_volume 2835.903776
_symmetry_space_group_name_H-M "P M M A"
_symmetry_group_IT_number 51
_symmetry_cell_setting 'orthorhombic'
loop_
_space_group_symop_operation_xyz
x,y,z
1/2-x,-y,z
1/2+x,-y,-z
-x,y,-z
-x,-y,-z
1/2+x,y,-z
1/2-x,y,z
x,-y,z
loop_
_atom_site_type_symbol
_atom_site_label
_atom_site_fract_x
_atom_site_fract_y
_atom_site_fract_z
Si Si1 0.079270 0.636435 0.938208
Si Si2 0.421799 0.138052 0.935899
Si Si3 0.072730 0.400017 0.691959
Si Si4 0.579986 0.147064 0.809218
Si Si5 0.580198 0.888817 0.561791
Si Si6 0.571272 0.187357 0.317938
Si Si7 0.418196 0.369855 0.183286
O O1 0.250000 0.608376 0.934898
O O2 0.077592 0.749303 0.936872
O O3 0.984753 0.602611 0.881217
O O4 0.000000 0.607558 0.000000
O O5 0.250000 0.108979 0.935343
O O6 0.501869 0.111121 0.871709
O O7 0.500000 0.109211 0.000000
O O8 0.250000 0.399576 0.685200
O O9 0.018982 0.500000 0.665286
O O10 0.022234 0.296002 0.673669
O O11 0.025468 0.400762 0.762800
O O12 0.750000 0.113557 0.804564
O O13 0.494289 0.140180 0.744119
O O14 0.584968 0.258247 0.817057
O O15 0.500000 0.854267 0.500000
O O16 0.750000 0.854773 0.565847
O O17 0.488749 0.863067 0.622079
O O18 0.585723 0.000000 0.557846
O O19 0.750000 0.185455 0.313677
O O20 0.250000 0.400198 0.193722
#
# Coordination Sequence:
#
# PCOD9401442 Si02
#       7
#     8   8   8   8   8   8   8
#     4   9  15  22  33  49  71 102 144 197 257 319
#     4   9  15  22  33  52  81 119 164 214 268 323
#     4   9  18  32  49  70  98 134 175 217 261 307
#     4   9  16  26  40  61  92 129 170 217 267 318
#     4  10  21  38  61  89 120 151 180 211 252 307
#     4  10  19  32  53  80 110 144 181 223 268 314
#     4   9  16  25  38  57  81 112 155 207 260 312
#
# _framework density 19.746791999999999
#
# number of rings (size 3 to 8) (size 9 to 14) (size 15 to 20)
#    0.000    2.714    0.000    2.571    0.000    8.571 
#    0.000    0.000    0.000    0.857    0.000    0.000 
#    0.000    0.571    0.000    2.143    0.000    4.714 
#
# Total GULP energy -312155.640215 kJ/mol
# GULP energy per Si atom -5574.207861 kJ/mol
# Density = 1.970185 g / cm^3
# Si number density = 19.746792 Si / 1000 Ang^3
#
#
#
# Elastic Constant Matrix: (Units=GPa)
#
#
# Indices 1 2 3 4 5 6 
#
# 1 76.9733 5.9539 59.8331 0.0000 0.0000 0.0000
# 2 5.9539 57.5908 7.2816 0.0000 0.0000 0.0000
# 3 59.8331 7.2816 139.0413 0.0000 0.0000 0.0000
# 4 0.0000 0.0000 0.0000 4.5210 0.0000 0.0000
# 5 0.0000 0.0000 0.0000 0.0000 30.3033 0.0000
# 6 0.0000 0.0000 0.0000 0.0000 0.0000 2.2550
#
#
#
# Elastic Compliance Matrix: (Units=1/GPa)
#
#
# Indices 1 2 3 4 5 6 
#
# 1 0.019575 -0.000965 -0.008373 0.000000 0.000000 0.000000
# 2 -0.000965 0.017527 -0.000503 0.000000 0.000000 0.000000
# 3 -0.008373 -0.000503 0.010822 0.000000 0.000000 0.000000
# 4 0.000000 0.000000 0.000000 0.221191 0.000000 0.000000
# 5 0.000000 0.000000 0.000000 0.000000 0.033000 0.000000
# 6 0.000000 0.000000 0.000000 0.000000 0.000000 0.443468
#
#
# Mechanical properties :
#
#
# Convention : Reuss Voigt Hill
#
# Bulk Modulus (GPa) = 35.40803 46.63808 41.02305
# Shear Modulus (GPa) = 6.45429 20.78497 13.61963
#
# Velocity S-wave (km/s) = 1.80987 3.24786 2.62909
# Velocity P-wave (km/s) = 4.72625 6.14281 5.48049
#
# Compressibility (1/GPa) = 0.02824218
#
# Stress axis : x y z
#
# Youngs Moduli (GPa) = 51.08648 57.05416 92.40835
#
# Poissons Ratio (x) = 0.05506 0.77373
# Poissons Ratio (y) = 0.04930 0.04645
# Poissons Ratio (z) = 0.42774 0.02868
#
# Static dielectric constant tensor:
#      x y z
#    x 1.673310 0.000000 0.000000 
#    y 0.000000 1.825930 0.000000 
#    z 0.000000 0.000000 1.630600 
# 
# From -- ./inp_files/32038.got.cif
#   From: 2010.05.17/outbox.cif.g08.bks.cpg/sg51_17_cif.got.tgz:32038.got - 2010.06.03 11:52:47.
