data_PCOD9401756
_publ_section_title
;
Structure prediction by ZEFSAII (Michael W. Deem and Ramdas Pophale) SiO2 
 PCOD9401756
Probable space group: P M M A
;
_chemical_formula_sum "Si O2"
_cell_formula_units_Z 40
_cell_length_a 8.527728
_cell_length_b 26.893703
_cell_length_c 9.364428
_cell_angle_alpha 90.000000
_cell_angle_beta 90.000000
_cell_angle_gamma 90.000000
_cell_volume 2147.658370
_symmetry_space_group_name_H-M "P M M A"
_symmetry_group_IT_number 51
_symmetry_cell_setting 'orthorhombic'
loop_
_space_group_symop_operation_xyz
x,y,z
1/2-x,-y,z
1/2+x,-y,-z
-x,y,-z
-x,-y,-z
1/2+x,y,-z
1/2-x,y,z
x,-y,z
loop_
_atom_site_type_symbol
_atom_site_label
_atom_site_fract_x
_atom_site_fract_y
_atom_site_fract_z
Si Si1 0.061629 0.150787 0.839792
Si Si2 0.436893 0.244093 0.339244
Si Si3 0.439007 0.337484 0.837028
Si Si4 0.939305 0.943828 0.340625
Si Si5 0.439228 0.446674 0.837077
O O1 0.250000 0.151872 0.841020
O O2 0.008870 0.098960 0.767501
O O3 0.001047 0.196476 0.745673
O O4 0.000000 0.155052 0.000000
O O5 0.500000 0.243631 0.500000
O O6 0.250000 0.242494 0.340589
O O7 0.493542 0.293519 0.258021
O O8 0.250000 0.334518 0.838880
O O9 0.487088 0.392534 0.779736
O O10 0.500000 0.332867 0.000000
O O11 0.750000 0.943398 0.344246
O O12 0.000000 0.933219 0.500000
O O13 0.990235 0.000000 0.301896
O O14 0.250000 0.446724 0.838929
O O15 0.490614 0.500000 0.772180
O O16 0.500000 0.446931 0.000000
#
# Coordination Sequence:
#
# PCOD9401756 Si02
#       5
#     8   8   8   8   8
#     4  11  23  39  59  84 114 146 183 226 273 322
#     4  12  25  41  59  79 106 140 181 226 275 329
#     4  10  19  33  54  81 112 144 180 222 269 319
#     4   9  19  36  58  84 114 148 185 224 267 318
#     4   8  14  25  44  72 105 139 174 214 260 311
#
# _framework density 18.624936999999999
#
# number of rings (size 3 to 8) (size 9 to 14) (size 15 to 20)
#    0.000    2.000    0.000    4.200    0.000    4.400 
#    0.000    0.000    0.000    0.600    0.000    0.000 
#    0.000    0.000    0.000    0.000    0.000    0.000 
#
# Total GULP energy -223196.470863 kJ/mol
# GULP energy per Si atom -5579.911772 kJ/mol
# Density = 1.858255 g / cm^3
# Si number density = 18.624937 Si / 1000 Ang^3
#
#
#
# Elastic Constant Matrix: (Units=GPa)
#
#
# Indices 1 2 3 4 5 6 
#
# 1 65.8538 50.0623 35.3822 0.0000 0.0000 0.0000
# 2 50.0623 198.5846 107.7834 0.0000 0.0000 0.0000
# 3 35.3822 107.7834 119.7353 0.0000 0.0000 0.0000
# 4 0.0000 0.0000 0.0000 -44.6893 0.0000 0.0000
# 5 0.0000 0.0000 0.0000 0.0000 29.5290 0.0000
# 6 0.0000 0.0000 0.0000 0.0000 0.0000 -112.6546
#
#
#
# Elastic Compliance Matrix: (Units=1/GPa)
#
#
# Indices 1 2 3 4 5 6 
#
# 1 0.019182 -0.003440 -0.002572 0.000000 0.000000 0.000000
# 2 -0.003440 0.010463 -0.008402 0.000000 0.000000 0.000000
# 3 -0.002572 -0.008402 0.016675 0.000000 0.000000 0.000000
# 4 0.000000 0.000000 0.000000 -0.022377 0.000000 0.000000
# 5 0.000000 0.000000 0.000000 0.000000 0.033865 0.000000
# 6 0.000000 0.000000 0.000000 0.000000 0.000000 -0.008877
#
#
# Mechanical properties :
#
#
# Convention : Reuss Voigt Hill
#
# Bulk Modulus (GPa) = 57.16735 85.62550 71.39643
# Shear Modulus (GPa) = 59.81512 -12.83325 23.49094
#
# Velocity S-wave (km/s) = 5.67321 -2.62780 3.55528
# Velocity P-wave (km/s) = 8.58338 6.07176 7.43440
#
# Compressibility (1/GPa) = 0.01749250
#
# Stress axis : x y z
#
# Youngs Moduli (GPa) = 52.13242 95.57299 59.96864
#
# Poissons Ratio (x) = 0.32875 0.15424
# Poissons Ratio (y) = 0.17932 0.50388
# Poissons Ratio (z) = 0.13408 0.80303
#
# Static dielectric constant tensor:
#      x y z
#    x 1.624780 0.000000 0.000000 
#    y 0.000000 1.689720 0.000000 
#    z 0.000000 0.000000 1.585450 
# 
# From -- ./inp_files/5261.got.cif
#   From: 2010.05.17/outbox.cif.g08.bks.cpg/sg51_3_cif.got.tgz:5261.got - 2010.06.03 11:52:47.
