data_PCOD9401730
_publ_section_title
;
Structure prediction by ZEFSAII (Michael W. Deem and Ramdas Pophale) SiO2 
 PCOD9401730
Probable space group: P M M A
;
_chemical_formula_sum "Si O2"
_cell_formula_units_Z 40
_cell_length_a 8.635859
_cell_length_b 26.807442
_cell_length_c 9.225596
_cell_angle_alpha 90.000000
_cell_angle_beta 90.000000
_cell_angle_gamma 90.000000
_cell_volume 2135.774271
_symmetry_space_group_name_H-M "P M M A"
_symmetry_group_IT_number 51
_symmetry_cell_setting 'orthorhombic'
loop_
_space_group_symop_operation_xyz
x,y,z
1/2-x,-y,z
1/2+x,-y,-z
-x,y,-z
-x,-y,-z
1/2+x,y,-z
1/2-x,y,z
x,-y,z
loop_
_atom_site_type_symbol
_atom_site_label
_atom_site_fract_x
_atom_site_fract_y
_atom_site_fract_z
Si Si1 0.564756 0.094602 0.162513
Si Si2 0.564435 0.598072 0.336512
Si Si3 0.436332 0.811621 0.335544
Si Si4 0.563051 0.500000 0.161474
Si Si5 0.564485 0.000000 0.662789
Si Si6 0.435002 0.700717 0.336120
O O1 0.750000 0.091645 0.160924
O O2 0.510308 0.145567 0.238587
O O3 0.496610 0.048669 0.253930
O O4 0.500000 0.092258 0.000000
O O5 0.500000 0.593944 0.500000
O O6 0.750000 0.599259 0.343540
O O7 0.513615 0.549896 0.246127
O O8 0.505806 0.650495 0.270179
O O9 0.500000 0.815654 0.500000
O O10 0.250000 0.816882 0.339217
O O11 0.473212 0.755767 0.277286
O O12 0.750000 0.500000 0.158406
O O13 0.500000 0.500000 0.000000
O O14 0.500000 0.000000 0.500000
O O15 0.750000 0.000000 0.660448
O O16 0.500000 0.701646 0.500000
O O17 0.250000 0.695842 0.340345
#
# Coordination Sequence:
#
# PCOD9401730 Si02
#       6
#     8   8   8   4   4   8
#     4  12  25  42  62  87 119 155 193 235 283 335
#     4  10  19  33  54  80 107 137 179 225 273 326
#     4  10  20  36  58  86 117 151 190 232 278 331
#     4  10  23  38  52  74 104 140 179 222 272 330
#     4  12  25  44  67  92 120 152 192 236 283 334
#     4   9  17  30  52  81 111 142 180 225 274 323
#
# _framework density 18.728570999999999
#
# number of rings (size 3 to 8) (size 9 to 14) (size 15 to 20)
#    0.000    1.600    0.000    6.900    0.000    4.000 
#    0.000    1.000    0.000    2.400    0.000    0.000 
#    0.000    0.000    0.000    0.000    0.000    0.000 
#
# Total GULP energy -223421.105924 kJ/mol
# GULP energy per Si atom -5585.527648 kJ/mol
# Density = 1.868594 g / cm^3
# Si number density = 18.728571 Si / 1000 Ang^3
#
#
#
# Elastic Constant Matrix: (Units=GPa)
#
#
# Indices 1 2 3 4 5 6 
#
# 1 124.7791 82.7253 49.4350 0.0000 0.0000 0.0000
# 2 82.7253 224.2200 93.8661 0.0000 0.0000 0.0000
# 3 49.4350 93.8661 111.1012 0.0000 0.0000 0.0000
# 4 0.0000 0.0000 0.0000 -68.7464 0.0000 0.0000
# 5 0.0000 0.0000 0.0000 0.0000 30.7735 0.0000
# 6 0.0000 0.0000 0.0000 0.0000 0.0000 32.5671
#
#
#
# Elastic Compliance Matrix: (Units=1/GPa)
#
#
# Indices 1 2 3 4 5 6 
#
# 1 0.010964 -0.003099 -0.002260 0.000000 0.000000 0.000000
# 2 -0.003099 0.007776 -0.005191 0.000000 0.000000 0.000000
# 3 -0.002260 -0.005191 0.014392 0.000000 0.000000 0.000000
# 4 0.000000 0.000000 0.000000 -0.014546 0.000000 0.000000
# 5 0.000000 0.000000 0.000000 0.000000 0.032496 0.000000
# 6 0.000000 0.000000 0.000000 0.000000 0.000000 0.030706
#
#
# Mechanical properties :
#
#
# Convention : Reuss Voigt Hill
#
# Bulk Modulus (GPa) = 83.11115 101.35036 92.23075
# Shear Modulus (GPa) = 46.77269 14.52377 30.64823
#
# Velocity S-wave (km/s) = 5.00282 2.78778 4.04969
# Velocity P-wave (km/s) = 8.82292 8.03711 8.43917
#
# Compressibility (1/GPa) = 0.01203208
#
# Stress axis : x y z
#
# Youngs Moduli (GPa) = 91.20600 128.59298 69.48075
#
# Poissons Ratio (x) = 0.39850 0.15705
# Poissons Ratio (y) = 0.28264 0.36069
# Poissons Ratio (z) = 0.20616 0.66756
#
# Static dielectric constant tensor:
#      x y z
#    x 1.628330 0.000000 0.000000 
#    y 0.000000 1.681590 0.000000 
#    z 0.000000 0.000000 1.599510 
# 
# From -- ./inp_files/5576.got.cif
#   From: 2010.05.17/outbox.cif.g08.bks.cpg/sg51_3_cif.got.tgz:5576.got - 2010.06.03 11:52:47.
