data_PCOD9401959
_publ_section_title
;
Structure prediction by ZEFSAII (Michael W. Deem and Ramdas Pophale) SiO2 
 PCOD9401959
Probable space group: P M M A
;
_chemical_formula_sum "Si O2"
_cell_formula_units_Z 32
_cell_length_a 8.593334
_cell_length_b 22.212998
_cell_length_c 9.184607
_cell_angle_alpha 90.000000
_cell_angle_beta 90.000000
_cell_angle_gamma 90.000000
_cell_volume 1753.191868
_symmetry_space_group_name_H-M "P M M A"
_symmetry_group_IT_number 51
_symmetry_cell_setting 'orthorhombic'
loop_
_space_group_symop_operation_xyz
x,y,z
1/2-x,-y,z
1/2+x,-y,-z
-x,y,-z
-x,-y,-z
1/2+x,y,-z
1/2-x,y,z
x,-y,z
loop_
_atom_site_type_symbol
_atom_site_label
_atom_site_fract_x
_atom_site_fract_y
_atom_site_fract_z
Si Si1 0.435084 0.745280 0.335855
Si Si2 0.562709 0.500000 0.165028
Si Si3 0.437594 0.000000 0.665660
Si Si4 0.937327 0.368886 0.164846
Si Si5 0.062985 0.130191 0.666341
O O1 0.500000 0.741997 0.500000
O O2 0.250000 0.746649 0.340264
O O3 0.494234 0.687057 0.251239
O O4 0.495546 0.808401 0.268437
O O5 0.750000 0.500000 0.159922
O O6 0.515855 0.565043 0.228161
O O7 0.500000 0.500000 0.000000
O O8 0.500000 0.000000 0.500000
O O9 0.483702 0.935114 0.731412
O O10 0.250000 0.000000 0.659192
O O11 0.750000 0.365180 0.164169
O O12 0.000000 0.366507 0.000000
O O13 0.250000 0.134337 0.663683
O O14 0.000000 0.129082 0.500000
#
# Coordination Sequence:
#
# PCOD9401959 Si02
#       5
#     8   4   4   8   8
#     4  11  21  33  48  70  99 133 166 201 243 289
#     4   8  16  30  51  74  97 122 154 194 238 282
#     4   8  14  22  36  58  85 116 153 192 235 280
#     4  10  19  34  54  77 100 126 159 198 239 286
#     4   9  15  25  40  61  89 122 156 195 238 284
#
# _framework density 18.252424999999999
#
# number of rings (size 3 to 8) (size 9 to 14) (size 15 to 20)
#    0.000    2.500    0.000    5.250    0.000    2.000 
#    0.000    0.625    0.000    0.000    0.000    0.875 
#    0.000    0.000    0.000    0.000    0.000    0.000 
#
# Total GULP energy -178144.471179 kJ/mol
# GULP energy per Si atom -5567.014724 kJ/mol
# Density = 1.821088 g / cm^3
# Si number density = 18.252425 Si / 1000 Ang^3
#
#
#
# Elastic Constant Matrix: (Units=GPa)
#
#
# Indices 1 2 3 4 5 6 
#
# 1 89.0814 66.7341 12.4492 0.0000 0.0000 0.0000
# 2 66.7341 259.4353 41.5353 0.0000 0.0000 0.0000
# 3 12.4492 41.5353 16.6396 0.0000 0.0000 0.0000
# 4 0.0000 0.0000 0.0000 79.1340 0.0000 0.0000
# 5 0.0000 0.0000 0.0000 0.0000 18.3763 0.0000
# 6 0.0000 0.0000 0.0000 0.0000 0.0000 41.1696
#
#
#
# Elastic Compliance Matrix: (Units=1/GPa)
#
#
# Indices 1 2 3 4 5 6 
#
# 1 0.013966 -0.003197 -0.002468 0.000000 0.000000 0.000000
# 2 -0.003197 0.007152 -0.015461 0.000000 0.000000 0.000000
# 3 -0.002468 -0.015461 0.100537 0.000000 0.000000 0.000000
# 4 0.000000 0.000000 0.000000 0.012637 0.000000 0.000000
# 5 0.000000 0.000000 0.000000 0.000000 0.054418 0.000000
# 6 0.000000 0.000000 0.000000 0.000000 0.000000 0.024290
#
#
# Mechanical properties :
#
#
# Convention : Reuss Voigt Hill
#
# Bulk Modulus (GPa) = 12.59396 67.39927 39.99661
# Shear Modulus (GPa) = 17.74812 44.03184 30.88998
#
# Velocity S-wave (km/s) = 3.12167 4.91693 4.11831
# Velocity P-wave (km/s) = 4.46183 8.32114 6.67642
#
# Compressibility (1/GPa) = 0.07940315
#
# Stress axis : x y z
#
# Youngs Moduli (GPa) = 71.60363 139.81565 9.94654
#
# Poissons Ratio (x) = 0.44703 0.02455
# Poissons Ratio (y) = 0.22894 0.15378
# Poissons Ratio (z) = 0.17670 2.16171
#
# Static dielectric constant tensor:
#      x y z
#    x 1.604670 0.000000 0.000000 
#    y 0.000000 1.731810 0.000000 
#    z 0.000000 0.000000 1.599690 
# 
# From -- ./inp_files/5165.got.cif
#   From: 2010.05.17/outbox.cif.g08.bks.cpg/sg51_3_cif.got.tgz:5165.got - 2010.06.03 11:52:47.
