data_PCOD9401048
_publ_section_title
;
Structure prediction by ZEFSAII (Michael W. Deem and Ramdas Pophale) SiO2 
 PCOD9401048
Probable space group: P M M A
;
_chemical_formula_sum "Si O2"
_cell_formula_units_Z 64
_cell_length_a 31.986003
_cell_length_b 7.803685
_cell_length_c 12.588369
_cell_angle_alpha 90.000000
_cell_angle_beta 90.000000
_cell_angle_gamma 90.000000
_cell_volume 3142.166318
_symmetry_space_group_name_H-M "P M M A"
_symmetry_group_IT_number 51
_symmetry_cell_setting 'orthorhombic'
loop_
_space_group_symop_operation_xyz
x,y,z
1/2-x,-y,z
1/2+x,-y,-z
-x,y,-z
-x,-y,-z
1/2+x,y,-z
1/2-x,y,z
x,-y,z
loop_
_atom_site_type_symbol
_atom_site_label
_atom_site_fract_x
_atom_site_fract_y
_atom_site_fract_z
Si Si1 0.390200 0.210096 0.858461
Si Si2 0.129075 0.801612 0.090702
Si Si3 0.452344 0.699910 0.499472
Si Si4 0.014180 0.208291 0.882912
Si Si5 0.202643 0.295755 0.470963
Si Si6 0.128888 0.798512 0.629274
Si Si7 0.200812 0.295689 0.235089
Si Si8 0.438072 0.791616 0.261577
O O1 0.438834 0.259837 0.858986
O O2 0.370091 0.273210 0.749074
O O3 0.388097 0.000000 0.855905
O O4 0.372361 0.270045 0.971774
O O5 0.173921 0.789961 0.144138
O O6 0.097057 0.729446 0.178531
O O7 0.115816 0.000000 0.079329
O O8 0.500000 0.773252 0.500000
O O9 0.455892 0.500000 0.525967
O O10 0.417170 0.772523 0.578351
O O11 0.435070 0.721751 0.379974
O O12 0.981913 0.259651 0.791970
O O13 0.013296 0.000000 0.885825
O O14 0.000000 0.266766 0.000000
O O15 0.250000 0.232539 0.497316
O O16 0.206428 0.500000 0.458610
O O17 0.166141 0.266245 0.554764
O O18 0.189992 0.230268 0.353621
O O19 0.135527 0.000000 0.636170
O O20 0.250000 0.268938 0.221789
O O21 0.192698 0.500000 0.229823
O O22 0.436133 0.000000 0.269085
#
# Coordination Sequence:
#
# PCOD9401048 Si02
#       8
#     8   8   8   8   8   8   8   8
#     4   9  18  32  49  75 110 143 175 215 264 315
#     4  10  19  32  52  80 108 133 167 210 260 315
#     4  11  24  39  53  73 109 152 187 224 274 329
#     4   9  14  26  49  75 103 137 174 214 258 308
#     4   9  19  38  62  84 109 144 182 222 274 334
#     4  11  22  36  57  83 111 144 184 232 279 324
#     4   9  19  36  56  77 102 133 169 211 261 315
#     4  10  19  31  54  83 105 131 175 224 266 313
#
# _framework density 20.368113999999998
#
# number of rings (size 3 to 8) (size 9 to 14) (size 15 to 20)
#    0.000    2.250    1.250    3.000    0.000    5.500 
#    0.000    3.125    0.000    4.875    0.000    0.000 
#    0.000    0.000    0.000    0.000    0.000    0.000 
#
# Total GULP energy -357174.470805 kJ/mol
# GULP energy per Si atom -5580.851106 kJ/mol
# Density = 2.032175 g / cm^3
# Si number density = 20.368114 Si / 1000 Ang^3
#
#
#
# Elastic Constant Matrix: (Units=GPa)
#
#
# Indices 1 2 3 4 5 6 
#
# 1 54.2418 0.1307 45.6238 0.0000 0.0000 0.0000
# 2 0.1307 20.7965 -4.4698 0.0000 0.0000 0.0000
# 3 45.6238 -4.4698 139.4829 0.0000 0.0000 0.0000
# 4 0.0000 0.0000 0.0000 40.9321 0.0000 0.0000
# 5 0.0000 0.0000 0.0000 0.0000 34.4498 0.0000
# 6 0.0000 0.0000 0.0000 0.0000 0.0000 18.1229
#
#
#
# Elastic Compliance Matrix: (Units=1/GPa)
#
#
# Indices 1 2 3 4 5 6 
#
# 1 0.025513 -0.001968 -0.008408 0.000000 0.000000 0.000000
# 2 -0.001968 0.048570 0.002200 0.000000 0.000000 0.000000
# 3 -0.008408 0.002200 0.009990 0.000000 0.000000 0.000000
# 4 0.000000 0.000000 0.000000 0.024431 0.000000 0.000000
# 5 0.000000 0.000000 0.000000 0.000000 0.029028 0.000000
# 6 0.000000 0.000000 0.000000 0.000000 0.000000 0.055179
#
#
# Mechanical properties :
#
#
# Convention : Reuss Voigt Hill
#
# Bulk Modulus (GPa) = 14.76627 33.01008 23.88817
# Shear Modulus (GPa) = 21.58562 30.25007 25.91784
#
# Velocity S-wave (km/s) = 3.25895 3.85797 3.57104
# Velocity P-wave (km/s) = 4.62887 6.00726 5.36254
#
# Compressibility (1/GPa) = 0.06772193
#
# Stress axis : x y z
#
# Youngs Moduli (GPa) = 39.19578 20.58874 100.09939
#
# Poissons Ratio (x) = 0.04051 0.84165
# Poissons Ratio (y) = 0.07712 -0.22022
# Poissons Ratio (z) = 0.32956 -0.04530
#
# Static dielectric constant tensor:
#      x y z
#    x 1.717220 0.000000 0.000000 
#    y 0.000000 1.757130 0.000000 
#    z 0.000000 0.000000 1.746140 
# 
# From -- ./inp_files/19581.got.cif
#   From: 2010.05.17/outbox.cif.g08.bks.cpg/sg51_10_cif.got.tgz:19581.got - 2010.06.03 11:52:47.
