data_PCOD9401600
_publ_section_title
;
Structure prediction by ZEFSAII (Michael W. Deem and Ramdas Pophale) SiO2 
 PCOD9401600
Probable space group: P M M A
;
_chemical_formula_sum "Si O2"
_cell_formula_units_Z 58
_cell_length_a 8.939747
_cell_length_b 27.738899
_cell_length_c 14.756283
_cell_angle_alpha 90.000000
_cell_angle_beta 90.000000
_cell_angle_gamma 90.000000
_cell_volume 3659.244452
_symmetry_space_group_name_H-M "P M M A"
_symmetry_group_IT_number 51
_symmetry_cell_setting 'orthorhombic'
loop_
_space_group_symop_operation_xyz
x,y,z
1/2-x,-y,z
1/2+x,-y,-z
-x,y,-z
-x,-y,-z
1/2+x,y,-z
1/2-x,y,z
x,-y,z
loop_
_atom_site_type_symbol
_atom_site_label
_atom_site_fract_x
_atom_site_fract_y
_atom_site_fract_z
Si Si1 0.927970 0.556775 0.097571
Si Si2 0.071136 0.824927 0.786343
Si Si3 0.430166 0.215964 0.593604
Si Si4 0.586805 0.098238 0.905718
Si Si5 0.569960 0.728640 0.099919
Si Si6 0.428665 0.677758 0.407628
Si Si7 0.071451 0.639769 0.210317
Si Si8 0.750000 0.000000 0.874175
O O1 0.750000 0.564934 0.093829
O O2 0.954398 0.500000 0.114678
O O3 0.002772 0.590761 0.171741
O O4 0.000000 0.568575 0.000000
O O5 0.250000 0.830059 0.789463
O O6 0.028608 0.814357 0.682469
O O7 0.032815 0.777913 0.846492
O O8 0.996743 0.871643 0.829418
O O9 0.500000 0.196979 0.500000
O O10 0.250000 0.218620 0.587175
O O11 0.496253 0.269731 0.605577
O O12 0.750000 0.121605 0.920644
O O13 0.622283 0.043246 0.878650
O O14 0.500000 0.099556 0.000000
O O15 0.750000 0.724382 0.094922
O O16 0.503515 0.683814 0.155709
O O17 0.500000 0.729598 0.000000
O O18 0.500000 0.657523 0.500000
O O19 0.250000 0.683619 0.418684
O O20 0.457001 0.647450 0.317073
O O21 0.250000 0.640875 0.195795
#
# Coordination Sequence:
#
# PCOD9401600 Si02
#       8
#     8   8   8   8   8   8   8   2
#     4  10  21  37  57  79 104 137 179 227 274 318
#     4  10  21  35  51  77 109 142 176 214 264 317
#     4  10  19  33  52  76 108 140 176 216 260 314
#     4  10  20  34  54  76 107 137 178 218 263 308
#     4  11  22  35  49  70 107 146 178 211 254 317
#     4  10  20  33  52  77 105 140 179 216 262 314
#     4  11  22  35  53  78 105 140 180 218 266 318
#     4   8  22  36  54  80 104 138 186 220 266 308
#
# _framework density 15.850266
#
# number of rings (size 3 to 8) (size 9 to 14) (size 15 to 20)
#    0.414    1.379    1.379    4.345    0.000    5.793 
#    0.000    0.000    0.000    0.414    0.000    0.483 
#    0.000    0.000    0.000    0.000    0.000    0.000 
#
# Total GULP energy -323046.621808 kJ/mol
# GULP energy per Si atom -5569.769342 kJ/mol
# Density = 1.581419 g / cm^3
# Si number density = 15.850266 Si / 1000 Ang^3
#
#
#
# Elastic Constant Matrix: (Units=GPa)
#
#
# Indices 1 2 3 4 5 6 
#
# 1 73.1808 50.1728 68.2766 0.0000 0.0000 0.0000
# 2 50.1728 78.0251 79.3960 0.0000 0.0000 0.0000
# 3 68.2766 79.3960 150.5178 0.0000 0.0000 0.0000
# 4 0.0000 0.0000 0.0000 7.3314 0.0000 0.0000
# 5 0.0000 0.0000 0.0000 0.0000 28.3728 0.0000
# 6 0.0000 0.0000 0.0000 0.0000 0.0000 32.3078
#
#
#
# Elastic Compliance Matrix: (Units=1/GPa)
#
#
# Indices 1 2 3 4 5 6 
#
# 1 0.027275 -0.010683 -0.006737 0.000000 0.000000 0.000000
# 2 -0.010683 0.031851 -0.011955 0.000000 0.000000 0.000000
# 3 -0.006737 -0.011955 0.016006 0.000000 0.000000 0.000000
# 4 0.000000 0.000000 0.000000 0.136399 0.000000 0.000000
# 5 0.000000 0.000000 0.000000 0.000000 0.035245 0.000000
# 6 0.000000 0.000000 0.000000 0.000000 0.000000 0.030952
#
#
# Mechanical properties :
#
#
# Convention : Reuss Voigt Hill
#
# Bulk Modulus (GPa) = 61.04528 77.49051 69.26789
# Shear Modulus (GPa) = 14.62253 20.52762 17.57507
#
# Velocity S-wave (km/s) = 3.04063 3.60265 3.33351
# Velocity P-wave (km/s) = 7.13615 8.14252 7.65589
#
# Compressibility (1/GPa) = 0.01638128
#
# Stress axis : x y z
#
# Youngs Moduli (GPa) = 36.66415 31.39603 62.47800
#
# Poissons Ratio (x) = 0.33542 0.42090
# Poissons Ratio (y) = 0.39170 0.74692
# Poissons Ratio (z) = 0.24700 0.37534
#
# Static dielectric constant tensor:
#      x y z
#    x 1.536470 0.000000 0.000000 
#    y 0.000000 1.502020 0.000000 
#    z 0.000000 0.000000 1.532270 
# 
# From -- ./inp_files/22500.got.cif
#   From: 2010.05.17/outbox.cif.g08.bks.cpg/sg51_12_cif.got.tgz:22500.got - 2010.06.03 11:52:47.
