data_PCOD9401884
_publ_section_title
;
Structure prediction by ZEFSAII (Michael W. Deem and Ramdas Pophale) SiO2 
 PCOD9401884
Probable space group: P M M A
;
_chemical_formula_sum "Si O2"
_cell_formula_units_Z 64
_cell_length_a 18.438229
_cell_length_b 19.895806
_cell_length_c 9.855830
_cell_angle_alpha 90.000000
_cell_angle_beta 90.000000
_cell_angle_gamma 90.000000
_cell_volume 3615.546455
_symmetry_space_group_name_H-M "P M M A"
_symmetry_group_IT_number 51
_symmetry_cell_setting 'orthorhombic'
loop_
_space_group_symop_operation_xyz
x,y,z
1/2-x,-y,z
1/2+x,-y,-z
-x,y,-z
-x,-y,-z
1/2+x,y,-z
1/2-x,y,z
x,-y,z
loop_
_atom_site_type_symbol
_atom_site_label
_atom_site_fract_x
_atom_site_fract_y
_atom_site_fract_z
Si Si1 0.586173 0.828807 0.007136
Si Si2 0.163952 0.193610 0.274056
Si Si3 0.162492 0.422776 0.091050
Si Si4 0.430057 0.310995 0.595804
Si Si5 0.164673 0.920003 0.775397
Si Si6 0.416344 0.154460 0.538447
Si Si7 0.427500 0.323816 0.910683
Si Si8 0.664297 0.651725 0.640981
O O1 0.628849 0.881761 0.098245
O O2 0.595402 0.753790 0.067982
O O3 0.500000 0.842531 0.000000
O O4 0.620196 0.827199 0.858173
O O5 0.250000 0.183843 0.258567
O O6 0.131923 0.155516 0.403336
O O7 0.150616 0.272883 0.302329
O O8 0.250000 0.418027 0.089179
O O9 0.141540 0.500000 0.068809
O O10 0.137728 0.398009 0.240863
O O11 0.130169 0.373972 0.977290
O O12 0.500000 0.318128 0.500000
O O13 0.413785 0.230830 0.597261
O O14 0.439401 0.334342 0.750203
O O15 0.369859 0.349949 0.508193
O O16 0.250000 0.901902 0.761287
O O17 0.118801 0.895267 0.646160
O O18 0.159927 0.000000 0.790911
O O19 0.500000 0.140296 0.500000
O O20 0.500000 0.332549 0.000000
O O21 0.750000 0.642623 0.628294
#
# Coordination Sequence:
#
# PCOD9401884 Si02
#       8
#     8   8   8   8   8   8   8   8
#     4  11  22  37  60  87 114 153 197 247 298 351
#     4  10  19  33  56  84 113 142 189 243 291 342
#     4  10  21  38  59  85 121 161 197 238 292 354
#     4  10  20  34  57  85 114 147 186 244 291 342
#     4  11  24  41  58  83 121 159 195 242 302 360
#     4  10  20  36  59  85 114 151 192 243 291 351
#     4  11  22  36  60  88 117 154 193 246 297 350
#     4   9  18  33  53  81 111 146 189 235 286 342
#
# _framework density 17.701335
#
# number of rings (size 3 to 8) (size 9 to 14) (size 15 to 20)
#    0.000    1.750    2.500    2.250    7.000    2.250 
#    0.000    1.250    0.000    5.250    0.000    0.000 
#    0.000    0.000    0.000    0.000    0.000    0.000 
#
# Total GULP energy -357212.575344 kJ/mol
# GULP energy per Si atom -5581.446490 kJ/mol
# Density = 1.766105 g / cm^3
# Si number density = 17.701335 Si / 1000 Ang^3
#
#
#
# Elastic Constant Matrix: (Units=GPa)
#
#
# Indices 1 2 3 4 5 6 
#
# 1 77.3657 42.9172 53.6373 0.0000 0.0000 0.0000
# 2 42.9172 59.9146 39.7106 0.0000 0.0000 0.0000
# 3 53.6373 39.7106 166.3136 0.0000 0.0000 0.0000
# 4 0.0000 0.0000 0.0000 -131.4804 0.0000 0.0000
# 5 0.0000 0.0000 0.0000 0.0000 30.0146 0.0000
# 6 0.0000 0.0000 0.0000 0.0000 0.0000 21.6630
#
#
#
# Elastic Compliance Matrix: (Units=1/GPa)
#
#
# Indices 1 2 3 4 5 6 
#
# 1 0.023758 -0.014185 -0.004275 0.000000 0.000000 0.000000
# 2 -0.014185 0.028297 -0.002182 0.000000 0.000000 0.000000
# 3 -0.004275 -0.002182 0.007913 0.000000 0.000000 0.000000
# 4 0.000000 0.000000 0.000000 -0.007606 0.000000 0.000000
# 5 0.000000 0.000000 0.000000 0.000000 0.033317 0.000000
# 6 0.000000 0.000000 0.000000 0.000000 0.000000 0.046162
#
#
# Mechanical properties :
#
#
# Convention : Reuss Voigt Hill
#
# Bulk Modulus (GPa) = 53.52089 64.01377 58.76733
# Shear Modulus (GPa) = 27.87805 -4.80530 11.53638
#
# Velocity S-wave (km/s) = 3.97282 -1.64941 2.55566
# Velocity P-wave (km/s) = 7.16558 5.71090 6.47919
#
# Compressibility (1/GPa) = 0.01868429
#
# Stress axis : x y z
#
# Youngs Moduli (GPa) = 42.09048 35.33948 126.38178
#
# Poissons Ratio (x) = 0.50127 0.54033
# Poissons Ratio (y) = 0.59703 0.27574
# Poissons Ratio (z) = 0.17995 0.07710
#
# Static dielectric constant tensor:
#      x y z
#    x 1.628030 0.000000 0.000000 
#    y 0.000000 1.589650 0.000000 
#    z 0.000000 0.000000 1.605210 
# 
# From -- ./inp_files/10035.got.cif
#   From: 2010.05.17/outbox.cif.g08.bks.cpg/sg51_6_cif.got.tgz:10035.got - 2010.06.03 11:52:47.
