data_PCOD9401575
_publ_section_title
;
Structure prediction by ZEFSAII (Michael W. Deem and Ramdas Pophale) SiO2 
 PCOD9401575
Probable space group: P M M A
;
_chemical_formula_sum "Si O2"
_cell_formula_units_Z 64
_cell_length_a 13.862933
_cell_length_b 16.405526
_cell_length_c 14.502571
_cell_angle_alpha 90.000000
_cell_angle_beta 90.000000
_cell_angle_gamma 90.000000
_cell_volume 3298.300982
_symmetry_space_group_name_H-M "P M M A"
_symmetry_group_IT_number 51
_symmetry_cell_setting 'orthorhombic'
loop_
_space_group_symop_operation_xyz
x,y,z
1/2-x,-y,z
1/2+x,-y,-z
-x,y,-z
-x,-y,-z
1/2+x,y,-z
1/2-x,y,z
x,-y,z
loop_
_atom_site_type_symbol
_atom_site_label
_atom_site_fract_x
_atom_site_fract_y
_atom_site_fract_z
Si Si1 0.367065 0.908276 0.982693
Si Si2 0.635020 0.196132 0.559211
Si Si3 0.473365 0.590504 0.608663
Si Si4 0.636275 0.661895 0.714494
Si Si5 0.366936 0.217283 0.134196
Si Si6 0.632953 0.091747 0.231392
Si Si7 0.633351 0.755668 0.357434
Si Si8 0.132926 0.911444 0.289226
O O1 0.250000 0.908042 0.986103
O O2 0.397756 0.828490 0.040642
O O3 0.394409 0.000000 0.017285
O O4 0.395796 0.902265 0.875858
O O5 0.750000 0.185850 0.545923
O O6 0.625531 0.267302 0.635671
O O7 0.598908 0.216191 0.458646
O O8 0.597924 0.116411 0.610895
O O9 0.500000 0.604110 0.500000
O O10 0.428883 0.500000 0.613532
O O11 0.569071 0.593268 0.671758
O O12 0.409599 0.664700 0.648778
O O13 0.750000 0.642079 0.719058
O O14 0.603902 0.698592 0.814113
O O15 0.250000 0.223605 0.129551
O O16 0.393350 0.150862 0.210742
O O17 0.750000 0.093721 0.233259
O O18 0.602561 0.172411 0.287590
O O19 0.607634 0.000000 0.265743
O O20 0.750000 0.750046 0.353824
O O21 0.250000 0.910405 0.292084
O O22 0.101292 0.000000 0.263259
#
# Coordination Sequence:
#
# PCOD9401575 Si02
#       8
#     8   8   8   8   8   8   8   8
#     4   8  12  20  38  70 107 134 168 218 254 289
#     4   8  14  24  39  59  87 123 158 195 238 281
#     4  11  23  36  54  78 100 131 171 210 263 320
#     4   9  17  32  50  72 101 129 160 202 254 315
#     4   8  13  21  39  65  95 131 163 197 250 301
#     4   8  15  27  46  74 105 140 181 216 250 294
#     4  10  19  33  52  73 103 140 173 213 255 295
#     4   8  12  17  28  53  87 121 159 196 232 283
#
# _framework density 19.403929000000002
#
# number of rings (size 3 to 8) (size 9 to 14) (size 15 to 20)
#    0.000    3.250    1.250    2.625    0.000    2.500 
#    0.000    3.750    0.000    4.875    0.000    3.500 
#    0.000    5.000    0.000    0.000    0.000    0.000 
#
# Total GULP energy -356287.911956 kJ/mol
# GULP energy per Si atom -5566.998624 kJ/mol
# Density = 1.935976 g / cm^3
# Si number density = 19.403929 Si / 1000 Ang^3
#
#
#
# Elastic Constant Matrix: (Units=GPa)
#
#
# Indices 1 2 3 4 5 6 
#
# 1 72.6429 23.0852 18.2181 0.0000 0.0000 0.0000
# 2 23.0852 106.2022 48.9526 0.0000 0.0000 0.0000
# 3 18.2181 48.9526 78.7335 0.0000 0.0000 0.0000
# 4 0.0000 0.0000 0.0000 2.3577 0.0000 0.0000
# 5 0.0000 0.0000 0.0000 0.0000 13.5211 0.0000
# 6 0.0000 0.0000 0.0000 0.0000 0.0000 34.7328
#
#
#
# Elastic Compliance Matrix: (Units=1/GPa)
#
#
# Indices 1 2 3 4 5 6 
#
# 1 0.015014 -0.002330 -0.002025 0.000000 0.000000 0.000000
# 2 -0.002330 0.013560 -0.007892 0.000000 0.000000 0.000000
# 3 -0.002025 -0.007892 0.018077 0.000000 0.000000 0.000000
# 4 0.000000 0.000000 0.000000 0.424137 0.000000 0.000000
# 5 0.000000 0.000000 0.000000 0.000000 0.073959 0.000000
# 6 0.000000 0.000000 0.000000 0.000000 0.000000 0.028791
#
#
# Mechanical properties :
#
#
# Convention : Reuss Voigt Hill
#
# Bulk Modulus (GPa) = 45.13394 48.67672 46.90533
# Shear Modulus (GPa) = 8.25876 21.27717 14.76796
#
# Velocity S-wave (km/s) = 2.06530 3.31500 2.76176
# Velocity P-wave (km/s) = 5.38498 6.30815 5.86476
#
# Compressibility (1/GPa) = 0.02215627
#
# Stress axis : x y z
#
# Youngs Moduli (GPa) = 66.60268 73.74549 55.32040
#
# Poissons Ratio (x) = 0.17183 0.11205
# Poissons Ratio (y) = 0.15519 0.43658
# Poissons Ratio (z) = 0.13490 0.58199
#
# Static dielectric constant tensor:
#      x y z
#    x 1.774330 0.000000 0.000000 
#    y 0.000000 1.698440 0.000000 
#    z 0.000000 0.000000 1.684170 
# 
# From -- ./inp_files/25314.got.cif
#   From: 2010.05.17/outbox.cif.g08.bks.cpg/sg51_13_cif.got.tgz:25314.got - 2010.06.03 11:52:47.
