data_PCOD9401162
_publ_section_title
;
Structure prediction by ZEFSAII (Michael W. Deem and Ramdas Pophale) SiO2 
 PCOD9401162
Probable space group: P M M A
;
_chemical_formula_sum "Si O2"
_cell_formula_units_Z 64
_cell_length_a 20.159455
_cell_length_b 8.772765
_cell_length_c 20.066689
_cell_angle_alpha 90.000000
_cell_angle_beta 90.000000
_cell_angle_gamma 90.000000
_cell_volume 3548.877452
_symmetry_space_group_name_H-M "P M M A"
_symmetry_group_IT_number 51
_symmetry_cell_setting 'orthorhombic'
loop_
_space_group_symop_operation_xyz
x,y,z
1/2-x,-y,z
1/2+x,-y,-z
-x,y,-z
-x,-y,-z
1/2+x,y,-z
1/2-x,y,z
x,-y,z
loop_
_atom_site_type_symbol
_atom_site_label
_atom_site_fract_x
_atom_site_fract_y
_atom_site_fract_z
Si Si1 0.444157 0.818076 0.592934
Si Si2 0.673177 0.682547 0.010649
Si Si3 0.085498 0.183140 0.877331
Si Si4 0.672074 0.675725 0.667611
Si Si5 0.562526 0.176470 0.915540
Si Si6 0.083588 0.318933 0.456644
Si Si7 0.427092 0.828426 0.240908
Si Si8 0.562290 0.678527 0.266616
O O1 0.405314 0.757805 0.528109
O O2 0.518142 0.753118 0.577747
O O3 0.417932 0.754689 0.663278
O O4 0.446273 0.000000 0.594078
O O5 0.750000 0.728184 0.996317
O O6 0.671889 0.500000 0.015660
O O7 0.645918 0.755692 0.078917
O O8 0.617872 0.734392 0.956879
O O9 0.087947 0.246313 0.802015
O O10 0.014817 0.229831 0.912591
O O11 0.084269 0.000000 0.874894
O O12 0.750000 0.690603 0.668333
O O13 0.654687 0.500000 0.685240
O O14 0.642914 0.704504 0.594590
O O15 0.638062 0.788647 0.719097
O O16 0.582672 0.179560 0.837960
O O17 0.562539 0.000000 0.938953
O O18 0.072847 0.500000 0.465259
O O19 0.483394 0.709861 0.261978
O O20 0.451307 0.000000 0.256540
O O21 0.576805 0.500000 0.267371
#
# Coordination Sequence:
#
# PCOD9401162 Si02
#       8
#     8   8   8   8   8   8   8   8
#     4  11  20  31  51  78 108 136 171 223 273 319
#     4  11  24  39  56  82 114 148 188 231 276 333
#     4  10  21  38  60  86 113 144 184 232 283 337
#     4  10  21  35  51  72 104 146 185 221 264 319
#     4   9  20  37  57  82 111 144 184 231 280 331
#     4  10  19  32  50  74 104 139 180 221 269 322
#     4  10  20  34  52  77 108 140 179 224 268 318
#     4  11  20  33  55  82 111 140 172 219 275 330
#
# _framework density 18.033871000000001
#
# number of rings (size 3 to 8) (size 9 to 14) (size 15 to 20)
#    0.000    1.750    1.250    5.625    0.000    6.750 
#    0.000    2.500    0.000    0.750    0.000    1.750 
#    0.000    0.000    0.000    0.000    0.000    0.000 
#
# Total GULP energy -357149.977011 kJ/mol
# GULP energy per Si atom -5580.468391 kJ/mol
# Density = 1.799283 g / cm^3
# Si number density = 18.033871 Si / 1000 Ang^3
#
#
#
# Elastic Constant Matrix: (Units=GPa)
#
#
# Indices 1 2 3 4 5 6 
#
# 1 42.6946 21.5456 29.3073 0.0000 0.0000 0.0000
# 2 21.5456 91.4919 37.5014 0.0000 0.0000 0.0000
# 3 29.3073 37.5014 78.3747 0.0000 0.0000 0.0000
# 4 0.0000 0.0000 0.0000 34.4802 0.0000 0.0000
# 5 0.0000 0.0000 0.0000 0.0000 15.7672 0.0000
# 6 0.0000 0.0000 0.0000 0.0000 0.0000 11.9651
#
#
#
# Elastic Compliance Matrix: (Units=1/GPa)
#
#
# Indices 1 2 3 4 5 6 
#
# 1 0.032293 -0.003303 -0.010495 0.000000 0.000000 0.000000
# 2 -0.003303 0.013934 -0.005432 0.000000 0.000000 0.000000
# 3 -0.010495 -0.005432 0.019283 0.000000 0.000000 0.000000
# 4 0.000000 0.000000 0.000000 0.029002 0.000000 0.000000
# 5 0.000000 0.000000 0.000000 0.000000 0.063423 0.000000
# 6 0.000000 0.000000 0.000000 0.000000 0.000000 0.083576
#
#
# Mechanical properties :
#
#
# Convention : Reuss Voigt Hill
#
# Bulk Modulus (GPa) = 36.96895 43.25219 40.11057
# Shear Modulus (GPa) = 17.30165 20.72298 19.01232
#
# Velocity S-wave (km/s) = 3.10077 3.39354 3.25045
# Velocity P-wave (km/s) = 5.77616 6.27620 6.03136
#
# Compressibility (1/GPa) = 0.02704972
#
# Stress axis : x y z
#
# Youngs Moduli (GPa) = 30.96605 71.76483 51.85879
#
# Poissons Ratio (x) = 0.23704 0.54427
# Poissons Ratio (y) = 0.10228 0.28171
# Poissons Ratio (z) = 0.32500 0.38985
#
# Static dielectric constant tensor:
#      x y z
#    x 1.609400 0.000000 0.000000 
#    y 0.000000 1.622190 0.000000 
#    z 0.000000 0.000000 1.639180 
# 
# From -- ./inp_files/34160.got.cif
#   From: 2010.05.17/outbox.cif.g08.bks.cpg/sg51_18_cif.got.tgz:34160.got - 2010.06.03 11:52:47.
