data_PCOD9401546
_publ_section_title
;
Structure prediction by ZEFSAII (Michael W. Deem and Ramdas Pophale) SiO2 
 PCOD9401546
Probable space group: P M M A
;
_chemical_formula_sum "Si O2"
_cell_formula_units_Z 64
_cell_length_a 8.093353
_cell_length_b 18.097783
_cell_length_c 21.601056
_cell_angle_alpha 90.000000
_cell_angle_beta 90.000000
_cell_angle_gamma 90.000000
_cell_volume 3163.944395
_symmetry_space_group_name_H-M "P M M A"
_symmetry_group_IT_number 51
_symmetry_cell_setting 'orthorhombic'
loop_
_space_group_symop_operation_xyz
x,y,z
1/2-x,-y,z
1/2+x,-y,-z
-x,y,-z
-x,-y,-z
1/2+x,y,-z
1/2-x,y,z
x,-y,z
loop_
_atom_site_type_symbol
_atom_site_label
_atom_site_fract_x
_atom_site_fract_y
_atom_site_fract_z
Si Si1 0.950735 0.078113 0.856136
Si Si2 0.447870 0.419146 0.207023
Si Si3 0.049290 0.710716 0.298479
Si Si4 0.051199 0.784302 0.066984
Si Si5 0.555422 0.752968 0.566721
Si Si6 0.551841 0.880633 0.719995
Si Si7 0.941445 0.080671 0.411974
Si Si8 0.059030 0.616377 0.930570
O O1 0.750000 0.079535 0.861933
O O2 0.988346 0.081212 0.783940
O O3 0.008381 0.153977 0.885827
O O4 0.009396 0.000000 0.883136
O O5 0.250000 0.418502 0.214166
O O6 0.511128 0.500000 0.226656
O O7 0.511514 0.352550 0.251105
O O8 0.479184 0.411534 0.133284
O O9 0.250000 0.703912 0.300439
O O10 0.987917 0.714574 0.370248
O O11 0.015369 0.793312 0.274053
O O12 0.750000 0.773999 0.928391
O O13 0.969061 0.704595 0.073154
O O14 0.000000 0.813073 0.000000
O O15 0.500000 0.723913 0.500000
O O16 0.750000 0.744633 0.570079
O O17 0.519662 0.841354 0.568158
O O18 0.750000 0.887651 0.708170
O O19 0.458189 0.914144 0.662085
O O20 0.750000 0.082564 0.430737
O O21 0.012147 0.000000 0.430562
O O22 0.250000 0.597398 0.927529
O O23 0.000000 0.593848 0.000000
#
# Coordination Sequence:
#
# PCOD9401546 Si02
#       8
#     8   8   8   8   8   8   8   8
#     4   9  17  28  45  69  95 127 168 215 266 316
#     4  10  20  36  60  87 113 141 173 210 254 307
#     4   8  16  32  54  80 106 135 172 212 255 305
#     4  10  19  33  51  69  93 126 169 216 259 309
#     4  10  20  35  55  77 103 137 179 222 261 307
#     4   9  16  29  50  70  92 127 171 212 248 298
#     4  10  20  32  46  69 103 137 169 211 262 311
#     4  11  22  37  57  80 109 143 179 217 258 309
#
# _framework density 20.227917000000001
#
# number of rings (size 3 to 8) (size 9 to 14) (size 15 to 20)
#    0.000    2.375    0.000    4.875    0.000    4.500 
#    0.000    6.875    0.000    3.000    0.000    0.000 
#    0.000    0.000    0.000    0.000    0.000    0.500 
#
# Total GULP energy -356774.320179 kJ/mol
# GULP energy per Si atom -5574.598753 kJ/mol
# Density = 2.018188 g / cm^3
# Si number density = 20.227917 Si / 1000 Ang^3
#
#
#
# Elastic Constant Matrix: (Units=GPa)
#
#
# Indices 1 2 3 4 5 6 
#
# 1 17.1378 6.0221 0.4460 0.0000 0.0000 0.0000
# 2 6.0221 102.4325 63.8229 0.0000 0.0000 0.0000
# 3 0.4460 63.8229 104.9391 0.0000 0.0000 0.0000
# 4 0.0000 0.0000 0.0000 7.3988 0.0000 0.0000
# 5 0.0000 0.0000 0.0000 0.0000 26.2685 0.0000
# 6 0.0000 0.0000 0.0000 0.0000 0.0000 3.0862
#
#
#
# Elastic Compliance Matrix: (Units=1/GPa)
#
#
# Indices 1 2 3 4 5 6 
#
# 1 0.060183 -0.005440 0.003053 0.000000 0.000000 0.000000
# 2 -0.005440 0.016211 -0.009836 0.000000 0.000000 0.000000
# 3 0.003053 -0.009836 0.015499 0.000000 0.000000 0.000000
# 4 0.000000 0.000000 0.000000 0.135157 0.000000 0.000000
# 5 0.000000 0.000000 0.000000 0.000000 0.038068 0.000000
# 6 0.000000 0.000000 0.000000 0.000000 0.000000 0.324026
#
#
# Mechanical properties :
#
#
# Convention : Reuss Voigt Hill
#
# Bulk Modulus (GPa) = 14.82687 40.56570 27.69629
# Shear Modulus (GPa) = 7.86074 17.63193 12.74634
#
# Velocity S-wave (km/s) = 1.97345 2.95560 2.51297
# Velocity P-wave (km/s) = 3.54098 5.63429 4.70552
#
# Compressibility (1/GPa) = 0.06744511
#
# Stress axis : x y z
#
# Youngs Moduli (GPa) = 16.61607 61.68609 64.52150
#
# Poissons Ratio (x) = 0.33560 -0.19699
# Poissons Ratio (y) = 0.09040 0.63465
# Poissons Ratio (z) = -0.05073 0.60676
#
# Static dielectric constant tensor:
#      x y z
#    x 1.730380 0.000000 0.000000 
#    y 0.000000 1.742790 0.000000 
#    z 0.000000 0.000000 1.749650 
# 
# From -- ./inp_files/32430.got.cif
#   From: 2010.05.17/outbox.cif.g08.bks.cpg/sg51_17_cif.got.tgz:32430.got - 2010.06.03 11:52:47.
