data_PCOD9401285
_publ_section_title
;
Structure prediction by ZEFSAII (Michael W. Deem and Ramdas Pophale) SiO2 
 PCOD9401285
Probable space group: P M M A
;
_chemical_formula_sum "Si O2"
_cell_formula_units_Z 48
_cell_length_a 9.443836
_cell_length_b 14.200023
_cell_length_c 20.240497
_cell_angle_alpha 90.000000
_cell_angle_beta 90.000000
_cell_angle_gamma 90.000000
_cell_volume 2714.305062
_symmetry_space_group_name_H-M "P M M A"
_symmetry_group_IT_number 51
_symmetry_cell_setting 'orthorhombic'
loop_
_space_group_symop_operation_xyz
x,y,z
1/2-x,-y,z
1/2+x,-y,-z
-x,y,-z
-x,-y,-z
1/2+x,y,-z
1/2-x,y,z
x,-y,z
loop_
_atom_site_type_symbol
_atom_site_label
_atom_site_fract_x
_atom_site_fract_y
_atom_site_fract_z
Si Si1 0.420209 0.215862 0.699241
Si Si2 0.921862 0.392205 0.212923
Si Si3 0.581196 0.108561 0.431710
Si Si4 0.414201 0.614183 0.935182
Si Si5 0.087913 0.885685 0.936083
Si Si6 0.588906 0.886979 0.809385
O O1 0.250000 0.204459 0.707430
O O2 0.458485 0.318464 0.729287
O O3 0.453629 0.185415 0.624380
O O4 0.505278 0.144323 0.745089
O O5 0.750000 0.394273 0.209606
O O6 0.969228 0.500000 0.224969
O O7 0.967881 0.361040 0.138837
O O8 0.500000 0.124761 0.500000
O O9 0.750000 0.112674 0.443016
O O10 0.549328 0.000000 0.409742
O O11 0.250000 0.642182 0.941365
O O12 0.416977 0.500000 0.935119
O O13 0.500000 0.645083 0.000000
O O14 0.250000 0.854049 0.936331
O O15 0.002969 0.855124 0.871828
O O16 0.091475 0.000000 0.935839
O O17 0.000000 0.857535 0.000000
O O18 0.750000 0.851309 0.811077
O O19 0.595103 0.000000 0.812185
#
# Coordination Sequence:
#
# PCOD9401285 Si02
#       6
#     8   8   8   8   8   8
#     4  10  19  32  52  75  98 126 162 203 244 289
#     4   8  15  29  49  72  97 127 165 207 250 295
#     4   9  18  32  51  76 103 129 158 193 237 292
#     4   8  13  23  41  64  89 118 154 197 243 288
#     4   9  16  27  44  64  88 122 164 207 248 291
#     4  10  20  32  46  67  96 128 161 199 246 298
#
# _framework density 17.684083999999999
#
# number of rings (size 3 to 8) (size 9 to 14) (size 15 to 20)
#    0.000    3.000    0.000    2.500    0.000    4.333 
#    0.000    3.333    0.000    4.000    0.000    0.000 
#    0.000    0.000    0.000    0.000    0.000    0.000 
#
# Total GULP energy -267493.657398 kJ/mol
# GULP energy per Si atom -5572.784529 kJ/mol
# Density = 1.764383 g / cm^3
# Si number density = 17.684084 Si / 1000 Ang^3
#
#
#
# Elastic Constant Matrix: (Units=GPa)
#
#
# Indices 1 2 3 4 5 6 
#
# 1 59.1315 26.3582 55.2501 0.0000 0.0000 0.0000
# 2 26.3582 98.6758 57.4236 0.0000 0.0000 0.0000
# 3 55.2501 57.4236 149.7565 0.0000 0.0000 0.0000
# 4 0.0000 0.0000 0.0000 40.7318 0.0000 0.0000
# 5 0.0000 0.0000 0.0000 0.0000 28.7584 0.0000
# 6 0.0000 0.0000 0.0000 0.0000 0.0000 -8.5128
#
#
#
# Elastic Compliance Matrix: (Units=1/GPa)
#
#
# Indices 1 2 3 4 5 6 
#
# 1 0.026042 -0.001757 -0.008934 0.000000 0.000000 0.000000
# 2 -0.001757 0.013164 -0.004399 0.000000 0.000000 0.000000
# 3 -0.008934 -0.004399 0.011660 0.000000 0.000000 0.000000
# 4 0.000000 0.000000 0.000000 0.024551 0.000000 0.000000
# 5 0.000000 0.000000 0.000000 0.000000 0.034772 0.000000
# 6 0.000000 0.000000 0.000000 0.000000 0.000000 -0.117471
#
#
# Mechanical properties :
#
#
# Convention : Reuss Voigt Hill
#
# Bulk Modulus (GPa) = 48.34347 65.06975 56.70661
# Shear Modulus (GPa) = 167.81037 23.43095 95.62066
#
# Velocity S-wave (km/s) = 9.75190 3.64397 7.36132
# Velocity P-wave (km/s) = 12.41756 7.38784 10.21705
#
# Compressibility (1/GPa) = 0.02068532
#
# Stress axis : x y z
#
# Youngs Moduli (GPa) = 38.39884 75.96645 85.75999
#
# Poissons Ratio (x) = 0.13350 0.76619
# Poissons Ratio (y) = 0.06748 0.37728
# Poissons Ratio (z) = 0.34306 0.33419
#
# Static dielectric constant tensor:
#      x y z
#    x 1.579130 0.000000 0.000000 
#    y 0.000000 1.666800 0.000000 
#    z 0.000000 0.000000 1.614050 
# 
# From -- ./inp_files/27536.got.cif
#   From: 2010.05.17/outbox.cif.g08.bks.cpg/sg51_14_cif.got.tgz:27536.got - 2010.06.03 11:52:47.
