data_PCOD9401540
_publ_section_title
;
Structure prediction by ZEFSAII (Michael W. Deem and Ramdas Pophale) SiO2 
 PCOD9401540
Probable space group: P M M A
;
_chemical_formula_sum "Si O2"
_cell_formula_units_Z 64
_cell_length_a 24.638589
_cell_length_b 17.738323
_cell_length_c 8.464884
_cell_angle_alpha 90.000000
_cell_angle_beta 90.000000
_cell_angle_gamma 90.000000
_cell_volume 3699.554273
_symmetry_space_group_name_H-M "P M M A"
_symmetry_group_IT_number 51
_symmetry_cell_setting 'orthorhombic'
loop_
_space_group_symop_operation_xyz
x,y,z
1/2-x,-y,z
1/2+x,-y,-z
-x,y,-z
-x,-y,-z
1/2+x,y,-z
1/2-x,y,z
x,-y,z
loop_
_atom_site_type_symbol
_atom_site_label
_atom_site_fract_x
_atom_site_fract_y
_atom_site_fract_z
Si Si1 0.814890 0.827659 0.203352
Si Si2 0.386570 0.669849 0.181293
Si Si3 0.315977 0.820171 0.158952
Si Si4 0.912024 0.585396 0.117681
Si Si5 0.186296 0.582880 0.383018
Si Si6 0.685937 0.345705 0.294161
Si Si7 0.815807 0.086768 0.521017
Si Si8 0.979829 0.585080 0.677092
O O1 0.750000 0.837682 0.207261
O O2 0.824801 0.738750 0.233391
O O3 0.835762 0.872252 0.359127
O O4 0.829689 0.848039 0.020966
O O5 0.353225 0.746637 0.184651
O O6 0.342875 0.605865 0.224325
O O7 0.435822 0.650463 0.298435
O O8 0.411275 0.649423 0.013648
O O9 0.250000 0.804135 0.160668
O O10 0.327752 0.873469 0.310191
O O11 0.912581 0.500000 0.054964
O O12 0.856776 0.598660 0.214477
O O13 0.966772 0.594287 0.217165
O O14 0.250000 0.581290 0.356827
O O15 0.168964 0.500000 0.439767
O O16 0.176396 0.644754 0.518465
O O17 0.750000 0.363118 0.265706
O O18 0.750000 0.087430 0.512631
O O19 0.833862 0.000000 0.522358
O O20 0.957524 0.500000 0.708555
O O21 0.000000 0.585960 0.500000
#
# Coordination Sequence:
#
# PCOD9401540 Si02
#       8
#     8   8   8   8   8   8   8   8
#     4   9  17  31  49  72 105 142 177 215 264 318
#     4  12  21  34  52  71 101 137 174 224 279 334
#     4  10  20  34  53  81 115 148 182 223 273 327
#     4  11  22  34  51  74 101 136 179 230 277 320
#     4  10  20  31  45  67  95 132 178 223 267 316
#     4  10  19  33  50  71 102 139 178 221 269 324
#     4   9  18  32  52  79 111 149 187 218 257 322
#     4  10  22  39  55  71  95 134 184 235 287 331
#
# _framework density 17.299382000000001
#
# number of rings (size 3 to 8) (size 9 to 14) (size 15 to 20)
#    0.000    1.875    1.250    3.750    0.000    5.750 
#    0.000    2.500    0.000    0.000    0.000    0.000 
#    0.000    6.500    0.000    0.000    0.000    0.000 
#
# Total GULP energy -356385.665370 kJ/mol
# GULP energy per Si atom -5568.526021 kJ/mol
# Density = 1.726001 g / cm^3
# Si number density = 17.299382 Si / 1000 Ang^3
#
#
#
# Elastic Constant Matrix: (Units=GPa)
#
#
# Indices 1 2 3 4 5 6 
#
# 1 39.8132 34.4390 30.3515 0.0000 0.0000 0.0000
# 2 34.4390 78.0428 53.3123 0.0000 0.0000 0.0000
# 3 30.3515 53.3123 113.6952 0.0000 0.0000 0.0000
# 4 0.0000 0.0000 0.0000 19.3261 0.0000 0.0000
# 5 0.0000 0.0000 0.0000 0.0000 24.8228 0.0000
# 6 0.0000 0.0000 0.0000 0.0000 0.0000 7.9279
#
#
#
# Elastic Compliance Matrix: (Units=1/GPa)
#
#
# Indices 1 2 3 4 5 6 
#
# 1 0.041644 -0.015864 -0.003678 0.000000 0.000000 0.000000
# 2 -0.015864 0.024896 -0.007439 0.000000 0.000000 0.000000
# 3 -0.003678 -0.007439 0.013265 0.000000 0.000000 0.000000
# 4 0.000000 0.000000 0.000000 0.051744 0.000000 0.000000
# 5 0.000000 0.000000 0.000000 0.000000 0.040286 0.000000
# 6 0.000000 0.000000 0.000000 0.000000 0.000000 0.126137
#
#
# Mechanical properties :
#
#
# Convention : Reuss Voigt Hill
#
# Bulk Modulus (GPa) = 38.69541 51.97299 45.33420
# Shear Modulus (GPa) = 13.86779 17.97858 15.92318
#
# Velocity S-wave (km/s) = 2.83439 3.22725 3.03718
# Velocity P-wave (km/s) = 5.75572 6.63290 6.20982
#
# Compressibility (1/GPa) = 0.02584286
#
# Stress axis : x y z
#
# Youngs Moduli (GPa) = 24.01299 40.16786 75.38399
#
# Poissons Ratio (x) = 0.63723 0.27729
# Poissons Ratio (y) = 0.38095 0.56075
# Poissons Ratio (z) = 0.08833 0.29879
#
# Static dielectric constant tensor:
#      x y z
#    x 1.577720 0.000000 0.000000 
#    y 0.000000 1.584790 0.000000 
#    z 0.000000 0.000000 1.654180 
# 
# From -- ./inp_files/11869.got.cif
#   From: 2010.05.17/outbox.cif.g08.bks.cpg/sg51_6_cif.got.tgz:11869.got - 2010.06.03 11:52:47.
