data_PCOD9401820
_publ_section_title
;
Structure prediction by ZEFSAII (Michael W. Deem and Ramdas Pophale) SiO2 
 PCOD9401820
Probable space group: P M M A
;
_chemical_formula_sum "Si O2"
_cell_formula_units_Z 64
_cell_length_a 18.398392
_cell_length_b 8.584446
_cell_length_c 22.258745
_cell_angle_alpha 90.000000
_cell_angle_beta 90.000000
_cell_angle_gamma 90.000000
_cell_volume 3515.546243
_symmetry_space_group_name_H-M "P M M A"
_symmetry_group_IT_number 51
_symmetry_cell_setting 'orthorhombic'
loop_
_space_group_symop_operation_xyz
x,y,z
1/2-x,-y,z
1/2+x,-y,-z
-x,y,-z
-x,-y,-z
1/2+x,y,-z
1/2-x,y,z
x,-y,z
loop_
_atom_site_type_symbol
_atom_site_label
_atom_site_fract_x
_atom_site_fract_y
_atom_site_fract_z
Si Si1 0.910592 0.686129 0.623888
Si Si2 0.952019 0.686769 0.189010
Si Si3 0.833649 0.188046 0.272970
Si Si4 0.165849 0.688258 0.499776
Si Si5 0.976817 0.310229 0.934431
Si Si6 0.169412 0.311802 0.129179
Si Si7 0.401790 0.814886 0.246962
Si Si8 0.926821 0.186641 0.389834
O O1 0.908333 0.500000 0.629273
O O2 0.863071 0.732283 0.566191
O O3 0.884046 0.758728 0.686297
O O4 0.993635 0.738772 0.613458
O O5 0.955010 0.500000 0.192404
O O6 0.876996 0.747107 0.215942
O O7 0.969804 0.733755 0.120379
O O8 0.017713 0.754037 0.229328
O O9 0.750000 0.239381 0.275763
O O10 0.878243 0.235687 0.332486
O O11 0.834612 0.000000 0.270830
O O12 0.250000 0.733075 0.507938
O O13 0.160894 0.500000 0.504614
O O14 0.115260 0.762852 0.550377
O O15 0.976487 0.500000 0.936280
O O16 0.896165 0.259951 0.914051
O O17 0.000000 0.253949 0.000000
O O18 0.250000 0.261611 0.110845
O O19 0.167623 0.500000 0.130388
O O20 0.150610 0.252887 0.195788
O O21 0.401679 0.000000 0.244370
O O22 0.934685 0.000000 0.387998
#
# Coordination Sequence:
#
# PCOD9401820 Si02
#       8
#     8   8   8   8   8   8   8   8
#     4  11  22  37  58  82 107 141 184 227 273 330
#     4  10  19  33  55  81 108 141 181 222 266 320
#     4  10  21  36  54  78 110 146 180 221 275 325
#     4  10  23  41  57  76 106 143 181 225 276 327
#     4   8  15  30  53  81 111 143 182 229 274 318
#     4   9  18  33  54  80 110 147 189 230 275 326
#     4  11  21  34  54  80 109 142 178 222 277 329
#     4  11  22  37  58  82 107 141 183 226 273 327
#
# _framework density 18.204853
#
# number of rings (size 3 to 8) (size 9 to 14) (size 15 to 20)
#    0.000    2.000    1.250    3.750    0.000    4.750 
#    0.000    1.875    0.000   11.625    0.000    0.000 
#    0.000    0.000    0.000    0.000    0.000    0.000 
#
# Total GULP energy -357355.711146 kJ/mol
# GULP energy per Si atom -5583.682987 kJ/mol
# Density = 1.816342 g / cm^3
# Si number density = 18.204853 Si / 1000 Ang^3
#
#
#
# Elastic Constant Matrix: (Units=GPa)
#
#
# Indices 1 2 3 4 5 6 
#
# 1 52.4688 6.3169 22.7795 0.0000 0.0000 0.0000
# 2 6.3169 14.5578 8.0068 0.0000 0.0000 0.0000
# 3 22.7795 8.0068 116.0629 0.0000 0.0000 0.0000
# 4 0.0000 0.0000 0.0000 -12.2699 0.0000 0.0000
# 5 0.0000 0.0000 0.0000 0.0000 15.7484 0.0000
# 6 0.0000 0.0000 0.0000 0.0000 0.0000 15.4827
#
#
#
# Elastic Compliance Matrix: (Units=1/GPa)
#
#
# Indices 1 2 3 4 5 6 
#
# 1 0.021556 -0.007304 -0.003727 0.000000 0.000000 0.000000
# 2 -0.007304 0.073875 -0.003663 0.000000 0.000000 0.000000
# 3 -0.003727 -0.003663 0.009600 0.000000 0.000000 0.000000
# 4 0.000000 0.000000 0.000000 -0.081500 0.000000 0.000000
# 5 0.000000 0.000000 0.000000 0.000000 0.063499 0.000000
# 6 0.000000 0.000000 0.000000 0.000000 0.000000 0.064588
#
#
# Mechanical properties :
#
#
# Convention : Reuss Voigt Hill
#
# Bulk Modulus (GPa) = 13.21975 28.58845 20.90410
# Shear Modulus (GPa) = 24.24587 13.52466 18.88527
#
# Velocity S-wave (km/s) = 3.65339 2.72860 3.22433
# Velocity P-wave (km/s) = 5.00737 5.06605 5.03680
#
# Compressibility (1/GPa) = 0.07564440
#
# Stress axis : x y z
#
# Youngs Moduli (GPa) = 46.39003 13.53631 104.16453
#
# Poissons Ratio (x) = 0.09887 0.38822
# Poissons Ratio (y) = 0.33883 0.38154
# Poissons Ratio (z) = 0.17289 0.04958
#
# Static dielectric constant tensor:
#      x y z
#    x 1.615780 0.000000 0.000000 
#    y 0.000000 1.613880 0.000000 
#    z 0.000000 0.000000 1.613840 
# 
# From -- ./inp_files/33823.got.cif
#   From: 2010.05.17/outbox.cif.g08.bks.cpg/sg51_17_cif.got.tgz:33823.got - 2010.06.03 11:52:47.
