data_PCOD9401053
_publ_section_title
;
Structure prediction by ZEFSAII (Michael W. Deem and Ramdas Pophale) SiO2 
 PCOD9401053
Probable space group: P M M A
;
_chemical_formula_sum "Si O2"
_cell_formula_units_Z 64
_cell_length_a 8.606660
_cell_length_b 32.072370
_cell_length_c 14.791930
_cell_angle_alpha 90.000000
_cell_angle_beta 90.000000
_cell_angle_gamma 90.000000
_cell_volume 4083.104953
_symmetry_space_group_name_H-M "P M M A"
_symmetry_group_IT_number 51
_symmetry_cell_setting 'orthorhombic'
loop_
_space_group_symop_operation_xyz
x,y,z
1/2-x,-y,z
1/2+x,-y,-z
-x,y,-z
-x,-y,-z
1/2+x,y,-z
1/2-x,y,z
x,-y,z
loop_
_atom_site_type_symbol
_atom_site_label
_atom_site_fract_x
_atom_site_fract_y
_atom_site_fract_z
Si Si1 0.937684 0.544807 0.102653
Si Si2 0.436050 0.048174 0.900883
Si Si3 0.936042 0.154404 0.403020
Si Si4 0.561965 0.363832 0.102306
Si Si5 0.063140 0.251638 0.596569
Si Si6 0.564012 0.878388 0.781447
Si Si7 0.061614 0.717830 0.790000
Si Si8 0.063388 0.797511 0.101605
O O1 0.750000 0.544740 0.101016
O O2 0.987384 0.500000 0.143782
O O3 0.985961 0.590256 0.138850
O O4 0.000000 0.544641 0.000000
O O5 0.250000 0.050479 0.902630
O O6 0.501315 0.079954 0.827703
O O7 0.481606 0.000000 0.883574
O O8 0.500000 0.059686 0.000000
O O9 0.750000 0.152998 0.403255
O O10 0.984789 0.203081 0.391663
O O11 0.000000 0.140364 0.500000
O O12 0.000731 0.128848 0.318926
O O13 0.750000 0.362960 0.098214
O O14 0.510841 0.325405 0.164275
O O15 0.500000 0.359020 0.000000
O O16 0.250000 0.252496 0.592908
O O17 0.000000 0.266369 0.500000
O O18 0.012343 0.276436 0.685739
O O19 0.750000 0.879244 0.779777
O O20 0.514801 0.838601 0.842442
O O21 0.750000 0.719318 0.207939
O O22 0.999398 0.756676 0.847615
O O23 0.250000 0.796048 0.099328
O O24 0.000000 0.799224 0.000000
#
# Coordination Sequence:
#
# PCOD9401053 Si02
#       8
#     8   8   8   8   8   8   8   8
#     4   8  13  22  36  54  76 105 142 184 226 265
#     4  10  21  37  57  80 105 133 164 199 240 284
#     4  10  19  33  53  75 100 127 158 198 240 283
#     4   9  17  27  40  58  84 117 152 186 222 271
#     4   9  18  31  48  67  88 117 150 191 234 274
#     4  11  22  35  53  77 101 129 164 199 236 280
#     4  10  19  32  46  63  89 121 154 187 230 275
#     4  11  23  34  46  66  94 127 161 193 225 265
#
# _framework density 15.674346999999999
#
# number of rings (size 3 to 8) (size 9 to 14) (size 15 to 20)
#    0.000    2.250    1.250    2.250    0.000    5.750 
#    0.000    0.000    0.000    0.375    0.000    0.000 
#    0.000    0.500    0.000    0.375    0.000    1.000 
#
# Total GULP energy -356829.216230 kJ/mol
# GULP energy per Si atom -5575.456504 kJ/mol
# Density = 1.563867 g / cm^3
# Si number density = 15.674347 Si / 1000 Ang^3
#
#
#
# Elastic Constant Matrix: (Units=GPa)
#
#
# Indices 1 2 3 4 5 6 
#
# 1 19.4505 25.8797 26.4052 0.0000 0.0000 0.0000
# 2 25.8797 114.5576 78.4459 0.0000 0.0000 0.0000
# 3 26.4052 78.4459 136.4430 0.0000 0.0000 0.0000
# 4 0.0000 0.0000 0.0000 5.0573 0.0000 0.0000
# 5 0.0000 0.0000 0.0000 0.0000 25.0902 0.0000
# 6 0.0000 0.0000 0.0000 0.0000 0.0000 13.4115
#
#
#
# Elastic Compliance Matrix: (Units=1/GPa)
#
#
# Indices 1 2 3 4 5 6 
#
# 1 0.078787 -0.012136 -0.008270 0.000000 0.000000 0.000000
# 2 -0.012136 0.016267 -0.007004 0.000000 0.000000 0.000000
# 3 -0.008270 -0.007004 0.012956 0.000000 0.000000 0.000000
# 4 0.000000 0.000000 0.000000 0.197733 0.000000 0.000000
# 5 0.000000 0.000000 0.000000 0.000000 0.039856 0.000000
# 6 0.000000 0.000000 0.000000 0.000000 0.000000 0.074563
#
#
# Mechanical properties :
#
#
# Convention : Reuss Voigt Hill
#
# Bulk Modulus (GPa) = 18.80024 59.10140 38.95082
# Shear Modulus (GPa) = 10.14794 18.02647 14.08721
#
# Velocity S-wave (km/s) = 2.54721 3.39494 3.00116
# Velocity P-wave (km/s) = 4.54658 7.29076 6.07563
#
# Compressibility (1/GPa) = 0.05319080
#
# Stress axis : x y z
#
# Youngs Moduli (GPa) = 12.69251 61.47485 77.18272
#
# Poissons Ratio (x) = 0.74603 0.63830
# Poissons Ratio (y) = 0.15403 0.54057
# Poissons Ratio (z) = 0.10497 0.43056
#
# Static dielectric constant tensor:
#      x y z
#    x 1.528470 0.000000 0.000000 
#    y 0.000000 1.545380 0.000000 
#    z 0.000000 0.000000 1.497970 
# 
# From -- ./inp_files/14817.got.cif
#   From: 2010.05.17/outbox.cif.g08.bks.cpg/sg51_8_cif.got.tgz:14817.got - 2010.06.03 11:52:47.
