data_PCOD9401906
_publ_section_title
;
Structure prediction by ZEFSAII (Michael W. Deem and Ramdas Pophale) SiO2 
 PCOD9401906
Probable space group: P M M A
;
_chemical_formula_sum "Si O2"
_cell_formula_units_Z 32
_cell_length_a 13.832132
_cell_length_b 7.922995
_cell_length_c 13.896280
_cell_angle_alpha 90.000000
_cell_angle_beta 90.000000
_cell_angle_gamma 90.000000
_cell_volume 1522.919904
_symmetry_space_group_name_H-M "P M M A"
_symmetry_group_IT_number 51
_symmetry_cell_setting 'orthorhombic'
loop_
_space_group_symop_operation_xyz
x,y,z
1/2-x,-y,z
1/2+x,-y,-z
-x,y,-z
-x,-y,-z
1/2+x,y,-z
1/2-x,y,z
x,-y,z
loop_
_atom_site_type_symbol
_atom_site_label
_atom_site_fract_x
_atom_site_fract_y
_atom_site_fract_z
Si Si1 0.250000 0.792841 0.167632
Si Si2 0.750000 0.792994 0.612725
Si Si3 0.463356 0.797744 0.102654
Si Si4 0.394831 0.804508 0.544058
Si Si5 0.640632 0.302762 0.239570
O O1 0.250000 0.737123 0.278588
O O2 0.353911 0.736515 0.125123
O O3 0.250000 0.000000 0.163867
O O4 0.663310 0.734511 0.546225
O O5 0.750000 0.000000 0.617592
O O6 0.548045 0.767327 0.181341
O O7 0.454429 0.000000 0.095532
O O8 0.500000 0.730949 0.000000
O O9 0.500000 0.804492 0.500000
O O10 0.378587 0.718375 0.646260
O O11 0.365958 0.000000 0.560776
O O12 0.750000 0.232772 0.218624
O O13 0.643987 0.500000 0.216674
#
# Coordination Sequence:
#
# PCOD9401906 Si02
#       5
#     4   4   8   8   8
#     4   9  18  36  58  89 124 148 191 251 306 363
#     4   9  16  28  50  79 112 148 183 231 290 345
#     4  10  22  39  65  93 118 154 200 257 312 358
#     4  10  19  33  57  86 114 152 200 249 300 348
#     4  11  24  40  58  86 126 168 204 244 297 360
#
# _framework density 21.012269
#
# number of rings (size 3 to 8) (size 9 to 14) (size 15 to 20)
#    0.000    2.000    1.250    2.250    1.750    6.500 
#    0.000    0.625    0.000    0.000    0.000    0.000 
#    0.000    0.000    0.000    0.000    0.000    0.000 
#
# Total GULP energy -178303.874066 kJ/mol
# GULP energy per Si atom -5571.996065 kJ/mol
# Density = 2.096444 g / cm^3
# Si number density = 21.012269 Si / 1000 Ang^3
#
#
#
# Elastic Constant Matrix: (Units=GPa)
#
#
# Indices 1 2 3 4 5 6 
#
# 1 212.5305 7.9234 103.9291 0.0000 0.0000 0.0000
# 2 7.9234 18.3746 -0.0844 0.0000 0.0000 0.0000
# 3 103.9291 -0.0844 161.4596 0.0000 0.0000 0.0000
# 4 0.0000 0.0000 0.0000 77.0091 0.0000 0.0000
# 5 0.0000 0.0000 0.0000 0.0000 36.9020 0.0000
# 6 0.0000 0.0000 0.0000 0.0000 0.0000 6.0838
#
#
#
# Elastic Compliance Matrix: (Units=1/GPa)
#
#
# Indices 1 2 3 4 5 6 
#
# 1 0.007034 -0.003054 -0.004529 0.000000 0.000000 0.000000
# 2 -0.003054 0.055749 0.001995 0.000000 0.000000 0.000000
# 3 -0.004529 0.001995 0.009110 0.000000 0.000000 0.000000
# 4 0.000000 0.000000 0.000000 0.012985 0.000000 0.000000
# 5 0.000000 0.000000 0.000000 0.000000 0.027099 0.000000
# 6 0.000000 0.000000 0.000000 0.000000 0.000000 0.164370
#
#
# Mechanical properties :
#
#
# Convention : Reuss Voigt Hill
#
# Bulk Modulus (GPa) = 16.46999 68.43342 42.45171
# Shear Modulus (GPa) = 16.24632 42.70544 29.47588
#
# Velocity S-wave (km/s) = 2.78363 4.51311 3.74945
# Velocity P-wave (km/s) = 4.26460 7.73282 6.24433
#
# Compressibility (1/GPa) = 0.06071648
#
# Stress axis : x y z
#
# Youngs Moduli (GPa) = 142.16927 17.93752 109.77055
#
# Poissons Ratio (x) = 0.05478 0.49717
# Poissons Ratio (y) = 0.43417 -0.21898
# Poissons Ratio (z) = 0.64391 -0.03578
#
# Static dielectric constant tensor:
#      x y z
#    x 1.756490 0.000000 0.000000 
#    y 0.000000 1.775120 0.000000 
#    z 0.000000 0.000000 1.714350 
# 
# From -- ./inp_files/15916.got.cif
#   From: 2010.05.17/outbox.cif.g08.bks.cpg/sg51_8_cif.got.tgz:15916.got - 2010.06.03 11:52:47.
