data_PCOD9401753
_publ_section_title
;
Structure prediction by ZEFSAII (Michael W. Deem and Ramdas Pophale) SiO2 
 PCOD9401753
Probable space group: P M M A
;
_chemical_formula_sum "Si O2"
_cell_formula_units_Z 48
_cell_length_a 18.818210
_cell_length_b 17.379432
_cell_length_c 8.845979
_cell_angle_alpha 90.000000
_cell_angle_beta 90.000000
_cell_angle_gamma 90.000000
_cell_volume 2893.075672
_symmetry_space_group_name_H-M "P M M A"
_symmetry_group_IT_number 51
_symmetry_cell_setting 'orthorhombic'
loop_
_space_group_symop_operation_xyz
x,y,z
1/2-x,-y,z
1/2+x,-y,-z
-x,y,-z
-x,-y,-z
1/2+x,y,-z
1/2-x,y,z
x,-y,z
loop_
_atom_site_type_symbol
_atom_site_label
_atom_site_fract_x
_atom_site_fract_y
_atom_site_fract_z
Si Si1 0.920731 0.087598 0.432822
Si Si2 0.957716 0.807322 0.154228
Si Si3 0.426070 0.587883 0.088100
Si Si4 0.167511 0.264428 0.025952
Si Si5 0.953484 0.682783 0.645141
Si Si6 0.332870 0.206464 0.363779
O O1 0.933578 0.126896 0.270286
O O2 0.871594 0.137218 0.547158
O O3 0.000000 0.086920 0.500000
O O4 0.894642 0.000000 0.420529
O O5 0.884745 0.769554 0.098337
O O6 0.007276 0.746184 0.245856
O O7 0.000000 0.829922 0.000000
O O8 0.405851 0.500000 0.058498
O O9 0.443936 0.605375 0.261730
O O10 0.500000 0.604450 0.000000
O O11 0.365478 0.650830 0.054772
O O12 0.250000 0.268279 0.984377
O O13 0.162676 0.212285 0.179654
O O14 0.878581 0.718562 0.593935
O O15 0.000000 0.672271 0.500000
O O16 0.250000 0.209055 0.403213
#
# Coordination Sequence:
#
# PCOD9401753 Si02
#       6
#     8   8   8   8   8   8
#     4  11  22  36  55  80 107 140 180 223 278 330
#     4  12  18  35  58  80 108 140 182 235 265 322
#     4  10  19  33  54  81 110 142 180 223 275 326
#     4  10  20  34  56  82 106 144 187 224 272 324
#     4  11  18  34  57  80 105 143 184 229 266 321
#     4  10  19  35  55  78 106 141 182 223 268 327
#
# _framework density 16.591339000000001
#
# number of rings (size 3 to 8) (size 9 to 14) (size 15 to 20)
#    0.000    1.333    8.333    0.000    0.000    2.000 
#    0.000    0.833    0.000    1.000    0.000    0.000 
#    0.000    0.000    0.000    0.000    0.000    0.000 
#
# Total GULP energy -267265.583839 kJ/mol
# GULP energy per Si atom -5568.032997 kJ/mol
# Density = 1.655358 g / cm^3
# Si number density = 16.591339 Si / 1000 Ang^3
#
#
#
# Elastic Constant Matrix: (Units=GPa)
#
#
# Indices 1 2 3 4 5 6 
#
# 1 131.8025 39.1217 40.1190 0.0000 0.0000 0.0000
# 2 39.1217 90.6573 48.4970 0.0000 0.0000 0.0000
# 3 40.1190 48.4970 65.3712 0.0000 0.0000 0.0000
# 4 0.0000 0.0000 0.0000 21.1001 0.0000 0.0000
# 5 0.0000 0.0000 0.0000 0.0000 22.0869 0.0000
# 6 0.0000 0.0000 0.0000 0.0000 0.0000 15.0103
#
#
#
# Elastic Compliance Matrix: (Units=1/GPa)
#
#
# Indices 1 2 3 4 5 6 
#
# 1 0.009472 -0.001621 -0.004610 0.000000 0.000000 0.000000
# 2 -0.001621 0.018566 -0.012779 0.000000 0.000000 0.000000
# 3 -0.004610 -0.012779 0.027607 0.000000 0.000000 0.000000
# 4 0.000000 0.000000 0.000000 0.047393 0.000000 0.000000
# 5 0.000000 0.000000 0.000000 0.000000 0.045276 0.000000
# 6 0.000000 0.000000 0.000000 0.000000 0.000000 0.066621
#
#
# Mechanical properties :
#
#
# Convention : Reuss Voigt Hill
#
# Bulk Modulus (GPa) = 56.73962 60.36740 58.55351
# Shear Modulus (GPa) = 19.31776 22.31233 20.81505
#
# Velocity S-wave (km/s) = 3.41593 3.67115 3.54584
# Velocity P-wave (km/s) = 7.05908 7.37792 7.22026
#
# Compressibility (1/GPa) = 0.01762437
#
# Stress axis : x y z
#
# Youngs Moduli (GPa) = 105.57926 53.86160 36.22299
#
# Poissons Ratio (x) = 0.08731 0.16699
# Poissons Ratio (y) = 0.17115 0.46289
# Poissons Ratio (z) = 0.48674 0.68829
#
# Static dielectric constant tensor:
#      x y z
#    x 1.555190 0.000000 0.000000 
#    y 0.000000 1.554440 0.000000 
#    z 0.000000 0.000000 1.584200 
# 
# From -- ./inp_files/9805.got.cif
#   From: 2010.05.17/outbox.cif.g08.bks.cpg/sg51_5_cif.got.tgz:9805.got - 2010.06.03 11:52:47.
