data_PCOD9401015
_publ_section_title
;
Structure prediction by ZEFSAII (Michael W. Deem and Ramdas Pophale) SiO2 
 PCOD9401015
Probable space group: P M M A
;
_chemical_formula_sum "Si O2"
_cell_formula_units_Z 64
_cell_length_a 8.867788
_cell_length_b 15.412130
_cell_length_c 25.448017
_cell_angle_alpha 90.000000
_cell_angle_beta 90.000000
_cell_angle_gamma 90.000000
_cell_volume 3478.018693
_symmetry_space_group_name_H-M "P M M A"
_symmetry_group_IT_number 51
_symmetry_cell_setting 'orthorhombic'
loop_
_space_group_symop_operation_xyz
x,y,z
1/2-x,-y,z
1/2+x,-y,-z
-x,y,-z
-x,-y,-z
1/2+x,y,-z
1/2-x,y,z
x,-y,z
loop_
_atom_site_type_symbol
_atom_site_label
_atom_site_fract_x
_atom_site_fract_y
_atom_site_fract_z
Si Si1 0.569632 0.601210 0.557216
Si Si2 0.070388 0.902631 0.902987
Si Si3 0.070617 0.271598 0.055178
Si Si4 0.924855 0.333577 0.760115
Si Si5 0.924466 0.132993 0.792043
Si Si6 0.072456 0.598889 0.861171
Si Si7 0.431055 0.285516 0.649775
Si Si8 0.569143 0.094221 0.319180
O O1 0.500000 0.619339 0.500000
O O2 0.750000 0.610747 0.555364
O O3 0.535490 0.500000 0.569797
O O4 0.500406 0.663765 0.600912
O O5 0.250000 0.890221 0.907336
O O6 0.985987 0.825713 0.932767
O O7 0.020773 0.894904 0.842085
O O8 0.032737 0.000000 0.921414
O O9 0.250000 0.273066 0.053022
O O10 0.012594 0.334302 0.101191
O O11 0.000000 0.300109 0.000000
O O12 0.750000 0.358606 0.753614
O O13 0.929131 0.237011 0.785279
O O14 0.009263 0.392496 0.802220
O O15 0.005121 0.325903 0.703893
O O16 0.750000 0.107451 0.799097
O O17 0.990909 0.097975 0.737639
O O18 0.250000 0.619667 0.861202
O O19 0.051975 0.500000 0.879480
O O20 0.250000 0.291939 0.649160
O O21 0.473335 0.182787 0.650862
O O22 0.750000 0.098213 0.311576
O O23 0.533447 0.000000 0.343704
#
# Coordination Sequence:
#
# PCOD9401015 Si02
#       8
#     8   8   8   8   8   8   8   8
#     4  10  21  38  60  85 114 149 191 241 294 349
#     4  11  23  38  59  86 116 151 189 232 284 343
#     4  12  26  45  67  88 113 148 187 237 290 344
#     4  10  20  35  56  84 119 157 193 234 285 340
#     4  10  19  31  51  81 114 150 190 234 282 334
#     4  11  24  42  65  91 118 150 189 235 288 348
#     4  10  20  34  56  85 118 157 197 241 288 341
#     4   9  18  32  50  76 113 156 197 236 281 334
#
# _framework density 18.401281000000001
#
# number of rings (size 3 to 8) (size 9 to 14) (size 15 to 20)
#    0.000    1.625    1.250    3.750    0.000    7.000 
#    0.000    0.000    0.000    0.375    0.000    0.000 
#    0.000    0.000    0.000    0.000    0.000    0.000 
#
# Total GULP energy -357563.194533 kJ/mol
# GULP energy per Si atom -5586.924915 kJ/mol
# Density = 1.835940 g / cm^3
# Si number density = 18.401281 Si / 1000 Ang^3
#
#
#
# Elastic Constant Matrix: (Units=GPa)
#
#
# Indices 1 2 3 4 5 6 
#
# 1 101.9951 58.8101 48.0396 0.0000 0.0000 0.0000
# 2 58.8101 89.7262 61.7757 0.0000 0.0000 0.0000
# 3 48.0396 61.7757 103.6817 0.0000 0.0000 0.0000
# 4 0.0000 0.0000 0.0000 -2.0325 0.0000 0.0000
# 5 0.0000 0.0000 0.0000 0.0000 35.0538 0.0000
# 6 0.0000 0.0000 0.0000 0.0000 0.0000 13.0586
#
#
#
# Elastic Compliance Matrix: (Units=1/GPa)
#
#
# Indices 1 2 3 4 5 6 
#
# 1 0.015996 -0.009125 -0.001975 0.000000 0.000000 0.000000
# 2 -0.009125 0.024102 -0.010133 0.000000 0.000000 0.000000
# 3 -0.001975 -0.010133 0.016597 0.000000 0.000000 0.000000
# 4 0.000000 0.000000 0.000000 -0.492013 0.000000 0.000000
# 5 0.000000 0.000000 0.000000 0.000000 0.028528 0.000000
# 6 0.000000 0.000000 0.000000 0.000000 0.000000 0.076578
#
#
# Mechanical properties :
#
#
# Convention : Reuss Voigt Hill
#
# Bulk Modulus (GPa) = 70.27068 70.29487 70.28278
# Shear Modulus (GPa) = -17.66756 17.66782 0.00013
#
# Velocity S-wave (km/s) = -3.10195 3.10198 0.00844
# Velocity P-wave (km/s) = 5.04394 7.14938 6.18688
#
# Compressibility (1/GPa) = 0.01423069
#
# Stress axis : x y z
#
# Youngs Moduli (GPa) = 62.51653 41.49042 60.25140
#
# Poissons Ratio (x) = 0.37859 0.11898
# Poissons Ratio (y) = 0.57044 0.61051
# Poissons Ratio (z) = 0.12346 0.42041
#
# Static dielectric constant tensor:
#      x y z
#    x 1.613100 0.000000 0.000000 
#    y 0.000000 1.665790 0.000000 
#    z 0.000000 0.000000 1.595810 
# 
# From -- ./inp_files/35023.got.cif
#   From: 2010.05.17/outbox.cif.g08.bks.cpg/sg51_18_cif.got.tgz:35023.got - 2010.06.03 11:52:47.
