data_PCOD9401117
_publ_section_title
;
Structure prediction by ZEFSAII (Michael W. Deem and Ramdas Pophale) SiO2 
 PCOD9401117
Probable space group: P M M A
;
_chemical_formula_sum "Si O2"
_cell_formula_units_Z 64
_cell_length_a 8.737212
_cell_length_b 20.414290
_cell_length_c 20.891369
_cell_angle_alpha 90.000000
_cell_angle_beta 90.000000
_cell_angle_gamma 90.000000
_cell_volume 3726.267713
_symmetry_space_group_name_H-M "P M M A"
_symmetry_group_IT_number 51
_symmetry_cell_setting 'orthorhombic'
loop_
_space_group_symop_operation_xyz
x,y,z
1/2-x,-y,z
1/2+x,-y,-z
-x,y,-z
-x,-y,-z
1/2+x,y,-z
1/2-x,y,z
x,-y,z
loop_
_atom_site_type_symbol
_atom_site_label
_atom_site_fract_x
_atom_site_fract_y
_atom_site_fract_z
Si Si1 0.067648 0.570916 0.755307
Si Si2 0.431636 0.712781 0.739680
Si Si3 0.567327 0.154971 0.933961
Si Si4 0.566821 0.924955 0.429453
Si Si5 0.063391 0.075061 0.190662
Si Si6 0.932811 0.842823 0.685250
Si Si7 0.068425 0.290985 0.893189
Si Si8 0.568014 0.571867 0.896948
O O1 0.750000 0.575533 0.227938
O O2 0.044145 0.500000 0.723456
O O3 0.973881 0.570358 0.821317
O O4 0.030659 0.638114 0.719316
O O5 0.250000 0.723486 0.731880
O O6 0.519200 0.768947 0.702070
O O7 0.463844 0.714428 0.816384
O O8 0.750000 0.152804 0.936147
O O9 0.513318 0.113700 0.872588
O O10 0.514016 0.229689 0.924985
O O11 0.500000 0.128744 0.000000
O O12 0.500000 0.912850 0.500000
O O13 0.750000 0.922020 0.431978
O O14 0.504847 0.873624 0.378111
O O15 0.522269 0.000000 0.411116
O O16 0.250000 0.075194 0.190394
O O17 0.014714 0.113465 0.254085
O O18 0.012318 0.000000 0.190921
O O19 0.750000 0.847041 0.680690
O O20 0.250000 0.286071 0.901836
O O21 0.012138 0.361353 0.918972
O O22 0.750000 0.577074 0.905547
O O23 0.517142 0.500000 0.922082
#
# Coordination Sequence:
#
# PCOD9401117 Si02
#       8
#     8   8   8   8   8   8   8   8
#     4   8  14  25  40  61  93 133 171 208 253 301
#     4   9  17  28  45  70 101 133 169 213 256 302
#     4  11  22  37  55  74  97 127 166 212 261 315
#     4  10  21  37  56  79 108 142 178 215 255 302
#     4   9  19  35  54  76 101 130 165 207 257 309
#     4  11  20  32  53  79 108 141 175 212 255 304
#     4  10  19  32  50  70  96 129 166 208 253 305
#     4   9  16  25  41  67  96 125 159 200 246 298
#
# _framework density 17.175363999999998
#
# number of rings (size 3 to 8) (size 9 to 14) (size 15 to 20)
#    0.000    2.375    1.250    3.000    0.000    4.250 
#    0.000    0.000    0.000    3.750    0.000    0.000 
#    0.000    0.500    0.000    1.375    0.000    2.125 
#
# Total GULP energy -356903.975266 kJ/mol
# GULP energy per Si atom -5576.624614 kJ/mol
# Density = 1.713627 g / cm^3
# Si number density = 17.175364 Si / 1000 Ang^3
#
#
#
# Elastic Constant Matrix: (Units=GPa)
#
#
# Indices 1 2 3 4 5 6 
#
# 1 38.9488 28.7184 27.5190 0.0000 0.0000 0.0000
# 2 28.7184 129.2802 49.9471 0.0000 0.0000 0.0000
# 3 27.5190 49.9471 73.6612 0.0000 0.0000 0.0000
# 4 0.0000 0.0000 0.0000 87.3892 0.0000 0.0000
# 5 0.0000 0.0000 0.0000 0.0000 20.3013 0.0000
# 6 0.0000 0.0000 0.0000 0.0000 0.0000 22.8318
#
#
#
# Elastic Compliance Matrix: (Units=1/GPa)
#
#
# Indices 1 2 3 4 5 6 
#
# 1 0.036222 -0.003819 -0.010943 0.000000 0.000000 0.000000
# 2 -0.003819 0.010883 -0.005953 0.000000 0.000000 0.000000
# 3 -0.010943 -0.005953 0.021700 0.000000 0.000000 0.000000
# 4 0.000000 0.000000 0.000000 0.011443 0.000000 0.000000
# 5 0.000000 0.000000 0.000000 0.000000 0.049258 0.000000
# 6 0.000000 0.000000 0.000000 0.000000 0.000000 0.043799
#
#
# Mechanical properties :
#
#
# Convention : Reuss Voigt Hill
#
# Bulk Modulus (GPa) = 36.52747 50.47324 43.50035
# Shear Modulus (GPa) = 22.33541 35.15151 28.74346
#
# Velocity S-wave (km/s) = 3.61006 4.52887 4.09532
# Velocity P-wave (km/s) = 6.22015 7.53647 6.90973
#
# Compressibility (1/GPa) = 0.02737666
#
# Stress axis : x y z
#
# Youngs Moduli (GPa) = 27.60754 91.88346 46.08220
#
# Poissons Ratio (x) = 0.35087 0.50427
# Poissons Ratio (y) = 0.10542 0.27433
# Poissons Ratio (z) = 0.30211 0.54699
#
# Static dielectric constant tensor:
#      x y z
#    x 1.576290 0.000000 0.000000 
#    y 0.000000 1.614110 0.000000 
#    z 0.000000 0.000000 1.567500 
# 
# From -- ./inp_files/32299.got.cif
#   From: 2010.05.17/outbox.cif.g08.bks.cpg/sg51_17_cif.got.tgz:32299.got - 2010.06.03 11:52:47.
