data_PCOD9401400
_publ_section_title
;
Structure prediction by ZEFSAII (Michael W. Deem and Ramdas Pophale) SiO2 
 PCOD9401400
Probable space group: P M M A
;
_chemical_formula_sum "Si O2"
_cell_formula_units_Z 40
_cell_length_a 26.184446
_cell_length_b 9.146611
_cell_length_c 9.850637
_cell_angle_alpha 90.000000
_cell_angle_beta 90.000000
_cell_angle_gamma 90.000000
_cell_volume 2359.217138
_symmetry_space_group_name_H-M "P M M A"
_symmetry_group_IT_number 51
_symmetry_cell_setting 'orthorhombic'
loop_
_space_group_symop_operation_xyz
x,y,z
1/2-x,-y,z
1/2+x,-y,-z
-x,y,-z
-x,-y,-z
1/2+x,y,-z
1/2-x,y,z
x,-y,z
loop_
_atom_site_type_symbol
_atom_site_label
_atom_site_fract_x
_atom_site_fract_y
_atom_site_fract_z
Si Si1 0.106887 0.174341 0.153503
Si Si2 0.002488 0.331938 0.164902
Si Si3 0.398701 0.174359 0.832981
Si Si4 0.690414 0.674015 0.661108
Si Si5 0.191421 0.174777 0.627921
O O1 0.052872 0.241174 0.201738
O O2 0.152708 0.248529 0.234390
O O3 0.107196 0.000000 0.172147
O O4 0.111269 0.205062 0.992073
O O5 0.006573 0.500000 0.208889
O O6 0.949803 0.258388 0.211264
O O7 0.000000 0.330182 0.000000
O O8 0.350051 0.213040 0.741586
O O9 0.407680 0.000000 0.821775
O O10 0.750000 0.702119 0.694880
O O11 0.682275 0.500000 0.660851
O O12 0.681629 0.739746 0.511316
O O13 0.250000 0.204953 0.670878
O O14 0.187714 0.000000 0.602622
#
# Coordination Sequence:
#
# PCOD9401400 Si02
#       5
#     8   8   8   8   8
#     4  10  19  32  53  78 103 132 167 207 249 295
#     4   9  17  30  49  73 103 136 166 200 247 299
#     4   9  18  32  52  78 104 130 165 208 250 295
#     4  10  21  36  52  72 101 135 169 206 249 297
#     4   9  18  34  54  74  99 132 167 204 249 299
#
# _framework density 16.954777
#
# number of rings (size 3 to 8) (size 9 to 14) (size 15 to 20)
#    0.000    2.600    0.000    1.800    0.000    6.000 
#    0.000    3.000    0.000    8.400    0.000    0.000 
#    0.000    0.000    0.000    0.000    0.000    0.000 
#
# Total GULP energy -223068.260404 kJ/mol
# GULP energy per Si atom -5576.706510 kJ/mol
# Density = 1.691619 g / cm^3
# Si number density = 16.954777 Si / 1000 Ang^3
#
#
#
# Elastic Constant Matrix: (Units=GPa)
#
#
# Indices 1 2 3 4 5 6 
#
# 1 167.6992 96.7936 89.7844 0.0000 0.0000 0.0000
# 2 96.7936 86.0804 60.7977 0.0000 0.0000 0.0000
# 3 89.7844 60.7977 65.1071 0.0000 0.0000 0.0000
# 4 0.0000 0.0000 0.0000 18.9200 0.0000 0.0000
# 5 0.0000 0.0000 0.0000 0.0000 -31.8698 0.0000
# 6 0.0000 0.0000 0.0000 0.0000 0.0000 32.8102
#
#
#
# Elastic Compliance Matrix: (Units=1/GPa)
#
#
# Indices 1 2 3 4 5 6 
#
# 1 0.026205 -0.011581 -0.025323 0.000000 0.000000 0.000000
# 2 -0.011581 0.039240 -0.020672 0.000000 0.000000 0.000000
# 3 -0.025323 -0.020672 0.069584 0.000000 0.000000 0.000000
# 4 0.000000 0.000000 0.000000 0.052854 0.000000 0.000000
# 5 0.000000 0.000000 0.000000 0.000000 -0.031378 0.000000
# 6 0.000000 0.000000 0.000000 0.000000 0.000000 0.030478
#
#
# Mechanical properties :
#
#
# Convention : Reuss Voigt Hill
#
# Bulk Modulus (GPa) = 50.30944 90.40424 70.35684
# Shear Modulus (GPa) = 16.19370 8.73948 12.46659
#
# Velocity S-wave (km/s) = 3.09384 2.27283 2.71456
# Velocity P-wave (km/s) = 6.51917 7.76687 7.17021
#
# Compressibility (1/GPa) = 0.01987698
#
# Stress axis : x y z
#
# Youngs Moduli (GPa) = 38.16011 25.48424 14.37111
#
# Poissons Ratio (x) = 0.29514 0.36392
# Poissons Ratio (y) = 0.44194 0.29708
# Poissons Ratio (z) = 0.96633 0.52680
#
# Static dielectric constant tensor:
#      x y z
#    x 1.559870 0.000000 0.000000 
#    y 0.000000 1.565700 0.000000 
#    z 0.000000 0.000000 1.546380 
# 
# From -- ./inp_files/11429.got.cif
#   From: 2010.05.17/outbox.cif.g08.bks.cpg/sg51_6_cif.got.tgz:11429.got - 2010.06.03 11:52:47.
