data_PCOD9401241
_publ_section_title
;
Structure prediction by ZEFSAII (Michael W. Deem and Ramdas Pophale) SiO2 
 PCOD9401241
Probable space group: P M M A
;
_chemical_formula_sum "Si O2"
_cell_formula_units_Z 64
_cell_length_a 28.907775
_cell_length_b 8.073916
_cell_length_c 12.684375
_cell_angle_alpha 90.000000
_cell_angle_beta 90.000000
_cell_angle_gamma 90.000000
_cell_volume 2960.519770
_symmetry_space_group_name_H-M "P M M A"
_symmetry_group_IT_number 51
_symmetry_cell_setting 'orthorhombic'
loop_
_space_group_symop_operation_xyz
x,y,z
1/2-x,-y,z
1/2+x,-y,-z
-x,y,-z
-x,-y,-z
1/2+x,y,-z
1/2-x,y,z
x,-y,z
loop_
_atom_site_type_symbol
_atom_site_label
_atom_site_fract_x
_atom_site_fract_y
_atom_site_fract_z
Si Si1 0.337981 0.798052 0.738107
Si Si2 0.124466 0.191940 0.135202
Si Si3 0.922993 0.695077 0.529918
Si Si4 0.964587 0.304822 0.752569
Si Si5 0.678987 0.191498 0.489475
Si Si6 0.057804 0.195125 0.690202
Si Si7 0.799963 0.307237 0.712756
Si Si8 0.698047 0.797017 0.035292
O O1 0.313626 0.745170 0.629241
O O2 0.392125 0.747948 0.732993
O O3 0.313780 0.746322 0.845478
O O4 0.337290 0.000000 0.736174
O O5 0.075362 0.271399 0.162515
O O6 0.157448 0.210670 0.237351
O O7 0.115764 0.000000 0.113070
O O8 0.157189 0.260757 0.042234
O O9 0.911718 0.500000 0.543466
O O10 0.945533 0.755070 0.638378
O O11 0.876192 0.794275 0.506529
O O12 0.951606 0.716350 0.422083
O O13 0.971443 0.500000 0.744374
O O14 0.014905 0.226380 0.767246
O O15 0.699349 0.289605 0.587050
O O16 0.693420 0.000000 0.496767
O O17 0.061070 0.000000 0.669594
O O18 0.750000 0.245159 0.751265
O O19 0.805045 0.500000 0.740524
O O20 0.750000 0.743020 0.006458
O O21 0.697855 0.000000 0.031103
#
# Coordination Sequence:
#
# PCOD9401241 Si02
#       8
#     8   8   8   8   8   8   8   8
#     4   8  17  34  55  83 117 147 181 231 289 338
#     4  11  22  36  58  85 111 142 189 242 286 333
#     4  10  19  32  51  76 112 154 191 226 273 335
#     4  11  22  35  53  78 113 155 193 229 282 343
#     4  10  19  32  54  83 113 146 187 232 277 333
#     4  10  20  33  53  82 115 151 193 238 279 326
#     4  11  23  37  53  76 112 153 185 225 288 352
#     4   9  18  35  60  87 112 141 183 237 292 341
#
# _framework density 21.617825
#
# number of rings (size 3 to 8) (size 9 to 14) (size 15 to 20)
#    0.000    2.000    1.250    3.750    0.000    5.000 
#    0.000    1.875    0.000   12.750    0.000    1.750 
#    0.000    0.000    0.000    0.000    0.000    0.000 
#
# Total GULP energy -357374.144627 kJ/mol
# GULP energy per Si atom -5583.971010 kJ/mol
# Density = 2.156862 g / cm^3
# Si number density = 21.617825 Si / 1000 Ang^3
#
#
#
# Elastic Constant Matrix: (Units=GPa)
#
#
# Indices 1 2 3 4 5 6 
#
# 1 54.7794 1.0708 5.5039 0.0000 0.0000 0.0000
# 2 1.0708 28.5681 -5.8359 0.0000 0.0000 0.0000
# 3 5.5039 -5.8359 87.9144 0.0000 0.0000 0.0000
# 4 0.0000 0.0000 0.0000 -23.9046 0.0000 0.0000
# 5 0.0000 0.0000 0.0000 0.0000 32.4017 0.0000
# 6 0.0000 0.0000 0.0000 0.0000 0.0000 -2.8064
#
#
#
# Elastic Compliance Matrix: (Units=1/GPa)
#
#
# Indices 1 2 3 4 5 6 
#
# 1 0.018395 -0.000937 -0.001214 0.000000 0.000000 0.000000
# 2 -0.000937 0.035533 0.002417 0.000000 0.000000 0.000000
# 3 -0.001214 0.002417 0.011611 0.000000 0.000000 0.000000
# 4 0.000000 0.000000 0.000000 -0.041833 0.000000 0.000000
# 5 0.000000 0.000000 0.000000 0.000000 0.030863 0.000000
# 6 0.000000 0.000000 0.000000 0.000000 0.000000 -0.356329
#
#
# Mechanical properties :
#
#
# Convention : Reuss Voigt Hill
#
# Bulk Modulus (GPa) = 15.13506 19.19328 17.16417
# Shear Modulus (GPa) = -17.84007 12.50634 -2.66686
#
# Velocity S-wave (km/s) = -2.87583 2.40785 -1.11190
# Velocity P-wave (km/s) = 2.00270 4.07775 2.51170
#
# Compressibility (1/GPa) = 0.06607177
#
# Stress axis : x y z
#
# Youngs Moduli (GPa) = 54.36166 28.14279 86.12397
#
# Poissons Ratio (x) = 0.02638 0.10454
# Poissons Ratio (y) = 0.05096 -0.20820
# Poissons Ratio (z) = 0.06599 -0.06803
#
# Static dielectric constant tensor:
#      x y z
#    x 1.670780 0.000000 0.000000 
#    y 0.000000 1.745410 0.000000 
#    z 0.000000 0.000000 1.802090 
# 
# From -- ./inp_files/19598.got.cif
#   From: 2010.05.17/outbox.cif.g08.bks.cpg/sg51_10_cif.got.tgz:19598.got - 2010.06.03 11:52:47.
