data_PCOD9401558
_publ_section_title
;
Structure prediction by ZEFSAII (Michael W. Deem and Ramdas Pophale) SiO2 
 PCOD9401558
Probable space group: P M M A
;
_chemical_formula_sum "Si O2"
_cell_formula_units_Z 64
_cell_length_a 24.717193
_cell_length_b 9.035224
_cell_length_c 16.468927
_cell_angle_alpha 90.000000
_cell_angle_beta 90.000000
_cell_angle_gamma 90.000000
_cell_volume 3677.929305
_symmetry_space_group_name_H-M "P M M A"
_symmetry_group_IT_number 51
_symmetry_cell_setting 'orthorhombic'
loop_
_space_group_symop_operation_xyz
x,y,z
1/2-x,-y,z
1/2+x,-y,-z
-x,y,-z
-x,-y,-z
1/2+x,y,-z
1/2-x,y,z
x,-y,z
loop_
_atom_site_type_symbol
_atom_site_label
_atom_site_fract_x
_atom_site_fract_y
_atom_site_fract_z
Si Si1 0.525447 0.177461 0.276790
Si Si2 0.891533 0.673593 0.390061
Si Si3 0.061843 0.674845 0.028310
Si Si4 0.913702 0.822324 0.799235
Si Si5 0.312860 0.329085 0.763733
Si Si6 0.688175 0.322218 0.715385
Si Si7 0.189150 0.320159 0.475124
Si Si8 0.105322 0.175143 0.871403
O O1 0.555693 0.247090 0.353988
O O2 0.463613 0.221307 0.260129
O O3 0.559617 0.218976 0.195524
O O4 0.528308 0.000000 0.283546
O O5 0.904115 0.500000 0.401749
O O6 0.846529 0.685583 0.319094
O O7 0.860517 0.733104 0.469531
O O8 0.070769 0.500000 0.038778
O O9 0.073406 0.757818 0.112104
O O10 0.096998 0.739337 0.954814
O O11 0.000000 0.698271 0.000000
O O12 0.857567 0.758908 0.766253
O O13 0.912480 0.000000 0.803076
O O14 0.250000 0.301989 0.749506
O O15 0.319701 0.500000 0.791058
O O16 0.338832 0.220574 0.829128
O O17 0.750000 0.284687 0.739004
O O18 0.682212 0.500000 0.723156
O O19 0.682195 0.285380 0.619707
O O20 0.250000 0.271092 0.500407
O O21 0.189446 0.500000 0.482456
O O22 0.101025 0.000000 0.884555
#
# Coordination Sequence:
#
# PCOD9401558 Si02
#       8
#     8   8   8   8   8   8   8   8
#     4   9  19  33  48  71 106 143 171 205 257 309
#     4   9  16  27  49  78 104 135 178 220 259 306
#     4  11  22  35  56  83 106 129 167 215 260 308
#     4  11  22  37  57  79 106 140 176 213 259 317
#     4   9  17  29  46  71 105 140 174 215 260 305
#     4   9  19  37  59  81 106 136 173 221 272 315
#     4   8  14  28  52  79 105 135 175 223 270 312
#     4  10  19  33  51  72 103 138 173 211 251 305
#
# _framework density 17.401094000000001
#
# number of rings (size 3 to 8) (size 9 to 14) (size 15 to 20)
#    0.000    2.500    1.250    2.250    0.000    4.000 
#    0.000    1.875    0.000    9.375    0.000    0.000 
#    0.000    0.000    0.000    0.000    0.000    0.000 
#
# Total GULP energy -356824.357601 kJ/mol
# GULP energy per Si atom -5575.380588 kJ/mol
# Density = 1.736149 g / cm^3
# Si number density = 17.401094 Si / 1000 Ang^3
#
#
#
# Elastic Constant Matrix: (Units=GPa)
#
#
# Indices 1 2 3 4 5 6 
#
# 1 106.7083 48.9904 48.2091 0.0000 0.0000 0.0000
# 2 48.9904 37.7293 38.4045 0.0000 0.0000 0.0000
# 3 48.2091 38.4045 66.5508 0.0000 0.0000 0.0000
# 4 0.0000 0.0000 0.0000 7.7478 0.0000 0.0000
# 5 0.0000 0.0000 0.0000 0.0000 26.3400 0.0000
# 6 0.0000 0.0000 0.0000 0.0000 0.0000 23.6322
#
#
#
# Elastic Compliance Matrix: (Units=1/GPa)
#
#
# Indices 1 2 3 4 5 6 
#
# 1 0.023258 -0.031630 0.001404 0.000000 0.000000 0.000000
# 2 -0.031630 0.107252 -0.038979 0.000000 0.000000 0.000000
# 3 0.001404 -0.038979 0.036503 0.000000 0.000000 0.000000
# 4 0.000000 0.000000 0.000000 0.129069 0.000000 0.000000
# 5 0.000000 0.000000 0.000000 0.000000 0.037965 0.000000
# 6 0.000000 0.000000 0.000000 0.000000 0.000000 0.042315
#
#
# Mechanical properties :
#
#
# Convention : Reuss Voigt Hill
#
# Bulk Modulus (GPa) = 34.96107 53.57738 44.26923
# Shear Modulus (GPa) = 9.53643 16.56962 13.05302
#
# Velocity S-wave (km/s) = 2.34356 3.08915 2.74182
# Velocity P-wave (km/s) = 5.24003 6.60154 5.95979
#
# Compressibility (1/GPa) = 0.02860324
#
# Stress axis : x y z
#
# Youngs Moduli (GPa) = 42.99550 9.32387 27.39529
#
# Poissons Ratio (x) = 0.29491 -0.03847
# Poissons Ratio (y) = 1.35993 1.06785
# Poissons Ratio (z) = -0.06038 0.36344
#
# Static dielectric constant tensor:
#      x y z
#    x 1.593550 0.000000 0.000000 
#    y 0.000000 1.584590 0.000000 
#    z 0.000000 0.000000 1.578900 
# 
# From -- ./inp_files/26304.got.cif
#   From: 2010.05.17/outbox.cif.g08.bks.cpg/sg51_14_cif.got.tgz:26304.got - 2010.06.03 11:52:47.
