data_PCOD9401087
_publ_section_title
;
Structure prediction by ZEFSAII (Michael W. Deem and Ramdas Pophale) SiO2 
 PCOD9401087
Probable space group: P M M A
;
_chemical_formula_sum "Si O2"
_cell_formula_units_Z 52
_cell_length_a 9.139107
_cell_length_b 23.478725
_cell_length_c 15.055068
_cell_angle_alpha 90.000000
_cell_angle_beta 90.000000
_cell_angle_gamma 90.000000
_cell_volume 3230.434893
_symmetry_space_group_name_H-M "P M M A"
_symmetry_group_IT_number 51
_symmetry_cell_setting 'orthorhombic'
loop_
_space_group_symop_operation_xyz
x,y,z
1/2-x,-y,z
1/2+x,-y,-z
-x,y,-z
-x,-y,-z
1/2+x,y,-z
1/2-x,y,z
x,-y,z
loop_
_atom_site_type_symbol
_atom_site_label
_atom_site_fract_x
_atom_site_fract_y
_atom_site_fract_z
Si Si1 0.926412 0.106067 0.224990
Si Si2 0.415537 0.569000 0.413943
Si Si3 0.574541 0.000000 0.096611
Si Si4 0.425695 0.792208 0.904756
Si Si5 0.076074 0.931560 0.406418
Si Si6 0.574330 0.338038 0.093908
Si Si7 0.573954 0.565249 0.230935
O O1 0.750000 0.104909 0.238636
O O2 0.966542 0.163661 0.172370
O O3 0.004596 0.097031 0.319413
O O4 0.963299 0.054787 0.156809
O O5 0.500000 0.590728 0.500000
O O6 0.250000 0.590146 0.409605
O O7 0.408971 0.500000 0.421356
O O8 0.504300 0.580305 0.325062
O O9 0.750000 0.000000 0.083439
O O10 0.500000 0.000000 0.000000
O O11 0.250000 0.796285 0.916694
O O12 0.462067 0.726947 0.879362
O O13 0.500000 0.804836 0.000000
O O14 0.250000 0.920585 0.410367
O O15 0.000000 0.915071 0.500000
O O16 0.054951 0.000000 0.396608
O O17 0.750000 0.340963 0.085349
O O18 0.527666 0.387309 0.160910
O O19 0.500000 0.348156 0.000000
O O20 0.750000 0.566197 0.238088
O O21 0.531499 0.500000 0.207578
#
# Coordination Sequence:
#
# PCOD9401087 Si02
#       7
#     8   8   4   8   8   8   8
#     4  10  19  32  49  70  97 127 158 194 237 279
#     4   9  16  26  42  65  92 120 149 182 223 274
#     4  10  20  30  43  66  97 126 151 186 230 274
#     4   9  18  32  50  70  93 125 161 197 235 279
#     4  10  20  33  51  74  99 128 160 196 236 281
#     4   9  18  32  48  67  92 123 160 197 235 280
#     4   9  17  29  45  66  93 123 154 192 238 284
#
# _framework density 16.096903999999999
#
# number of rings (size 3 to 8) (size 9 to 14) (size 15 to 20)
#    0.000    2.615    0.769    1.385    0.000    4.615 
#    0.000    0.000    0.000    0.923    0.000    0.000 
#    0.000    0.000    0.000    0.000    0.000    0.000 
#
# Total GULP energy -289765.238507 kJ/mol
# GULP energy per Si atom -5572.408433 kJ/mol
# Density = 1.606027 g / cm^3
# Si number density = 16.096904 Si / 1000 Ang^3
#
#
#
# Elastic Constant Matrix: (Units=GPa)
#
#
# Indices 1 2 3 4 5 6 
#
# 1 35.3040 42.6486 59.0873 0.0000 0.0000 0.0000
# 2 42.6486 95.8276 98.3720 0.0000 0.0000 0.0000
# 3 59.0873 98.3720 166.5454 0.0000 0.0000 0.0000
# 4 0.0000 0.0000 0.0000 9.2320 0.0000 0.0000
# 5 0.0000 0.0000 0.0000 0.0000 34.6006 0.0000
# 6 0.0000 0.0000 0.0000 0.0000 0.0000 7.5232
#
#
#
# Elastic Compliance Matrix: (Units=1/GPa)
#
#
# Indices 1 2 3 4 5 6 
#
# 1 0.078434 -0.016110 -0.018312 0.000000 0.000000 0.000000
# 2 -0.016110 0.029818 -0.011897 0.000000 0.000000 0.000000
# 3 -0.018312 -0.011897 0.019528 0.000000 0.000000 0.000000
# 4 0.000000 0.000000 0.000000 0.108319 0.000000 0.000000
# 5 0.000000 0.000000 0.000000 0.000000 0.028901 0.000000
# 6 0.000000 0.000000 0.000000 0.000000 0.000000 0.132922
#
#
# Mechanical properties :
#
#
# Convention : Reuss Voigt Hill
#
# Bulk Modulus (GPa) = 28.45456 77.54366 52.99911
# Shear Modulus (GPa) = 9.95473 16.77576 13.36524
#
# Velocity S-wave (km/s) = 2.48951 3.23177 2.88462
# Velocity P-wave (km/s) = 5.09696 7.88691 6.64012
#
# Compressibility (1/GPa) = 0.03514375
#
# Stress axis : x y z
#
# Youngs Moduli (GPa) = 12.74949 33.53695 51.20849
#
# Poissons Ratio (x) = 0.54027 0.93771
# Poissons Ratio (y) = 0.20539 0.60922
# Poissons Ratio (z) = 0.23346 0.39898
#
# Static dielectric constant tensor:
#      x y z
#    x 1.540520 0.000000 0.000000 
#    y 0.000000 1.541380 0.000000 
#    z 0.000000 0.000000 1.507290 
# 
# From -- ./inp_files/21517.got.cif
#   From: 2010.05.17/outbox.cif.g08.bks.cpg/sg51_11_cif.got.tgz:21517.got - 2010.06.03 11:52:47.
