data_PCOD9401938
_publ_section_title
;
Structure prediction by ZEFSAII (Michael W. Deem and Ramdas Pophale) SiO2 
 PCOD9401938
Probable space group: P M M A
;
_chemical_formula_sum "Si O2"
_cell_formula_units_Z 52
_cell_length_a 7.923434
_cell_length_b 15.533855
_cell_length_c 20.808154
_cell_angle_alpha 90.000000
_cell_angle_beta 90.000000
_cell_angle_gamma 90.000000
_cell_volume 2561.098283
_symmetry_space_group_name_H-M "P M M A"
_symmetry_group_IT_number 51
_symmetry_cell_setting 'orthorhombic'
loop_
_space_group_symop_operation_xyz
x,y,z
1/2-x,-y,z
1/2+x,-y,-z
-x,y,-z
-x,-y,-z
1/2+x,y,-z
1/2-x,y,z
x,-y,z
loop_
_atom_site_type_symbol
_atom_site_label
_atom_site_fract_x
_atom_site_fract_y
_atom_site_fract_z
Si Si1 0.544283 0.672735 0.638372
Si Si2 0.051863 0.228522 0.816892
Si Si3 0.043113 0.094288 0.710727
Si Si4 0.548035 0.097202 0.926099
Si Si5 0.048989 0.500000 0.427643
Si Si6 0.055216 0.849944 0.574212
Si Si7 0.049185 0.599149 0.225395
O O1 0.750000 0.682196 0.637278
O O2 0.487287 0.587131 0.602674
O O3 0.468876 0.752589 0.599852
O O4 0.488236 0.649489 0.710592
O O5 0.250000 0.238270 0.805889
O O6 0.981454 0.171978 0.756210
O O7 0.023220 0.168066 0.878152
O O8 0.982296 0.325374 0.826059
O O9 0.250000 0.099125 0.709892
O O10 0.980936 0.101092 0.636768
O O11 0.997320 0.000000 0.736683
O O12 0.750000 0.097996 0.920537
O O13 0.487082 0.000000 0.910264
O O14 0.500000 0.113870 0.000000
O O15 0.250000 0.500000 0.417947
O O16 0.000000 0.500000 0.500000
O O17 0.250000 0.874173 0.572750
O O18 0.000000 0.859862 0.500000
O O19 0.250000 0.590174 0.232932
O O20 0.984422 0.500000 0.218251
#
# Coordination Sequence:
#
# PCOD9401938 Si02
#       7
#     8   8   8   8   4   8   8
#     4  10  19  34  53  72  99 133 175 228 289 349
#     4  11  21  36  60  89 121 157 195 238 288 342
#     4   9  19  35  54  77 107 143 184 231 286 344
#     4  10  21  38  62  95 132 167 201 236 278 333
#     4  10  20  32  46  68  94 128 169 218 283 350
#     4  11  22  36  52  72  99 136 183 233 289 348
#     4  10  20  36  58  82 112 150 191 239 293 346
#
# _framework density 20.303791
#
# number of rings (size 3 to 8) (size 9 to 14) (size 15 to 20)
#    0.000    1.846    2.308    2.308    0.000    4.000 
#    0.000    0.000    0.000    4.615    0.000    0.000 
#    0.000    0.000    0.000    0.000    0.000    0.000 
#
# Total GULP energy -289806.209210 kJ/mol
# GULP energy per Si atom -5573.196331 kJ/mol
# Density = 2.025758 g / cm^3
# Si number density = 20.303791 Si / 1000 Ang^3
#
#
#
# Elastic Constant Matrix: (Units=GPa)
#
#
# Indices 1 2 3 4 5 6 
#
# 1 21.8922 -2.7525 1.6429 0.0000 0.0000 0.0000
# 2 -2.7525 143.6993 52.0373 0.0000 0.0000 0.0000
# 3 1.6429 52.0373 86.1037 0.0000 0.0000 0.0000
# 4 0.0000 0.0000 0.0000 33.5095 0.0000 0.0000
# 5 0.0000 0.0000 0.0000 0.0000 4.5880 0.0000
# 6 0.0000 0.0000 0.0000 0.0000 0.0000 11.1030
#
#
#
# Elastic Compliance Matrix: (Units=1/GPa)
#
#
# Indices 1 2 3 4 5 6 
#
# 1 0.046007 0.001535 -0.001806 0.000000 0.000000 0.000000
# 2 0.001535 0.008960 -0.005444 0.000000 0.000000 0.000000
# 3 -0.001806 -0.005444 0.014939 0.000000 0.000000 0.000000
# 4 0.000000 0.000000 0.000000 0.029842 0.000000 0.000000
# 5 0.000000 0.000000 0.000000 0.000000 0.217958 0.000000
# 6 0.000000 0.000000 0.000000 0.000000 0.000000 0.090066
#
#
# Mechanical properties :
#
#
# Convention : Reuss Voigt Hill
#
# Bulk Modulus (GPa) = 17.10102 39.28336 28.19219
# Shear Modulus (GPa) = 11.39749 23.22460 17.31104
#
# Velocity S-wave (km/s) = 2.37185 3.38576 2.92310
# Velocity P-wave (km/s) = 3.99271 5.88849 5.03071
#
# Compressibility (1/GPa) = 0.05847604
#
# Stress axis : x y z
#
# Youngs Moduli (GPa) = 21.73584 111.60857 66.94059
#
# Poissons Ratio (x) = -0.17133 0.12086
# Poissons Ratio (y) = -0.03337 0.36444
# Poissons Ratio (z) = 0.03925 0.60762
#
# Static dielectric constant tensor:
#      x y z
#    x 1.715790 0.000000 0.000000 
#    y 0.000000 1.769090 0.000000 
#    z 0.000000 0.000000 1.748960 
# 
# From -- ./inp_files/31710.got.cif
#   From: 2010.05.17/outbox.cif.g08.bks.cpg/sg51_16_cif.got.tgz:31710.got - 2010.06.03 11:52:47.
