data_PCOD9401645
_publ_section_title
;
Structure prediction by ZEFSAII (Michael W. Deem and Ramdas Pophale) SiO2 
 PCOD9401645
Probable space group: P M M A
;
_chemical_formula_sum "Si O2"
_cell_formula_units_Z 64
_cell_length_a 20.321909
_cell_length_b 14.675620
_cell_length_c 10.287467
_cell_angle_alpha 90.000000
_cell_angle_beta 90.000000
_cell_angle_gamma 90.000000
_cell_volume 3068.099326
_symmetry_space_group_name_H-M "P M M A"
_symmetry_group_IT_number 51
_symmetry_cell_setting 'orthorhombic'
loop_
_space_group_symop_operation_xyz
x,y,z
1/2-x,-y,z
1/2+x,-y,-z
-x,y,-z
-x,-y,-z
1/2+x,y,-z
1/2-x,y,z
x,-y,z
loop_
_atom_site_type_symbol
_atom_site_label
_atom_site_fract_x
_atom_site_fract_y
_atom_site_fract_z
Si Si1 0.676636 0.390119 0.510662
Si Si2 0.455517 0.895082 0.615249
Si Si3 0.460748 0.130584 0.126554
Si Si4 0.325611 0.889218 0.756556
Si Si5 0.545589 0.609343 0.380946
Si Si6 0.322665 0.850528 0.056819
Si Si7 0.035638 0.349367 0.127077
Si Si8 0.322380 0.347072 0.192727
O O1 0.750000 0.373750 0.460062
O O2 0.670314 0.500000 0.535115
O O3 0.619676 0.361669 0.412553
O O4 0.670083 0.342220 0.650820
O O5 0.500000 0.853092 0.500000
O O6 0.500224 0.893684 0.744204
O O7 0.383976 0.858230 0.659780
O O8 0.442569 0.000000 0.575846
O O9 0.384993 0.101113 0.121113
O O10 0.457321 0.240299 0.115648
O O11 0.500000 0.098578 0.000000
O O12 0.250000 0.869449 0.715824
O O13 0.331084 0.000000 0.770083
O O14 0.335650 0.848084 0.901198
O O15 0.500000 0.639232 0.500000
O O16 0.545781 0.500000 0.380208
O O17 0.511708 0.638136 0.249142
O O18 0.250000 0.892006 0.072795
O O19 0.319269 0.750609 0.121831
O O20 0.108711 0.389477 0.146299
O O21 0.000000 0.385609 0.000000
O O22 0.250000 0.390626 0.170274
#
# Coordination Sequence:
#
# PCOD9401645 Si02
#       8
#     8   8   8   8   8   8   8   8
#     4   9  17  31  54  81 108 141 182 224 266 319
#     4  10  21  36  53  78 109 139 174 217 268 319
#     4  10  19  34  53  77 103 136 178 218 263 313
#     4   9  17  31  54  80 106 141 182 218 259 319
#     4  10  19  33  53  77 104 137 178 217 260 315
#     4   9  17  30  50  76 106 138 174 219 265 311
#     4  10  21  34  51  78 108 137 175 222 268 314
#     4   9  17  31  51  74 105 141 174 216 266 315
#
# _framework density 20.859821
#
# number of rings (size 3 to 8) (size 9 to 14) (size 15 to 20)
#    0.000    2.500    2.500    0.000    0.000    1.500 
#    0.000    1.250    0.000    2.250    0.000    0.000 
#    0.000    0.000    0.000    0.000    0.000    0.000 
#
# Total GULP energy -356843.819655 kJ/mol
# GULP energy per Si atom -5575.684682 kJ/mol
# Density = 2.081234 g / cm^3
# Si number density = 20.859821 Si / 1000 Ang^3
#
#
#
# Elastic Constant Matrix: (Units=GPa)
#
#
# Indices 1 2 3 4 5 6 
#
# 1 233.1620 19.5915 96.3380 0.0000 0.0000 0.0000
# 2 19.5915 66.1757 12.6957 0.0000 0.0000 0.0000
# 3 96.3380 12.6957 129.4494 0.0000 0.0000 0.0000
# 4 0.0000 0.0000 0.0000 20.4152 0.0000 0.0000
# 5 0.0000 0.0000 0.0000 0.0000 40.4969 0.0000
# 6 0.0000 0.0000 0.0000 0.0000 0.0000 4.1131
#
#
#
# Elastic Compliance Matrix: (Units=1/GPa)
#
#
# Indices 1 2 3 4 5 6 
#
# 1 0.006255 -0.000977 -0.004559 0.000000 0.000000 0.000000
# 2 -0.000977 0.015554 -0.000798 0.000000 0.000000 0.000000
# 3 -0.004559 -0.000798 0.011196 0.000000 0.000000 0.000000
# 4 0.000000 0.000000 0.000000 0.048983 0.000000 0.000000
# 5 0.000000 0.000000 0.000000 0.000000 0.024693 0.000000
# 6 0.000000 0.000000 0.000000 0.000000 0.000000 0.243126
#
#
# Mechanical properties :
#
#
# Convention : Reuss Voigt Hill
#
# Bulk Modulus (GPa) = 49.17419 76.22640 62.70030
# Shear Modulus (GPa) = 13.54082 33.01583 23.27833
#
# Velocity S-wave (km/s) = 2.55058 3.98269 3.34419
# Velocity P-wave (km/s) = 5.68320 7.60070 6.71079
#
# Compressibility (1/GPa) = 0.02033587
#
# Stress axis : x y z
#
# Youngs Moduli (GPa) = 159.88143 64.29342 89.31636
#
# Poissons Ratio (x) = 0.06282 0.40719
# Poissons Ratio (y) = 0.15622 0.07130
# Poissons Ratio (z) = 0.72889 0.05132
#
# Static dielectric constant tensor:
#      x y z
#    x 1.793550 0.000000 0.000000 
#    y 0.000000 1.777540 0.000000 
#    z 0.000000 0.000000 1.698970 
# 
# From -- ./inp_files/11197.got.cif
#   From: 2010.05.17/outbox.cif.g08.bks.cpg/sg51_6_cif.got.tgz:11197.got - 2010.06.03 11:52:47.
