data_PCOD9401168
_publ_section_title
;
Structure prediction by ZEFSAII (Michael W. Deem and Ramdas Pophale) SiO2 
 PCOD9401168
Probable space group: P M M A
;
_chemical_formula_sum "Si O2"
_cell_formula_units_Z 40
_cell_length_a 8.575365
_cell_length_b 27.477065
_cell_length_c 9.266532
_cell_angle_alpha 90.000000
_cell_angle_beta 90.000000
_cell_angle_gamma 90.000000
_cell_volume 2183.434586
_symmetry_space_group_name_H-M "P M M A"
_symmetry_group_IT_number 51
_symmetry_cell_setting 'orthorhombic'
loop_
_space_group_symop_operation_xyz
x,y,z
1/2-x,-y,z
1/2+x,-y,-z
-x,y,-z
-x,-y,-z
1/2+x,y,-z
1/2-x,y,z
x,-y,z
loop_
_atom_site_type_symbol
_atom_site_label
_atom_site_fract_x
_atom_site_fract_y
_atom_site_fract_z
Si Si1 0.563105 0.095334 0.836721
Si Si2 0.564311 0.500000 0.661410
Si Si3 0.437843 0.301676 0.836070
Si Si4 0.561657 0.000000 0.661467
Si Si5 0.562629 0.803386 0.164964
Si Si6 0.437752 0.408191 0.836050
O O1 0.750000 0.096401 0.842732
O O2 0.511159 0.048619 0.745762
O O3 0.504403 0.146687 0.772162
O O4 0.500000 0.091037 0.000000
O O5 0.750000 0.500000 0.660204
O O6 0.500000 0.500000 0.500000
O O7 0.504341 0.452191 0.743934
O O8 0.250000 0.301356 0.840751
O O9 0.485144 0.249327 0.770482
O O10 0.484752 0.354498 0.776019
O O11 0.500000 0.301695 0.000000
O O12 0.500000 0.000000 0.500000
O O13 0.750000 0.000000 0.659654
O O14 0.750000 0.806453 0.162785
O O15 0.500000 0.802676 0.000000
O O16 0.250000 0.411031 0.838644
O O17 0.500000 0.411882 0.000000
#
# Coordination Sequence:
#
# PCOD9401168 Si02
#       6
#     8   4   8   4   8   8
#     4  10  19  32  50  75 101 129 164 204 245 293
#     4  12  25  40  55  74 100 134 172 214 261 308
#     4   8  15  26  44  71 103 132 162 198 241 288
#     4  10  23  38  52  70  96 128 167 208 250 296
#     4   9  15  25  43  71 102 132 161 197 242 289
#     4  10  19  34  55  80 107 137 171 210 250 297
#
# _framework density 18.319762000000001
#
# number of rings (size 3 to 8) (size 9 to 14) (size 15 to 20)
#    0.000    2.400    0.000    4.500    0.000    3.200 
#    0.000    0.000    0.000    1.200    0.000    2.800 
#    0.000    0.000    0.000    0.000    0.000    0.000 
#
# Total GULP energy -222863.226286 kJ/mol
# GULP energy per Si atom -5571.580657 kJ/mol
# Density = 1.827806 g / cm^3
# Si number density = 18.319762 Si / 1000 Ang^3
#
#
#
# Elastic Constant Matrix: (Units=GPa)
#
#
# Indices 1 2 3 4 5 6 
#
# 1 60.8466 54.2831 19.8798 0.0000 0.0000 0.0000
# 2 54.2831 253.3307 69.5824 0.0000 0.0000 0.0000
# 3 19.8798 69.5824 54.0901 0.0000 0.0000 0.0000
# 4 0.0000 0.0000 0.0000 -6.7295 0.0000 0.0000
# 5 0.0000 0.0000 0.0000 0.0000 21.2203 0.0000
# 6 0.0000 0.0000 0.0000 0.0000 0.0000 21.7329
#
#
#
# Elastic Compliance Matrix: (Units=1/GPa)
#
#
# Indices 1 2 3 4 5 6 
#
# 1 0.020615 -0.003613 -0.002929 0.000000 0.000000 0.000000
# 2 -0.003613 0.006737 -0.007339 0.000000 0.000000 0.000000
# 3 -0.002929 -0.007339 0.029006 0.000000 0.000000 0.000000
# 4 0.000000 0.000000 0.000000 -0.148599 0.000000 0.000000
# 5 0.000000 0.000000 0.000000 0.000000 0.047125 0.000000
# 6 0.000000 0.000000 0.000000 0.000000 0.000000 0.046013
#
#
# Mechanical properties :
#
#
# Convention : Reuss Voigt Hill
#
# Bulk Modulus (GPa) = 34.97043 72.86199 53.91621
# Shear Modulus (GPa) = 130.92120 22.21286 76.56703
#
# Velocity S-wave (km/s) = 8.46284 3.48589 6.47190
# Velocity P-wave (km/s) = 10.70622 7.48736 9.23807
#
# Compressibility (1/GPa) = 0.02859559
#
# Stress axis : x y z
#
# Youngs Moduli (GPa) = 48.50875 148.42398 34.47599
#
# Poissons Ratio (x) = 0.53622 0.10098
# Poissons Ratio (y) = 0.17525 0.25303
# Poissons Ratio (z) = 0.14208 1.08934
#
# Static dielectric constant tensor:
#      x y z
#    x 1.607350 0.000000 0.000000 
#    y 0.000000 1.713690 0.000000 
#    z 0.000000 0.000000 1.572180 
# 
# From -- ./inp_files/5606.got.cif
#   From: 2010.05.17/outbox.cif.g08.bks.cpg/sg51_3_cif.got.tgz:5606.got - 2010.06.03 11:52:47.
