data_PCOD9401536
_publ_section_title
;
Structure prediction by ZEFSAII (Michael W. Deem and Ramdas Pophale) SiO2 
 PCOD9401536
Probable space group: P M M A
;
_chemical_formula_sum "Si O2"
_cell_formula_units_Z 64
_cell_length_a 9.023475
_cell_length_b 23.713476
_cell_length_c 19.468989
_cell_angle_alpha 90.000000
_cell_angle_beta 90.000000
_cell_angle_gamma 90.000000
_cell_volume 4165.934508
_symmetry_space_group_name_H-M "P M M A"
_symmetry_group_IT_number 51
_symmetry_cell_setting 'orthorhombic'
loop_
_space_group_symop_operation_xyz
x,y,z
1/2-x,-y,z
1/2+x,-y,-z
-x,y,-z
-x,-y,-z
1/2+x,y,-z
1/2-x,y,z
x,-y,z
loop_
_atom_site_type_symbol
_atom_site_label
_atom_site_fract_x
_atom_site_fract_y
_atom_site_fract_z
Si Si1 0.927201 0.895159 0.071976
Si Si2 0.073032 0.239175 0.929151
Si Si3 0.574744 0.065275 0.788463
Si Si4 0.927054 0.223694 0.574565
Si Si5 0.426314 0.565977 0.573641
Si Si6 0.574044 0.662115 0.659658
Si Si7 0.074244 0.276029 0.781815
Si Si8 0.425323 0.839884 0.697429
O O1 0.750000 0.903460 0.070677
O O2 0.956921 0.827840 0.079211
O O3 0.999141 0.924591 0.137616
O O4 0.000000 0.913511 0.000000
O O5 0.250000 0.244896 0.933970
O O6 0.023343 0.271183 0.860489
O O7 0.000000 0.258067 0.000000
O O8 0.750000 0.077551 0.793655
O O9 0.499655 0.106977 0.734010
O O10 0.556177 0.000000 0.768893
O O11 0.750000 0.216732 0.570493
O O12 0.957244 0.285004 0.608682
O O13 0.000000 0.220570 0.500000
O O14 0.997159 0.178295 0.626644
O O15 0.500000 0.578824 0.500000
O O16 0.250000 0.574018 0.568682
O O17 0.455424 0.500000 0.588724
O O18 0.494323 0.607435 0.629703
O O19 0.750000 0.653941 0.661780
O O20 0.512767 0.681010 0.733553
O O21 0.250000 0.288869 0.780135
O O22 0.056754 0.213957 0.748133
O O23 0.250000 0.848749 0.687713
#
# Coordination Sequence:
#
# PCOD9401536 Si02
#       8
#     8   8   8   8   8   8   8   8
#     4  10  19  33  50  70  93 122 158 195 236 282
#     4   9  17  29  45  68  94 124 157 192 235 284
#     4  11  23  36  50  69  93 122 156 195 237 285
#     4  10  20  33  50  75 101 126 156 192 237 286
#     4  10  20  33  49  69  97 136 175 208 242 279
#     4  10  20  31  47  73 101 131 166 202 240 278
#     4   9  17  31  48  68  96 126 158 197 241 285
#     4  10  19  34  53  71  93 121 154 193 238 287
#
# _framework density 15.3627
#
# number of rings (size 3 to 8) (size 9 to 14) (size 15 to 20)
#    0.000    2.125    1.250    2.625    0.000    6.000 
#    0.000    0.000    0.000    0.375    0.000    0.000 
#    0.000    0.500    0.000    1.625    0.000    2.000 
#
# Total GULP energy -357178.964490 kJ/mol
# GULP energy per Si atom -5580.921320 kJ/mol
# Density = 1.532773 g / cm^3
# Si number density = 15.362700 Si / 1000 Ang^3
#
#
#
# Elastic Constant Matrix: (Units=GPa)
#
#
# Indices 1 2 3 4 5 6 
#
# 1 71.8365 50.2686 56.0844 0.0000 0.0000 0.0000
# 2 50.2686 64.5826 45.5676 0.0000 0.0000 0.0000
# 3 56.0844 45.5676 120.3412 0.0000 0.0000 0.0000
# 4 0.0000 0.0000 0.0000 23.1718 0.0000 0.0000
# 5 0.0000 0.0000 0.0000 0.0000 31.8089 0.0000
# 6 0.0000 0.0000 0.0000 0.0000 0.0000 22.4132
#
#
#
# Elastic Compliance Matrix: (Units=1/GPa)
#
#
# Indices 1 2 3 4 5 6 
#
# 1 0.035855 -0.021994 -0.008382 0.000000 0.000000 0.000000
# 2 -0.021994 0.034621 -0.002859 0.000000 0.000000 0.000000
# 3 -0.008382 -0.002859 0.013299 0.000000 0.000000 0.000000
# 4 0.000000 0.000000 0.000000 0.043156 0.000000 0.000000
# 5 0.000000 0.000000 0.000000 0.000000 0.031438 0.000000
# 6 0.000000 0.000000 0.000000 0.000000 0.000000 0.044617
#
#
# Mechanical properties :
#
#
# Convention : Reuss Voigt Hill
#
# Bulk Modulus (GPa) = 57.78919 62.28904 60.03911
# Shear Modulus (GPa) = 18.16705 22.46810 20.31757
#
# Velocity S-wave (km/s) = 3.44254 3.82843 3.64060
# Velocity P-wave (km/s) = 7.31435 7.75733 7.53909
#
# Compressibility (1/GPa) = 0.01730428
#
# Stress axis : x y z
#
# Youngs Moduli (GPa) = 27.88983 28.88436 75.19580
#
# Poissons Ratio (x) = 0.63529 0.63029
# Poissons Ratio (y) = 0.61342 0.21498
# Poissons Ratio (z) = 0.23377 0.08258
#
# Static dielectric constant tensor:
#      x y z
#    x 1.509620 0.000000 0.000000 
#    y 0.000000 1.492310 0.000000 
#    z 0.000000 0.000000 1.497630 
# 
# From -- ./inp_files/28483.got.cif
#   From: 2010.05.17/outbox.cif.g08.bks.cpg/sg51_15_cif.got.tgz:28483.got - 2010.06.03 11:52:47.
