data_PCOD9401020
_publ_section_title
;
Structure prediction by ZEFSAII (Michael W. Deem and Ramdas Pophale) SiO2 
 PCOD9401020
Probable space group: P M M A
;
_chemical_formula_sum "Si O2"
_cell_formula_units_Z 48
_cell_length_a 29.966093
_cell_length_b 7.404373
_cell_length_c 10.174718
_cell_angle_alpha 90.000000
_cell_angle_beta 90.000000
_cell_angle_gamma 90.000000
_cell_volume 2257.567752
_symmetry_space_group_name_H-M "P M M A"
_symmetry_group_IT_number 51
_symmetry_cell_setting 'orthorhombic'
loop_
_space_group_symop_operation_xyz
x,y,z
1/2-x,-y,z
1/2+x,-y,-z
-x,y,-z
-x,-y,-z
1/2+x,y,-z
1/2-x,y,z
x,-y,z
loop_
_atom_site_type_symbol
_atom_site_label
_atom_site_fract_x
_atom_site_fract_y
_atom_site_fract_z
Si Si1 0.698892 0.219823 0.539054
Si Si2 0.974381 0.287457 0.128580
Si Si3 0.698914 0.220157 0.240377
Si Si4 0.527581 0.794816 0.618653
Si Si5 0.375334 0.782856 0.962559
Si Si6 0.120935 0.778628 0.264918
O O1 0.750000 0.276113 0.566058
O O2 0.687075 0.274935 0.389698
O O3 0.662824 0.277532 0.646223
O O4 0.698878 0.000000 0.540153
O O5 0.983941 0.500000 0.139956
O O6 0.922207 0.261185 0.105548
O O7 0.994667 0.200455 0.257571
O O8 0.000000 0.217567 0.000000
O O9 0.750000 0.274446 0.215080
O O10 0.664864 0.283038 0.129259
O O11 0.698127 0.000000 0.239765
O O12 0.500000 0.707820 0.500000
O O13 0.574510 0.717342 0.669039
O O14 0.538547 0.000000 0.575402
O O15 0.371779 0.000000 0.968485
O O16 0.375540 0.718525 0.113483
O O17 0.119978 0.000000 0.262237
#
# Coordination Sequence:
#
# PCOD9401020 Si02
#       6
#     8   8   8   8   8   8
#     4   8  14  25  41  65 101 136 161 196 251 309
#     4  11  23  38  54  73 104 142 177 214 260 313
#     4   8  15  27  45  73 105 133 163 204 256 308
#     4  10  21  35  54  79 105 134 172 219 264 311
#     4  10  19  31  52  77 103 133 170 216 257 304
#     4   9  17  28  43  70 101 130 166 205 251 303
#
# _framework density 21.261818999999999
#
# number of rings (size 3 to 8) (size 9 to 14) (size 15 to 20)
#    0.000    2.667    1.667    1.500    2.333    1.667 
#    0.000    3.333    0.000    0.500    0.000    0.000 
#    0.000    0.667    0.000    0.000    0.000    0.000 
#
# Total GULP energy -268014.483694 kJ/mol
# GULP energy per Si atom -5583.635077 kJ/mol
# Density = 2.121343 g / cm^3
# Si number density = 21.261819 Si / 1000 Ang^3
#
#
#
# Elastic Constant Matrix: (Units=GPa)
#
#
# Indices 1 2 3 4 5 6 
#
# 1 167.9940 -2.9060 110.2919 0.0000 0.0000 0.0000
# 2 -2.9060 72.8917 1.3779 0.0000 0.0000 0.0000
# 3 110.2919 1.3779 151.1892 0.0000 0.0000 0.0000
# 4 0.0000 0.0000 0.0000 -15.2933 0.0000 0.0000
# 5 0.0000 0.0000 0.0000 0.0000 48.3304 0.0000
# 6 0.0000 0.0000 0.0000 0.0000 0.0000 -196.1666
#
#
#
# Elastic Compliance Matrix: (Units=1/GPa)
#
#
# Indices 1 2 3 4 5 6 
#
# 1 0.011451 0.000615 -0.008359 0.000000 0.000000 0.000000
# 2 0.000615 0.013754 -0.000574 0.000000 0.000000 0.000000
# 3 -0.008359 -0.000574 0.012718 0.000000 0.000000 0.000000
# 4 0.000000 0.000000 0.000000 -0.065388 0.000000 0.000000
# 5 0.000000 0.000000 0.000000 0.000000 0.020691 0.000000
# 6 0.000000 0.000000 0.000000 0.000000 0.000000 -0.005098
#
#
# Mechanical properties :
#
#
# Convention : Reuss Voigt Hill
#
# Bulk Modulus (GPa) = 46.97848 67.73362 57.35605
# Shear Modulus (GPa) = 421.57332 -13.73851 203.91740
#
# Velocity S-wave (km/s) = 14.09637 -2.54472 9.80388
# Velocity P-wave (km/s) = 16.94363 4.82617 12.45750
#
# Compressibility (1/GPa) = 0.02128634
#
# Stress axis : x y z
#
# Youngs Moduli (GPa) = 87.32654 72.70442 78.63177
#
# Poissons Ratio (x) = -0.04468 0.65730
# Poissons Ratio (y) = -0.05367 0.04511
# Poissons Ratio (z) = 0.72999 0.04171
#
# Static dielectric constant tensor:
#      x y z
#    x 1.706790 0.000000 0.000000 
#    y 0.000000 1.807290 0.000000 
#    z 0.000000 0.000000 1.740960 
# 
# From -- ./inp_files/12292.got.cif
#   From: 2010.05.17/outbox.cif.g08.bks.cpg/sg51_7_cif.got.tgz:12292.got - 2010.06.03 11:52:47.
