data_PCOD9401834
_publ_section_title
;
Structure prediction by ZEFSAII (Michael W. Deem and Ramdas Pophale) SiO2 
 PCOD9401834
Probable space group: P M M A
;
_chemical_formula_sum "Si O2"
_cell_formula_units_Z 48
_cell_length_a 15.260242
_cell_length_b 17.817815
_cell_length_c 8.330330
_cell_angle_alpha 90.000000
_cell_angle_beta 90.000000
_cell_angle_gamma 90.000000
_cell_volume 2265.051455
_symmetry_space_group_name_H-M "P M M A"
_symmetry_group_IT_number 51
_symmetry_cell_setting 'orthorhombic'
loop_
_space_group_symop_operation_xyz
x,y,z
1/2-x,-y,z
1/2+x,-y,-z
-x,y,-z
-x,-y,-z
1/2+x,y,-z
1/2-x,y,z
x,-y,z
loop_
_atom_site_type_symbol
_atom_site_label
_atom_site_fract_x
_atom_site_fract_y
_atom_site_fract_z
Si Si1 0.356393 0.819383 0.430693
Si Si2 0.560250 0.659298 0.627639
Si Si3 0.146197 0.416688 0.086317
Si Si4 0.356792 0.084642 0.120450
Si Si5 0.427922 0.278405 0.885482
Si Si6 0.849848 0.866183 0.224714
O O1 0.250000 0.820243 0.434326
O O2 0.387718 0.732922 0.433394
O O3 0.384753 0.858195 0.262247
O O4 0.387484 0.862697 0.593474
O O5 0.500000 0.617153 0.500000
O O6 0.620905 0.606370 0.733142
O O7 0.485600 0.694175 0.739955
O O8 0.250000 0.416784 0.068787
O O9 0.112474 0.500000 0.047603
O O10 0.108270 0.350808 0.976518
O O11 0.250000 0.093036 0.111313
O O12 0.376429 0.000000 0.172997
O O13 0.388229 0.094424 0.935133
O O14 0.354617 0.220631 0.831874
O O15 0.500000 0.239691 0.000000
O O16 0.750000 0.893327 0.241309
#
# Coordination Sequence:
#
# PCOD9401834 Si02
#       6
#     8   8   8   8   8   8
#     4  10  20  35  58  84 114 152 195 244 294 345
#     4  11  21  36  58  86 114 148 189 238 289 341
#     4  10  22  40  60  83 115 153 190 232 287 348
#     4   9  18  32  52  82 115 147 191 245 294 343
#     4  10  20  34  58  83 108 145 187 236 287 339
#     4  10  19  33  55  82 110 146 193 243 290 343
#
# _framework density 21.191571
#
# number of rings (size 3 to 8) (size 9 to 14) (size 15 to 20)
#    0.000    2.000    1.667    3.000    0.000    5.333 
#    0.000    3.333    0.000    7.000    0.000    0.000 
#    0.000    0.000    0.000    0.000    0.000    0.000 
#
# Total GULP energy -267441.215088 kJ/mol
# GULP energy per Si atom -5571.691981 kJ/mol
# Density = 2.114334 g / cm^3
# Si number density = 21.191571 Si / 1000 Ang^3
#
#
#
# Elastic Constant Matrix: (Units=GPa)
#
#
# Indices 1 2 3 4 5 6 
#
# 1 41.8332 7.6264 14.1156 0.0000 0.0000 0.0000
# 2 7.6264 67.5917 16.5373 0.0000 0.0000 0.0000
# 3 14.1156 16.5373 108.5931 0.0000 0.0000 0.0000
# 4 0.0000 0.0000 0.0000 319.0184 0.0000 0.0000
# 5 0.0000 0.0000 0.0000 0.0000 27.3355 0.0000
# 6 0.0000 0.0000 0.0000 0.0000 0.0000 -1.3117
#
#
#
# Elastic Compliance Matrix: (Units=1/GPa)
#
#
# Indices 1 2 3 4 5 6 
#
# 1 0.025292 -0.002129 -0.002963 0.000000 0.000000 0.000000
# 2 -0.002129 0.015546 -0.002091 0.000000 0.000000 0.000000
# 3 -0.002963 -0.002091 0.009912 0.000000 0.000000 0.000000
# 4 0.000000 0.000000 0.000000 0.003135 0.000000 0.000000
# 5 0.000000 0.000000 0.000000 0.000000 0.036582 0.000000
# 6 0.000000 0.000000 0.000000 0.000000 0.000000 -0.762365
#
#
# Mechanical properties :
#
#
# Convention : Reuss Voigt Hill
#
# Bulk Modulus (GPa) = 27.48370 32.73074 30.10722
# Shear Modulus (GPa) = -7.74711 80.99103 36.62196
#
# Velocity S-wave (km/s) = -1.91408 6.18882 4.16160
# Velocity P-wave (km/s) = 2.84823 8.15766 6.10982
#
# Compressibility (1/GPa) = 0.03638521
#
# Stress axis : x y z
#
# Youngs Moduli (GPa) = 39.53747 64.32338 100.88465
#
# Poissons Ratio (x) = 0.13692 0.29897
# Poissons Ratio (y) = 0.08416 0.21093
# Poissons Ratio (z) = 0.11717 0.13449
#
# Static dielectric constant tensor:
#      x y z
#    x 1.790930 0.000000 0.000000 
#    y 0.000000 1.780450 0.000000 
#    z 0.000000 0.000000 1.939570 
# 
# From -- ./inp_files/9804.got.cif
#   From: 2010.05.17/outbox.cif.g08.bks.cpg/sg51_5_cif.got.tgz:9804.got - 2010.06.03 11:52:47.
