data_PCOD9401563
_publ_section_title
;
Structure prediction by ZEFSAII (Michael W. Deem and Ramdas Pophale) SiO2 
 PCOD9401563
Probable space group: P M M A
;
_chemical_formula_sum "Si O2"
_cell_formula_units_Z 44
_cell_length_a 8.799804
_cell_length_b 13.979571
_cell_length_c 19.237042
_cell_angle_alpha 90.000000
_cell_angle_beta 90.000000
_cell_angle_gamma 90.000000
_cell_volume 2366.492522
_symmetry_space_group_name_H-M "P M M A"
_symmetry_group_IT_number 51
_symmetry_cell_setting 'orthorhombic'
loop_
_space_group_symop_operation_xyz
x,y,z
1/2-x,-y,z
1/2+x,-y,-z
-x,y,-z
-x,-y,-z
1/2+x,y,-z
1/2-x,y,z
x,-y,z
loop_
_atom_site_type_symbol
_atom_site_label
_atom_site_fract_x
_atom_site_fract_y
_atom_site_fract_z
Si Si1 0.930746 0.290948 0.425312
Si Si2 0.067481 0.287101 0.922573
Si Si3 0.067558 0.500000 0.922894
Si Si4 0.429788 0.209267 0.209466
Si Si5 0.431735 0.608976 0.715368
Si Si6 0.933375 0.107489 0.338044
O O1 0.750000 0.284086 0.433435
O O2 0.959486 0.370525 0.366304
O O3 0.984419 0.189974 0.391680
O O4 0.000000 0.310096 0.500000
O O5 0.250000 0.281854 0.925523
O O6 0.024272 0.395009 0.895661
O O7 0.002472 0.212850 0.866996
O O8 0.000000 0.275927 0.000000
O O9 0.250000 0.500000 0.924514
O O10 0.000000 0.500000 0.000000
O O11 0.250000 0.199381 0.205128
O O12 0.476238 0.310386 0.244532
O O13 0.499001 0.132254 0.262623
O O14 0.250000 0.624034 0.728076
O O15 0.467662 0.500000 0.734033
O O16 0.750000 0.114237 0.333166
O O17 0.974015 0.000000 0.359529
#
# Coordination Sequence:
#
# PCOD9401563 Si02
#       6
#     8   8   4   8   8   8
#     4   9  18  32  51  78 108 137 170 212 260 313
#     4  10  19  33  51  74 104 141 180 218 261 307
#     4   8  16  28  44  66  94 130 169 206 245 290
#     4  11  22  34  51  79 109 137 172 218 268 317
#     4   9  19  36  54  71  99 143 188 222 256 302
#     4   9  19  38  60  78 100 135 176 215 260 316
#
# _framework density 18.592918000000001
#
# number of rings (size 3 to 8) (size 9 to 14) (size 15 to 20)
#    0.000    2.545    0.000    3.273    1.273    5.091 
#    0.000    0.000    0.000    0.545    0.000    0.000 
#    0.000    0.000    0.000    0.000    0.000    0.000 
#
# Total GULP energy -245337.615972 kJ/mol
# GULP energy per Si atom -5575.854908 kJ/mol
# Density = 1.855060 g / cm^3
# Si number density = 18.592918 Si / 1000 Ang^3
#
#
#
# Elastic Constant Matrix: (Units=GPa)
#
#
# Indices 1 2 3 4 5 6 
#
# 1 23.3052 0.1464 13.5982 0.0000 0.0000 0.0000
# 2 0.1464 27.1613 -21.7229 0.0000 0.0000 0.0000
# 3 13.5982 -21.7229 68.0862 0.0000 0.0000 0.0000
# 4 0.0000 0.0000 0.0000 14.5762 0.0000 0.0000
# 5 0.0000 0.0000 0.0000 0.0000 30.8184 0.0000
# 6 0.0000 0.0000 0.0000 0.0000 0.0000 15.6115
#
#
#
# Elastic Compliance Matrix: (Units=1/GPa)
#
#
# Indices 1 2 3 4 5 6 
#
# 1 0.051033 -0.011313 -0.013802 0.000000 0.000000 0.000000
# 2 -0.011313 0.051938 0.018830 0.000000 0.000000 0.000000
# 3 -0.013802 0.018830 0.023452 0.000000 0.000000 0.000000
# 4 0.000000 0.000000 0.000000 0.068605 0.000000 0.000000
# 5 0.000000 0.000000 0.000000 0.000000 0.032448 0.000000
# 6 0.000000 0.000000 0.000000 0.000000 0.000000 0.064055
#
#
# Mechanical properties :
#
#
# Convention : Reuss Voigt Hill
#
# Bulk Modulus (GPa) = 8.78327 11.39957 10.09142
# Shear Modulus (GPa) = 14.61766 20.63663 17.62715
#
# Velocity S-wave (km/s) = 2.80696 3.33516 3.08239
# Velocity P-wave (km/s) = 3.90379 4.57990 4.25530
#
# Compressibility (1/GPa) = 0.11385282
#
# Stress axis : x y z
#
# Youngs Moduli (GPa) = 19.59516 19.25367 42.64107
#
# Poissons Ratio (x) = 0.21783 0.58853
# Poissons Ratio (y) = 0.22169 -0.80295
# Poissons Ratio (z) = 0.27045 -0.36255
#
# Static dielectric constant tensor:
#      x y z
#    x 1.622310 0.000000 0.000000 
#    y 0.000000 1.655400 0.000000 
#    z 0.000000 0.000000 1.651180 
# 
# From -- ./inp_files/27343.got.cif
#   From: 2010.05.17/outbox.cif.g08.bks.cpg/sg51_14_cif.got.tgz:27343.got - 2010.06.03 11:52:47.
