data_PCOD9401590
_publ_section_title
;
Structure prediction by ZEFSAII (Michael W. Deem and Ramdas Pophale) SiO2 
 PCOD9401590
Probable space group: P M M A
;
_chemical_formula_sum "Si O2"
_cell_formula_units_Z 64
_cell_length_a 8.636074
_cell_length_b 18.873023
_cell_length_c 20.290528
_cell_angle_alpha 90.000000
_cell_angle_beta 90.000000
_cell_angle_gamma 90.000000
_cell_volume 3307.129281
_symmetry_space_group_name_H-M "P M M A"
_symmetry_group_IT_number 51
_symmetry_cell_setting 'orthorhombic'
loop_
_space_group_symop_operation_xyz
x,y,z
1/2-x,-y,z
1/2+x,-y,-z
-x,y,-z
-x,-y,-z
1/2+x,y,-z
1/2-x,y,z
x,-y,z
loop_
_atom_site_type_symbol
_atom_site_label
_atom_site_fract_x
_atom_site_fract_y
_atom_site_fract_z
Si Si1 0.927375 0.579041 0.584896
Si Si2 0.562366 0.580814 0.073385
Si Si3 0.918132 0.580631 0.742124
Si Si4 0.066587 0.731653 0.568896
Si Si5 0.562846 0.205656 0.289642
Si Si6 0.929082 0.913824 0.069638
Si Si7 0.065545 0.916839 0.210621
Si Si8 0.574569 0.312632 0.180913
O O1 0.750000 0.585893 0.559763
O O2 0.986633 0.500000 0.568381
O O3 0.917788 0.580776 0.663810
O O4 0.025017 0.648153 0.568402
O O5 0.750000 0.583105 0.074846
O O6 0.518218 0.500000 0.094203
O O7 0.504962 0.646952 0.117739
O O8 0.500000 0.589290 0.000000
O O9 0.750000 0.610881 0.763947
O O10 0.924204 0.500000 0.763823
O O11 0.064802 0.622435 0.767758
O O12 0.250000 0.740404 0.567779
O O13 0.009094 0.765558 0.638695
O O14 0.000000 0.761635 0.500000
O O15 0.750000 0.211712 0.289670
O O16 0.512512 0.127280 0.269173
O O17 0.502874 0.251570 0.226636
O O18 0.750000 0.893214 0.072970
O O19 0.011285 0.891922 0.137553
O O20 0.937715 0.000000 0.068096
O O21 0.000000 0.888861 0.000000
O O22 0.250000 0.909992 0.214502
O O23 0.024714 0.000000 0.215331
O O24 0.750000 0.291317 0.164605
#
# Coordination Sequence:
#
# PCOD9401590 Si02
#       8
#     8   8   8   8   8   8   8   8
#     4   9  18  33  52  76 108 144 183 226 271 322
#     4   9  18  32  50  72 101 140 185 234 281 321
#     4   9  17  28  45  72 103 134 170 215 265 313
#     4  11  23  39  59  83 111 147 186 225 276 334
#     4  10  22  39  58  83 112 142 179 224 278 339
#     4   9  16  28  50  81 117 153 186 222 264 313
#     4  10  21  37  59  87 116 148 187 229 277 335
#     4  10  19  33  52  75 103 136 178 227 275 326
#
# _framework density 19.352129999999999
#
# number of rings (size 3 to 8) (size 9 to 14) (size 15 to 20)
#    0.000    2.375    1.250    2.250    0.000    5.500 
#    0.000    3.125    0.000    1.875    0.000    0.000 
#    0.000    0.000    0.000    0.000    0.000    0.000 
#
# Total GULP energy -356301.994415 kJ/mol
# GULP energy per Si atom -5567.218663 kJ/mol
# Density = 1.930808 g / cm^3
# Si number density = 19.352130 Si / 1000 Ang^3
#
#
#
# Elastic Constant Matrix: (Units=GPa)
#
#
# Indices 1 2 3 4 5 6 
#
# 1 20.5992 16.4065 26.0005 0.0000 0.0000 0.0000
# 2 16.4065 56.6666 50.8471 0.0000 0.0000 0.0000
# 3 26.0005 50.8471 144.1955 0.0000 0.0000 0.0000
# 4 0.0000 0.0000 0.0000 34.9291 0.0000 0.0000
# 5 0.0000 0.0000 0.0000 0.0000 28.9751 0.0000
# 6 0.0000 0.0000 0.0000 0.0000 0.0000 15.6326
#
#
#
# Elastic Compliance Matrix: (Units=1/GPa)
#
#
# Indices 1 2 3 4 5 6 
#
# 1 0.068689 -0.012835 -0.007860 0.000000 0.000000 0.000000
# 2 -0.012835 0.028214 -0.007635 0.000000 0.000000 0.000000
# 3 -0.007860 -0.007635 0.011044 0.000000 0.000000 0.000000
# 4 0.000000 0.000000 0.000000 0.028629 0.000000 0.000000
# 5 0.000000 0.000000 0.000000 0.000000 0.034512 0.000000
# 6 0.000000 0.000000 0.000000 0.000000 0.000000 0.063969
#
#
# Mechanical properties :
#
#
# Convention : Reuss Voigt Hill
#
# Bulk Modulus (GPa) = 19.49746 45.32994 32.41370
# Shear Modulus (GPa) = 16.19113 24.45450 20.32282
#
# Velocity S-wave (km/s) = 2.89564 3.55866 3.24413
# Velocity P-wave (km/s) = 4.61266 6.35295 5.55142
#
# Compressibility (1/GPa) = 0.05128873
#
# Stress axis : x y z
#
# Youngs Moduli (GPa) = 14.55848 35.44396 90.54351
#
# Poissons Ratio (x) = 0.45491 0.71165
# Poissons Ratio (y) = 0.18685 0.69126
# Poissons Ratio (z) = 0.11443 0.27060
#
# Static dielectric constant tensor:
#      x y z
#    x 1.732160 0.000000 0.000000 
#    y 0.000000 1.698900 0.000000 
#    z 0.000000 0.000000 1.721380 
# 
# From -- ./inp_files/32350.got.cif
#   From: 2010.05.17/outbox.cif.g08.bks.cpg/sg51_17_cif.got.tgz:32350.got - 2010.06.03 11:52:47.
