data_PCOD9401284
_publ_section_title
;
Structure prediction by ZEFSAII (Michael W. Deem and Ramdas Pophale) SiO2 
 PCOD9401284
Probable space group: P M M A
;
_chemical_formula_sum "Si O2"
_cell_formula_units_Z 32
_cell_length_a 21.697893
_cell_length_b 7.616188
_cell_length_c 9.405984
_cell_angle_alpha 90.000000
_cell_angle_beta 90.000000
_cell_angle_gamma 90.000000
_cell_volume 1554.388071
_symmetry_space_group_name_H-M "P M M A"
_symmetry_group_IT_number 51
_symmetry_cell_setting 'orthorhombic'
loop_
_space_group_symop_operation_xyz
x,y,z
1/2-x,-y,z
1/2+x,-y,-z
-x,y,-z
-x,-y,-z
1/2+x,y,-z
1/2-x,y,z
x,-y,z
loop_
_atom_site_type_symbol
_atom_site_label
_atom_site_fract_x
_atom_site_fract_y
_atom_site_fract_z
Si Si1 0.250000 0.798209 0.171252
Si Si2 0.616545 0.785617 0.852922
Si Si3 0.993351 0.797007 0.656058
Si Si4 0.884463 0.294478 0.186900
Si Si5 0.750000 0.285787 0.160706
O O1 0.317148 0.723102 0.207622
O O2 0.250000 0.000000 0.219434
O O3 0.250000 0.789508 0.998964
O O4 0.559661 0.722557 0.758062
O O5 0.617693 0.000000 0.856801
O O6 0.609887 0.728197 0.016578
O O7 0.058706 0.793510 0.734951
O O8 0.000000 0.715789 0.500000
O O9 0.974582 0.000000 0.634616
O O10 0.888350 0.500000 0.220123
O O11 0.815344 0.232731 0.227388
O O12 0.750000 0.500000 0.148975
#
# Coordination Sequence:
#
# PCOD9401284 Si02
#       5
#     4   8   8   8   4
#     4   8  14  26  47  72  92 116 154 196 237 282
#     4   9  17  31  51  72  95 123 157 198 241 285
#     4  10  21  35  48  67  99 134 164 197 238 281
#     4  10  19  32  52  75  97 123 158 198 240 287
#     4   8  16  30  47  70  98 122 148 192 243 284
#
# _framework density 20.586880000000001
#
# number of rings (size 3 to 8) (size 9 to 14) (size 15 to 20)
#    0.000    2.750    0.000    1.500    0.000    5.500 
#    0.000    1.250    0.000    3.000    0.000    5.250 
#    0.000    0.000    0.000    0.000    0.000    0.000 
#
# Total GULP energy -178333.992953 kJ/mol
# GULP energy per Si atom -5572.937280 kJ/mol
# Density = 2.054002 g / cm^3
# Si number density = 20.586880 Si / 1000 Ang^3
#
#
#
# Elastic Constant Matrix: (Units=GPa)
#
#
# Indices 1 2 3 4 5 6 
#
# 1 180.0054 -8.7103 60.7125 0.0000 0.0000 0.0000
# 2 -8.7103 43.4878 -9.2729 0.0000 0.0000 0.0000
# 3 60.7125 -9.2729 64.8730 0.0000 0.0000 0.0000
# 4 0.0000 0.0000 0.0000 30.2244 0.0000 0.0000
# 5 0.0000 0.0000 0.0000 0.0000 -6.8571 0.0000
# 6 0.0000 0.0000 0.0000 0.0000 0.0000 -7.1789
#
#
#
# Elastic Compliance Matrix: (Units=1/GPa)
#
#
# Indices 1 2 3 4 5 6 
#
# 1 0.008118 0.000006 -0.007596 0.000000 0.000000 0.000000
# 2 0.000006 0.023718 0.003384 0.000000 0.000000 0.000000
# 3 -0.007596 0.003384 0.023008 0.000000 0.000000 0.000000
# 4 0.000000 0.000000 0.000000 0.033086 0.000000 0.000000
# 5 0.000000 0.000000 0.000000 0.000000 -0.145833 0.000000
# 6 0.000000 0.000000 0.000000 0.000000 0.000000 -0.139297
#
#
# Mechanical properties :
#
#
# Convention : Reuss Voigt Hill
#
# Bulk Modulus (GPa) = 21.53692 41.53610 31.53651
# Shear Modulus (GPa) = -28.84970 19.61345 -4.61813
#
# Velocity S-wave (km/s) = -3.74754 3.08996 -1.49937
# Velocity P-wave (km/s) = 2.87075 5.74023 3.51490
#
# Compressibility (1/GPa) = 0.04643189
#
# Stress axis : x y z
#
# Youngs Moduli (GPa) = 123.18653 42.16231 43.46393
#
# Poissons Ratio (x) = -0.00026 0.33016
# Poissons Ratio (y) = -0.00076 -0.14710
# Poissons Ratio (z) = 0.93576 -0.14270
#
# Static dielectric constant tensor:
#      x y z
#    x 1.785510 0.000000 0.000000 
#    y 0.000000 1.778400 0.000000 
#    z 0.000000 0.000000 1.687290 
# 
# From -- ./inp_files/11364.got.cif
#   From: 2010.05.17/outbox.cif.g08.bks.cpg/sg51_6_cif.got.tgz:11364.got - 2010.06.03 11:52:47.
