data_PCOD9401451
_publ_section_title
;
Structure prediction by ZEFSAII (Michael W. Deem and Ramdas Pophale) SiO2 
 PCOD9401451
Probable space group: P M M A
;
_chemical_formula_sum "Si O2"
_cell_formula_units_Z 56
_cell_length_a 15.443798
_cell_length_b 14.180935
_cell_length_c 12.985724
_cell_angle_alpha 90.000000
_cell_angle_beta 90.000000
_cell_angle_gamma 90.000000
_cell_volume 2843.970892
_symmetry_space_group_name_H-M "P M M A"
_symmetry_group_IT_number 51
_symmetry_cell_setting 'orthorhombic'
loop_
_space_group_symop_operation_xyz
x,y,z
1/2-x,-y,z
1/2+x,-y,-z
-x,y,-z
-x,-y,-z
1/2+x,y,-z
1/2-x,y,z
x,-y,z
loop_
_atom_site_type_symbol
_atom_site_label
_atom_site_fract_x
_atom_site_fract_y
_atom_site_fract_z
Si Si1 0.648021 0.198895 0.855024
Si Si2 0.155517 0.758964 0.550203
Si Si3 0.592194 0.109495 0.638185
Si Si4 0.354266 0.112022 0.934554
Si Si5 0.149537 0.390275 0.247776
Si Si6 0.102459 0.107325 0.712282
Si Si7 0.977999 0.397273 0.381461
O O1 0.750000 0.183013 0.865292
O O2 0.623543 0.144098 0.750486
O O3 0.634639 0.310119 0.837167
O O4 0.611161 0.161040 0.962102
O O5 0.250000 0.718128 0.524257
O O6 0.119897 0.815499 0.449583
O O7 0.163400 0.836817 0.637836
O O8 0.093586 0.683668 0.607998
O O9 0.489149 0.109361 0.653390
O O10 0.619313 0.000000 0.616505
O O11 0.250000 0.127556 0.921292
O O12 0.400192 0.144569 0.829107
O O13 0.367152 0.000000 0.948234
O O14 0.250000 0.376391 0.285741
O O15 0.144660 0.500000 0.215222
O O16 0.069634 0.374937 0.326421
O O17 0.131009 0.000000 0.722662
O O18 0.947545 0.500000 0.340813
O O19 0.000000 0.408766 0.500000
#
# Coordination Sequence:
#
# PCOD9401451 Si02
#       7
#     8   8   8   8   8   8   8
#     4  10  19  32  53  81 113 145 180 228 284 340
#     4  12  24  37  57  82 111 150 192 234 287 346
#     4  11  23  37  54  79 112 147 186 234 287 343
#     4   9  18  33  53  78 109 146 188 230 274 332
#     4   9  18  34  58  86 114 147 188 235 290 347
#     4  10  21  37  56  78 109 149 192 236 279 334
#     4  10  21  37  56  79 110 144 182 232 282 334
#
# _framework density 19.690778999999999
#
# number of rings (size 3 to 8) (size 9 to 14) (size 15 to 20)
#    0.000    1.857    0.000    4.714    0.000    6.857 
#    0.000    3.571    0.000    0.857    0.000    5.000 
#    0.000    0.000    0.000    0.000    0.000    0.000 
#
# Total GULP energy -311977.258644 kJ/mol
# GULP energy per Si atom -5571.022476 kJ/mol
# Density = 1.964596 g / cm^3
# Si number density = 19.690779 Si / 1000 Ang^3
#
#
#
# Elastic Constant Matrix: (Units=GPa)
#
#
# Indices 1 2 3 4 5 6 
#
# 1 84.2515 53.2897 39.9789 0.0000 0.0000 0.0000
# 2 53.2897 96.8610 44.6124 0.0000 0.0000 0.0000
# 3 39.9789 44.6124 110.9304 0.0000 0.0000 0.0000
# 4 0.0000 0.0000 0.0000 15.9230 0.0000 0.0000
# 5 0.0000 0.0000 0.0000 0.0000 4.5341 0.0000
# 6 0.0000 0.0000 0.0000 0.0000 0.0000 47.7651
#
#
#
# Elastic Compliance Matrix: (Units=1/GPa)
#
#
# Indices 1 2 3 4 5 6 
#
# 1 0.019121 -0.009016 -0.003265 0.000000 0.000000 0.000000
# 2 -0.009016 0.016922 -0.003556 0.000000 0.000000 0.000000
# 3 -0.003265 -0.003556 0.011622 0.000000 0.000000 0.000000
# 4 0.000000 0.000000 0.000000 0.062802 0.000000 0.000000
# 5 0.000000 0.000000 0.000000 0.000000 0.220549 0.000000
# 6 0.000000 0.000000 0.000000 0.000000 0.000000 0.020936
#
#
# Mechanical properties :
#
#
# Convention : Reuss Voigt Hill
#
# Bulk Modulus (GPa) = 62.53830 63.08943 62.81387
# Shear Modulus (GPa) = 12.85487 23.92191 18.38839
#
# Velocity S-wave (km/s) = 2.55784 3.48929 3.05922
# Velocity P-wave (km/s) = 6.36809 6.95293 6.66692
#
# Compressibility (1/GPa) = 0.01599020
#
# Stress axis : x y z
#
# Youngs Moduli (GPa) = 52.29743 59.09353 86.04612
#
# Poissons Ratio (x) = 0.53279 0.28097
# Poissons Ratio (y) = 0.47151 0.30600
# Poissons Ratio (z) = 0.17077 0.21015
#
# Static dielectric constant tensor:
#      x y z
#    x -1.457090 0.000000 0.000000 
#    y 0.000000 1.839250 0.000000 
#    z 0.000000 0.000000 1.666200 
# 
# From -- ./inp_files/16665.got.cif
#   From: 2010.05.17/outbox.cif.g08.bks.cpg/sg51_9_cif.got.tgz:16665.got - 2010.06.03 11:52:47.
