data_PCOD9401666
_publ_section_title
;
Structure prediction by ZEFSAII (Michael W. Deem and Ramdas Pophale) SiO2 
 PCOD9401666
Probable space group: P M M A
;
_chemical_formula_sum "Si O2"
_cell_formula_units_Z 36
_cell_length_a 9.853250
_cell_length_b 11.305020
_cell_length_c 18.428858
_cell_angle_alpha 90.000000
_cell_angle_beta 90.000000
_cell_angle_gamma 90.000000
_cell_volume 2052.812392
_symmetry_space_group_name_H-M "P M M A"
_symmetry_group_IT_number 51
_symmetry_cell_setting 'orthorhombic'
loop_
_space_group_symop_operation_xyz
x,y,z
1/2-x,-y,z
1/2+x,-y,-z
-x,y,-z
-x,-y,-z
1/2+x,y,-z
1/2-x,y,z
x,-y,z
loop_
_atom_site_type_symbol
_atom_site_label
_atom_site_fract_x
_atom_site_fract_y
_atom_site_fract_z
Si Si1 0.466625 0.252008 0.848510
Si Si2 0.750000 0.143234 0.880681
Si Si3 0.093913 0.143630 0.433230
Si Si4 0.750000 0.139457 0.047693
Si Si5 0.901800 0.861066 0.300390
Si Si6 0.414831 0.500000 0.924154
O O1 0.616841 0.199687 0.846832
O O2 0.380715 0.181759 0.908798
O O3 0.406975 0.221457 0.769935
O O4 0.453998 0.385596 0.876439
O O5 0.750000 0.000000 0.875102
O O6 0.750000 0.181057 0.965198
O O7 0.250000 0.184916 0.435920
O O8 0.000000 0.184491 0.500000
O O9 0.015916 0.171496 0.358625
O O10 0.097778 0.000000 0.437080
O O11 0.750000 0.000000 0.045597
O O12 0.750000 0.854640 0.333274
O O13 0.921450 0.000000 0.278647
O O14 0.250000 0.500000 0.937208
O O15 0.500000 0.500000 0.000000
#
# Coordination Sequence:
#
# PCOD9401666 Si02
#       6
#     8   4   8   4   8   4
#     4  12  24  38  58  82 113 149 197 243 294 350
#     4  11  24  37  57  85 114 145 185 240 299 358
#     4   9  17  29  48  77 113 151 186 220 270 342
#     4  11  20  37  57  79 108 145 185 236 297 356
#     4  10  19  33  53  78 112 150 187 235 292 345
#     4  12  26  44  64  82 109 152 203 254 299 349
#
# _framework density 17.536916999999999
#
# number of rings (size 3 to 8) (size 9 to 14) (size 15 to 20)
#    0.000    1.333    2.222    4.667    3.111    4.444 
#    0.000    0.000    0.000    0.000    0.000    0.778 
#    0.000    0.000    0.000    0.000    0.000    0.000 
#
# Total GULP energy -200927.918765 kJ/mol
# GULP energy per Si atom -5581.331077 kJ/mol
# Density = 1.749700 g / cm^3
# Si number density = 17.536917 Si / 1000 Ang^3
#
#
#
# Elastic Constant Matrix: (Units=GPa)
#
#
# Indices 1 2 3 4 5 6 
#
# 1 156.8763 30.7221 40.3970 0.0000 0.0000 0.0000
# 2 30.7221 49.4796 35.0194 0.0000 0.0000 0.0000
# 3 40.3970 35.0194 89.9015 0.0000 0.0000 0.0000
# 4 0.0000 0.0000 0.0000 860.3861 0.0000 0.0000
# 5 0.0000 0.0000 0.0000 0.0000 28.4420 0.0000
# 6 0.0000 0.0000 0.0000 0.0000 0.0000 17.0705
#
#
#
# Elastic Compliance Matrix: (Units=1/GPa)
#
#
# Indices 1 2 3 4 5 6 
#
# 1 0.007550 -0.003157 -0.002163 0.000000 0.000000 0.000000
# 2 -0.003157 0.029223 -0.009965 0.000000 0.000000 0.000000
# 3 -0.002163 -0.009965 0.015977 0.000000 0.000000 0.000000
# 4 0.000000 0.000000 0.000000 0.001162 0.000000 0.000000
# 5 0.000000 0.000000 0.000000 0.000000 0.035159 0.000000
# 6 0.000000 0.000000 0.000000 0.000000 0.000000 0.058581
#
#
# Mechanical properties :
#
#
# Convention : Reuss Voigt Hill
#
# Bulk Modulus (GPa) = 45.08437 56.50385 50.79411
# Shear Modulus (GPa) = 26.93766 193.85430 110.39598
#
# Velocity S-wave (km/s) = 3.92350 10.52524 7.94275
# Velocity P-wave (km/s) = 6.80362 13.41631 10.63689
#
# Compressibility (1/GPa) = 0.02218064
#
# Stress axis : x y z
#
# Youngs Moduli (GPa) = 132.45738 34.21952 62.59129
#
# Poissons Ratio (x) = 0.10803 0.13536
# Poissons Ratio (y) = 0.41816 0.62371
# Poissons Ratio (z) = 0.28646 0.34099
#
# Static dielectric constant tensor:
#      x y z
#    x 1.592170 0.000000 0.000000 
#    y 0.000000 1.582190 0.000000 
#    z 0.000000 0.000000 1.587810 
# 
# From -- ./inp_files/31330.got.cif
#   From: 2010.05.17/outbox.cif.g08.bks.cpg/sg51_16_cif.got.tgz:31330.got - 2010.06.03 11:52:47.
