data_PCOD9401122
_publ_section_title
;
Structure prediction by ZEFSAII (Michael W. Deem and Ramdas Pophale) SiO2 
 PCOD9401122
Probable space group: P M M A
;
_chemical_formula_sum "Si O2"
_cell_formula_units_Z 64
_cell_length_a 8.728898
_cell_length_b 20.321025
_cell_length_c 20.661542
_cell_angle_alpha 90.000000
_cell_angle_beta 90.000000
_cell_angle_gamma 90.000000
_cell_volume 3664.947512
_symmetry_space_group_name_H-M "P M M A"
_symmetry_group_IT_number 51
_symmetry_cell_setting 'orthorhombic'
loop_
_space_group_symop_operation_xyz
x,y,z
1/2-x,-y,z
1/2+x,-y,-z
-x,y,-z
-x,-y,-z
1/2+x,y,-z
1/2-x,y,z
x,-y,z
loop_
_atom_site_type_symbol
_atom_site_label
_atom_site_fract_x
_atom_site_fract_y
_atom_site_fract_z
Si Si1 0.564392 0.285200 0.240254
Si Si2 0.571083 0.396500 0.932678
Si Si3 0.428746 0.245527 0.102805
Si Si4 0.931398 0.837702 0.316536
Si Si5 0.934230 0.571199 0.206085
Si Si6 0.429193 0.924214 0.204173
Si Si7 0.433000 0.074978 0.428941
Si Si8 0.430301 0.888774 0.932543
O O1 0.750000 0.281639 0.230682
O O2 0.482188 0.256167 0.176711
O O3 0.526444 0.237889 0.300177
O O4 0.518651 0.362025 0.243031
O O5 0.750000 0.413128 0.929591
O O6 0.556560 0.317016 0.929353
O O7 0.489049 0.421866 0.868099
O O8 0.500000 0.419672 0.000000
O O9 0.250000 0.225418 0.099569
O O10 0.533442 0.189316 0.072275
O O11 0.750000 0.841005 0.326499
O O12 0.976074 0.878575 0.252369
O O13 0.012164 0.872544 0.376518
O O14 0.750000 0.571073 0.206324
O O15 0.987905 0.500000 0.231237
O O16 0.250000 0.905848 0.207000
O O17 0.488956 0.917620 0.131042
O O18 0.443336 0.000000 0.224895
O O19 0.500000 0.088223 0.500000
O O20 0.250000 0.075823 0.432141
O O21 0.481009 0.000000 0.410472
O O22 0.250000 0.900848 0.930296
O O23 0.500000 0.913271 0.000000
#
# Coordination Sequence:
#
# PCOD9401122 Si02
#       8
#     8   8   8   8   8   8   8   8
#     4   9  18  32  51  76 103 132 169 213 258 305
#     4  10  20  31  45  66  90 120 158 203 256 318
#     4  10  19  32  50  71  94 122 159 207 262 317
#     4  11  21  34  56  84 112 144 179 218 260 308
#     4   9  18  33  51  69  94 129 166 208 259 313
#     4  11  24  40  56  75 100 131 171 218 264 314
#     4  10  21  37  57  83 117 155 190 223 259 304
#     4  12  24  37  53  71  93 124 163 213 271 328
#
# _framework density 17.462731999999999
#
# number of rings (size 3 to 8) (size 9 to 14) (size 15 to 20)
#    0.000    1.750    1.250    3.750    0.000    7.000 
#    0.000    0.000    0.000    0.000    0.000    0.000 
#    0.000    0.500    0.000    0.875    0.000    1.250 
#
# Total GULP energy -357439.002321 kJ/mol
# GULP energy per Si atom -5584.984411 kJ/mol
# Density = 1.742299 g / cm^3
# Si number density = 17.462732 Si / 1000 Ang^3
#
#
#
# Elastic Constant Matrix: (Units=GPa)
#
#
# Indices 1 2 3 4 5 6 
#
# 1 36.8919 15.5228 18.0895 0.0000 0.0000 0.0000
# 2 15.5228 98.9579 47.3194 0.0000 0.0000 0.0000
# 3 18.0895 47.3194 83.6074 0.0000 0.0000 0.0000
# 4 0.0000 0.0000 0.0000 17.1420 0.0000 0.0000
# 5 0.0000 0.0000 0.0000 0.0000 27.6734 0.0000
# 6 0.0000 0.0000 0.0000 0.0000 0.0000 20.9874
#
#
#
# Elastic Compliance Matrix: (Units=1/GPa)
#
#
# Indices 1 2 3 4 5 6 
#
# 1 0.030683 -0.002247 -0.005367 0.000000 0.000000 0.000000
# 2 -0.002247 0.014019 -0.007449 0.000000 0.000000 0.000000
# 3 -0.005367 -0.007449 0.017338 0.000000 0.000000 0.000000
# 4 0.000000 0.000000 0.000000 0.058336 0.000000 0.000000
# 5 0.000000 0.000000 0.000000 0.000000 0.036136 0.000000
# 6 0.000000 0.000000 0.000000 0.000000 0.000000 0.047648
#
#
# Mechanical properties :
#
#
# Convention : Reuss Voigt Hill
#
# Bulk Modulus (GPa) = 31.33259 42.36894 36.85077
# Shear Modulus (GPa) = 20.41458 22.39559 21.40509
#
# Velocity S-wave (km/s) = 3.42283 3.58506 3.50488
# Velocity P-wave (km/s) = 5.79677 6.43832 6.12595
#
# Compressibility (1/GPa) = 0.03191565
#
# Stress axis : x y z
#
# Youngs Moduli (GPa) = 32.59107 71.32963 57.67826
#
# Poissons Ratio (x) = 0.16025 0.30957
# Poissons Ratio (y) = 0.07322 0.42962
# Poissons Ratio (z) = 0.17492 0.53130
#
# Static dielectric constant tensor:
#      x y z
#    x 1.581440 0.000000 0.000000 
#    y 0.000000 1.656310 0.000000 
#    z 0.000000 0.000000 1.558550 
# 
# From -- ./inp_files/28425.got.cif
#   From: 2010.05.17/outbox.cif.g08.bks.cpg/sg51_15_cif.got.tgz:28425.got - 2010.06.03 11:52:47.
