data_PCOD9401943
_publ_section_title
;
Structure prediction by ZEFSAII (Michael W. Deem and Ramdas Pophale) SiO2 
 PCOD9401943
Probable space group: P M M A
;
_chemical_formula_sum "Si O2"
_cell_formula_units_Z 56
_cell_length_a 8.781859
_cell_length_b 26.075174
_cell_length_c 14.810823
_cell_angle_alpha 90.000000
_cell_angle_beta 90.000000
_cell_angle_gamma 90.000000
_cell_volume 3391.508164
_symmetry_space_group_name_H-M "P M M A"
_symmetry_group_IT_number 51
_symmetry_cell_setting 'orthorhombic'
loop_
_space_group_symop_operation_xyz
x,y,z
1/2-x,-y,z
1/2+x,-y,-z
-x,y,-z
-x,-y,-z
1/2+x,y,-z
1/2-x,y,z
x,-y,z
loop_
_atom_site_type_symbol
_atom_site_label
_atom_site_fract_x
_atom_site_fract_y
_atom_site_fract_z
Si Si1 0.067956 0.940809 0.098244
Si Si2 0.066629 0.441640 0.098248
Si Si3 0.432547 0.311839 0.596119
Si Si4 0.932787 0.808906 0.404784
Si Si5 0.066760 0.747899 0.899310
Si Si6 0.566809 0.345510 0.782017
Si Si7 0.566435 0.149520 0.213042
O O1 0.250000 0.937526 0.093626
O O2 0.005101 0.901022 0.170615
O O3 0.025619 0.000000 0.118105
O O4 0.000000 0.927817 0.000000
O O5 0.250000 0.440951 0.091897
O O6 0.019251 0.500000 0.120835
O O7 0.021764 0.398851 0.170401
O O8 0.000000 0.428826 0.000000
O O9 0.500000 0.328663 0.500000
O O10 0.250000 0.315987 0.595944
O O11 0.472639 0.251299 0.606811
O O12 0.502350 0.340692 0.681365
O O13 0.750000 0.811666 0.409343
O O14 0.983478 0.838939 0.315574
O O15 0.000000 0.826736 0.500000
O O16 0.250000 0.743613 0.902327
O O17 0.027826 0.801055 0.848510
O O18 0.999979 0.700982 0.841522
O O19 0.000000 0.747489 0.000000
O O20 0.750000 0.341912 0.780723
O O21 0.750000 0.145067 0.212523
#
# Coordination Sequence:
#
# PCOD9401943 Si02
#       7
#     8   8   8   8   8   8   8
#     4  10  21  36  54  77 103 134 174 216 257 302
#     4   9  19  35  53  74 101 134 175 219 259 304
#     4  10  19  34  53  76 106 137 171 213 256 307
#     4   9  18  33  51  75 103 134 168 207 251 301
#     4  11  22  35  48  71 107 140 170 209 255 309
#     4  11  21  33  52  77 103 137 174 210 260 313
#     4  10  20  35  53  75 104 136 171 209 255 305
#
# _framework density 16.511828000000001
#
# number of rings (size 3 to 8) (size 9 to 14) (size 15 to 20)
#    0.000    2.000    1.429    2.571    0.000    6.571 
#    0.000    0.000    0.000    0.857    0.000    0.000 
#    0.000    0.000    0.000    0.000    0.000    0.000 
#
# Total GULP energy -312608.653236 kJ/mol
# GULP energy per Si atom -5582.297379 kJ/mol
# Density = 1.647425 g / cm^3
# Si number density = 16.511828 Si / 1000 Ang^3
#
#
#
# Elastic Constant Matrix: (Units=GPa)
#
#
# Indices 1 2 3 4 5 6 
#
# 1 35.3579 36.4145 48.1274 0.0000 0.0000 0.0000
# 2 36.4145 95.4839 92.3868 0.0000 0.0000 0.0000
# 3 48.1274 92.3868 183.0190 0.0000 0.0000 0.0000
# 4 0.0000 0.0000 0.0000 21.1203 0.0000 0.0000
# 5 0.0000 0.0000 0.0000 0.0000 33.2346 0.0000
# 6 0.0000 0.0000 0.0000 0.0000 0.0000 19.4452
#
#
#
# Elastic Compliance Matrix: (Units=1/GPa)
#
#
# Indices 1 2 3 4 5 6 
#
# 1 0.050775 -0.012598 -0.006992 0.000000 0.000000 0.000000
# 2 -0.012598 0.023598 -0.008599 0.000000 0.000000 0.000000
# 3 -0.006992 -0.008599 0.011643 0.000000 0.000000 0.000000
# 4 0.000000 0.000000 0.000000 0.047348 0.000000 0.000000
# 5 0.000000 0.000000 0.000000 0.000000 0.030089 0.000000
# 6 0.000000 0.000000 0.000000 0.000000 0.000000 0.051427
#
#
# Mechanical properties :
#
#
# Convention : Reuss Voigt Hill
#
# Bulk Modulus (GPa) = 33.74233 74.19089 53.96661
# Shear Modulus (GPa) = 17.78488 23.88881 20.83685
#
# Velocity S-wave (km/s) = 3.28548 3.80777 3.55623
# Velocity P-wave (km/s) = 5.90526 8.02257 7.04393
#
# Compressibility (1/GPa) = 0.02963636
#
# Stress axis : x y z
#
# Youngs Moduli (GPa) = 19.69484 42.37704 85.88550
#
# Poissons Ratio (x) = 0.53388 0.60054
# Poissons Ratio (y) = 0.24812 0.73853
# Poissons Ratio (z) = 0.13771 0.36440
#
# Static dielectric constant tensor:
#      x y z
#    x 1.555200 0.000000 0.000000 
#    y 0.000000 1.544370 0.000000 
#    z 0.000000 0.000000 1.537030 
# 
# From -- ./inp_files/21788.got.cif
#   From: 2010.05.17/outbox.cif.g08.bks.cpg/sg51_11_cif.got.tgz:21788.got - 2010.06.03 11:52:47.
