data_PCOD9401210
_publ_section_title
;
Structure prediction by ZEFSAII (Michael W. Deem and Ramdas Pophale) SiO2 
 PCOD9401210
Probable space group: P M M A
;
_chemical_formula_sum "Si O2"
_cell_formula_units_Z 64
_cell_length_a 20.630815
_cell_length_b 8.466861
_cell_length_c 20.745488
_cell_angle_alpha 90.000000
_cell_angle_beta 90.000000
_cell_angle_gamma 90.000000
_cell_volume 3623.785392
_symmetry_space_group_name_H-M "P M M A"
_symmetry_group_IT_number 51
_symmetry_cell_setting 'orthorhombic'
loop_
_space_group_symop_operation_xyz
x,y,z
1/2-x,-y,z
1/2+x,-y,-z
-x,y,-z
-x,-y,-z
1/2+x,y,-z
1/2-x,y,z
x,-y,z
loop_
_atom_site_type_symbol
_atom_site_label
_atom_site_fract_x
_atom_site_fract_y
_atom_site_fract_z
Si Si1 0.934718 0.692403 0.312672
Si Si2 0.569865 0.309463 0.028207
Si Si3 0.582552 0.311327 0.664889
Si Si4 0.540931 0.308775 0.169883
Si Si5 0.397134 0.810978 0.195548
Si Si6 0.323919 0.690942 0.589666
Si Si7 0.822755 0.809335 0.930177
Si Si8 0.175810 0.811044 0.446308
O O1 0.934515 0.500000 0.314342
O O2 0.926658 0.738637 0.237667
O O3 0.877526 0.747538 0.359390
O O4 0.007021 0.742862 0.334570
O O5 0.571214 0.500000 0.025975
O O6 0.574026 0.260189 0.103090
O O7 0.500000 0.258628 0.000000
O O8 0.626721 0.246563 0.983553
O O9 0.581927 0.500000 0.661273
O O10 0.611933 0.260406 0.733669
O O11 0.624932 0.245786 0.606638
O O12 0.536249 0.500000 0.169789
O O13 0.468247 0.241904 0.171955
O O14 0.347096 0.758437 0.140646
O O15 0.394932 0.000000 0.200767
O O16 0.250000 0.742766 0.604420
O O17 0.324345 0.500000 0.590562
O O18 0.339653 0.745886 0.517365
O O19 0.750000 0.753389 0.942882
O O20 0.822874 0.000000 0.930033
O O21 0.250000 0.759879 0.430751
O O22 0.175081 0.000000 0.448581
#
# Coordination Sequence:
#
# PCOD9401210 Si02
#       8
#     8   8   8   8   8   8   8   8
#     4   8  16  31  51  76 104 132 164 210 257 297
#     4  10  19  32  54  80 104 134 175 221 264 309
#     4  10  20  34  53  76 105 137 170 210 256 306
#     4   9  17  32  52  75 104 134 169 213 261 309
#     4  10  19  32  51  74 101 135 175 213 256 307
#     4   9  17  32  54  75  96 129 173 211 248 303
#     4  10  22  37  51  72 105 141 176 216 262 314
#     4  10  21  36  52  72 101 134 168 210 257 305
#
# _framework density 17.661090000000002
#
# number of rings (size 3 to 8) (size 9 to 14) (size 15 to 20)
#    0.000    2.500    1.250    1.875    0.000    3.250 
#    0.000    7.500    0.000    2.250    0.000    1.750 
#    0.000    0.000    0.000    0.000    0.000    0.000 
#
# Total GULP energy -356894.063422 kJ/mol
# GULP energy per Si atom -5576.469741 kJ/mol
# Density = 1.762089 g / cm^3
# Si number density = 17.661090 Si / 1000 Ang^3
#
#
#
# Elastic Constant Matrix: (Units=GPa)
#
#
# Indices 1 2 3 4 5 6 
#
# 1 130.6659 18.4557 114.6731 0.0000 0.0000 0.0000
# 2 18.4557 11.9310 22.3051 0.0000 0.0000 0.0000
# 3 114.6731 22.3051 162.4358 0.0000 0.0000 0.0000
# 4 0.0000 0.0000 0.0000 14.1983 0.0000 0.0000
# 5 0.0000 0.0000 0.0000 0.0000 30.2716 0.0000
# 6 0.0000 0.0000 0.0000 0.0000 0.0000 20.3078
#
#
#
# Elastic Compliance Matrix: (Units=1/GPa)
#
#
# Indices 1 2 3 4 5 6 
#
# 1 0.020457 -0.006250 -0.013583 0.000000 0.000000 0.000000
# 2 -0.006250 0.114673 -0.011335 0.000000 0.000000 0.000000
# 3 -0.013583 -0.011335 0.017302 0.000000 0.000000 0.000000
# 4 0.000000 0.000000 0.000000 0.070431 0.000000 0.000000
# 5 0.000000 0.000000 0.000000 0.000000 0.033034 0.000000
# 6 0.000000 0.000000 0.000000 0.000000 0.000000 0.049242
#
#
# Mechanical properties :
#
#
# Convention : Reuss Voigt Hill
#
# Bulk Modulus (GPa) = 11.09922 68.43338 39.76630
# Shear Modulus (GPa) = 12.57842 22.92878 17.75360
#
# Velocity S-wave (km/s) = 2.67162 3.60705 3.17399
# Velocity P-wave (km/s) = 3.97680 7.49533 5.99979
#
# Compressibility (1/GPa) = 0.09009645
#
# Stress axis : x y z
#
# Youngs Moduli (GPa) = 48.88373 8.72047 57.79660
#
# Poissons Ratio (x) = 0.05450 0.78508
# Poissons Ratio (y) = 0.30550 0.65510
# Poissons Ratio (z) = 0.66401 0.09884
#
# Static dielectric constant tensor:
#      x y z
#    x 1.591010 0.000000 0.000000 
#    y 0.000000 1.604890 0.000000 
#    z 0.000000 0.000000 1.596000 
# 
# From -- ./inp_files/33964.got.cif
#   From: 2010.05.17/outbox.cif.g08.bks.cpg/sg51_17_cif.got.tgz:33964.got - 2010.06.03 11:52:47.
