data_PCOD9401614
_publ_section_title
;
Structure prediction by ZEFSAII (Michael W. Deem and Ramdas Pophale) SiO2 
 PCOD9401614
Probable space group: P M M A
;
_chemical_formula_sum "Si O2"
_cell_formula_units_Z 64
_cell_length_a 15.115861
_cell_length_b 7.634347
_cell_length_c 28.840894
_cell_angle_alpha 90.000000
_cell_angle_beta 90.000000
_cell_angle_gamma 90.000000
_cell_volume 3328.231325
_symmetry_space_group_name_H-M "P M M A"
_symmetry_group_IT_number 51
_symmetry_cell_setting 'orthorhombic'
loop_
_space_group_symop_operation_xyz
x,y,z
1/2-x,-y,z
1/2+x,-y,-z
-x,y,-z
-x,-y,-z
1/2+x,y,-z
1/2-x,y,z
x,-y,z
loop_
_atom_site_type_symbol
_atom_site_label
_atom_site_fract_x
_atom_site_fract_y
_atom_site_fract_z
Si Si1 0.030836 0.786513 0.569306
Si Si2 0.851188 0.786151 0.346120
Si Si3 0.846219 0.791176 0.882419
Si Si4 0.155560 0.711231 0.920612
Si Si5 0.353186 0.786613 0.479457
Si Si6 0.974782 0.706245 0.156315
Si Si7 0.091562 0.206592 0.018181
Si Si8 0.848728 0.789676 0.240646
O O1 0.075462 0.727329 0.617167
O O2 0.099453 0.737425 0.528133
O O3 0.929747 0.731540 0.557543
O O4 0.028835 0.000000 0.569300
O O5 0.750000 0.735055 0.358613
O O6 0.868005 0.729544 0.293153
O O7 0.852069 0.000000 0.346719
O O8 0.750000 0.722014 0.869244
O O9 0.873710 0.720051 0.933349
O O10 0.924102 0.761219 0.846275
O O11 0.839025 0.000000 0.887507
O O12 0.250000 0.760564 0.899266
O O13 0.150965 0.500000 0.922151
O O14 0.077276 0.782195 0.888415
O O15 0.152115 0.774386 0.973280
O O16 0.250000 0.727912 0.474893
O O17 0.349858 0.000000 0.478345
O O18 0.973861 0.500000 0.150031
O O19 0.921171 0.744652 0.202656
O O20 0.077033 0.000000 0.026302
O O21 0.000000 0.287110 0.000000
O O22 0.750000 0.725451 0.227681
O O23 0.844722 0.000000 0.242534
#
# Coordination Sequence:
#
# PCOD9401614 Si02
#       8
#     8   8   8   8   8   8   8   8
#     4   8  12  17  27  44  68 102 142 181 220 262
#     4   8  13  22  37  56  77 104 142 185 224 266
#     4  10  21  37  55  74  97 125 158 194 228 265
#     4  10  21  34  48  69  97 126 152 180 219 269
#     4   8  12  16  23  40  69 104 140 176 216 266
#     4  11  22  35  52  72  97 124 153 190 233 282
#     4  10  19  33  53  74  97 123 153 186 219 260
#     4   9  18  32  50  71  93 119 153 193 238 286
#
# _framework density 19.229433
#
# number of rings (size 3 to 8) (size 9 to 14) (size 15 to 20)
#    0.000    2.750    1.250    3.000    0.000    4.500 
#    0.000    0.000    0.000    0.750    0.000    3.500 
#    0.000    0.000    0.000    2.250    0.000    7.000 
#
# Total GULP energy -356709.196344 kJ/mol
# GULP energy per Si atom -5573.581193 kJ/mol
# Density = 1.918567 g / cm^3
# Si number density = 19.229433 Si / 1000 Ang^3
#
#
#
# Elastic Constant Matrix: (Units=GPa)
#
#
# Indices 1 2 3 4 5 6 
#
# 1 194.3942 6.5493 92.5136 0.0000 0.0000 0.0000
# 2 6.5493 35.3455 -0.8220 0.0000 0.0000 0.0000
# 3 92.5136 -0.8220 98.4299 0.0000 0.0000 0.0000
# 4 0.0000 0.0000 0.0000 9.4046 0.0000 0.0000
# 5 0.0000 0.0000 0.0000 0.0000 35.1792 0.0000
# 6 0.0000 0.0000 0.0000 0.0000 0.0000 20.0359
#
#
#
# Elastic Compliance Matrix: (Units=1/GPa)
#
#
# Indices 1 2 3 4 5 6 
#
# 1 0.009441 -0.001956 -0.008890 0.000000 0.000000 0.000000
# 2 -0.001956 0.028703 0.002078 0.000000 0.000000 0.000000
# 3 -0.008890 0.002078 0.018532 0.000000 0.000000 0.000000
# 4 0.000000 0.000000 0.000000 0.106330 0.000000 0.000000
# 5 0.000000 0.000000 0.000000 0.000000 0.028426 0.000000
# 6 0.000000 0.000000 0.000000 0.000000 0.000000 0.049910
#
#
# Mechanical properties :
#
#
# Convention : Reuss Voigt Hill
#
# Bulk Modulus (GPa) = 25.54877 58.29460 41.92168
# Shear Modulus (GPa) = 18.38748 28.25254 23.32001
#
# Velocity S-wave (km/s) = 3.09563 3.83722 3.48620
# Velocity P-wave (km/s) = 5.10807 7.07202 6.16870
#
# Compressibility (1/GPa) = 0.03914083
#
# Stress axis : x y z
#
# Youngs Moduli (GPa) = 105.92436 34.83969 53.96039
#
# Poissons Ratio (x) = 0.06815 0.47969
# Poissons Ratio (y) = 0.20719 -0.11214
# Poissons Ratio (z) = 0.94162 -0.07240
#
# Static dielectric constant tensor:
#      x y z
#    x 1.700090 0.000000 0.000000 
#    y 0.000000 1.710240 0.000000 
#    z 0.000000 0.000000 1.674050 
# 
# From -- ./inp_files/37803.got.cif
#   From: 2010.05.17/outbox.cif.g08.bks.cpg/sg51_19_cif.got.tgz:37803.got - 2010.06.03 11:52:47.
