data_PCOD9401301
_publ_section_title
;
Structure prediction by ZEFSAII (Michael W. Deem and Ramdas Pophale) SiO2 
 PCOD9401301
Probable space group: P M M A
;
_chemical_formula_sum "Si O2"
_cell_formula_units_Z 64
_cell_length_a 8.231725
_cell_length_b 16.432656
_cell_length_c 23.093621
_cell_angle_alpha 90.000000
_cell_angle_beta 90.000000
_cell_angle_gamma 90.000000
_cell_volume 3123.853449
_symmetry_space_group_name_H-M "P M M A"
_symmetry_group_IT_number 51
_symmetry_cell_setting 'orthorhombic'
loop_
_space_group_symop_operation_xyz
x,y,z
1/2-x,-y,z
1/2+x,-y,-z
-x,y,-z
-x,-y,-z
1/2+x,y,-z
1/2-x,y,z
x,-y,z
loop_
_atom_site_type_symbol
_atom_site_label
_atom_site_fract_x
_atom_site_fract_y
_atom_site_fract_z
Si Si1 0.058243 0.914087 0.408827
Si Si2 0.927733 0.594778 0.788570
Si Si3 0.444404 0.264093 0.438349
Si Si4 0.434026 0.688753 0.684053
Si Si5 0.437495 0.407957 0.909629
Si Si6 0.446856 0.770640 0.937509
Si Si7 0.948184 0.091351 0.153134
Si Si8 0.937997 0.121772 0.284444
O O1 0.250000 0.914058 0.421628
O O2 0.989384 0.829218 0.432612
O O3 0.035138 0.911051 0.339404
O O4 0.986367 0.000000 0.429684
O O5 0.750000 0.616861 0.812476
O O6 0.928989 0.500000 0.775061
O O7 0.960268 0.640821 0.729800
O O8 0.053826 0.606403 0.840396
O O9 0.500000 0.297375 0.500000
O O10 0.250000 0.261622 0.435789
O O11 0.506734 0.310747 0.381894
O O12 0.250000 0.658270 0.686899
O O13 0.437372 0.781503 0.706278
O O14 0.250000 0.411902 0.928434
O O15 0.507897 0.500000 0.920633
O O16 0.509552 0.323177 0.933195
O O17 0.250000 0.766830 0.933942
O O18 0.501905 0.833423 0.887301
O O19 0.500000 0.802793 0.000000
O O20 0.750000 0.094127 0.153595
O O21 0.999147 0.101634 0.220266
O O22 0.995197 0.000000 0.133330
O O23 0.750000 0.094194 0.288950
#
# Coordination Sequence:
#
# PCOD9401301 Si02
#       8
#     8   8   8   8   8   8   8   8
#     4   9  18  31  46  68 100 132 160 200 256 309
#     4  10  20  33  52  81 112 136 160 195 242 297
#     4  10  20  34  50  69  96 132 175 218 257 299
#     4  10  19  32  52  76 102 134 170 207 249 299
#     4   9  18  34  55  77 103 135 167 202 249 305
#     4  10  21  36  52  72  98 130 171 214 254 302
#     4   9  17  30  49  71  96 128 165 208 256 302
#     4   9  17  30  50  74  96 123 164 208 250 302
#
# _framework density 20.487517
#
# number of rings (size 3 to 8) (size 9 to 14) (size 15 to 20)
#    0.000    2.500    0.000    2.250    0.000    5.750 
#    0.000    0.625    0.000    1.125    0.000    0.000 
#    0.000    0.000    0.000    0.000    0.000    0.000 
#
# Total GULP energy -356774.991795 kJ/mol
# GULP energy per Si atom -5574.609247 kJ/mol
# Density = 2.044089 g / cm^3
# Si number density = 20.487517 Si / 1000 Ang^3
#
#
#
# Elastic Constant Matrix: (Units=GPa)
#
#
# Indices 1 2 3 4 5 6 
#
# 1 17.7288 7.6879 -14.3494 0.0000 0.0000 0.0000
# 2 7.6879 47.0947 42.7283 0.0000 0.0000 0.0000
# 3 -14.3494 42.7283 83.5753 0.0000 0.0000 0.0000
# 4 0.0000 0.0000 0.0000 -15.5910 0.0000 0.0000
# 5 0.0000 0.0000 0.0000 0.0000 21.9437 0.0000
# 6 0.0000 0.0000 0.0000 0.0000 0.0000 1.7446
#
#
#
# Elastic Compliance Matrix: (Units=1/GPa)
#
#
# Indices 1 2 3 4 5 6 
#
# 1 0.158095 -0.094071 0.075238 0.000000 0.000000 0.000000
# 2 -0.094071 0.095579 -0.065017 0.000000 0.000000 0.000000
# 3 0.075238 -0.065017 0.058123 0.000000 0.000000 0.000000
# 4 0.000000 0.000000 0.000000 -0.064140 0.000000 0.000000
# 5 0.000000 0.000000 0.000000 0.000000 0.045571 0.000000
# 6 0.000000 0.000000 0.000000 0.000000 0.000000 0.573187
#
#
# Mechanical properties :
#
#
# Convention : Reuss Voigt Hill
#
# Bulk Modulus (GPa) = 6.93966 24.50359 15.72162
# Shear Modulus (GPa) = 4.62044 9.10827 6.86435
#
# Velocity S-wave (km/s) = 1.50338 2.11079 1.83242
# Velocity P-wave (km/s) = 2.53143 4.23400 3.48819
#
# Compressibility (1/GPa) = 0.14409929
#
# Stress axis : x y z
#
# Youngs Moduli (GPa) = 6.32531 10.46255 17.20477
#
# Poissons Ratio (x) = 0.98422 -1.29446
# Poissons Ratio (y) = 0.59503 1.11860
# Poissons Ratio (z) = -0.47590 0.68024
#
# Static dielectric constant tensor:
#      x y z
#    x 1.721470 0.000000 0.000000 
#    y 0.000000 1.771040 0.000000 
#    z 0.000000 0.000000 1.711660 
# 
# From -- ./inp_files/32438.got.cif
#   From: 2010.05.17/outbox.cif.g08.bks.cpg/sg51_17_cif.got.tgz:32438.got - 2010.06.03 11:52:47.
