data_PCOD9401440
_publ_section_title
;
Structure prediction by ZEFSAII (Michael W. Deem and Ramdas Pophale) SiO2 
 PCOD9401440
Probable space group: P M M A
;
_chemical_formula_sum "Si O2"
_cell_formula_units_Z 40
_cell_length_a 8.661406
_cell_length_b 26.705824
_cell_length_c 9.389305
_cell_angle_alpha 90.000000
_cell_angle_beta 90.000000
_cell_angle_gamma 90.000000
_cell_volume 2171.839991
_symmetry_space_group_name_H-M "P M M A"
_symmetry_group_IT_number 51
_symmetry_cell_setting 'orthorhombic'
loop_
_space_group_symop_operation_xyz
x,y,z
1/2-x,-y,z
1/2+x,-y,-z
-x,y,-z
-x,-y,-z
1/2+x,y,-z
1/2-x,y,z
x,-y,z
loop_
_atom_site_type_symbol
_atom_site_label
_atom_site_fract_x
_atom_site_fract_y
_atom_site_fract_z
Si Si1 0.064019 0.336236 0.161257
Si Si2 0.935262 0.755924 0.340994
Si Si3 0.934928 0.057873 0.656884
Si Si4 0.065019 0.853189 0.841992
Si Si5 0.436220 0.446294 0.161114
O O1 0.250000 0.333201 0.156539
O O2 0.018234 0.391748 0.219221
O O3 0.998060 0.292331 0.257863
O O4 0.000000 0.331566 0.000000
O O5 0.750000 0.753956 0.345193
O O6 0.981737 0.805784 0.254626
O O7 0.000000 0.757693 0.500000
O O8 0.750000 0.061685 0.654049
O O9 0.000000 0.069850 0.500000
O O10 0.002586 0.096438 0.769678
O O11 0.976667 0.000000 0.688429
O O12 0.250000 0.854884 0.847117
O O13 0.000000 0.847264 0.000000
O O14 0.250000 0.446364 0.156199
O O15 0.485232 0.500000 0.226975
O O16 0.500000 0.446568 0.000000
#
# Coordination Sequence:
#
# PCOD9401440 Si02
#       5
#     8   8   8   8   8
#     4  10  19  32  53  80 110 143 179 222 270 320
#     4  11  24  40  58  80 107 141 181 225 274 328
#     4  10  21  38  61  88 118 152 188 226 269 319
#     4  11  24  40  60  85 113 146 183 226 274 323
#     4   8  14  25  43  70 103 137 173 214 261 313
#
# _framework density 18.417563000000001
#
# number of rings (size 3 to 8) (size 9 to 14) (size 15 to 20)
#    0.000    2.000    0.000    3.600    0.000    8.800 
#    0.000    0.000    0.000    0.600    0.000    0.000 
#    0.000    0.000    0.000    0.000    0.000    0.000 
#
# Total GULP energy -223221.012703 kJ/mol
# GULP energy per Si atom -5580.525318 kJ/mol
# Density = 1.837564 g / cm^3
# Si number density = 18.417563 Si / 1000 Ang^3
#
#
#
# Elastic Constant Matrix: (Units=GPa)
#
#
# Indices 1 2 3 4 5 6 
#
# 1 42.8104 46.8822 38.4442 0.0000 0.0000 0.0000
# 2 46.8822 156.8611 98.0171 0.0000 0.0000 0.0000
# 3 38.4442 98.0171 124.3812 0.0000 0.0000 0.0000
# 4 0.0000 0.0000 0.0000 -41.2666 0.0000 0.0000
# 5 0.0000 0.0000 0.0000 0.0000 31.6888 0.0000
# 6 0.0000 0.0000 0.0000 0.0000 0.0000 25.6728
#
#
#
# Elastic Compliance Matrix: (Units=1/GPa)
#
#
# Indices 1 2 3 4 5 6 
#
# 1 0.036400 -0.007583 -0.005275 0.000000 0.000000 0.000000
# 2 -0.007583 0.014139 -0.008799 0.000000 0.000000 0.000000
# 3 -0.005275 -0.008799 0.016604 0.000000 0.000000 0.000000
# 4 0.000000 0.000000 0.000000 -0.024233 0.000000 0.000000
# 5 0.000000 0.000000 0.000000 0.000000 0.031557 0.000000
# 6 0.000000 0.000000 0.000000 0.000000 0.000000 0.038952
#
#
# Mechanical properties :
#
#
# Convention : Reuss Voigt Hill
#
# Bulk Modulus (GPa) = 41.96373 76.74887 59.35630
# Shear Modulus (GPa) = 30.36273 12.59961 21.48117
#
# Velocity S-wave (km/s) = 4.06467 2.61838 3.41888
# Velocity P-wave (km/s) = 6.69797 7.13465 6.91976
#
# Compressibility (1/GPa) = 0.02383010
#
# Stress axis : x y z
#
# Youngs Moduli (GPa) = 27.47255 70.72443 60.22702
#
# Poissons Ratio (x) = 0.53630 0.31770
# Poissons Ratio (y) = 0.20832 0.52991
# Poissons Ratio (z) = 0.14492 0.62228
#
# Static dielectric constant tensor:
#      x y z
#    x 1.618700 0.000000 0.000000 
#    y 0.000000 1.671740 0.000000 
#    z 0.000000 0.000000 1.574020 
# 
# From -- ./inp_files/5197.got.cif
#   From: 2010.05.17/outbox.cif.g08.bks.cpg/sg51_3_cif.got.tgz:5197.got - 2010.06.03 11:52:47.
