data_PCOD9401197
_publ_section_title
;
Structure prediction by ZEFSAII (Michael W. Deem and Ramdas Pophale) SiO2 
 PCOD9401197
Probable space group: P M M A
;
_chemical_formula_sum "Si O2"
_cell_formula_units_Z 64
_cell_length_a 9.052047
_cell_length_b 14.652571
_cell_length_c 31.619618
_cell_angle_alpha 90.000000
_cell_angle_beta 90.000000
_cell_angle_gamma 90.000000
_cell_volume 4193.892107
_symmetry_space_group_name_H-M "P M M A"
_symmetry_group_IT_number 51
_symmetry_cell_setting 'orthorhombic'
loop_
_space_group_symop_operation_xyz
x,y,z
1/2-x,-y,z
1/2+x,-y,-z
-x,y,-z
-x,-y,-z
1/2+x,y,-z
1/2-x,y,z
x,-y,z
loop_
_atom_site_type_symbol
_atom_site_label
_atom_site_fract_x
_atom_site_fract_y
_atom_site_fract_z
Si Si1 0.072526 0.397432 0.838200
Si Si2 0.572646 0.602308 0.746452
Si Si3 0.925851 0.108248 0.210754
Si Si4 0.073909 0.891553 0.630664
Si Si5 0.579821 0.889003 0.542905
Si Si6 0.927011 0.207134 0.709830
Si Si7 0.573941 0.892509 0.955333
Si Si8 0.572681 0.209424 0.122564
O O1 0.250000 0.393115 0.833126
O O2 0.033687 0.500000 0.852690
O O3 0.030500 0.314585 0.868710
O O4 0.000589 0.383452 0.792262
O O5 0.750000 0.604784 0.751736
O O6 0.531889 0.500000 0.731794
O O7 0.532516 0.686418 0.716456
O O8 0.750000 0.122145 0.218335
O O9 0.961332 0.154296 0.165750
O O10 0.015496 0.154408 0.248595
O O11 0.953281 0.000000 0.209209
O O12 0.250000 0.879861 0.630278
O O13 0.005571 0.863349 0.585583
O O14 0.001543 0.836667 0.668898
O O15 0.043663 0.000000 0.636560
O O16 0.500000 0.857916 0.500000
O O17 0.750000 0.859499 0.544181
O O18 0.579202 0.000000 0.541832
O O19 0.750000 0.199312 0.706879
O O20 0.750000 0.881970 0.958047
O O21 0.508460 0.834495 0.917029
O O22 0.541263 0.000000 0.947765
O O23 0.500000 0.867482 0.000000
O O24 0.750000 0.204054 0.116209
#
# Coordination Sequence:
#
# PCOD9401197 Si02
#       8
#     8   8   8   8   8   8   8   8
#     4   9  17  30  50  74  96 120 153 192 232 274
#     4   9  18  32  48  66  90 120 154 195 241 283
#     4  10  20  32  45  64  93 128 160 189 225 271
#     4  10  20  32  45  62  89 127 165 198 236 282
#     4   9  16  27  44  65  89 118 156 200 241 280
#     4  11  21  31  45  65  91 123 159 197 235 278
#     4  10  21  36  54  75  98 124 155 191 231 275
#     4  10  19  32  51  73  98 125 155 191 231 276
#
# _framework density 15.260287999999999
#
# number of rings (size 3 to 8) (size 9 to 14) (size 15 to 20)
#    0.000    2.250    1.250    2.250    0.000    6.750 
#    0.000    0.000    0.000    0.375    0.000    0.000 
#    0.000    0.500    0.000    1.375    0.000    2.000 
#
# Total GULP energy -356959.152810 kJ/mol
# GULP energy per Si atom -5577.486763 kJ/mol
# Density = 1.522556 g / cm^3
# Si number density = 15.260288 Si / 1000 Ang^3
#
#
#
# Elastic Constant Matrix: (Units=GPa)
#
#
# Indices 1 2 3 4 5 6 
#
# 1 55.1095 53.6297 64.1652 0.0000 0.0000 0.0000
# 2 53.6297 102.2037 79.3840 0.0000 0.0000 0.0000
# 3 64.1652 79.3840 141.4861 0.0000 0.0000 0.0000
# 4 0.0000 0.0000 0.0000 6.9191 0.0000 0.0000
# 5 0.0000 0.0000 0.0000 0.0000 31.8493 0.0000
# 6 0.0000 0.0000 0.0000 0.0000 0.0000 17.8840
#
#
#
# Elastic Compliance Matrix: (Units=1/GPa)
#
#
# Indices 1 2 3 4 5 6 
#
# 1 0.048495 -0.014825 -0.013675 0.000000 0.000000 0.000000
# 2 -0.014825 0.021874 -0.005550 0.000000 0.000000 0.000000
# 3 -0.013675 -0.005550 0.016383 0.000000 0.000000 0.000000
# 4 0.000000 0.000000 0.000000 0.144527 0.000000 0.000000
# 5 0.000000 0.000000 0.000000 0.000000 0.031398 0.000000
# 6 0.000000 0.000000 0.000000 0.000000 0.000000 0.055916
#
#
# Mechanical properties :
#
#
# Convention : Reuss Voigt Hill
#
# Bulk Modulus (GPa) = 53.61126 77.01747 65.31436
# Shear Modulus (GPa) = 12.72559 18.10519 15.41539
#
# Velocity S-wave (km/s) = 2.89087 3.44819 3.18176
# Velocity P-wave (km/s) = 6.80811 8.15059 7.50941
#
# Compressibility (1/GPa) = 0.01865280
#
# Stress axis : x y z
#
# Youngs Moduli (GPa) = 20.62084 45.71580 61.03835
#
# Poissons Ratio (x) = 0.67775 0.83468
# Poissons Ratio (y) = 0.30571 0.33874
# Poissons Ratio (z) = 0.28198 0.25371
#
# Static dielectric constant tensor:
#      x y z
#    x 1.509600 0.000000 0.000000 
#    y 0.000000 1.514600 0.000000 
#    z 0.000000 0.000000 1.472100 
# 
# From -- ./inp_files/37629.got.cif
#   From: 2010.05.17/outbox.cif.g08.bks.cpg/sg51_19_cif.got.tgz:37629.got - 2010.06.03 11:52:47.
