data_PCOD9401368
_publ_section_title
;
Structure prediction by ZEFSAII (Michael W. Deem and Ramdas Pophale) SiO2 
 PCOD9401368
Probable space group: P M M A
;
_chemical_formula_sum "Si O2"
_cell_formula_units_Z 64
_cell_length_a 23.268856
_cell_length_b 8.703258
_cell_length_c 17.922669
_cell_angle_alpha 90.000000
_cell_angle_beta 90.000000
_cell_angle_gamma 90.000000
_cell_volume 3629.606752
_symmetry_space_group_name_H-M "P M M A"
_symmetry_group_IT_number 51
_symmetry_cell_setting 'orthorhombic'
loop_
_space_group_symop_operation_xyz
x,y,z
1/2-x,-y,z
1/2+x,-y,-z
-x,y,-z
-x,-y,-z
1/2+x,y,-z
1/2-x,y,z
x,-y,z
loop_
_atom_site_type_symbol
_atom_site_label
_atom_site_fract_x
_atom_site_fract_y
_atom_site_fract_z
Si Si1 0.313683 0.685127 0.246925
Si Si2 0.686101 0.187143 0.074224
Si Si3 0.084138 0.685485 0.355936
Si Si4 0.524057 0.320712 0.915997
Si Si5 0.431121 0.176078 0.513435
Si Si6 0.850868 0.817385 0.909166
Si Si7 0.951130 0.683198 0.330994
Si Si8 0.580088 0.815850 0.177067
O O1 0.250000 0.733016 0.273470
O O2 0.315547 0.500000 0.247244
O O3 0.366753 0.738475 0.298491
O O4 0.322311 0.741334 0.162606
O O5 0.750000 0.236734 0.096283
O O6 0.635926 0.235924 0.130264
O O7 0.685239 0.000000 0.073702
O O8 0.673134 0.236387 0.989289
O O9 0.084798 0.500000 0.358869
O O10 0.094585 0.749387 0.438942
O O11 0.019080 0.730098 0.331838
O O12 0.536457 0.500000 0.900703
O O13 0.581963 0.224576 0.908159
O O14 0.475448 0.259909 0.860850
O O15 0.500000 0.306912 0.000000
O O16 0.500000 0.176407 0.500000
O O17 0.423981 0.268552 0.589964
O O18 0.412443 0.000000 0.522013
O O19 0.842661 0.000000 0.904814
O O20 0.949165 0.500000 0.322207
O O21 0.919822 0.764359 0.262512
O O22 0.575855 0.000000 0.171628
#
# Coordination Sequence:
#
# PCOD9401368 Si02
#       8
#     8   8   8   8   8   8   8   8
#     4  10  21  36  53  76 109 147 185 224 268 320
#     4   9  19  35  53  73  99 134 175 220 268 313
#     4   9  18  33  52  74 104 141 174 207 258 318
#     4  11  22  35  52  75 107 139 172 216 271 328
#     4   9  17  30  51  79 107 132 164 206 253 309
#     4  11  21  35  56  78 104 137 181 228 270 318
#     4  10  19  32  52  79 111 141 171 211 265 323
#     4  11  21  34  54  78 106 138 177 220 265 314
#
# _framework density 17.632763000000001
#
# number of rings (size 3 to 8) (size 9 to 14) (size 15 to 20)
#    0.000    2.000    1.250    3.000    0.000    4.750 
#    0.000    0.000    0.000    4.500    0.000    0.000 
#    0.000    0.000    0.000    0.000    0.000    0.000 
#
# Total GULP energy -357223.222960 kJ/mol
# GULP energy per Si atom -5581.612859 kJ/mol
# Density = 1.759263 g / cm^3
# Si number density = 17.632763 Si / 1000 Ang^3
#
#
#
# Elastic Constant Matrix: (Units=GPa)
#
#
# Indices 1 2 3 4 5 6 
#
# 1 66.8645 -4.8895 29.8830 0.0000 0.0000 0.0000
# 2 -4.8895 8.5294 11.6498 0.0000 0.0000 0.0000
# 3 29.8830 11.6498 110.2839 0.0000 0.0000 0.0000
# 4 0.0000 0.0000 0.0000 32.5917 0.0000 0.0000
# 5 0.0000 0.0000 0.0000 0.0000 6.7636 0.0000
# 6 0.0000 0.0000 0.0000 0.0000 0.0000 0.5721
#
#
#
# Elastic Compliance Matrix: (Units=1/GPa)
#
#
# Indices 1 2 3 4 5 6 
#
# 1 0.020041 0.022093 -0.007764 0.000000 0.000000 0.000000
# 2 0.022093 0.161365 -0.023032 0.000000 0.000000 0.000000
# 3 -0.007764 -0.023032 0.013604 0.000000 0.000000 0.000000
# 4 0.000000 0.000000 0.000000 0.030683 0.000000 0.000000
# 5 0.000000 0.000000 0.000000 0.000000 0.147851 0.000000
# 6 0.000000 0.000000 0.000000 0.000000 0.000000 1.747963
#
#
# Mechanical properties :
#
#
# Convention : Reuss Voigt Hill
#
# Bulk Modulus (GPa) = 5.63049 28.77381 17.20215
# Shear Modulus (GPa) = 2.27468 17.92111 10.09789
#
# Velocity S-wave (km/s) = 1.13703 3.19149 2.39566
# Velocity P-wave (km/s) = 2.21899 5.47125 4.17484
#
# Compressibility (1/GPa) = 0.17760428
#
# Stress axis : x y z
#
# Youngs Moduli (GPa) = 49.89716 6.19714 73.50596
#
# Poissons Ratio (x) = -0.13692 0.57072
# Poissons Ratio (y) = -1.10240 1.69300
# Poissons Ratio (z) = 0.38742 0.14273
#
# Static dielectric constant tensor:
#      x y z
#    x 1.591150 0.000000 0.000000 
#    y 0.000000 1.598150 0.000000 
#    z 0.000000 0.000000 1.596850 
# 
# From -- ./inp_files/30649.got.cif
#   From: 2010.05.17/outbox.cif.g08.bks.cpg/sg51_16_cif.got.tgz:30649.got - 2010.06.03 11:52:47.
