data_PCOD9401428
_publ_section_title
;
Structure prediction by ZEFSAII (Michael W. Deem and Ramdas Pophale) SiO2 
 PCOD9401428
Probable space group: P M M A
;
_chemical_formula_sum "Si O2"
_cell_formula_units_Z 48
_cell_length_a 9.142629
_cell_length_b 20.750556
_cell_length_c 14.735183
_cell_angle_alpha 90.000000
_cell_angle_beta 90.000000
_cell_angle_gamma 90.000000
_cell_volume 2795.479865
_symmetry_space_group_name_H-M "P M M A"
_symmetry_group_IT_number 51
_symmetry_cell_setting 'orthorhombic'
loop_
_space_group_symop_operation_xyz
x,y,z
1/2-x,-y,z
1/2+x,-y,-z
-x,y,-z
-x,-y,-z
1/2+x,y,-z
1/2-x,y,z
x,-y,z
loop_
_atom_site_type_symbol
_atom_site_label
_atom_site_fract_x
_atom_site_fract_y
_atom_site_fract_z
Si Si1 0.923123 0.111326 0.592308
Si Si2 0.074538 0.073183 0.206852
Si Si3 0.424774 0.689501 0.773741
Si Si4 0.923401 0.734603 0.593222
Si Si5 0.075428 0.812335 0.902724
Si Si6 0.574409 0.574377 0.095649
O O1 0.750000 0.100910 0.582183
O O2 0.969499 0.079975 0.687238
O O3 0.949556 0.188212 0.602369
O O4 0.000000 0.089146 0.500000
O O5 0.250000 0.085542 0.202594
O O6 0.990717 0.125440 0.147449
O O7 0.048084 0.000000 0.176511
O O8 0.250000 0.687739 0.756792
O O9 0.508497 0.700359 0.680267
O O10 0.453654 0.750122 0.839838
O O11 0.468098 0.624708 0.826791
O O12 0.750000 0.724804 0.588370
O O13 0.000000 0.713862 0.500000
O O14 0.250000 0.818687 0.913348
O O15 0.000000 0.804418 0.000000
O O16 0.750000 0.578648 0.084832
O O17 0.537355 0.500000 0.117206
O O18 0.500000 0.591009 0.000000
#
# Coordination Sequence:
#
# PCOD9401428 Si02
#       6
#     8   8   8   8   8   8
#     4   9  18  32  51  76 103 132 166 207 257 309
#     4  10  21  38  56  74 101 136 174 216 262 313
#     4  10  20  34  54  81 109 139 175 215 259 307
#     4  10  19  32  53  79 108 139 172 215 262 310
#     4  11  23  37  55  77 103 133 172 218 262 310
#     4   9  18  33  53  79 112 146 178 214 258 309
#
# _framework density 17.170574999999999
#
# number of rings (size 3 to 8) (size 9 to 14) (size 15 to 20)
#    0.000    2.167    1.667    1.500    0.000    3.667 
#    0.000    0.000    0.000    0.500    0.000    0.000 
#    0.000    0.000    0.000    0.000    0.000    0.000 
#
# Total GULP energy -267944.866617 kJ/mol
# GULP energy per Si atom -5582.184721 kJ/mol
# Density = 1.713149 g / cm^3
# Si number density = 17.170575 Si / 1000 Ang^3
#
#
#
# Elastic Constant Matrix: (Units=GPa)
#
#
# Indices 1 2 3 4 5 6 
#
# 1 42.3220 51.8314 62.0645 0.0000 0.0000 0.0000
# 2 51.8314 82.6525 67.7565 0.0000 0.0000 0.0000
# 3 62.0645 67.7565 140.4898 0.0000 0.0000 0.0000
# 4 0.0000 0.0000 0.0000 6.1714 0.0000 0.0000
# 5 0.0000 0.0000 0.0000 0.0000 38.6562 0.0000
# 6 0.0000 0.0000 0.0000 0.0000 0.0000 18.9311
#
#
#
# Elastic Compliance Matrix: (Units=1/GPa)
#
#
# Indices 1 2 3 4 5 6 
#
# 1 0.188400 -0.082555 -0.043414 0.000000 0.000000 0.000000
# 2 -0.082555 0.056185 0.009373 0.000000 0.000000 0.000000
# 3 -0.043414 0.009373 0.021777 0.000000 0.000000 0.000000
# 4 0.000000 0.000000 0.000000 0.162038 0.000000 0.000000
# 5 0.000000 0.000000 0.000000 0.000000 0.025869 0.000000
# 6 0.000000 0.000000 0.000000 0.000000 0.000000 0.052823
#
#
# Mechanical properties :
#
#
# Convention : Reuss Voigt Hill
#
# Bulk Modulus (GPa) = 30.14898 69.86322 50.00610
# Shear Modulus (GPa) = 6.65477 18.33920 12.49698
#
# Velocity S-wave (km/s) = 1.97081 3.27166 2.70073
# Velocity P-wave (km/s) = 4.77236 7.41942 6.23792
#
# Compressibility (1/GPa) = 0.03316862
#
# Stress axis : x y z
#
# Youngs Moduli (GPa) = 5.30786 17.79820 45.92083
#
# Poissons Ratio (x) = 1.46934 1.99362
# Poissons Ratio (y) = 0.43819 -0.43042
# Poissons Ratio (z) = 0.23044 -0.16683
#
# Static dielectric constant tensor:
#      x y z
#    x 1.571940 0.000000 0.000000 
#    y 0.000000 1.579650 0.000000 
#    z 0.000000 0.000000 1.556190 
# 
# From -- ./inp_files/21095.got.cif
#   From: 2010.05.17/outbox.cif.g08.bks.cpg/sg51_11_cif.got.tgz:21095.got - 2010.06.03 11:52:47.
