data_PCOD9401305
_publ_section_title
;
Structure prediction by ZEFSAII (Michael W. Deem and Ramdas Pophale) SiO2 
 PCOD9401305
Probable space group: P M M A
;
_chemical_formula_sum "Si O2"
_cell_formula_units_Z 64
_cell_length_a 20.082681
_cell_length_b 8.011827
_cell_length_c 20.081477
_cell_angle_alpha 90.000000
_cell_angle_beta 90.000000
_cell_angle_gamma 90.000000
_cell_volume 3231.088882
_symmetry_space_group_name_H-M "P M M A"
_symmetry_group_IT_number 51
_symmetry_cell_setting 'orthorhombic'
loop_
_space_group_symop_operation_xyz
x,y,z
1/2-x,-y,z
1/2+x,-y,-z
-x,y,-z
-x,-y,-z
1/2+x,y,-z
1/2-x,y,z
x,-y,z
loop_
_atom_site_type_symbol
_atom_site_label
_atom_site_fract_x
_atom_site_fract_y
_atom_site_fract_z
Si Si1 0.679222 0.309285 0.137219
Si Si2 0.841917 0.191972 0.276967
Si Si3 0.827786 0.796690 0.943868
Si Si4 0.322183 0.303851 0.576141
Si Si5 0.446753 0.798387 0.146701
Si Si6 0.930404 0.189093 0.057589
Si Si7 0.527981 0.196376 0.430816
Si Si8 0.512637 0.305977 0.283512
O O1 0.750000 0.254448 0.107518
O O2 0.666004 0.500000 0.117689
O O3 0.683142 0.297189 0.215643
O O4 0.618904 0.191640 0.119626
O O5 0.820375 0.276844 0.344816
O O6 0.921678 0.196947 0.273962
O O7 0.820877 0.000000 0.274186
O O8 0.750000 0.739237 0.944895
O O9 0.872135 0.756637 0.878374
O O10 0.824860 0.000000 0.949403
O O11 0.878730 0.736664 0.002622
O O12 0.250000 0.243762 0.549329
O O13 0.328211 0.500000 0.560687
O O14 0.392131 0.216224 0.560857
O O15 0.500743 0.740283 0.088999
O O16 0.464279 0.735744 0.221109
O O17 0.453036 0.000000 0.147138
O O18 0.942974 0.000000 0.036147
O O19 0.500000 0.266076 0.500000
O O20 0.498752 0.276727 0.362581
O O21 0.512470 0.000000 0.426009
O O22 0.530487 0.500000 0.276150
#
# Coordination Sequence:
#
# PCOD9401305 Si02
#       8
#     8   8   8   8   8   8   8   8
#     4  11  22  32  43  64 100 141 176 214 260 313
#     4  11  20  31  48  71 101 139 181 221 260 307
#     4   9  18  33  54  80 108 140 183 234 286 336
#     4  10  20  33  51  77 110 147 183 219 263 320
#     4  10  19  33  55  81 108 141 183 232 278 326
#     4  10  19  32  52  76 102 136 180 227 273 327
#     4  10  21  37  59  86 115 147 185 229 275 327
#     4  11  21  34  55  81 111 144 179 224 272 326
#
# _framework density 19.807562999999998
#
# number of rings (size 3 to 8) (size 9 to 14) (size 15 to 20)
#    0.000    1.750    1.250    6.000    0.000    6.500 
#    0.000    0.625    0.000    3.375    0.000    1.750 
#    0.000    0.000    0.000    0.000    0.000    0.000 
#
# Total GULP energy -356275.212529 kJ/mol
# GULP energy per Si atom -5566.800196 kJ/mol
# Density = 1.976248 g / cm^3
# Si number density = 19.807563 Si / 1000 Ang^3
#
#
#
# Elastic Constant Matrix: (Units=GPa)
#
#
# Indices 1 2 3 4 5 6 
#
# 1 125.9188 3.9888 67.3342 0.0000 0.0000 0.0000
# 2 3.9888 42.5649 3.2135 0.0000 0.0000 0.0000
# 3 67.3342 3.2135 106.9162 0.0000 0.0000 0.0000
# 4 0.0000 0.0000 0.0000 -39.6153 0.0000 0.0000
# 5 0.0000 0.0000 0.0000 0.0000 21.6984 0.0000
# 6 0.0000 0.0000 0.0000 0.0000 0.0000 0.1701
#
#
#
# Elastic Compliance Matrix: (Units=1/GPa)
#
#
# Indices 1 2 3 4 5 6 
#
# 1 0.011987 -0.000555 -0.007533 0.000000 0.000000 0.000000
# 2 -0.000555 0.023573 -0.000359 0.000000 0.000000 0.000000
# 3 -0.007533 -0.000359 0.014108 0.000000 0.000000 0.000000
# 4 0.000000 0.000000 0.000000 -0.025243 0.000000 0.000000
# 5 0.000000 0.000000 0.000000 0.000000 0.046086 0.000000
# 6 0.000000 0.000000 0.000000 0.000000 0.000000 5.879909
#
#
# Mechanical properties :
#
#
# Convention : Reuss Voigt Hill
#
# Bulk Modulus (GPa) = 30.51139 47.16366 38.83753
# Shear Modulus (GPa) = 0.83637 9.84154 5.33895
#
# Velocity S-wave (km/s) = 0.65051 2.23145 1.64355
# Velocity P-wave (km/s) = 4.00020 5.52284 4.82200
#
# Compressibility (1/GPa) = 0.03277465
#
# Stress axis : x y z
#
# Youngs Moduli (GPa) = 83.42175 42.42213 70.88218
#
# Poissons Ratio (x) = 0.02353 0.53394
# Poissons Ratio (y) = 0.04627 0.02546
# Poissons Ratio (z) = 0.62839 0.01524
#
# Static dielectric constant tensor:
#      x y z
#    x 1.772370 0.000000 0.000000 
#    y 0.000000 1.690320 0.000000 
#    z 0.000000 0.000000 1.761650 
# 
# From -- ./inp_files/34119.got.cif
#   From: 2010.05.17/outbox.cif.g08.bks.cpg/sg51_18_cif.got.tgz:34119.got - 2010.06.03 11:52:47.
