data_PCOD9401991
_publ_section_title
;
Structure prediction by ZEFSAII (Michael W. Deem and Ramdas Pophale) SiO2 
 PCOD9401991
Probable space group: P M M A
;
_chemical_formula_sum "Si O2"
_cell_formula_units_Z 48
_cell_length_a 8.745820
_cell_length_b 20.886325
_cell_length_c 14.849410
_cell_angle_alpha 90.000000
_cell_angle_beta 90.000000
_cell_angle_gamma 90.000000
_cell_volume 2712.512604
_symmetry_space_group_name_H-M "P M M A"
_symmetry_group_IT_number 51
_symmetry_cell_setting 'orthorhombic'
loop_
_space_group_symop_operation_xyz
x,y,z
1/2-x,-y,z
1/2+x,-y,-z
-x,y,-z
-x,-y,-z
1/2+x,y,-z
1/2-x,y,z
x,-y,z
loop_
_atom_site_type_symbol
_atom_site_label
_atom_site_fract_x
_atom_site_fract_y
_atom_site_fract_z
Si Si1 0.566743 0.735887 0.905799
Si Si2 0.932928 0.886209 0.904909
Si Si3 0.433932 0.929438 0.717798
Si Si4 0.065697 0.806688 0.600394
Si Si5 0.434019 0.687519 0.287487
Si Si6 0.567274 0.425147 0.401662
O O1 0.750000 0.733902 0.911028
O O2 0.522844 0.810872 0.896028
O O3 0.518594 0.698729 0.816176
O O4 0.500000 0.711956 0.000000
O O5 0.750000 0.890828 0.906925
O O6 0.997379 0.920488 0.817065
O O7 0.000000 0.909507 0.000000
O O8 0.250000 0.926458 0.724999
O O9 0.481993 0.871009 0.653902
O O10 0.476139 0.000000 0.682728
O O11 0.250000 0.803718 0.597713
O O12 0.000000 0.807145 0.500000
O O13 0.001852 0.745651 0.654008
O O14 0.250000 0.689833 0.292245
O O15 0.494521 0.621715 0.328837
O O16 0.500000 0.408849 0.500000
O O17 0.750000 0.417211 0.403615
O O18 0.532649 0.500000 0.384496
#
# Coordination Sequence:
#
# PCOD9401991 Si02
#       6
#     8   8   8   8   8   8
#     4   9  19  33  53  81 111 141 176 221 269 320
#     4  10  19  34  55  80 108 139 177 221 274 329
#     4  10  22  39  56  76 104 140 182 227 277 331
#     4  11  23  38  57  79 106 140 180 228 277 325
#     4  11  21  36  58  85 115 145 182 225 270 321
#     4  10  21  37  57  84 117 152 188 225 269 321
#
# _framework density 17.69577
#
# number of rings (size 3 to 8) (size 9 to 14) (size 15 to 20)
#    0.000    1.833    1.667    2.500    0.000    4.667 
#    0.000    0.000    0.000    0.500    0.000    0.000 
#    0.000    0.000    0.000    0.000    0.000    0.000 
#
# Total GULP energy -268096.059322 kJ/mol
# GULP energy per Si atom -5585.334569 kJ/mol
# Density = 1.765549 g / cm^3
# Si number density = 17.695770 Si / 1000 Ang^3
#
#
#
# Elastic Constant Matrix: (Units=GPa)
#
#
# Indices 1 2 3 4 5 6 
#
# 1 36.3086 33.4188 35.8842 0.0000 0.0000 0.0000
# 2 33.4188 84.1812 65.3533 0.0000 0.0000 0.0000
# 3 35.8842 65.3533 145.1603 0.0000 0.0000 0.0000
# 4 0.0000 0.0000 0.0000 7.8042 0.0000 0.0000
# 5 0.0000 0.0000 0.0000 0.0000 32.3048 0.0000
# 6 0.0000 0.0000 0.0000 0.0000 0.0000 -47.1092
#
#
#
# Elastic Compliance Matrix: (Units=1/GPa)
#
#
# Indices 1 2 3 4 5 6 
#
# 1 0.045464 -0.014333 -0.004786 0.000000 0.000000 0.000000
# 2 -0.014333 0.022781 -0.006713 0.000000 0.000000 0.000000
# 3 -0.004786 -0.006713 0.011094 0.000000 0.000000 0.000000
# 4 0.000000 0.000000 0.000000 0.128136 0.000000 0.000000
# 5 0.000000 0.000000 0.000000 0.000000 0.030955 0.000000
# 6 0.000000 0.000000 0.000000 0.000000 0.000000 -0.021227
#
#
# Mechanical properties :
#
#
# Convention : Reuss Voigt Hill
#
# Bulk Modulus (GPa) = 36.13369 59.44031 47.78700
# Shear Modulus (GPa) = 17.97963 7.33286 12.65625
#
# Velocity S-wave (km/s) = 3.19100 2.03785 2.67725
# Velocity P-wave (km/s) = 5.83441 6.26100 6.05147
#
# Compressibility (1/GPa) = 0.02767501
#
# Stress axis : x y z
#
# Youngs Moduli (GPa) = 21.99542 43.89656 90.13593
#
# Poissons Ratio (x) = 0.62917 0.43138
# Poissons Ratio (y) = 0.31526 0.60509
# Poissons Ratio (z) = 0.10527 0.29468
#
# Static dielectric constant tensor:
#      x y z
#    x 1.593590 0.000000 0.000000 
#    y 0.000000 1.604330 0.000000 
#    z 0.000000 0.000000 1.579450 
# 
# From -- ./inp_files/21096.got.cif
#   From: 2010.05.17/outbox.cif.g08.bks.cpg/sg51_11_cif.got.tgz:21096.got - 2010.06.03 11:52:47.
