data_PCOD9401365
_publ_section_title
;
Structure prediction by ZEFSAII (Michael W. Deem and Ramdas Pophale) SiO2 
 PCOD9401365
Probable space group: P M M A
;
_chemical_formula_sum "Si O2"
_cell_formula_units_Z 56
_cell_length_a 8.543333
_cell_length_b 20.782623
_cell_length_c 15.896893
_cell_angle_alpha 90.000000
_cell_angle_beta 90.000000
_cell_angle_gamma 90.000000
_cell_volume 2822.538959
_symmetry_space_group_name_H-M "P M M A"
_symmetry_group_IT_number 51
_symmetry_cell_setting 'orthorhombic'
loop_
_space_group_symop_operation_xyz
x,y,z
1/2-x,-y,z
1/2+x,-y,-z
-x,y,-z
-x,-y,-z
1/2+x,y,-z
1/2-x,y,z
x,-y,z
loop_
_atom_site_type_symbol
_atom_site_label
_atom_site_fract_x
_atom_site_fract_y
_atom_site_fract_z
Si Si1 0.937787 0.327946 0.591407
Si Si2 0.438714 0.427687 0.266346
Si Si3 0.436376 0.381332 0.911413
Si Si4 0.067280 0.899620 0.088053
Si Si5 0.934950 0.765256 0.127299
Si Si6 0.936673 0.794201 0.691490
Si Si7 0.436674 0.928752 0.728852
O O1 0.750000 0.332657 0.589797
O O2 0.994765 0.375227 0.665768
O O3 0.977193 0.254477 0.616719
O O4 0.000000 0.345066 0.500000
O O5 0.250000 0.424065 0.264198
O O6 0.484111 0.500000 0.291506
O O7 0.497834 0.413636 0.172533
O O8 0.250000 0.386646 0.910737
O O9 0.477420 0.305367 0.904498
O O10 0.500000 0.406827 0.000000
O O11 0.250000 0.913790 0.094685
O O12 0.037466 0.822672 0.089452
O O13 0.981825 0.923636 0.172248
O O14 0.000000 0.924273 0.000000
O O15 0.750000 0.777410 0.112376
O O16 0.971213 0.769105 0.226554
O O17 0.750000 0.789593 0.707696
O O18 0.982156 0.868792 0.682924
O O19 0.250000 0.921923 0.721834
O O20 0.482811 0.000000 0.699097
#
# Coordination Sequence:
#
# PCOD9401365 Si02
#       7
#     8   8   8   8   8   8   8
#     4  10  22  39  63  95 124 154 193 238 294 354
#     4  10  22  42  64  86 120 161 199 244 296 350
#     4  11  23  36  56  84 116 157 203 250 297 349
#     4  11  21  32  48  71 104 145 190 242 293 344
#     4  10  19  32  52  79 109 146 191 240 295 346
#     4  10  19  34  58  85 115 150 188 237 288 342
#     4  10  21  36  54  78 109 147 190 235 287 349
#
# _framework density 19.840292999999999
#
# number of rings (size 3 to 8) (size 9 to 14) (size 15 to 20)
#    0.000    1.714    1.429    5.143    0.000    6.857 
#    0.000    0.000    0.000    0.429    0.000    0.000 
#    0.000    0.000    0.000    0.000    0.000    0.000 
#
# Total GULP energy -312834.094282 kJ/mol
# GULP energy per Si atom -5586.323112 kJ/mol
# Density = 1.979514 g / cm^3
# Si number density = 19.840293 Si / 1000 Ang^3
#
#
#
# Elastic Constant Matrix: (Units=GPa)
#
#
# Indices 1 2 3 4 5 6 
#
# 1 25.3118 27.2658 11.4655 0.0000 0.0000 0.0000
# 2 27.2658 117.1517 48.7991 0.0000 0.0000 0.0000
# 3 11.4655 48.7991 102.6592 0.0000 0.0000 0.0000
# 4 0.0000 0.0000 0.0000 -12.0857 0.0000 0.0000
# 5 0.0000 0.0000 0.0000 0.0000 28.9885 0.0000
# 6 0.0000 0.0000 0.0000 0.0000 0.0000 14.2465
#
#
#
# Elastic Compliance Matrix: (Units=1/GPa)
#
#
# Indices 1 2 3 4 5 6 
#
# 1 0.052726 -0.012243 -0.000069 0.000000 0.000000 0.000000
# 2 -0.012243 0.013486 -0.005043 0.000000 0.000000 0.000000
# 3 -0.000069 -0.005043 0.012146 0.000000 0.000000 0.000000
# 4 0.000000 0.000000 0.000000 -0.082742 0.000000 0.000000
# 5 0.000000 0.000000 0.000000 0.000000 0.034496 0.000000
# 6 0.000000 0.000000 0.000000 0.000000 0.000000 0.070193
#
#
# Mechanical properties :
#
#
# Convention : Reuss Voigt Hill
#
# Bulk Modulus (GPa) = 22.91045 46.68705 34.79875
# Shear Modulus (GPa) = 33.43028 16.73601 25.08315
#
# Velocity S-wave (km/s) = 4.10929 2.90752 3.55949
# Velocity P-wave (km/s) = 5.83845 5.90373 5.87118
#
# Compressibility (1/GPa) = 0.04364819
#
# Stress axis : x y z
#
# Youngs Moduli (GPa) = 18.96583 74.15078 82.33150
#
# Poissons Ratio (x) = 0.90780 0.00570
# Poissons Ratio (y) = 0.23219 0.41522
# Poissons Ratio (z) = 0.00131 0.37396
#
# Static dielectric constant tensor:
#      x y z
#    x 1.664650 0.000000 0.000000 
#    y 0.000000 1.741060 0.000000 
#    z 0.000000 0.000000 1.678780 
# 
# From -- ./inp_files/21707.got.cif
#   From: 2010.05.17/outbox.cif.g08.bks.cpg/sg51_11_cif.got.tgz:21707.got - 2010.06.03 11:52:47.
