data_PCOD9401883
_publ_section_title
;
Structure prediction by ZEFSAII (Michael W. Deem and Ramdas Pophale) SiO2 
 PCOD9401883
Probable space group: P M M A
;
_chemical_formula_sum "Si O2"
_cell_formula_units_Z 56
_cell_length_a 9.341102
_cell_length_b 20.521176
_cell_length_c 15.552493
_cell_angle_alpha 90.000000
_cell_angle_beta 90.000000
_cell_angle_gamma 90.000000
_cell_volume 2981.263576
_symmetry_space_group_name_H-M "P M M A"
_symmetry_group_IT_number 51
_symmetry_cell_setting 'orthorhombic'
loop_
_space_group_symop_operation_xyz
x,y,z
1/2-x,-y,z
1/2+x,-y,-z
-x,y,-z
-x,-y,-z
1/2+x,y,-z
1/2-x,y,z
x,-y,z
loop_
_atom_site_type_symbol
_atom_site_label
_atom_site_fract_x
_atom_site_fract_y
_atom_site_fract_z
Si Si1 0.921279 0.330385 0.587309
Si Si2 0.417789 0.425339 0.257312
Si Si3 0.418478 0.387943 0.913935
Si Si4 0.915399 0.900644 0.083017
Si Si5 0.913609 0.757585 0.147338
Si Si6 0.920337 0.798248 0.685190
Si Si7 0.422323 0.927430 0.721292
O O1 0.750000 0.336797 0.577323
O O2 0.963635 0.376222 0.667459
O O3 0.953071 0.255646 0.613250
O O4 0.000000 0.348388 0.500000
O O5 0.250000 0.411591 0.237391
O O6 0.427800 0.500000 0.287185
O O7 0.510101 0.416792 0.171546
O O8 0.250000 0.403112 0.918844
O O9 0.434573 0.309623 0.902200
O O10 0.500000 0.408853 0.000000
O O11 0.750000 0.919090 0.074219
O O12 0.924553 0.821984 0.089527
O O13 0.963920 0.924076 0.177298
O O14 0.000000 0.923296 0.000000
O O15 0.750000 0.757203 0.182433
O O16 0.022716 0.767126 0.225525
O O17 0.750000 0.807458 0.689516
O O18 0.999561 0.867323 0.676020
O O19 0.250000 0.918086 0.718254
O O20 0.455387 0.000000 0.688718
#
# Coordination Sequence:
#
# PCOD9401883 Si02
#       7
#     8   8   8   8   8   8   8
#     4  10  22  39  62  93 121 149 186 233 290 350
#     4  10  22  42  63  84 118 159 196 239 290 344
#     4  11  22  35  56  84 116 155 201 248 294 345
#     4   9  17  28  42  65  98 135 179 227 276 327
#     4   9  18  32  50  74 105 145 188 232 285 340
#     4  10  19  33  56  84 113 142 181 234 284 334
#     4   9  19  35  52  72 104 147 190 230 280 343
#
# _framework density 18.783982000000002
#
# number of rings (size 3 to 8) (size 9 to 14) (size 15 to 20)
#    0.000    2.286    1.429    2.143    0.000    6.000 
#    0.000    0.000    0.000    0.429    0.000    0.000 
#    0.000    0.000    0.000    0.000    0.000    0.000 
#
# Total GULP energy -312512.467549 kJ/mol
# GULP energy per Si atom -5580.579778 kJ/mol
# Density = 1.874123 g / cm^3
# Si number density = 18.783982 Si / 1000 Ang^3
#
#
#
# Elastic Constant Matrix: (Units=GPa)
#
#
# Indices 1 2 3 4 5 6 
#
# 1 55.4735 38.7411 46.7295 0.0000 0.0000 0.0000
# 2 38.7411 97.7676 38.2286 0.0000 0.0000 0.0000
# 3 46.7295 38.2286 92.4777 0.0000 0.0000 0.0000
# 4 0.0000 0.0000 0.0000 -5.8488 0.0000 0.0000
# 5 0.0000 0.0000 0.0000 0.0000 31.0815 0.0000
# 6 0.0000 0.0000 0.0000 0.0000 0.0000 3.9181
#
#
#
# Elastic Compliance Matrix: (Units=1/GPa)
#
#
# Indices 1 2 3 4 5 6 
#
# 1 0.036687 -0.008694 -0.014944 0.000000 0.000000 0.000000
# 2 -0.008694 0.014261 -0.001502 0.000000 0.000000 0.000000
# 3 -0.014944 -0.001502 0.018986 0.000000 0.000000 0.000000
# 4 0.000000 0.000000 0.000000 -0.170975 0.000000 0.000000
# 5 0.000000 0.000000 0.000000 0.000000 0.032174 0.000000
# 6 0.000000 0.000000 0.000000 0.000000 0.000000 0.255227
#
#
# Mechanical properties :
#
#
# Convention : Reuss Voigt Hill
#
# Bulk Modulus (GPa) = 50.88292 54.79080 52.83686
# Shear Modulus (GPa) = 20.56002 13.96478 17.26240
#
# Velocity S-wave (km/s) = 3.31199 2.72957 3.03478
# Velocity P-wave (km/s) = 6.46320 6.25830 6.36157
#
# Compressibility (1/GPa) = 0.01965296
#
# Stress axis : x y z
#
# Youngs Moduli (GPa) = 27.25770 70.12272 52.67140
#
# Poissons Ratio (x) = 0.60965 0.78713
# Poissons Ratio (y) = 0.23698 0.07911
# Poissons Ratio (z) = 0.40734 0.10532
#
# Static dielectric constant tensor:
#      x y z
#    x 1.633460 0.000000 0.000000 
#    y 0.000000 1.685700 0.000000 
#    z 0.000000 0.000000 1.614680 
# 
# From -- ./inp_files/21706.got.cif
#   From: 2010.05.17/outbox.cif.g08.bks.cpg/sg51_11_cif.got.tgz:21706.got - 2010.06.03 11:52:47.
