data_PCOD9401806
_publ_section_title
;
Structure prediction by ZEFSAII (Michael W. Deem and Ramdas Pophale) SiO2 
 PCOD9401806
Probable space group: P M M A
;
_chemical_formula_sum "Si O2"
_cell_formula_units_Z 56
_cell_length_a 21.116175
_cell_length_b 12.806915
_cell_length_c 11.727599
_cell_angle_alpha 90.000000
_cell_angle_beta 90.000000
_cell_angle_gamma 90.000000
_cell_volume 3171.530465
_symmetry_space_group_name_H-M "P M M A"
_symmetry_group_IT_number 51
_symmetry_cell_setting 'orthorhombic'
loop_
_space_group_symop_operation_xyz
x,y,z
1/2-x,-y,z
1/2+x,-y,-z
-x,y,-z
-x,-y,-z
1/2+x,y,-z
1/2-x,y,z
x,-y,z
loop_
_atom_site_type_symbol
_atom_site_label
_atom_site_fract_x
_atom_site_fract_y
_atom_site_fract_z
Si Si1 0.627880 0.273606 0.658238
Si Si2 0.043551 0.616303 0.172482
Si Si3 0.174375 0.624533 0.577657
Si Si4 0.428832 0.807380 0.005928
Si Si5 0.819823 0.116885 0.831495
Si Si6 0.010284 0.883564 0.366079
Si Si7 0.418282 0.729444 0.757004
O O1 0.596406 0.367154 0.730254
O O2 0.653124 0.316680 0.538746
O O3 0.675583 0.207879 0.737078
O O4 0.570785 0.190121 0.648052
O O5 0.044158 0.500000 0.127688
O O6 0.058952 0.701151 0.076691
O O7 0.974989 0.646004 0.223257
O O8 0.250000 0.635330 0.591076
O O9 0.159906 0.500000 0.570643
O O10 0.136721 0.677170 0.682821
O O11 0.376750 0.868450 0.078887
O O12 0.500000 0.856298 0.000000
O O13 0.403457 0.775958 0.881636
O O14 0.750000 0.124062 0.886079
O O15 0.825031 0.000000 0.780754
O O16 0.951110 0.824385 0.310992
O O17 0.000000 0.891849 0.500000
O O18 0.018979 0.000000 0.317711
#
# Coordination Sequence:
#
# PCOD9401806 Si02
#       7
#     8   8   8   8   8   8   8
#     4  10  19  35  54  79 107 136 174 224 267 316
#     4   9  18  32  55  82 105 133 173 220 271 318
#     4  11  23  36  51  73 105 147 186 218 259 313
#     4   9  20  35  55  82 110 138 175 220 272 318
#     4  10  21  37  58  81 106 141 182 224 271 320
#     4  10  19  33  55  80 106 135 167 212 269 322
#     4  10  20  35  53  79 109 140 173 216 265 321
#
# _framework density 17.657088999999999
#
# number of rings (size 3 to 8) (size 9 to 14) (size 15 to 20)
#    0.000    2.143    1.429    2.571    0.000    4.571 
#    0.000    2.143    0.000    5.143    0.000    0.000 
#    0.000    0.000    0.000    0.000    0.000    0.000 
#
# Total GULP energy -312138.853143 kJ/mol
# GULP energy per Si atom -5573.908092 kJ/mol
# Density = 1.761690 g / cm^3
# Si number density = 17.657089 Si / 1000 Ang^3
#
#
#
# Elastic Constant Matrix: (Units=GPa)
#
#
# Indices 1 2 3 4 5 6 
#
# 1 88.8226 41.4009 43.0991 0.0000 0.0000 0.0000
# 2 41.4009 92.4151 20.5113 0.0000 0.0000 0.0000
# 3 43.0991 20.5113 104.6283 0.0000 0.0000 0.0000
# 4 0.0000 0.0000 0.0000 45.0720 0.0000 0.0000
# 5 0.0000 0.0000 0.0000 0.0000 24.8324 0.0000
# 6 0.0000 0.0000 0.0000 0.0000 0.0000 11.9638
#
#
#
# Elastic Compliance Matrix: (Units=1/GPa)
#
#
# Indices 1 2 3 4 5 6 
#
# 1 0.017011 -0.006341 -0.005764 0.000000 0.000000 0.000000
# 2 -0.006341 0.013677 -0.000069 0.000000 0.000000 0.000000
# 3 -0.005764 -0.000069 0.011946 0.000000 0.000000 0.000000
# 4 0.000000 0.000000 0.000000 0.022187 0.000000 0.000000
# 5 0.000000 0.000000 0.000000 0.000000 0.040270 0.000000
# 6 0.000000 0.000000 0.000000 0.000000 0.000000 0.083586
#
#
# Mechanical properties :
#
#
# Convention : Reuss Voigt Hill
#
# Bulk Modulus (GPa) = 54.69135 55.09873 54.89504
# Shear Modulus (GPa) = 22.81856 28.43062 25.62459
#
# Velocity S-wave (km/s) = 3.59878 4.01703 3.81364
# Velocity P-wave (km/s) = 6.95052 7.26553 7.10977
#
# Compressibility (1/GPa) = 0.01828443
#
# Stress axis : x y z
#
# Youngs Moduli (GPa) = 58.78522 73.11571 83.71304
#
# Poissons Ratio (x) = 0.46366 0.48253
# Poissons Ratio (y) = 0.37278 0.00578
# Poissons Ratio (z) = 0.33885 0.00505
#
# Static dielectric constant tensor:
#      x y z
#    x 1.613990 0.000000 0.000000 
#    y 0.000000 1.598290 0.000000 
#    z 0.000000 0.000000 1.617150 
# 
# From -- ./inp_files/18229.got.cif
#   From: 2010.05.17/outbox.cif.g08.bks.cpg/sg51_10_cif.got.tgz:18229.got - 2010.06.03 11:52:47.
