data_PCOD9401449
_publ_section_title
;
Structure prediction by ZEFSAII (Michael W. Deem and Ramdas Pophale) SiO2 
 PCOD9401449
Probable space group: P M M A
;
_chemical_formula_sum "Si O2"
_cell_formula_units_Z 40
_cell_length_a 17.115506
_cell_length_b 14.404427
_cell_length_c 8.997425
_cell_angle_alpha 90.000000
_cell_angle_beta 90.000000
_cell_angle_gamma 90.000000
_cell_volume 2218.216673
_symmetry_space_group_name_H-M "P M M A"
_symmetry_group_IT_number 51
_symmetry_cell_setting 'orthorhombic'
loop_
_space_group_symop_operation_xyz
x,y,z
1/2-x,-y,z
1/2+x,-y,-z
-x,y,-z
-x,-y,-z
1/2+x,y,-z
1/2-x,y,z
x,-y,z
loop_
_atom_site_type_symbol
_atom_site_label
_atom_site_fract_x
_atom_site_fract_y
_atom_site_fract_z
Si Si1 0.986378 0.610557 0.829584
Si Si2 0.604159 0.892945 0.845420
Si Si3 0.915467 0.893916 0.187023
Si Si4 0.577178 0.734750 0.402725
Si Si5 0.338920 0.708077 0.304097
O O1 0.993309 0.500000 0.818068
O O2 0.900771 0.644995 0.782939
O O3 0.046240 0.660403 0.717087
O O4 0.000000 0.639386 0.000000
O O5 0.510295 0.886384 0.821858
O O6 0.644837 0.814199 0.748292
O O7 0.626756 0.000000 0.813474
O O8 0.616312 0.875133 0.021387
O O9 0.890626 0.821361 0.310573
O O10 0.896490 0.000000 0.225066
O O11 0.500000 0.761535 0.500000
O O12 0.638764 0.699570 0.522700
O O13 0.250000 0.683399 0.275169
#
# Coordination Sequence:
#
# PCOD9401449 Si02
#       5
#     8   8   8   8   8
#     4  10  21  40  65  85 102 133 183 232 271 320
#     4   9  17  31  53  79 109 145 186 228 269 311
#     4   9  16  29  53  81 105 138 190 238 263 301
#     4  10  19  32  53  81 111 141 179 215 266 326
#     4  11  23  36  53  82 118 149 176 217 274 330
#
# _framework density 18.032503999999999
#
# number of rings (size 3 to 8) (size 9 to 14) (size 15 to 20)
#    0.000    2.200    4.000    2.400    0.000    5.600 
#    0.000    4.000    0.000    2.400    0.000    0.000 
#    0.000    0.000    0.000    0.000    0.000    0.000 
#
# Total GULP energy -223172.710485 kJ/mol
# GULP energy per Si atom -5579.317762 kJ/mol
# Density = 1.799146 g / cm^3
# Si number density = 18.032504 Si / 1000 Ang^3
#
#
#
# Elastic Constant Matrix: (Units=GPa)
#
#
# Indices 1 2 3 4 5 6 
#
# 1 52.2479 21.7992 37.3297 0.0000 0.0000 0.0000
# 2 21.7992 66.8785 61.1606 0.0000 0.0000 0.0000
# 3 37.3297 61.1606 129.0358 0.0000 0.0000 0.0000
# 4 0.0000 0.0000 0.0000 -57.1120 0.0000 0.0000
# 5 0.0000 0.0000 0.0000 0.0000 7.5206 0.0000
# 6 0.0000 0.0000 0.0000 0.0000 0.0000 7.0777
#
#
#
# Elastic Compliance Matrix: (Units=1/GPa)
#
#
# Indices 1 2 3 4 5 6 
#
# 1 0.024388 -0.002643 -0.005803 0.000000 0.000000 0.000000
# 2 -0.002643 0.026679 -0.011881 0.000000 0.000000 0.000000
# 3 -0.005803 -0.011881 0.015060 0.000000 0.000000 0.000000
# 4 0.000000 0.000000 0.000000 -0.017509 0.000000 0.000000
# 5 0.000000 0.000000 0.000000 0.000000 0.132968 0.000000
# 6 0.000000 0.000000 0.000000 0.000000 0.000000 0.141288
#
#
# Mechanical properties :
#
#
# Convention : Reuss Voigt Hill
#
# Bulk Modulus (GPa) = 39.25534 54.30459 46.77996
# Shear Modulus (GPa) = 13.44020 0.02210 6.73115
#
# Velocity S-wave (km/s) = 2.73304 0.11082 1.93414
# Velocity P-wave (km/s) = 5.63700 5.49514 5.56652
#
# Compressibility (1/GPa) = 0.02547424
#
# Stress axis : x y z
#
# Youngs Moduli (GPa) = 41.00360 37.48277 66.40186
#
# Poissons Ratio (x) = 0.09905 0.38532
# Poissons Ratio (y) = 0.10836 0.78891
# Poissons Ratio (z) = 0.23794 0.44533
#
# Static dielectric constant tensor:
#      x y z
#    x 1.605260 0.000000 0.000000 
#    y 0.000000 1.621740 0.000000 
#    z 0.000000 0.000000 1.627280 
# 
# From -- ./inp_files/9404.got.cif
#   From: 2010.05.17/outbox.cif.g08.bks.cpg/sg51_5_cif.got.tgz:9404.got - 2010.06.03 11:52:47.
