data_PCOD9401061
_publ_section_title
;
Structure prediction by ZEFSAII (Michael W. Deem and Ramdas Pophale) SiO2 
 PCOD9401061
Probable space group: P M M A
;
_chemical_formula_sum "Si O2"
_cell_formula_units_Z 40
_cell_length_a 8.888891
_cell_length_b 16.035714
_cell_length_c 20.268829
_cell_angle_alpha 90.000000
_cell_angle_beta 90.000000
_cell_angle_gamma 90.000000
_cell_volume 2889.113086
_symmetry_space_group_name_H-M "P M M A"
_symmetry_group_IT_number 51
_symmetry_cell_setting 'orthorhombic'
loop_
_space_group_symop_operation_xyz
x,y,z
1/2-x,-y,z
1/2+x,-y,-z
-x,y,-z
-x,-y,-z
1/2+x,y,-z
1/2-x,y,z
x,-y,z
loop_
_atom_site_type_symbol
_atom_site_label
_atom_site_fract_x
_atom_site_fract_y
_atom_site_fract_z
Si Si1 0.568632 0.316258 0.926131
Si Si2 0.930097 0.500000 0.927339
Si Si3 0.930810 0.835270 0.154962
Si Si4 0.074963 0.101195 0.432774
Si Si5 0.067839 0.098661 0.286879
Si Si6 0.430624 0.000000 0.927648
O O1 0.750000 0.308850 0.930148
O O2 0.529111 0.409260 0.899003
O O3 0.501345 0.244791 0.880279
O O4 0.500000 0.308570 0.000000
O O5 0.750000 0.500000 0.933043
O O6 0.000000 0.500000 0.000000
O O7 0.750000 0.829509 0.155644
O O8 0.993351 0.850344 0.228178
O O9 0.974404 0.917290 0.112526
O O10 0.250000 0.122792 0.435401
O O11 0.016789 0.126067 0.360341
O O12 0.000000 0.131921 0.500000
O O13 0.064578 0.000000 0.432952
O O14 0.250000 0.105107 0.284267
O O15 0.031231 0.000000 0.278808
O O16 0.250000 0.000000 0.933269
O O17 0.500000 0.000000 0.000000
#
# Coordination Sequence:
#
# PCOD9401061 Si02
#       6
#     8   4   8   8   8   4
#     4  10  19  32  48  66  84 106 135 172 214 258
#     4   8  16  30  48  66  84 102 127 164 211 260
#     4  11  21  32  43  60  83 111 144 178 212 250
#     4   8  14  24  38  57  78 101 134 171 207 245
#     4   9  17  29  43  58  79 110 144 176 210 248
#     4  10  22  34  42  54  75 104 141 178 211 242
#
# _framework density 13.845078000000001
#
# number of rings (size 3 to 8) (size 9 to 14) (size 15 to 20)
#    0.000    2.600    1.000    3.000    0.000    4.800 
#    0.000    2.000    0.000    0.000    0.000    0.000 
#    0.000    0.000    0.000    0.900    0.000   10.600 
#
# Total GULP energy -222729.022647 kJ/mol
# GULP energy per Si atom -5568.225566 kJ/mol
# Density = 1.381357 g / cm^3
# Si number density = 13.845078 Si / 1000 Ang^3
#
#
#
# Elastic Constant Matrix: (Units=GPa)
#
#
# Indices 1 2 3 4 5 6 
#
# 1 32.8037 34.3521 41.1280 0.0000 0.0000 0.0000
# 2 34.3521 102.5163 58.3217 0.0000 0.0000 0.0000
# 3 41.1280 58.3217 130.5350 0.0000 0.0000 0.0000
# 4 0.0000 0.0000 0.0000 3.4636 0.0000 0.0000
# 5 0.0000 0.0000 0.0000 0.0000 25.2730 0.0000
# 6 0.0000 0.0000 0.0000 0.0000 0.0000 15.1284
#
#
#
# Elastic Compliance Matrix: (Units=1/GPa)
#
#
# Indices 1 2 3 4 5 6 
#
# 1 0.060581 -0.012659 -0.013432 0.000000 0.000000 0.000000
# 2 -0.012659 0.015724 -0.003037 0.000000 0.000000 0.000000
# 3 -0.013432 -0.003037 0.013250 0.000000 0.000000 0.000000
# 4 0.000000 0.000000 0.000000 0.288715 0.000000 0.000000
# 5 0.000000 0.000000 0.000000 0.000000 0.039568 0.000000
# 6 0.000000 0.000000 0.000000 0.000000 0.000000 0.066101
#
#
# Mechanical properties :
#
#
# Convention : Reuss Voigt Hill
#
# Bulk Modulus (GPa) = 31.94899 59.27318 45.61108
# Shear Modulus (GPa) = 9.04772 17.57653 13.31213
#
# Velocity S-wave (km/s) = 2.55913 3.56689 3.10418
# Velocity P-wave (km/s) = 5.64432 7.73746 6.77225
#
# Compressibility (1/GPa) = 0.03129990
#
# Stress axis : x y z
#
# Youngs Moduli (GPa) = 16.50694 63.59679 75.47423
#
# Poissons Ratio (x) = 0.80505 1.01373
# Poissons Ratio (y) = 0.20896 0.22921
# Poissons Ratio (z) = 0.22171 0.19314
#
# Static dielectric constant tensor:
#      x y z
#    x 1.464200 0.000000 0.000000 
#    y 0.000000 1.455200 0.000000 
#    z 0.000000 0.000000 1.453670 
# 
# From -- ./inp_files/27761.got.cif
#   From: 2010.05.17/outbox.cif.g08.bks.cpg/sg51_14_cif.got.tgz:27761.got - 2010.06.03 11:52:47.
