data_PCOD9401312
_publ_section_title
;
Structure prediction by ZEFSAII (Michael W. Deem and Ramdas Pophale) SiO2 
 PCOD9401312
Probable space group: P M M A
;
_chemical_formula_sum "Si O2"
_cell_formula_units_Z 40
_cell_length_a 7.875169
_cell_length_b 13.606476
_cell_length_c 19.679990
_cell_angle_alpha 90.000000
_cell_angle_beta 90.000000
_cell_angle_gamma 90.000000
_cell_volume 2108.775833
_symmetry_space_group_name_H-M "P M M A"
_symmetry_group_IT_number 51
_symmetry_cell_setting 'orthorhombic'
loop_
_space_group_symop_operation_xyz
x,y,z
1/2-x,-y,z
1/2+x,-y,-z
-x,y,-z
-x,-y,-z
1/2+x,y,-z
1/2-x,y,z
x,-y,z
loop_
_atom_site_type_symbol
_atom_site_label
_atom_site_fract_x
_atom_site_fract_y
_atom_site_fract_z
Si Si1 0.951179 0.713516 0.669927
Si Si2 0.047148 0.110289 0.078353
Si Si3 0.048749 0.289334 0.826291
Si Si4 0.446763 0.500000 0.841000
Si Si5 0.455149 0.889786 0.421681
Si Si6 0.958098 0.500000 0.683295
O O1 0.750000 0.712807 0.657238
O O2 0.022868 0.804130 0.627129
O O3 0.012368 0.603573 0.651149
O O4 0.976279 0.725861 0.750747
O O5 0.250000 0.109255 0.083830
O O6 0.981923 0.195971 0.126652
O O7 0.983755 0.000000 0.095792
O O8 0.000000 0.128853 0.000000
O O9 0.250000 0.302943 0.817686
O O10 0.980025 0.392250 0.858493
O O11 0.250000 0.500000 0.863100
O O12 0.464690 0.500000 0.759012
O O13 0.500000 0.870214 0.500000
O O14 0.250000 0.892022 0.416236
O O15 0.517134 0.000000 0.404504
O O16 0.750000 0.500000 0.689377
#
# Coordination Sequence:
#
# PCOD9401312 Si02
#       6
#     8   8   8   4   8   4
#     4   9  17  30  48  70  95 124 159 197 238 283
#     4  10  21  37  55  74  99 131 165 202 245 291
#     4  10  19  32  52  77 103 130 163 201 241 287
#     4   8  16  30  47  70 101 132 159 194 239 284
#     4   9  18  32  48  65  89 122 157 194 238 287
#     4   8  14  26  45  66  90 122 157 192 232 282
#
# _framework density 18.968350999999998
#
# number of rings (size 3 to 8) (size 9 to 14) (size 15 to 20)
#    0.000    2.800    0.000    1.200    0.000    3.600 
#    0.000    3.000    0.000    0.000    0.000    0.000 
#    0.000    0.000    0.000    0.000    0.000    0.000 
#
# Total GULP energy -222772.372976 kJ/mol
# GULP energy per Si atom -5569.309324 kJ/mol
# Density = 1.892518 g / cm^3
# Si number density = 18.968351 Si / 1000 Ang^3
#
#
#
# Elastic Constant Matrix: (Units=GPa)
#
#
# Indices 1 2 3 4 5 6 
#
# 1 16.4246 -1.4642 -11.2943 0.0000 0.0000 0.0000
# 2 -1.4642 215.8298 90.5953 0.0000 0.0000 0.0000
# 3 -11.2943 90.5953 52.1822 0.0000 0.0000 0.0000
# 4 0.0000 0.0000 0.0000 -42.4077 0.0000 0.0000
# 5 0.0000 0.0000 0.0000 0.0000 22.8087 0.0000
# 6 0.0000 0.0000 0.0000 0.0000 0.0000 43.7017
#
#
#
# Elastic Compliance Matrix: (Units=1/GPa)
#
#
# Indices 1 2 3 4 5 6 
#
# 1 0.119665 -0.037087 0.090289 0.000000 0.000000 0.000000
# 2 -0.037087 0.028575 -0.057638 0.000000 0.000000 0.000000
# 3 0.090289 -0.057638 0.138773 0.000000 0.000000 0.000000
# 4 0.000000 0.000000 0.000000 -0.023581 0.000000 0.000000
# 5 0.000000 0.000000 0.000000 0.000000 0.043843 0.000000
# 6 0.000000 0.000000 0.000000 0.000000 0.000000 0.022882
#
#
# Mechanical properties :
#
#
# Convention : Reuss Voigt Hill
#
# Bulk Modulus (GPa) = 3.59530 48.90113 26.24821
# Shear Modulus (GPa) = 11.58092 18.59385 15.08738
#
# Velocity S-wave (km/s) = 2.47359 3.13430 2.82334
# Velocity P-wave (km/s) = 3.17139 6.23978 4.94937
#
# Compressibility (1/GPa) = 0.27814113
#
# Stress axis : x y z
#
# Youngs Moduli (GPa) = 8.35664 34.99512 7.20601
#
# Poissons Ratio (x) = 1.29788 -0.65062
# Poissons Ratio (y) = 0.30993 0.41534
# Poissons Ratio (z) = -0.75451 2.01705
#
# Static dielectric constant tensor:
#      x y z
#    x 1.680690 0.000000 0.000000 
#    y 0.000000 1.743690 0.000000 
#    z 0.000000 0.000000 1.615300 
# 
# From -- ./inp_files/31472.got.cif
#   From: 2010.05.17/outbox.cif.g08.bks.cpg/sg51_16_cif.got.tgz:31472.got - 2010.06.03 11:52:47.
