data_PCOD9401606
_publ_section_title
;
Structure prediction by ZEFSAII (Michael W. Deem and Ramdas Pophale) SiO2 
 PCOD9401606
Probable space group: P M M A
;
_chemical_formula_sum "Si O2"
_cell_formula_units_Z 64
_cell_length_a 8.878712
_cell_length_b 19.633678
_cell_length_c 20.479462
_cell_angle_alpha 90.000000
_cell_angle_beta 90.000000
_cell_angle_gamma 90.000000
_cell_volume 3570.016115
_symmetry_space_group_name_H-M "P M M A"
_symmetry_group_IT_number 51
_symmetry_cell_setting 'orthorhombic'
loop_
_space_group_symop_operation_xyz
x,y,z
1/2-x,-y,z
1/2+x,-y,-z
-x,y,-z
-x,-y,-z
1/2+x,y,-z
1/2-x,y,z
x,-y,z
loop_
_atom_site_type_symbol
_atom_site_label
_atom_site_fract_x
_atom_site_fract_y
_atom_site_fract_z
Si Si1 0.924419 0.422852 0.094681
Si Si2 0.578555 0.267085 0.564388
Si Si3 0.929796 0.200871 0.193615
Si Si4 0.574447 0.300815 0.704727
Si Si5 0.930493 0.922436 0.289284
Si Si6 0.569516 0.724559 0.931183
Si Si7 0.423045 0.103012 0.431916
Si Si8 0.084100 0.422730 0.748143
O O1 0.750000 0.415321 0.072066
O O2 0.976458 0.500000 0.075474
O O3 0.921469 0.422770 0.173360
O O4 0.016017 0.354810 0.076682
O O5 0.500000 0.292855 0.500000
O O6 0.750000 0.290598 0.564159
O O7 0.510986 0.288225 0.632956
O O8 0.577014 0.185102 0.563794
O O9 0.750000 0.197784 0.183377
O O10 0.977813 0.132055 0.233389
O O11 0.976201 0.259493 0.244101
O O12 0.007447 0.226422 0.126627
O O13 0.750000 0.279484 0.708280
O O14 0.551828 0.378853 0.721821
O O15 0.750000 0.914519 0.296591
O O16 0.000187 0.913194 0.362081
O O17 0.963016 0.000000 0.268526
O O18 0.750000 0.726313 0.931186
O O19 0.500000 0.747657 0.000000
O O20 0.500000 0.079207 0.500000
O O21 0.250000 0.080043 0.430433
O O22 0.250000 0.394884 0.729617
O O23 0.075882 0.500000 0.725714
#
# Coordination Sequence:
#
# PCOD9401606 Si02
#       8
#     8   8   8   8   8   8   8   8
#     4   9  18  34  55  81 116 153 189 226 266 320
#     4   9  19  32  48  74 108 141 181 228 275 325
#     4  11  22  38  60  84 112 144 181 226 274 326
#     4  11  20  32  53  82 110 140 182 233 278 325
#     4  10  22  39  59  84 113 148 188 229 278 333
#     4  12  25  40  60  85 115 149 187 229 274 327
#     4  10  19  33  52  78 114 153 191 229 272 325
#     4   9  18  32  51  77 109 145 184 225 272 328
#
# _framework density 17.927091000000001
#
# number of rings (size 3 to 8) (size 9 to 14) (size 15 to 20)
#    0.000    1.875    2.500    3.000    0.000    3.250 
#    0.000    1.250    0.000    0.750    0.000    0.000 
#    0.000    0.000    0.000    0.000    0.000    0.000 
#
# Total GULP energy -356647.842526 kJ/mol
# GULP energy per Si atom -5572.622539 kJ/mol
# Density = 1.788629 g / cm^3
# Si number density = 17.927091 Si / 1000 Ang^3
#
#
#
# Elastic Constant Matrix: (Units=GPa)
#
#
# Indices 1 2 3 4 5 6 
#
# 1 70.3982 37.9186 50.6398 0.0000 0.0000 0.0000
# 2 37.9186 79.9136 53.8752 0.0000 0.0000 0.0000
# 3 50.6398 53.8752 141.0194 0.0000 0.0000 0.0000
# 4 0.0000 0.0000 0.0000 14.4471 0.0000 0.0000
# 5 0.0000 0.0000 0.0000 0.0000 26.7897 0.0000
# 6 0.0000 0.0000 0.0000 0.0000 0.0000 12.2584
#
#
#
# Elastic Compliance Matrix: (Units=1/GPa)
#
#
# Indices 1 2 3 4 5 6 
#
# 1 0.021552 -0.006746 -0.005162 0.000000 0.000000 0.000000
# 2 -0.006746 0.018966 -0.004823 0.000000 0.000000 0.000000
# 3 -0.005162 -0.004823 0.010788 0.000000 0.000000 0.000000
# 4 0.000000 0.000000 0.000000 0.069218 0.000000 0.000000
# 5 0.000000 0.000000 0.000000 0.000000 0.037328 0.000000
# 6 0.000000 0.000000 0.000000 0.000000 0.000000 0.081577
#
#
# Mechanical properties :
#
#
# Convention : Reuss Voigt Hill
#
# Bulk Modulus (GPa) = 56.04523 64.02204 60.03364
# Shear Modulus (GPa) = 17.93150 20.62553 19.27852
#
# Velocity S-wave (km/s) = 3.16610 3.39562 3.28286
# Velocity P-wave (km/s) = 6.68553 7.15287 6.92315
#
# Compressibility (1/GPa) = 0.01784273
#
# Stress axis : x y z
#
# Youngs Moduli (GPa) = 46.39996 52.72502 92.69953
#
# Poissons Ratio (x) = 0.35570 0.47850
# Poissons Ratio (y) = 0.31303 0.44712
# Poissons Ratio (z) = 0.23951 0.25431
#
# Static dielectric constant tensor:
#      x y z
#    x 1.641980 0.000000 0.000000 
#    y 0.000000 1.632020 0.000000 
#    z 0.000000 0.000000 1.626410 
# 
# From -- ./inp_files/32296.got.cif
#   From: 2010.05.17/outbox.cif.g08.bks.cpg/sg51_17_cif.got.tgz:32296.got - 2010.06.03 11:52:47.
