data_PCOD9401951
_publ_section_title
;
Structure prediction by ZEFSAII (Michael W. Deem and Ramdas Pophale) SiO2 
 PCOD9401951
Probable space group: P M M A
;
_chemical_formula_sum "Si O2"
_cell_formula_units_Z 40
_cell_length_a 26.749231
_cell_length_b 7.471367
_cell_length_c 9.188481
_cell_angle_alpha 90.000000
_cell_angle_beta 90.000000
_cell_angle_gamma 90.000000
_cell_volume 1836.348450
_symmetry_space_group_name_H-M "P M M A"
_symmetry_group_IT_number 51
_symmetry_cell_setting 'orthorhombic'
loop_
_space_group_symop_operation_xyz
x,y,z
1/2-x,-y,z
1/2+x,-y,-z
-x,y,-z
-x,-y,-z
1/2+x,y,-z
1/2-x,y,z
x,-y,z
loop_
_atom_site_type_symbol
_atom_site_label
_atom_site_fract_x
_atom_site_fract_y
_atom_site_fract_z
Si Si1 0.549959 0.281380 0.582958
Si Si2 0.250000 0.792049 0.094740
Si Si3 0.250000 0.294373 0.427197
Si Si4 0.949360 0.281074 0.918609
Si Si5 0.849686 0.280387 0.419116
Si Si6 0.350152 0.714201 0.914426
O O1 0.500000 0.223855 0.500000
O O2 0.549768 0.500000 0.583223
O O3 0.550618 0.224636 0.750727
O O4 0.599504 0.223761 0.497958
O O5 0.250000 0.703660 0.253101
O O6 0.250000 0.000000 0.126837
O O7 0.299507 0.749838 0.002567
O O8 0.250000 0.500000 0.477958
O O9 0.198974 0.217592 0.492638
O O10 0.948920 0.500000 0.919263
O O11 0.899398 0.220056 0.001472
O O12 0.000000 0.225760 0.000000
O O13 0.850419 0.500000 0.420601
O O14 0.847413 0.221360 0.251611
O O15 0.355237 0.500000 0.906033
#
# Coordination Sequence:
#
# PCOD9401951 Si02
#       6
#     8   4   4   8   8   8
#     4   9  15  23  37  64 105 141 165 198 247 298
#     4  12  25  38  52  74 104 136 175 218 262 310
#     4  10  19  34  54  74  98 128 167 212 260 310
#     4   9  16  26  45  76 109 138 169 208 253 301
#     4   9  17  29  49  76 101 130 169 211 253 302
#     4  10  19  34  56  79 105 137 174 214 259 309
#
# _framework density 21.782360000000001
#
# number of rings (size 3 to 8) (size 9 to 14) (size 15 to 20)
#    0.000    2.400    0.000    3.900    0.000    9.600 
#    0.000    2.000    0.000    0.600    0.000    0.000 
#    0.000    7.200    0.000    0.000    0.000    0.000 
#
# Total GULP energy -223584.211553 kJ/mol
# GULP energy per Si atom -5589.605289 kJ/mol
# Density = 2.173278 g / cm^3
# Si number density = 21.782360 Si / 1000 Ang^3
#
#
#
# Elastic Constant Matrix: (Units=GPa)
#
#
# Indices 1 2 3 4 5 6 
#
# 1 271.1851 1.2339 149.4633 0.0000 0.0000 0.0000
# 2 1.2339 60.8501 1.0574 0.0000 0.0000 0.0000
# 3 149.4633 1.0574 183.3846 0.0000 0.0000 0.0000
# 4 0.0000 0.0000 0.0000 -27.6507 0.0000 0.0000
# 5 0.0000 0.0000 0.0000 0.0000 53.8337 0.0000
# 6 0.0000 0.0000 0.0000 0.0000 0.0000 -61.0820
#
#
#
# Elastic Compliance Matrix: (Units=1/GPa)
#
#
# Indices 1 2 3 4 5 6 
#
# 1 0.006695 -0.000041 -0.005456 0.000000 0.000000 0.000000
# 2 -0.000041 0.016436 -0.000061 0.000000 0.000000 0.000000
# 3 -0.005456 -0.000061 0.009900 0.000000 0.000000 0.000000
# 4 0.000000 0.000000 0.000000 -0.036165 0.000000 0.000000
# 5 0.000000 0.000000 0.000000 0.000000 0.018576 0.000000
# 6 0.000000 0.000000 0.000000 0.000000 0.000000 -0.016371
#
#
# Mechanical properties :
#
#
# Convention : Reuss Voigt Hill
#
# Bulk Modulus (GPa) = 45.63341 90.99212 68.31276
# Shear Modulus (GPa) = 285.84716 17.26454 151.55585
#
# Velocity S-wave (km/s) = 11.46794 2.81836 8.35035
# Velocity P-wave (km/s) = 14.01238 7.24257 11.15351
#
# Compressibility (1/GPa) = 0.02191377
#
# Stress axis : x y z
#
# Youngs Moduli (GPa) = 149.36622 60.84303 101.00570
#
# Poissons Ratio (x) = 0.00249 0.55112
# Poissons Ratio (y) = 0.00612 0.00620
# Poissons Ratio (z) = 0.81499 0.00374
#
# Static dielectric constant tensor:
#      x y z
#    x 1.765710 0.000000 0.000000 
#    y 0.000000 1.810330 0.000000 
#    z 0.000000 0.000000 1.762640 
# 
# From -- ./inp_files/12166.got.cif
#   From: 2010.05.17/outbox.cif.g08.bks.cpg/sg51_7_cif.got.tgz:12166.got - 2010.06.03 11:52:47.
