data_PCOD9401169
_publ_section_title
;
Structure prediction by ZEFSAII (Michael W. Deem and Ramdas Pophale) SiO2 
 PCOD9401169
Probable space group: P M M A
;
_chemical_formula_sum "Si O2"
_cell_formula_units_Z 48
_cell_length_a 32.471635
_cell_length_b 8.808969
_cell_length_c 9.505244
_cell_angle_alpha 90.000000
_cell_angle_beta 90.000000
_cell_angle_gamma 90.000000
_cell_volume 2718.895450
_symmetry_space_group_name_H-M "P M M A"
_symmetry_group_IT_number 51
_symmetry_cell_setting 'orthorhombic'
loop_
_space_group_symop_operation_xyz
x,y,z
1/2-x,-y,z
1/2+x,-y,-z
-x,y,-z
-x,-y,-z
1/2+x,y,-z
1/2-x,y,z
x,-y,z
loop_
_atom_site_type_symbol
_atom_site_label
_atom_site_fract_x
_atom_site_fract_y
_atom_site_fract_z
Si Si1 0.705235 0.678836 0.834118
Si Si2 0.958611 0.183274 0.661495
Si Si3 0.295440 0.320758 0.825236
Si Si4 0.880018 0.181790 0.844650
Si Si5 0.544698 0.318598 0.348990
Si Si6 0.880965 0.818809 0.174122
O O1 0.750000 0.737886 0.784346
O O2 0.703520 0.500000 0.802825
O O3 0.663101 0.755267 0.785727
O O4 0.705409 0.694234 0.004444
O O5 0.920111 0.229037 0.757898
O O6 0.951936 0.247549 0.504924
O O7 0.002035 0.251531 0.712287
O O8 0.961358 0.000000 0.657230
O O9 0.250000 0.271780 0.774284
O O10 0.300234 0.500000 0.794580
O O11 0.335337 0.229966 0.775847
O O12 0.877783 0.000000 0.840197
O O13 0.884110 0.224815 0.008935
O O14 0.542259 0.500000 0.357685
O O15 0.583631 0.265280 0.259473
O O16 0.885862 0.000000 0.186167
#
# Coordination Sequence:
#
# PCOD9401169 Si02
#       6
#     8   8   8   8   8   8
#     4   8  14  25  43  68  99 133 164 195 236 285
#     4  10  20  37  56  73  96 128 164 203 248 296
#     4   8  14  26  44  68  99 132 164 199 239 284
#     4   9  19  32  50  76 102 129 163 202 244 289
#     4  11  22  36  53  74  97 127 167 204 244 296
#     4  10  19  32  50  75 104 132 163 201 244 288
#
# _framework density 17.654228
#
# number of rings (size 3 to 8) (size 9 to 14) (size 15 to 20)
#    0.000    2.667    0.000    4.500    0.000    3.333 
#    0.000    6.667    0.000    1.000    0.000    4.667 
#    0.000    0.000    0.000    0.000    0.000    0.000 
#
# Total GULP energy -267486.193854 kJ/mol
# GULP energy per Si atom -5572.629039 kJ/mol
# Density = 1.761405 g / cm^3
# Si number density = 17.654228 Si / 1000 Ang^3
#
#
#
# Elastic Constant Matrix: (Units=GPa)
#
#
# Indices 1 2 3 4 5 6 
#
# 1 194.5701 60.4999 51.0040 0.0000 0.0000 0.0000
# 2 60.4999 60.9639 21.5827 0.0000 0.0000 0.0000
# 3 51.0040 21.5827 24.4692 0.0000 0.0000 0.0000
# 4 0.0000 0.0000 0.0000 13.5200 0.0000 0.0000
# 5 0.0000 0.0000 0.0000 0.0000 -24.2726 0.0000
# 6 0.0000 0.0000 0.0000 0.0000 0.0000 37.9233
#
#
#
# Elastic Compliance Matrix: (Units=1/GPa)
#
#
# Indices 1 2 3 4 5 6 
#
# 1 0.012119 -0.004484 -0.021306 0.000000 0.000000 0.000000
# 2 -0.004484 0.025510 -0.013154 0.000000 0.000000 0.000000
# 3 -0.021306 -0.013154 0.096880 0.000000 0.000000 0.000000
# 4 0.000000 0.000000 0.000000 0.073964 0.000000 0.000000
# 5 0.000000 0.000000 0.000000 0.000000 -0.041199 0.000000
# 6 0.000000 0.000000 0.000000 0.000000 0.000000 0.026369
#
#
# Mechanical properties :
#
#
# Convention : Reuss Voigt Hill
#
# Bulk Modulus (GPa) = 17.66131 60.68625 39.17378
# Shear Modulus (GPa) = 17.21738 15.22858 16.22298
#
# Velocity S-wave (km/s) = 3.12630 2.94020 3.03467
# Velocity P-wave (km/s) = 4.80181 6.78055 5.87508
#
# Compressibility (1/GPa) = 0.05662093
#
# Stress axis : x y z
#
# Youngs Moduli (GPa) = 82.51717 39.20063 10.32206
#
# Poissons Ratio (x) = 0.17577 0.21992
# Poissons Ratio (y) = 0.36999 0.13578
# Poissons Ratio (z) = 1.75807 0.51566
#
# Static dielectric constant tensor:
#      x y z
#    x 1.630020 0.000000 0.000000 
#    y 0.000000 1.590740 0.000000 
#    z 0.000000 0.000000 1.590700 
# 
# From -- ./inp_files/19015.got.cif
#   From: 2010.05.17/outbox.cif.g08.bks.cpg/sg51_10_cif.got.tgz:19015.got - 2010.06.03 11:52:47.
