data_PCOD9401955
_publ_section_title
;
Structure prediction by ZEFSAII (Michael W. Deem and Ramdas Pophale) SiO2 
 PCOD9401955
Probable space group: P M M A
;
_chemical_formula_sum "Si O2"
_cell_formula_units_Z 40
_cell_length_a 26.248493
_cell_length_b 8.512605
_cell_length_c 9.829181
_cell_angle_alpha 90.000000
_cell_angle_beta 90.000000
_cell_angle_gamma 90.000000
_cell_volume 2196.262209
_symmetry_space_group_name_H-M "P M M A"
_symmetry_group_IT_number 51
_symmetry_cell_setting 'orthorhombic'
loop_
_space_group_symop_operation_xyz
x,y,z
1/2-x,-y,z
1/2+x,-y,-z
-x,y,-z
-x,-y,-z
1/2+x,y,-z
1/2-x,y,z
x,-y,z
loop_
_atom_site_type_symbol
_atom_site_label
_atom_site_fract_x
_atom_site_fract_y
_atom_site_fract_z
Si Si1 0.341086 0.190729 0.094947
Si Si2 0.659206 0.811780 0.591797
Si Si3 0.750000 0.686384 0.406236
Si Si4 0.250000 0.190620 0.900935
Si Si5 0.043773 0.190172 0.104017
Si Si6 0.547010 0.687826 0.593442
O O1 0.330953 0.240734 0.251254
O O2 0.399007 0.235248 0.059020
O O3 0.339048 0.000000 0.096422
O O4 0.299362 0.244196 0.986910
O O5 0.700594 0.743738 0.489501
O O6 0.601614 0.761865 0.556360
O O7 0.662679 0.000000 0.589523
O O8 0.750000 0.500000 0.400638
O O9 0.750000 0.752133 0.253256
O O10 0.250000 0.000000 0.899051
O O11 0.035797 0.262141 0.252183
O O12 0.042729 0.000000 0.116000
O O13 0.000000 0.238461 0.000000
O O14 0.500000 0.740014 0.500000
O O15 0.551531 0.500000 0.584013
#
# Coordination Sequence:
#
# PCOD9401955 Si02
#       6
#     8   8   4   4   8   8
#     4   8  16  32  55  79 101 130 176 228 266 307
#     4  10  20  38  62  83 104 140 189 230 268 320
#     4  12  25  38  52  80 118 146 175 220 274 326
#     4  10  19  34  54  76 104 138 175 216 266 318
#     4   9  18  33  53  78 106 139 183 227 265 314
#     4  10  21  36  54  81 116 148 179 221 275 329
#
# _framework density 18.212762000000001
#
# number of rings (size 3 to 8) (size 9 to 14) (size 15 to 20)
#    0.000    2.400    0.000    3.900    0.000    5.200 
#    0.000    8.000    0.000    0.000    0.000    0.000 
#    0.000    0.000    0.000    0.000    0.000    0.000 
#
# Total GULP energy -223216.869758 kJ/mol
# GULP energy per Si atom -5580.421744 kJ/mol
# Density = 1.817131 g / cm^3
# Si number density = 18.212762 Si / 1000 Ang^3
#
#
#
# Elastic Constant Matrix: (Units=GPa)
#
#
# Indices 1 2 3 4 5 6 
#
# 1 172.7432 37.3653 133.8224 0.0000 0.0000 0.0000
# 2 37.3653 38.5880 30.7666 0.0000 0.0000 0.0000
# 3 133.8224 30.7666 136.6514 0.0000 0.0000 0.0000
# 4 0.0000 0.0000 0.0000 -3.3383 0.0000 0.0000
# 5 0.0000 0.0000 0.0000 0.0000 39.2707 0.0000
# 6 0.0000 0.0000 0.0000 0.0000 0.0000 25.8754
#
#
#
# Elastic Compliance Matrix: (Units=1/GPa)
#
#
# Indices 1 2 3 4 5 6 
#
# 1 0.024976 -0.005708 -0.023174 0.000000 0.000000 0.000000
# 2 -0.005708 0.032889 -0.001815 0.000000 0.000000 0.000000
# 3 -0.023174 -0.001815 0.030421 0.000000 0.000000 0.000000
# 4 0.000000 0.000000 0.000000 -0.299558 0.000000 0.000000
# 5 0.000000 0.000000 0.000000 0.000000 0.025464 0.000000
# 6 0.000000 0.000000 0.000000 0.000000 0.000000 0.038647
#
#
# Mechanical properties :
#
#
# Convention : Reuss Voigt Hill
#
# Bulk Modulus (GPa) = 37.18579 83.54346 60.36463
# Shear Modulus (GPa) = -65.10279 22.09678 -21.50300
#
# Velocity S-wave (km/s) = -5.98526 3.48696 -3.43980
# Velocity P-wave (km/s) = 5.22519 7.88558 4.17610
#
# Compressibility (1/GPa) = 0.02689199
#
# Stress axis : x y z
#
# Youngs Moduli (GPa) = 40.03769 30.40521 32.87197
#
# Poissons Ratio (x) = 0.17355 0.76178
# Poissons Ratio (y) = 0.22853 0.05967
# Poissons Ratio (z) = 0.92784 0.05519
#
# Static dielectric constant tensor:
#      x y z
#    x 1.623220 0.000000 0.000000 
#    y 0.000000 1.614150 0.000000 
#    z 0.000000 0.000000 1.596550 
# 
# From -- ./inp_files/12137.got.cif
#   From: 2010.05.17/outbox.cif.g08.bks.cpg/sg51_7_cif.got.tgz:12137.got - 2010.06.03 11:52:47.
