data_PCOD9401907
_publ_section_title
;
Structure prediction by ZEFSAII (Michael W. Deem and Ramdas Pophale) SiO2 
 PCOD9401907
Probable space group: P M M A
;
_chemical_formula_sum "Si O2"
_cell_formula_units_Z 56
_cell_length_a 14.295070
_cell_length_b 15.290000
_cell_length_c 12.480718
_cell_angle_alpha 90.000000
_cell_angle_beta 90.000000
_cell_angle_gamma 90.000000
_cell_volume 2727.930756
_symmetry_space_group_name_H-M "P M M A"
_symmetry_group_IT_number 51
_symmetry_cell_setting 'orthorhombic'
loop_
_space_group_symop_operation_xyz
x,y,z
1/2-x,-y,z
1/2+x,-y,-z
-x,y,-z
-x,-y,-z
1/2+x,y,-z
1/2-x,y,z
x,-y,z
loop_
_atom_site_type_symbol
_atom_site_label
_atom_site_fract_x
_atom_site_fract_y
_atom_site_fract_z
Si Si1 0.110553 0.094242 0.513126
Si Si2 0.855620 0.095593 0.735692
Si Si3 0.136110 0.605397 0.338139
Si Si4 0.138428 0.406421 0.750542
Si Si5 0.554530 0.734900 0.834711
Si Si6 0.639532 0.707330 0.445410
Si Si7 0.640768 0.285394 0.067846
O O1 0.149292 0.098990 0.392771
O O2 0.128248 0.188374 0.564006
O O3 0.000000 0.089948 0.500000
O O4 0.140743 0.000000 0.561322
O O5 0.750000 0.099869 0.778245
O O6 0.909850 0.178953 0.775676
O O7 0.896054 0.000000 0.764033
O O8 0.250000 0.618114 0.323538
O O9 0.122048 0.500000 0.348275
O O10 0.081383 0.651619 0.239725
O O11 0.105966 0.659456 0.445680
O O12 0.250000 0.411028 0.732389
O O13 0.095464 0.500000 0.729317
O O14 0.103589 0.338221 0.662252
O O15 0.131511 0.379721 0.874517
O O16 0.447000 0.756362 0.868102
O O17 0.612234 0.719961 0.944749
O O18 0.750000 0.692761 0.450762
O O19 0.750000 0.257542 0.084253
#
# Coordination Sequence:
#
# PCOD9401907 Si02
#       7
#     8   8   8   8   8   8   8
#     4  10  21  34  52  83 122 161 200 247 300 359
#     4  10  20  37  64  94 123 159 207 259 309 365
#     4  10  20  34  56  91 129 158 196 258 318 362
#     4   9  19  36  57  82 117 164 206 238 289 364
#     4  11  22  39  65  91 120 156 202 258 310 368
#     4  10  19  33  57  86 120 161 202 247 302 360
#     4  10  23  41  61  86 119 161 206 251 302 362
#
# _framework density 20.528379999999999
#
# number of rings (size 3 to 8) (size 9 to 14) (size 15 to 20)
#    0.000    2.000    1.429    2.143    2.000    3.714 
#    0.000    4.286    0.000    4.714    0.000    2.000 
#    0.000    0.000    0.000    0.000    0.000    0.000 
#
# Total GULP energy -311857.031800 kJ/mol
# GULP energy per Si atom -5568.875568 kJ/mol
# Density = 2.048166 g / cm^3
# Si number density = 20.528380 Si / 1000 Ang^3
#
#
#
# Elastic Constant Matrix: (Units=GPa)
#
#
# Indices 1 2 3 4 5 6 
#
# 1 107.3602 10.9423 17.4619 0.0000 0.0000 0.0000
# 2 10.9423 154.2788 40.5066 0.0000 0.0000 0.0000
# 3 17.4619 40.5066 44.7294 0.0000 0.0000 0.0000
# 4 0.0000 0.0000 0.0000 12.2271 0.0000 0.0000
# 5 0.0000 0.0000 0.0000 0.0000 14.9545 0.0000
# 6 0.0000 0.0000 0.0000 0.0000 0.0000 19.2970
#
#
#
# Elastic Compliance Matrix: (Units=1/GPa)
#
#
# Indices 1 2 3 4 5 6 
#
# 1 0.009966 0.000413 -0.004264 0.000000 0.000000 0.000000
# 2 0.000413 0.008521 -0.007878 0.000000 0.000000 0.000000
# 3 -0.004264 -0.007878 0.031155 0.000000 0.000000 0.000000
# 4 0.000000 0.000000 0.000000 0.081785 0.000000 0.000000
# 5 0.000000 0.000000 0.000000 0.000000 0.066870 0.000000
# 6 0.000000 0.000000 0.000000 0.000000 0.000000 0.051822
#
#
# Mechanical properties :
#
#
# Convention : Reuss Voigt Hill
#
# Bulk Modulus (GPa) = 38.19164 49.35443 43.77304
# Shear Modulus (GPa) = 17.71136 25.12622 21.41879
#
# Velocity S-wave (km/s) = 2.94049 3.50233 3.23363
# Velocity P-wave (km/s) = 5.49303 6.35998 5.94233
#
# Compressibility (1/GPa) = 0.02618374
#
# Stress axis : x y z
#
# Youngs Moduli (GPa) = 100.34149 117.36025 32.09728
#
# Poissons Ratio (x) = -0.04845 0.13688
# Poissons Ratio (y) = -0.04142 0.25285
# Poissons Ratio (z) = 0.42790 0.92451
#
# Static dielectric constant tensor:
#      x y z
#    x 1.820930 0.000000 0.000000 
#    y 0.000000 1.765720 0.000000 
#    z 0.000000 0.000000 1.717640 
# 
# From -- ./inp_files/16663.got.cif
#   From: 2010.05.17/outbox.cif.g08.bks.cpg/sg51_9_cif.got.tgz:16663.got - 2010.06.03 11:52:47.
