data_PCOD9401784
_publ_section_title
;
Structure prediction by ZEFSAII (Michael W. Deem and Ramdas Pophale) SiO2 
 PCOD9401784
Probable space group: P M M A
;
_chemical_formula_sum "Si O2"
_cell_formula_units_Z 48
_cell_length_a 29.207783
_cell_length_b 7.550146
_cell_length_c 10.459049
_cell_angle_alpha 90.000000
_cell_angle_beta 90.000000
_cell_angle_gamma 90.000000
_cell_volume 2306.461134
_symmetry_space_group_name_H-M "P M M A"
_symmetry_group_IT_number 51
_symmetry_cell_setting 'orthorhombic'
loop_
_space_group_symop_operation_xyz
x,y,z
1/2-x,-y,z
1/2+x,-y,-z
-x,y,-z
-x,-y,-z
1/2+x,y,-z
1/2-x,y,z
x,-y,z
loop_
_atom_site_type_symbol
_atom_site_label
_atom_site_fract_x
_atom_site_fract_y
_atom_site_fract_z
Si Si1 0.198790 0.783515 0.619718
Si Si2 0.553123 0.285279 0.508603
Si Si3 0.899458 0.292813 0.770951
Si Si4 0.549967 0.204298 0.025488
Si Si5 0.801427 0.786206 0.675722
Si Si6 0.391154 0.206304 0.744645
O O1 0.250000 0.730502 0.656982
O O2 0.191088 0.729211 0.472014
O O3 0.158498 0.717335 0.710235
O O4 0.197535 0.000000 0.618766
O O5 0.500000 0.233548 0.500000
O O6 0.555412 0.500000 0.505298
O O7 0.577005 0.225160 0.640153
O O8 0.580089 0.216644 0.385779
O O9 0.910549 0.500000 0.780430
O O10 0.844851 0.272697 0.757328
O O11 0.920785 0.206600 0.896209
O O12 0.579476 0.286356 0.140242
O O13 0.541119 0.000000 0.065006
O O14 0.500000 0.285039 0.000000
O O15 0.750000 0.728393 0.713924
O O16 0.801329 0.000000 0.676689
O O17 0.383160 0.000000 0.777730
#
# Coordination Sequence:
#
# PCOD9401784 Si02
#       6
#     8   8   8   8   8   8
#     4   8  14  27  50  79 105 128 162 213 268 316
#     4  10  21  35  51  75 106 137 175 222 269 321
#     4  11  22  35  54  80 109 145 182 221 272 325
#     4  10  22  38  54  76 109 147 187 230 275 326
#     4   9  17  32  56  82 108 139 173 217 272 323
#     4  10  19  33  55  79 101 134 178 223 270 316
#
# _framework density 20.811104
#
# number of rings (size 3 to 8) (size 9 to 14) (size 15 to 20)
#    0.000    2.333    1.667    2.500    0.000    2.333 
#    0.000    0.833    0.000    3.500    0.000    0.000 
#    0.000    0.000    0.000    0.000    0.000    0.000 
#
# Total GULP energy -267985.130020 kJ/mol
# GULP energy per Si atom -5583.023542 kJ/mol
# Density = 2.076374 g / cm^3
# Si number density = 20.811104 Si / 1000 Ang^3
#
#
#
# Elastic Constant Matrix: (Units=GPa)
#
#
# Indices 1 2 3 4 5 6 
#
# 1 173.8336 -10.4212 59.2595 0.0000 0.0000 0.0000
# 2 -10.4212 49.3573 -12.1206 0.0000 0.0000 0.0000
# 3 59.2595 -12.1206 100.1887 0.0000 0.0000 0.0000
# 4 0.0000 0.0000 0.0000 -4.0648 0.0000 0.0000
# 5 0.0000 0.0000 0.0000 0.0000 32.3565 0.0000
# 6 0.0000 0.0000 0.0000 0.0000 0.0000 33.6903
#
#
#
# Elastic Compliance Matrix: (Units=1/GPa)
#
#
# Indices 1 2 3 4 5 6 
#
# 1 0.007217 0.000490 -0.004209 0.000000 0.000000 0.000000
# 2 0.000490 0.020914 0.002240 0.000000 0.000000 0.000000
# 3 -0.004209 0.002240 0.012742 0.000000 0.000000 0.000000
# 4 0.000000 0.000000 0.000000 -0.246013 0.000000 0.000000
# 5 0.000000 0.000000 0.000000 0.000000 0.030906 0.000000
# 6 0.000000 0.000000 0.000000 0.000000 0.000000 0.029682
#
#
# Mechanical properties :
#
#
# Convention : Reuss Voigt Hill
#
# Bulk Modulus (GPa) = 26.37486 44.09053 35.23269
# Shear Modulus (GPa) = -38.77310 31.50720 -3.63295
#
# Velocity S-wave (km/s) = -4.32104 3.89519 -1.32267
# Velocity P-wave (km/s) = 3.49203 6.43910 3.82543
#
# Compressibility (1/GPa) = 0.03791490
#
# Stress axis : x y z
#
# Youngs Moduli (GPa) = 138.56200 47.81475 78.48083
#
# Poissons Ratio (x) = -0.02343 0.33036
# Poissons Ratio (y) = -0.06791 -0.17582
# Poissons Ratio (z) = 0.58326 -0.10712
#
# Static dielectric constant tensor:
#      x y z
#    x 1.701090 0.000000 0.000000 
#    y 0.000000 1.785370 0.000000 
#    z 0.000000 0.000000 1.703880 
# 
# From -- ./inp_files/12794.got.cif
#   From: 2010.05.17/outbox.cif.g08.bks.cpg/sg51_7_cif.got.tgz:12794.got - 2010.06.03 11:52:47.
