data_PCOD9401974
_publ_section_title
;
Structure prediction by ZEFSAII (Michael W. Deem and Ramdas Pophale) SiO2 
 PCOD9401974
Probable space group: P M M A
;
_chemical_formula_sum "Si O2"
_cell_formula_units_Z 64
_cell_length_a 8.587294
_cell_length_b 25.170167
_cell_length_c 15.769994
_cell_angle_alpha 90.000000
_cell_angle_beta 90.000000
_cell_angle_gamma 90.000000
_cell_volume 3408.583655
_symmetry_space_group_name_H-M "P M M A"
_symmetry_group_IT_number 51
_symmetry_cell_setting 'orthorhombic'
loop_
_space_group_symop_operation_xyz
x,y,z
1/2-x,-y,z
1/2+x,-y,-z
-x,y,-z
-x,-y,-z
1/2+x,y,-z
1/2-x,y,z
x,-y,z
loop_
_atom_site_type_symbol
_atom_site_label
_atom_site_fract_x
_atom_site_fract_y
_atom_site_fract_z
Si Si1 0.435411 0.737455 0.687808
Si Si2 0.936635 0.829244 0.911616
Si Si3 0.062484 0.440535 0.267266
Si Si4 0.935466 0.290589 0.868939
Si Si5 0.937428 0.643558 0.590227
Si Si6 0.062775 0.147742 0.278040
Si Si7 0.563528 0.937720 0.407129
Si Si8 0.066963 0.402985 0.911648
O O1 0.250000 0.734090 0.699356
O O2 0.523826 0.713427 0.769643
O O3 0.490145 0.701121 0.610451
O O4 0.487655 0.798610 0.684158
O O5 0.750000 0.830859 0.914589
O O6 0.982798 0.766954 0.904822
O O7 0.984862 0.855004 0.821699
O O8 0.000000 0.851541 0.000000
O O9 0.250000 0.438862 0.266073
O O10 0.012869 0.500000 0.291572
O O11 0.010964 0.396649 0.335214
O O12 0.005307 0.427837 0.172872
O O13 0.750000 0.297968 0.880120
O O14 0.025453 0.340321 0.906633
O O15 0.750000 0.646677 0.590049
O O16 0.000000 0.624609 0.500000
O O17 0.250000 0.153204 0.280108
O O18 0.009363 0.098297 0.333892
O O19 0.500000 0.922046 0.500000
O O20 0.750000 0.932241 0.406447
O O21 0.524462 0.000000 0.394842
O O22 0.250000 0.410429 0.910341
O O23 0.000000 0.424265 0.000000
#
# Coordination Sequence:
#
# PCOD9401974 Si02
#       8
#     8   8   8   8   8   8   8   8
#     4  11  21  35  57  86 119 154 193 234 287 346
#     4   9  19  32  50  78 114 154 194 236 283 333
#     4  10  23  44  66  85 111 148 188 237 293 348
#     4  10  19  34  54  80 115 152 190 234 283 341
#     4  11  23  40  63  88 118 150 188 236 288 350
#     4  10  21  37  57  85 121 160 200 243 292 345
#     4  10  21  38  61  89 119 153 196 246 298 353
#     4  12  24  37  58  86 115 150 190 235 287 346
#
# _framework density 18.776126000000001
#
# number of rings (size 3 to 8) (size 9 to 14) (size 15 to 20)
#    0.000    1.625    1.250    4.875    0.000    6.500 
#    0.000    2.500    0.000    0.375    0.000    0.000 
#    0.000    0.000    0.000    0.000    0.000    0.000 
#
# Total GULP energy -357524.329118 kJ/mol
# GULP energy per Si atom -5586.317642 kJ/mol
# Density = 1.873339 g / cm^3
# Si number density = 18.776126 Si / 1000 Ang^3
#
#
#
# Elastic Constant Matrix: (Units=GPa)
#
#
# Indices 1 2 3 4 5 6 
#
# 1 22.5378 18.3238 21.5611 0.0000 0.0000 0.0000
# 2 18.3238 72.4553 57.3910 0.0000 0.0000 0.0000
# 3 21.5611 57.3910 131.9251 0.0000 0.0000 0.0000
# 4 0.0000 0.0000 0.0000 -7.0998 0.0000 0.0000
# 5 0.0000 0.0000 0.0000 0.0000 28.6060 0.0000
# 6 0.0000 0.0000 0.0000 0.0000 0.0000 21.0116
#
#
#
# Elastic Compliance Matrix: (Units=1/GPa)
#
#
# Indices 1 2 3 4 5 6 
#
# 1 0.057705 -0.010868 -0.004703 0.000000 0.000000 0.000000
# 2 -0.010868 0.023105 -0.008275 0.000000 0.000000 0.000000
# 3 -0.004703 -0.008275 0.011948 0.000000 0.000000 0.000000
# 4 0.000000 0.000000 0.000000 -0.140848 0.000000 0.000000
# 5 0.000000 0.000000 0.000000 0.000000 0.034958 0.000000
# 6 0.000000 0.000000 0.000000 0.000000 0.000000 0.047593
#
#
# Mechanical properties :
#
#
# Convention : Reuss Voigt Hill
#
# Bulk Modulus (GPa) = 22.18969 46.82999 34.50984
# Shear Modulus (GPa) = 51.45357 17.14638 34.29997
#
# Velocity S-wave (km/s) = 5.24054 3.02520 4.27873
# Velocity P-wave (km/s) = 6.96142 6.09900 6.54443
#
# Compressibility (1/GPa) = 0.04506598
#
# Stress axis : x y z
#
# Youngs Moduli (GPa) = 17.32942 43.28142 83.69265
#
# Poissons Ratio (x) = 0.47040 0.39361
# Poissons Ratio (y) = 0.18834 0.69254
# Poissons Ratio (z) = 0.08150 0.35815
#
# Static dielectric constant tensor:
#      x y z
#    x 1.628570 0.000000 0.000000 
#    y 0.000000 1.647390 0.000000 
#    z 0.000000 0.000000 1.705000 
# 
# From -- ./inp_files/22231.got.cif
#   From: 2010.05.17/outbox.cif.g08.bks.cpg/sg51_12_cif.got.tgz:22231.got - 2010.06.03 11:52:47.
