data_PCOD9401215
_publ_section_title
;
Structure prediction by ZEFSAII (Michael W. Deem and Ramdas Pophale) SiO2 
 PCOD9401215
Probable space group: P M M A
;
_chemical_formula_sum "Si O2"
_cell_formula_units_Z 64
_cell_length_a 9.222159
_cell_length_b 27.455957
_cell_length_c 11.205737
_cell_angle_alpha 90.000000
_cell_angle_beta 90.000000
_cell_angle_gamma 90.000000
_cell_volume 2837.328477
_symmetry_space_group_name_H-M "P M M A"
_symmetry_group_IT_number 51
_symmetry_cell_setting 'orthorhombic'
loop_
_space_group_symop_operation_xyz
x,y,z
1/2-x,-y,z
1/2+x,-y,-z
-x,y,-z
-x,-y,-z
1/2+x,y,-z
1/2-x,y,z
x,-y,z
loop_
_atom_site_type_symbol
_atom_site_label
_atom_site_fract_x
_atom_site_fract_y
_atom_site_fract_z
Si Si1 0.904097 0.309170 0.329947
Si Si2 0.576821 0.086530 0.121229
Si Si3 0.415109 0.418288 0.614687
Si Si4 0.414956 0.181239 0.150757
Si Si5 0.916356 0.558777 0.119835
Si Si6 0.091400 0.294597 0.107319
Si Si7 0.080853 0.058737 0.374063
Si Si8 0.916288 0.799939 0.388669
O O1 0.750000 0.307866 0.260923
O O2 0.907311 0.359581 0.398286
O O3 0.905091 0.258721 0.400854
O O4 0.029536 0.307425 0.234856
O O5 0.750000 0.077217 0.122111
O O6 0.540192 0.144063 0.110451
O O7 0.502976 0.072889 0.249792
O O8 0.500000 0.065108 0.000000
O O9 0.500000 0.437705 0.500000
O O10 0.250000 0.437168 0.614859
O O11 0.475717 0.427057 0.748513
O O12 0.250000 0.160757 0.142791
O O13 0.408730 0.235498 0.098324
O O14 0.470861 0.190652 0.283817
O O15 0.750000 0.576659 0.115125
O O16 0.914219 0.500000 0.118694
O O17 0.000000 0.573935 0.000000
O O18 0.250000 0.313770 0.096302
O O19 0.000000 0.314382 0.000000
O O20 0.250000 0.076056 0.372784
O O21 0.000000 0.071555 0.500000
O O22 0.084969 0.000000 0.372618
O O23 0.750000 0.817562 0.369994
O O24 0.000000 0.821218 0.500000
#
# Coordination Sequence:
#
# PCOD9401215 Si02
#       8
#     8   8   8   8   8   8   8   8
#     4   9  19  34  50  71 103 140 180 228 278 331
#     4  12  25  41  63  92 126 163 203 248 299 354
#     4  10  21  36  55  82 114 147 184 228 280 337
#     4  10  21  37  55  78 109 146 190 238 289 343
#     4   9  19  37  59  82 110 144 183 228 278 334
#     4  10  20  33  52  75 102 140 185 233 283 337
#     4  10  22  43  70  98 128 162 200 244 296 354
#     4  10  19  32  51  74 102 140 186 235 286 339
#
# _framework density 22.556428
#
# number of rings (size 3 to 8) (size 9 to 14) (size 15 to 20)
#    0.000    2.000    0.000    3.375    0.000    6.250 
#    0.000    3.750    0.000    0.000    0.000    0.000 
#    0.000    0.000    0.000    0.000    0.000    0.000 
#
# Total GULP energy -356780.313960 kJ/mol
# GULP energy per Si atom -5574.692406 kJ/mol
# Density = 2.250509 g / cm^3
# Si number density = 22.556428 Si / 1000 Ang^3
#
#
#
# Elastic Constant Matrix: (Units=GPa)
#
#
# Indices 1 2 3 4 5 6 
#
# 1 171.5632 1.5877 82.5425 0.0000 0.0000 0.0000
# 2 1.5877 63.6259 4.5783 0.0000 0.0000 0.0000
# 3 82.5425 4.5783 159.6149 0.0000 0.0000 0.0000
# 4 0.0000 0.0000 0.0000 -8.8555 0.0000 0.0000
# 5 0.0000 0.0000 0.0000 0.0000 35.8117 0.0000
# 6 0.0000 0.0000 0.0000 0.0000 0.0000 8.3415
#
#
#
# Elastic Compliance Matrix: (Units=1/GPa)
#
#
# Indices 1 2 3 4 5 6 
#
# 1 0.007760 0.000095 -0.004016 0.000000 0.000000 0.000000
# 2 0.000095 0.015751 -0.000501 0.000000 0.000000 0.000000
# 3 -0.004016 -0.000501 0.008356 0.000000 0.000000 0.000000
# 4 0.000000 0.000000 0.000000 -0.112925 0.000000 0.000000
# 5 0.000000 0.000000 0.000000 0.000000 0.027924 0.000000
# 6 0.000000 0.000000 0.000000 0.000000 0.000000 0.119882
#
#
# Mechanical properties :
#
#
# Convention : Reuss Voigt Hill
#
# Bulk Modulus (GPa) = 43.43348 63.58011 53.50680
# Shear Modulus (GPa) = 60.04941 27.46592 43.75766
#
# Velocity S-wave (km/s) = 5.16524 3.49328 4.40923
# Velocity P-wave (km/s) = 7.40744 6.67225 7.04944
#
# Compressibility (1/GPa) = 0.02302371
#
# Stress axis : x y z
#
# Youngs Moduli (GPa) = 128.86798 63.48985 119.67333
#
# Poissons Ratio (x) = -0.00605 0.48057
# Poissons Ratio (y) = -0.01228 0.05996
# Poissons Ratio (z) = 0.51749 0.03181
#
# Static dielectric constant tensor:
#      x y z
#    x 1.858020 0.000000 0.000000 
#    y 0.000000 1.879110 0.000000 
#    z 0.000000 0.000000 2.011360 
# 
# From -- ./inp_files/14854.got.cif
#   From: 2010.05.17/outbox.cif.g08.bks.cpg/sg51_8_cif.got.tgz:14854.got - 2010.06.03 11:52:47.
