data_PCOD9401748
_publ_section_title
;
Structure prediction by ZEFSAII (Michael W. Deem and Ramdas Pophale) SiO2 
 PCOD9401748
Probable space group: P M M A
;
_chemical_formula_sum "Si O2"
_cell_formula_units_Z 64
_cell_length_a 20.277986
_cell_length_b 8.738260
_cell_length_c 20.580784
_cell_angle_alpha 90.000000
_cell_angle_beta 90.000000
_cell_angle_gamma 90.000000
_cell_volume 3646.797901
_symmetry_space_group_name_H-M "P M M A"
_symmetry_group_IT_number 51
_symmetry_cell_setting 'orthorhombic'
loop_
_space_group_symop_operation_xyz
x,y,z
1/2-x,-y,z
1/2+x,-y,-z
-x,y,-z
-x,-y,-z
1/2+x,y,-z
1/2-x,y,z
x,-y,z
loop_
_atom_site_type_symbol
_atom_site_label
_atom_site_fract_x
_atom_site_fract_y
_atom_site_fract_z
Si Si1 0.072703 0.684922 0.026306
Si Si2 0.590470 0.317242 0.697931
Si Si3 0.574452 0.316566 0.477238
Si Si4 0.947832 0.183931 0.339595
Si Si5 0.439723 0.816910 0.166173
Si Si6 0.173324 0.183265 0.415940
Si Si7 0.675104 0.315635 0.084425
Si Si8 0.408650 0.817045 0.802128
O O1 0.074339 0.500000 0.031804
O O2 0.083780 0.756719 0.096835
O O3 0.126984 0.734906 0.973797
O O4 0.000000 0.727705 0.000000
O O5 0.588738 0.500000 0.695736
O O6 0.521095 0.252056 0.670343
O O7 0.595306 0.258769 0.771850
O O8 0.647185 0.253452 0.651428
O O9 0.500000 0.276309 0.500000
O O10 0.579484 0.500000 0.476664
O O11 0.582504 0.250077 0.405122
O O12 0.626949 0.248479 0.527283
O O13 0.907842 0.223709 0.274058
O O14 0.953106 0.000000 0.343031
O O15 0.517617 0.776920 0.173081
O O16 0.434093 0.000000 0.170733
O O17 0.250000 0.220891 0.426728
O O18 0.166385 0.000000 0.413596
O O19 0.750000 0.261720 0.076181
O O20 0.675087 0.500000 0.083572
O O21 0.644309 0.261584 0.152205
O O22 0.401673 0.000000 0.807386
#
# Coordination Sequence:
#
# PCOD9401748 Si02
#       8
#     8   8   8   8   8   8   8   8
#     4  10  19  33  54  81 109 144 186 231 281 335
#     4  11  21  35  57  85 115 148 187 233 285 340
#     4  11  22  36  58  90 119 151 193 239 287 340
#     4  10  20  35  57  85 115 147 186 236 285 331
#     4  10  20  34  55  83 112 142 183 234 283 329
#     4  11  24  41  61  85 116 156 196 237 290 349
#     4  10  21  36  54  78 110 146 183 225 278 337
#     4   9  19  34  53  80 109 140 181 228 275 327
#
# _framework density 17.549643
#
# number of rings (size 3 to 8) (size 9 to 14) (size 15 to 20)
#    0.000    1.750    2.500    3.375    0.000    5.000 
#    0.000    1.250    0.000    3.000    0.000    0.000 
#    0.000    0.000    0.000    0.000    0.000    0.000 
#
# Total GULP energy -357411.473884 kJ/mol
# GULP energy per Si atom -5584.554279 kJ/mol
# Density = 1.750970 g / cm^3
# Si number density = 17.549643 Si / 1000 Ang^3
#
#
#
# Elastic Constant Matrix: (Units=GPa)
#
#
# Indices 1 2 3 4 5 6 
#
# 1 122.4037 51.0259 86.5924 0.0000 0.0000 0.0000
# 2 51.0259 54.7660 52.2557 0.0000 0.0000 0.0000
# 3 86.5924 52.2557 167.6728 0.0000 0.0000 0.0000
# 4 0.0000 0.0000 0.0000 37.2698 0.0000 0.0000
# 5 0.0000 0.0000 0.0000 0.0000 24.8518 0.0000
# 6 0.0000 0.0000 0.0000 0.0000 0.0000 20.0290
#
#
#
# Elastic Compliance Matrix: (Units=1/GPa)
#
#
# Indices 1 2 3 4 5 6 
#
# 1 0.015957 -0.009969 -0.005134 0.000000 0.000000 0.000000
# 2 -0.009969 0.032215 -0.004892 0.000000 0.000000 0.000000
# 3 -0.005134 -0.004892 0.010140 0.000000 0.000000 0.000000
# 4 0.000000 0.000000 0.000000 0.026831 0.000000 0.000000
# 5 0.000000 0.000000 0.000000 0.000000 0.040239 0.000000
# 6 0.000000 0.000000 0.000000 0.000000 0.000000 0.049928
#
#
# Mechanical properties :
#
#
# Convention : Reuss Voigt Hill
#
# Bulk Modulus (GPa) = 54.57594 80.51006 67.54300
# Shear Modulus (GPa) = 22.58286 26.76135 24.67211
#
# Velocity S-wave (km/s) = 3.59109 3.90923 3.75353
# Velocity P-wave (km/s) = 6.95414 8.14563 7.57335
#
# Compressibility (1/GPa) = 0.01832309
#
# Stress axis : x y z
#
# Youngs Moduli (GPa) = 62.66665 31.04149 98.61966
#
# Poissons Ratio (x) = 0.30945 0.50633
# Poissons Ratio (y) = 0.62471 0.48241
# Poissons Ratio (z) = 0.32174 0.15184
#
# Static dielectric constant tensor:
#      x y z
#    x 1.581480 0.000000 0.000000 
#    y 0.000000 1.588820 0.000000 
#    z 0.000000 0.000000 1.589280 
# 
# From -- ./inp_files/33820.got.cif
#   From: 2010.05.17/outbox.cif.g08.bks.cpg/sg51_17_cif.got.tgz:33820.got - 2010.06.03 11:52:47.
