data_PCOD9401070
_publ_section_title
;
Structure prediction by ZEFSAII (Michael W. Deem and Ramdas Pophale) SiO2 
 PCOD9401070
Probable space group: P M M A
;
_chemical_formula_sum "Si O2"
_cell_formula_units_Z 52
_cell_length_a 8.632773
_cell_length_b 19.065293
_cell_length_c 19.323829
_cell_angle_alpha 90.000000
_cell_angle_beta 90.000000
_cell_angle_gamma 90.000000
_cell_volume 3180.438418
_symmetry_space_group_name_H-M "P M M A"
_symmetry_group_IT_number 51
_symmetry_cell_setting 'orthorhombic'
loop_
_space_group_symop_operation_xyz
x,y,z
1/2-x,-y,z
1/2+x,-y,-z
-x,y,-z
-x,-y,-z
1/2+x,y,-z
1/2-x,y,z
x,-y,z
loop_
_atom_site_type_symbol
_atom_site_label
_atom_site_fract_x
_atom_site_fract_y
_atom_site_fract_z
Si Si1 0.936047 0.654728 0.922208
Si Si2 0.064428 0.713693 0.789686
Si Si3 0.564774 0.795345 0.665520
Si Si4 0.563079 0.422193 0.297139
Si Si5 0.064569 0.081418 0.575672
Si Si6 0.564512 0.342392 0.577072
Si Si7 0.563428 0.500000 0.922084
O O1 0.750000 0.656495 0.924417
O O2 0.987105 0.576420 0.895695
O O3 0.999162 0.709998 0.866988
O O4 0.000000 0.663883 0.000000
O O5 0.250000 0.714719 0.791246
O O6 0.010688 0.641520 0.751734
O O7 0.003530 0.775172 0.740195
O O8 0.750000 0.797116 0.669496
O O9 0.501785 0.866671 0.633010
O O10 0.520173 0.731530 0.613496
O O11 0.750000 0.421689 0.297218
O O12 0.510276 0.500000 0.275996
O O13 0.503495 0.402532 0.373392
O O14 0.250000 0.086333 0.574223
O O15 0.000000 0.101535 0.500000
O O16 0.021083 0.000000 0.587722
O O17 0.500000 0.345853 0.500000
O O18 0.750000 0.346847 0.576222
O O19 0.750000 0.500000 0.921652
O O20 0.500000 0.500000 0.000000
#
# Coordination Sequence:
#
# PCOD9401070 Si02
#       7
#     8   8   8   8   8   8   4
#     4  10  19  32  48  69  95 124 160 201 247 297
#     4  10  20  33  50  70  94 125 159 199 246 295
#     4  10  20  34  51  71  97 128 163 199 238 287
#     4   9  19  34  48  63  84 113 151 195 242 290
#     4  10  20  33  51  77 107 137 168 201 239 284
#     4  10  20  32  47  66  86 114 152 194 239 284
#     4   8  16  28  42  62  88 118 151 192 241 292
#
# _framework density 16.349945999999999
#
# number of rings (size 3 to 8) (size 9 to 14) (size 15 to 20)
#    0.000    2.308    0.000    2.769    1.077    5.846 
#    0.000    0.000    0.000    0.000    0.000    0.000 
#    0.000    0.615    0.000    2.308    0.000    3.538 
#
# Total GULP energy -290058.206027 kJ/mol
# GULP energy per Si atom -5578.042424 kJ/mol
# Density = 1.631273 g / cm^3
# Si number density = 16.349946 Si / 1000 Ang^3
#
#
#
# Elastic Constant Matrix: (Units=GPa)
#
#
# Indices 1 2 3 4 5 6 
#
# 1 29.5073 24.4181 25.6887 0.0000 0.0000 0.0000
# 2 24.4181 71.7007 45.4317 0.0000 0.0000 0.0000
# 3 25.6887 45.4317 113.0527 0.0000 0.0000 0.0000
# 4 0.0000 0.0000 0.0000 25.8726 0.0000 0.0000
# 5 0.0000 0.0000 0.0000 0.0000 24.1890 0.0000
# 6 0.0000 0.0000 0.0000 0.0000 0.0000 19.9411
#
#
#
# Elastic Compliance Matrix: (Units=1/GPa)
#
#
# Indices 1 2 3 4 5 6 
#
# 1 0.050118 -0.013218 -0.006076 0.000000 0.000000 0.000000
# 2 -0.013218 0.022197 -0.005917 0.000000 0.000000 0.000000
# 3 -0.006076 -0.005917 0.012604 0.000000 0.000000 0.000000
# 4 0.000000 0.000000 0.000000 0.038651 0.000000 0.000000
# 5 0.000000 0.000000 0.000000 0.000000 0.041341 0.000000
# 6 0.000000 0.000000 0.000000 0.000000 0.000000 0.050148
#
#
# Mechanical properties :
#
#
# Convention : Reuss Voigt Hill
#
# Bulk Modulus (GPa) = 28.98787 45.03752 37.01269
# Shear Modulus (GPa) = 18.05182 21.91534 19.98358
#
# Velocity S-wave (km/s) = 3.32639 3.66511 3.49985
# Velocity P-wave (km/s) = 5.70274 6.74659 6.24651
#
# Compressibility (1/GPa) = 0.03449718
#
# Stress axis : x y z
#
# Youngs Moduli (GPa) = 19.95290 45.05044 79.34025
#
# Poissons Ratio (x) = 0.59546 0.48211
# Poissons Ratio (y) = 0.26373 0.46945
# Poissons Ratio (z) = 0.12124 0.26656
#
# Static dielectric constant tensor:
#      x y z
#    x 1.540470 0.000000 0.000000 
#    y 0.000000 1.556560 0.000000 
#    z 0.000000 0.000000 1.537130 
# 
# From -- ./inp_files/27913.got.cif
#   From: 2010.05.17/outbox.cif.g08.bks.cpg/sg51_14_cif.got.tgz:27913.got - 2010.06.03 11:52:47.
