data_PCOD9401761
_publ_section_title
;
Structure prediction by ZEFSAII (Michael W. Deem and Ramdas Pophale) SiO2 
 PCOD9401761
Probable space group: P M M A
;
_chemical_formula_sum "Si O2"
_cell_formula_units_Z 40
_cell_length_a 21.153578
_cell_length_b 12.888856
_cell_length_c 7.223106
_cell_angle_alpha 90.000000
_cell_angle_beta 90.000000
_cell_angle_gamma 90.000000
_cell_volume 1969.346774
_symmetry_space_group_name_H-M "P M M A"
_symmetry_group_IT_number 51
_symmetry_cell_setting 'orthorhombic'
loop_
_space_group_symop_operation_xyz
x,y,z
1/2-x,-y,z
1/2+x,-y,-z
-x,y,-z
-x,-y,-z
1/2+x,y,-z
1/2-x,y,z
x,-y,z
loop_
_atom_site_type_symbol
_atom_site_label
_atom_site_fract_x
_atom_site_fract_y
_atom_site_fract_z
Si Si1 0.949307 0.114307 0.166257
Si Si2 0.625480 0.619410 0.785641
Si Si3 0.680650 0.216979 0.066669
Si Si4 0.148813 0.614039 0.654774
Si Si5 0.513453 0.665993 0.292209
O O1 0.879046 0.140846 0.091461
O O2 0.971299 0.211476 0.288813
O O3 0.949518 0.000000 0.253763
O O4 0.000000 0.113491 0.000000
O O5 0.639940 0.500000 0.834450
O O6 0.639154 0.630766 0.565156
O O7 0.550475 0.641135 0.816129
O O8 0.664523 0.703040 0.900999
O O9 0.750000 0.169301 0.039965
O O10 0.682090 0.289899 0.248967
O O11 0.177090 0.500000 0.680580
O O12 0.079923 0.614401 0.754753
O O13 0.500000 0.630222 0.500000
#
# Coordination Sequence:
#
# PCOD9401761 Si02
#       5
#     8   8   8   8   8
#     4  10  20  37  59  80 103 134 179 230 278 324
#     4  10  19  33  54  81 113 148 183 219 263 318
#     4  11  23  37  54  79 111 146 183 223 271 321
#     4   9  19  33  52  80 113 147 181 219 262 317
#     4   9  17  32  54  83 112 139 176 226 276 321
#
# _framework density 20.311301
#
# number of rings (size 3 to 8) (size 9 to 14) (size 15 to 20)
#    0.000    2.200    2.000    1.200    0.000    5.600 
#    0.000    5.000    0.000    0.000    0.000    2.800 
#    0.000    0.000    0.000    0.000    0.000    0.000 
#
# Total GULP energy -223096.867518 kJ/mol
# GULP energy per Si atom -5577.421688 kJ/mol
# Density = 2.026507 g / cm^3
# Si number density = 20.311301 Si / 1000 Ang^3
#
#
#
# Elastic Constant Matrix: (Units=GPa)
#
#
# Indices 1 2 3 4 5 6 
#
# 1 120.3497 0.7163 8.8088 0.0000 0.0000 0.0000
# 2 0.7163 91.2083 4.9204 0.0000 0.0000 0.0000
# 3 8.8088 4.9204 52.4141 0.0000 0.0000 0.0000
# 4 0.0000 0.0000 0.0000 18.8185 0.0000 0.0000
# 5 0.0000 0.0000 0.0000 0.0000 14.1725 0.0000
# 6 0.0000 0.0000 0.0000 0.0000 0.0000 -1.3213
#
#
#
# Elastic Compliance Matrix: (Units=1/GPa)
#
#
# Indices 1 2 3 4 5 6 
#
# 1 0.008413 0.000010 -0.001415 0.000000 0.000000 0.000000
# 2 0.000010 0.011020 -0.001036 0.000000 0.000000 0.000000
# 3 -0.001415 -0.001036 0.019414 0.000000 0.000000 0.000000
# 4 0.000000 0.000000 0.000000 0.053139 0.000000 0.000000
# 5 0.000000 0.000000 0.000000 0.000000 0.070559 0.000000
# 6 0.000000 0.000000 0.000000 0.000000 0.000000 -0.756851
#
#
# Mechanical properties :
#
#
# Convention : Reuss Voigt Hill
#
# Bulk Modulus (GPa) = 29.44231 32.54034 30.99132
# Shear Modulus (GPa) = -8.64897 22.96907 7.16005
#
# Velocity S-wave (km/s) = -2.06578 3.36646 1.87958
# Velocity P-wave (km/s) = 2.97272 5.58268 4.47233
#
# Compressibility (1/GPa) = 0.03396473
#
# Stress axis : x y z
#
# Youngs Moduli (GPa) = 118.86910 90.74634 51.50955
#
# Poissons Ratio (x) = -0.00093 0.07288
# Poissons Ratio (y) = -0.00122 0.05337
# Poissons Ratio (z) = 0.16818 0.09403
#
# Static dielectric constant tensor:
#      x y z
#    x 1.772740 0.000000 0.000000 
#    y 0.000000 1.702760 0.000000 
#    z 0.000000 0.000000 1.726290 
# 
# From -- ./inp_files/9264.got.cif
#   From: 2010.05.17/outbox.cif.g08.bks.cpg/sg51_5_cif.got.tgz:9264.got - 2010.06.03 11:52:47.
