data_PCOD9401760
_publ_section_title
;
Structure prediction by ZEFSAII (Michael W. Deem and Ramdas Pophale) SiO2 
 PCOD9401760
Probable space group: P M M A
;
_chemical_formula_sum "Si O2"
_cell_formula_units_Z 48
_cell_length_a 8.644246
_cell_length_b 31.956363
_cell_length_c 9.288466
_cell_angle_alpha 90.000000
_cell_angle_beta 90.000000
_cell_angle_gamma 90.000000
_cell_volume 2565.833430
_symmetry_space_group_name_H-M "P M M A"
_symmetry_group_IT_number 51
_symmetry_cell_setting 'orthorhombic'
loop_
_space_group_symop_operation_xyz
x,y,z
1/2-x,-y,z
1/2+x,-y,-z
-x,y,-z
-x,-y,-z
1/2+x,y,-z
1/2-x,y,z
x,-y,z
loop_
_atom_site_type_symbol
_atom_site_label
_atom_site_fract_x
_atom_site_fract_y
_atom_site_fract_z
Si Si1 0.065098 0.784729 0.661237
Si Si2 0.564049 0.293786 0.838739
Si Si3 0.563288 0.863078 0.836493
Si Si4 0.935309 0.451897 0.159212
Si Si5 0.063471 0.044871 0.163013
Si Si6 0.935108 0.376263 0.659432
O O1 0.250000 0.784230 0.658382
O O2 0.000000 0.782965 0.500000
O O3 0.003494 0.745073 0.750385
O O4 0.005790 0.826482 0.740213
O O5 0.750000 0.290712 0.841505
O O6 0.520341 0.336932 0.759259
O O7 0.500000 0.293413 0.000000
O O8 0.750000 0.859950 0.839790
O O9 0.518301 0.909530 0.778200
O O10 0.500000 0.859393 0.000000
O O11 0.750000 0.449184 0.155907
O O12 0.978731 0.500000 0.193900
O O13 0.001255 0.418698 0.270804
O O14 0.000000 0.442532 0.000000
O O15 0.250000 0.044816 0.158118
O O16 0.014131 0.000000 0.229499
O O17 0.000000 0.044653 0.000000
O O18 0.750000 0.378129 0.653970
O O19 0.000000 0.370277 0.500000
#
# Coordination Sequence:
#
# PCOD9401760 Si02
#       6
#     8   8   8   8   8   8
#     4  12  25  41  60  82 111 146 185 230 281 336
#     4  11  24  42  64  90 117 148 187 230 279 333
#     4  10  19  33  54  81 113 147 185 229 276 328
#     4  10  21  38  61  88 119 156 198 243 289 338
#     4   8  14  25  44  72 105 140 178 222 271 321
#     4  11  24  40  61  88 120 156 193 236 285 339
#
# _framework density 18.707371999999999
#
# number of rings (size 3 to 8) (size 9 to 14) (size 15 to 20)
#    0.000    1.667    0.000    5.000    0.000    7.333 
#    0.000    0.000    0.000    0.500    0.000    0.000 
#    0.000    0.000    0.000    0.000    0.000    0.000 
#
# Total GULP energy -268082.757901 kJ/mol
# GULP energy per Si atom -5585.057456 kJ/mol
# Density = 1.866479 g / cm^3
# Si number density = 18.707372 Si / 1000 Ang^3
#
#
#
# Elastic Constant Matrix: (Units=GPa)
#
#
# Indices 1 2 3 4 5 6 
#
# 1 72.9768 57.7862 49.1488 0.0000 0.0000 0.0000
# 2 57.7862 162.5641 99.1460 0.0000 0.0000 0.0000
# 3 49.1488 99.1460 138.5685 0.0000 0.0000 0.0000
# 4 0.0000 0.0000 0.0000 -32.4949 0.0000 0.0000
# 5 0.0000 0.0000 0.0000 0.0000 33.1195 0.0000
# 6 0.0000 0.0000 0.0000 0.0000 0.0000 8.3349
#
#
#
# Elastic Compliance Matrix: (Units=1/GPa)
#
#
# Indices 1 2 3 4 5 6 
#
# 1 0.020016 -0.004942 -0.003564 0.000000 0.000000 0.000000
# 2 -0.004942 0.012134 -0.006929 0.000000 0.000000 0.000000
# 3 -0.003564 -0.006929 0.013439 0.000000 0.000000 0.000000
# 4 0.000000 0.000000 0.000000 -0.030774 0.000000 0.000000
# 5 0.000000 0.000000 0.000000 0.000000 0.030194 0.000000
# 6 0.000000 0.000000 0.000000 0.000000 0.000000 0.119977
#
#
# Mechanical properties :
#
#
# Convention : Reuss Voigt Hill
#
# Bulk Modulus (GPa) = 67.93688 87.36352 77.65020
# Shear Modulus (GPa) = 24.90520 12.99379 18.94949
#
# Velocity S-wave (km/s) = 3.65266 2.63835 3.18613
# Velocity P-wave (km/s) = 7.36096 7.48883 7.42517
#
# Compressibility (1/GPa) = 0.01471955
#
# Stress axis : x y z
#
# Youngs Moduli (GPa) = 49.95981 82.41301 74.41274
#
# Poissons Ratio (x) = 0.40725 0.26519
# Poissons Ratio (y) = 0.24688 0.51562
# Poissons Ratio (z) = 0.17805 0.57106
#
# Static dielectric constant tensor:
#      x y z
#    x 1.627100 0.000000 0.000000 
#    y 0.000000 1.672370 0.000000 
#    z 0.000000 0.000000 1.605310 
# 
# From -- ./inp_files/6019.got.cif
#   From: 2010.05.17/outbox.cif.g08.bks.cpg/sg51_4_cif.got.tgz:6019.got - 2010.06.03 11:52:47.
