data_PCOD9401098
_publ_section_title
;
Structure prediction by ZEFSAII (Michael W. Deem and Ramdas Pophale) SiO2 
 PCOD9401098
Probable space group: P M M A
;
_chemical_formula_sum "Si O2"
_cell_formula_units_Z 48
_cell_length_a 8.495504
_cell_length_b 16.383272
_cell_length_c 19.062696
_cell_angle_alpha 90.000000
_cell_angle_beta 90.000000
_cell_angle_gamma 90.000000
_cell_volume 2653.225193
_symmetry_space_group_name_H-M "P M M A"
_symmetry_group_IT_number 51
_symmetry_cell_setting 'orthorhombic'
loop_
_space_group_symop_operation_xyz
x,y,z
1/2-x,-y,z
1/2+x,-y,-z
-x,y,-z
-x,-y,-z
1/2+x,y,-z
1/2-x,y,z
x,-y,z
loop_
_atom_site_type_symbol
_atom_site_label
_atom_site_fract_x
_atom_site_fract_y
_atom_site_fract_z
Si Si1 0.438997 0.819522 0.420608
Si Si2 0.062920 0.500000 0.920463
Si Si3 0.061732 0.339165 0.156041
Si Si4 0.061348 0.828958 0.078403
Si Si5 0.939391 0.088637 0.211100
Si Si6 0.438645 0.253107 0.712790
Si Si7 0.560075 0.000000 0.579913
O O1 0.500000 0.809028 0.500000
O O2 0.250000 0.818675 0.421227
O O3 0.502094 0.752261 0.366684
O O4 0.493526 0.910607 0.394369
O O5 0.250000 0.500000 0.923099
O O6 0.004859 0.419924 0.879500
O O7 0.000000 0.500000 0.000000
O O8 0.250000 0.343097 0.156726
O O9 0.014491 0.259915 0.109679
O O10 0.001433 0.322340 0.234919
O O11 0.250000 0.834361 0.080098
O O12 0.989000 0.895171 0.131092
O O13 0.000000 0.837658 0.000000
O O14 0.750000 0.088633 0.216028
O O15 0.998102 0.167676 0.252805
O O16 0.998265 0.000000 0.235364
O O17 0.250000 0.254604 0.713857
O O18 0.500000 0.000000 0.500000
O O19 0.750000 0.000000 0.582338
#
# Coordination Sequence:
#
# PCOD9401098 Si02
#       7
#     8   4   8   8   8   8   4
#     4  10  19  32  49  73 103 139 182 228 276 325
#     4  12  24  38  60  90 119 146 177 214 262 320
#     4  10  21  38  57  80 109 140 175 213 261 318
#     4  10  20  33  51  72  96 129 167 211 259 306
#     4   9  19  34  49  67  93 129 173 217 261 310
#     4  10  20  34  53  76 105 140 177 220 270 322
#     4   8  16  28  42  64  96 132 173 222 273 320
#
# _framework density 18.091190000000001
#
# number of rings (size 3 to 8) (size 9 to 14) (size 15 to 20)
#    0.000    2.167    0.000    3.250    1.167    5.333 
#    0.000    0.000    0.000    0.000    0.000    0.583 
#    0.000    0.000    0.000    0.000    0.000    0.000 
#
# Total GULP energy -267820.886053 kJ/mol
# GULP energy per Si atom -5579.601793 kJ/mol
# Density = 1.805001 g / cm^3
# Si number density = 18.091190 Si / 1000 Ang^3
#
#
#
# Elastic Constant Matrix: (Units=GPa)
#
#
# Indices 1 2 3 4 5 6 
#
# 1 41.1326 22.4785 18.3005 0.0000 0.0000 0.0000
# 2 22.4785 82.7136 39.3568 0.0000 0.0000 0.0000
# 3 18.3005 39.3568 116.9221 0.0000 0.0000 0.0000
# 4 0.0000 0.0000 0.0000 26.5741 0.0000 0.0000
# 5 0.0000 0.0000 0.0000 0.0000 25.4945 0.0000
# 6 0.0000 0.0000 0.0000 0.0000 0.0000 21.0370
#
#
#
# Elastic Compliance Matrix: (Units=1/GPa)
#
#
# Indices 1 2 3 4 5 6 
#
# 1 0.029040 -0.006822 -0.002249 0.000000 0.000000 0.000000
# 2 -0.006822 0.015998 -0.004317 0.000000 0.000000 0.000000
# 3 -0.002249 -0.004317 0.010358 0.000000 0.000000 0.000000
# 4 0.000000 0.000000 0.000000 0.037631 0.000000 0.000000
# 5 0.000000 0.000000 0.000000 0.000000 0.039224 0.000000
# 6 0.000000 0.000000 0.000000 0.000000 0.000000 0.047535
#
#
# Mechanical properties :
#
#
# Convention : Reuss Voigt Hill
#
# Bulk Modulus (GPa) = 34.94081 44.56000 39.75040
# Shear Modulus (GPa) = 23.13712 25.32997 24.23355
#
# Velocity S-wave (km/s) = 3.58007 3.74589 3.66392
# Velocity P-wave (km/s) = 6.03696 6.58735 6.31815
#
# Compressibility (1/GPa) = 0.02861983
#
# Stress axis : x y z
#
# Youngs Moduli (GPa) = 34.43482 62.50734 96.54411
#
# Poissons Ratio (x) = 0.42642 0.21713
# Poissons Ratio (y) = 0.23491 0.41681
# Poissons Ratio (z) = 0.07745 0.26986
#
# Static dielectric constant tensor:
#      x y z
#    x 1.606490 0.000000 0.000000 
#    y 0.000000 1.633000 0.000000 
#    z 0.000000 0.000000 1.626320 
# 
# From -- ./inp_files/27636.got.cif
#   From: 2010.05.17/outbox.cif.g08.bks.cpg/sg51_14_cif.got.tgz:27636.got - 2010.06.03 11:52:47.
