data_PCOD9401642
_publ_section_title
;
Structure prediction by ZEFSAII (Michael W. Deem and Ramdas Pophale) SiO2 
 PCOD9401642
Probable space group: P M M A
;
_chemical_formula_sum "Si O2"
_cell_formula_units_Z 48
_cell_length_a 32.259179
_cell_length_b 8.716527
_cell_length_c 9.862324
_cell_angle_alpha 90.000000
_cell_angle_beta 90.000000
_cell_angle_gamma 90.000000
_cell_volume 2773.167208
_symmetry_space_group_name_H-M "P M M A"
_symmetry_group_IT_number 51
_symmetry_cell_setting 'orthorhombic'
loop_
_space_group_symop_operation_xyz
x,y,z
1/2-x,-y,z
1/2+x,-y,-z
-x,y,-z
-x,-y,-z
1/2+x,y,-z
1/2-x,y,z
x,-y,z
loop_
_atom_site_type_symbol
_atom_site_label
_atom_site_fract_x
_atom_site_fract_y
_atom_site_fract_z
Si Si1 0.633715 0.317798 0.642286
Si Si2 0.133046 0.185194 0.660692
Si Si3 0.702256 0.683750 0.141915
Si Si4 0.542687 0.818925 0.332622
Si Si5 0.952959 0.818573 0.660937
Si Si6 0.702073 0.816434 0.841844
O O1 0.635259 0.500000 0.629580
O O2 0.637893 0.243279 0.493219
O O3 0.588821 0.267333 0.700794
O O4 0.670098 0.257305 0.737850
O O5 0.169720 0.246899 0.753319
O O6 0.087512 0.240227 0.713571
O O7 0.132746 0.000000 0.659630
O O8 0.750000 0.721275 0.179371
O O9 0.698374 0.500000 0.137835
O O10 0.694847 0.751763 0.992523
O O11 0.497674 0.757333 0.288310
O O12 0.544696 0.807722 0.496619
O O13 0.541243 0.000000 0.300262
O O14 0.949094 0.000000 0.692982
O O15 0.750000 0.780993 0.805824
O O16 0.697222 0.000000 0.842536
#
# Coordination Sequence:
#
# PCOD9401642 Si02
#       6
#     8   8   8   8   8   8
#     4  11  21  32  49  77 109 136 165 207 258 299
#     4  10  19  33  53  77 104 135 173 211 247 292
#     4  10  21  37  55  76 103 133 164 203 255 308
#     4   7  12  24  45  70  96 129 167 206 244 286
#     4   8  13  26  46  68  97 132 168 203 243 294
#     4  10  21  38  58  76  95 128 173 211 247 301
#
# _framework density 17.308729
#
# number of rings (size 3 to 8) (size 9 to 14) (size 15 to 20)
#    0.000    2.667    0.000    5.000    0.000    2.667 
#    0.000    7.500    0.000    1.000    0.000    7.000 
#    0.000    0.000    0.000    0.000    0.000    0.000 
#
# Total GULP energy -267397.396750 kJ/mol
# GULP energy per Si atom -5570.779099 kJ/mol
# Density = 1.726933 g / cm^3
# Si number density = 17.308729 Si / 1000 Ang^3
#
#
#
# Elastic Constant Matrix: (Units=GPa)
#
#
# Indices 1 2 3 4 5 6 
#
# 1 180.9093 61.5047 77.4603 0.0000 0.0000 0.0000
# 2 61.5047 67.1017 27.7869 0.0000 0.0000 0.0000
# 3 77.4603 27.7869 47.7113 0.0000 0.0000 0.0000
# 4 0.0000 0.0000 0.0000 42.4940 0.0000 0.0000
# 5 0.0000 0.0000 0.0000 0.0000 -14.4147 0.0000
# 6 0.0000 0.0000 0.0000 0.0000 0.0000 13.0696
#
#
#
# Elastic Compliance Matrix: (Units=1/GPa)
#
#
# Indices 1 2 3 4 5 6 
#
# 1 0.020051 -0.006455 -0.028793 0.000000 0.000000 0.000000
# 2 -0.006455 0.021717 -0.002168 0.000000 0.000000 0.000000
# 3 -0.028793 -0.002168 0.068969 0.000000 0.000000 0.000000
# 4 0.000000 0.000000 0.000000 0.023533 0.000000 0.000000
# 5 0.000000 0.000000 0.000000 0.000000 -0.069374 0.000000
# 6 0.000000 0.000000 0.000000 0.000000 0.000000 0.076514
#
#
# Mechanical properties :
#
#
# Convention : Reuss Voigt Hill
#
# Bulk Modulus (GPa) = 27.85252 69.91402 48.88327
# Shear Modulus (GPa) = 21.90968 16.82781 19.36874
#
# Velocity S-wave (km/s) = 3.56169 3.12142 3.34880
# Velocity P-wave (km/s) = 5.74811 7.31239 6.57692
#
# Compressibility (1/GPa) = 0.03590339
#
# Stress axis : x y z
#
# Youngs Moduli (GPa) = 49.87393 46.04663 14.49935
#
# Poissons Ratio (x) = 0.29722 0.41748
# Poissons Ratio (y) = 0.32193 0.03144
# Poissons Ratio (z) = 1.43603 0.09985
#
# Static dielectric constant tensor:
#      x y z
#    x 1.636400 0.000000 0.000000 
#    y 0.000000 1.575060 0.000000 
#    z 0.000000 0.000000 1.547410 
# 
# From -- ./inp_files/12845.got.cif
#   From: 2010.05.17/outbox.cif.g08.bks.cpg/sg51_7_cif.got.tgz:12845.got - 2010.06.03 11:52:47.
