data_PCOD9401394
_publ_section_title
;
Structure prediction by ZEFSAII (Michael W. Deem and Ramdas Pophale) SiO2 
 PCOD9401394
Probable space group: P M M A
;
_chemical_formula_sum "Si O2"
_cell_formula_units_Z 56
_cell_length_a 18.226214
_cell_length_b 18.303906
_cell_length_c 9.731810
_cell_angle_alpha 90.000000
_cell_angle_beta 90.000000
_cell_angle_gamma 90.000000
_cell_volume 3246.637969
_symmetry_space_group_name_H-M "P M M A"
_symmetry_group_IT_number 51
_symmetry_cell_setting 'orthorhombic'
loop_
_space_group_symop_operation_xyz
x,y,z
1/2-x,-y,z
1/2+x,-y,-z
-x,y,-z
-x,-y,-z
1/2+x,y,-z
1/2-x,y,z
x,-y,z
loop_
_atom_site_type_symbol
_atom_site_label
_atom_site_fract_x
_atom_site_fract_y
_atom_site_fract_z
Si Si1 0.083988 0.687551 0.998015
Si Si2 0.837034 0.083483 0.663746
Si Si3 0.667585 0.085349 0.334601
Si Si4 0.837429 0.697487 0.445377
Si Si5 0.923961 0.796128 0.239376
Si Si6 0.407646 0.762405 0.282042
Si Si7 0.838253 0.416038 0.219477
O O1 0.082593 0.762360 0.910626
O O2 0.130383 0.630565 0.908043
O O3 0.107602 0.711376 0.149743
O O4 0.000000 0.660167 0.000000
O O5 0.750000 0.085265 0.692466
O O6 0.845292 0.093042 0.498581
O O7 0.873189 0.156023 0.727748
O O8 0.862874 0.000000 0.697900
O O9 0.750000 0.114282 0.303503
O O10 0.601266 0.121313 0.252099
O O11 0.669342 0.000000 0.306006
O O12 0.750000 0.699191 0.466093
O O13 0.863928 0.757329 0.335855
O O14 0.877147 0.719515 0.585754
O O15 0.858069 0.622820 0.364702
O O16 0.004885 0.776140 0.291549
O O17 0.750000 0.413798 0.211491
O O18 0.862489 0.500000 0.214725
#
# Coordination Sequence:
#
# PCOD9401394 Si02
#       7
#     8   8   8   8   8   8   8
#     4   9  21  37  53  76 109 143 174 209 257 309
#     4   9  18  31  47  71 105 139 171 215 269 314
#     4   9  17  30  49  73 101 135 177 222 266 311
#     4  10  19  32  53  77 103 132 164 210 262 307
#     4  10  19  33  51  73 102 137 175 217 256 305
#     4  11  20  32  52  78 104 136 178 219 255 306
#     4   9  19  37  59  81 105 136 172 208 254 314
#
# _framework density 17.248612000000001
#
# number of rings (size 3 to 8) (size 9 to 14) (size 15 to 20)
#    0.000    2.429    1.429    2.143    0.000    2.571 
#    0.000    2.857    0.000   17.143    0.000    0.000 
#    0.000    0.000    0.000    0.000    0.000    0.000 
#
# Total GULP energy -311788.550805 kJ/mol
# GULP energy per Si atom -5567.652693 kJ/mol
# Density = 1.720935 g / cm^3
# Si number density = 17.248612 Si / 1000 Ang^3
#
#
#
# Elastic Constant Matrix: (Units=GPa)
#
#
# Indices 1 2 3 4 5 6 
#
# 1 43.5169 35.5793 30.4242 0.0000 0.0000 0.0000
# 2 35.5793 106.2988 37.4703 0.0000 0.0000 0.0000
# 3 30.4242 37.4703 81.2874 0.0000 0.0000 0.0000
# 4 0.0000 0.0000 0.0000 12.6211 0.0000 0.0000
# 5 0.0000 0.0000 0.0000 0.0000 8.9661 0.0000
# 6 0.0000 0.0000 0.0000 0.0000 0.0000 16.3828
#
#
#
# Elastic Compliance Matrix: (Units=1/GPa)
#
#
# Indices 1 2 3 4 5 6 
#
# 1 0.037160 -0.008997 -0.009761 0.000000 0.000000 0.000000
# 2 -0.008997 0.013411 -0.002815 0.000000 0.000000 0.000000
# 3 -0.009761 -0.002815 0.017253 0.000000 0.000000 0.000000
# 4 0.000000 0.000000 0.000000 0.079232 0.000000 0.000000
# 5 0.000000 0.000000 0.000000 0.000000 0.111531 0.000000
# 6 0.000000 0.000000 0.000000 0.000000 0.000000 0.061040
#
#
# Mechanical properties :
#
#
# Convention : Reuss Voigt Hill
#
# Bulk Modulus (GPa) = 40.52099 48.67230 44.59665
# Shear Modulus (GPa) = 13.47720 16.10263 14.78991
#
# Velocity S-wave (km/s) = 2.79830 3.05874 2.93141
# Velocity P-wave (km/s) = 5.82957 6.38387 6.11301
#
# Compressibility (1/GPa) = 0.02467857
#
# Stress axis : x y z
#
# Youngs Moduli (GPa) = 26.91093 74.56591 57.96201
#
# Poissons Ratio (x) = 0.67087 0.56576
# Poissons Ratio (y) = 0.24212 0.16314
# Poissons Ratio (z) = 0.26267 0.20987
#
# Static dielectric constant tensor:
#      x y z
#    x 1.598740 0.000000 0.000000 
#    y 0.000000 1.637850 0.000000 
#    z 0.000000 0.000000 1.571930 
# 
# From -- ./inp_files/8532.got.cif
#   From: 2010.05.17/outbox.cif.g08.bks.cpg/sg51_5_cif.got.tgz:8532.got - 2010.06.03 11:52:47.
