data_PCOD9401968
_publ_section_title
;
Structure prediction by ZEFSAII (Michael W. Deem and Ramdas Pophale) SiO2 
 PCOD9401968
Probable space group: P M M A
;
_chemical_formula_sum "Si O2"
_cell_formula_units_Z 64
_cell_length_a 17.298571
_cell_length_b 20.841713
_cell_length_c 9.429146
_cell_angle_alpha 90.000000
_cell_angle_beta 90.000000
_cell_angle_gamma 90.000000
_cell_volume 3399.507471
_symmetry_space_group_name_H-M "P M M A"
_symmetry_group_IT_number 51
_symmetry_cell_setting 'orthorhombic'
loop_
_space_group_symop_operation_xyz
x,y,z
1/2-x,-y,z
1/2+x,-y,-z
-x,y,-z
-x,-y,-z
1/2+x,y,-z
1/2-x,y,z
x,-y,z
loop_
_atom_site_type_symbol
_atom_site_label
_atom_site_fract_x
_atom_site_fract_y
_atom_site_fract_z
Si Si1 0.339832 0.134300 0.345904
Si Si2 0.409156 0.304268 0.024447
Si Si3 0.661685 0.640343 0.402733
Si Si4 0.656083 0.572792 0.132685
Si Si5 0.533277 0.074190 0.847994
Si Si6 0.431028 0.875109 0.605630
Si Si7 0.662752 0.228593 0.221133
Si Si8 0.842439 0.714399 0.668861
O O1 0.250000 0.121978 0.317524
O O2 0.394673 0.113556 0.216180
O O3 0.368488 0.100267 0.491191
O O4 0.349512 0.210802 0.373895
O O5 0.379379 0.373013 0.967532
O O6 0.366740 0.249372 0.932721
O O7 0.500000 0.299136 0.000000
O O8 0.386783 0.296099 0.186434
O O9 0.750000 0.620183 0.433970
O O10 0.628711 0.588348 0.293961
O O11 0.664797 0.705203 0.309208
O O12 0.627234 0.665003 0.549874
O O13 0.750000 0.579947 0.131086
O O14 0.637429 0.500000 0.092897
O O15 0.469066 0.078972 0.723067
O O16 0.556022 0.000000 0.866819
O O17 0.500000 0.097296 0.000000
O O18 0.500000 0.853226 0.500000
O O19 0.393598 0.819053 0.698167
O O20 0.750000 0.202662 0.216474
O O21 0.750000 0.703755 0.687967
#
# Coordination Sequence:
#
# PCOD9401968 Si02
#       8
#     8   8   8   8   8   8   8   8
#     4  10  21  37  61  91 118 154 197 250 301 355
#     4  11  24  33  51  82 118 155 189 235 289 347
#     4   8  15  30  54  78 104 137 176 229 283 332
#     4   9  18  37  60  79 105 150 200 236 279 345
#     4  10  24  44  61  82 119 161 198 242 293 357
#     4  10  21  34  60  88 116 151 190 241 290 359
#     4  10  19  34  54  79 113 148 186 231 288 347
#     4  10  19  34  54  83 119 143 179 237 301 350
#
# _framework density 18.826256000000001
#
# number of rings (size 3 to 8) (size 9 to 14) (size 15 to 20)
#    0.000    2.250    1.250    2.250    5.250    2.750 
#    0.000    3.125    0.000    5.625    0.000    0.000 
#    0.000    0.000    0.000    0.000    0.000    0.000 
#
# Total GULP energy -356742.302348 kJ/mol
# GULP energy per Si atom -5574.098474 kJ/mol
# Density = 1.878341 g / cm^3
# Si number density = 18.826256 Si / 1000 Ang^3
#
#
#
# Elastic Constant Matrix: (Units=GPa)
#
#
# Indices 1 2 3 4 5 6 
#
# 1 54.5071 15.1627 24.8895 0.0000 0.0000 0.0000
# 2 15.1627 27.5378 -6.1897 0.0000 0.0000 0.0000
# 3 24.8895 -6.1897 107.2773 0.0000 0.0000 0.0000
# 4 0.0000 0.0000 0.0000 17.6540 0.0000 0.0000
# 5 0.0000 0.0000 0.0000 0.0000 23.7638 0.0000
# 6 0.0000 0.0000 0.0000 0.0000 0.0000 54.5697
#
#
#
# Elastic Compliance Matrix: (Units=1/GPa)
#
#
# Indices 1 2 3 4 5 6 
#
# 1 0.025909 -0.015822 -0.006924 0.000000 0.000000 0.000000
# 2 -0.015822 0.046453 0.006351 0.000000 0.000000 0.000000
# 3 -0.006924 0.006351 0.011295 0.000000 0.000000 0.000000
# 4 0.000000 0.000000 0.000000 0.056645 0.000000 0.000000
# 5 0.000000 0.000000 0.000000 0.000000 0.042081 0.000000
# 6 0.000000 0.000000 0.000000 0.000000 0.000000 0.018325
#
#
# Mechanical properties :
#
#
# Convention : Reuss Voigt Hill
#
# Bulk Modulus (GPa) = 19.65929 28.56082 24.11006
# Shear Modulus (GPa) = 19.96373 29.56147 24.76260
#
# Velocity S-wave (km/s) = 3.25994 3.96691 3.63067
# Velocity P-wave (km/s) = 4.96334 6.01544 5.51454
#
# Compressibility (1/GPa) = 0.05086653
#
# Stress axis : x y z
#
# Youngs Moduli (GPa) = 38.59590 21.52699 88.53806
#
# Poissons Ratio (x) = 0.34061 0.61306
# Poissons Ratio (y) = 0.61068 -0.56233
# Poissons Ratio (z) = 0.26725 -0.13672
#
# Static dielectric constant tensor:
#      x y z
#    x 1.667420 0.000000 0.000000 
#    y 0.000000 1.641720 0.000000 
#    z 0.000000 0.000000 1.670110 
# 
# From -- ./inp_files/10099.got.cif
#   From: 2010.05.17/outbox.cif.g08.bks.cpg/sg51_6_cif.got.tgz:10099.got - 2010.06.03 11:52:47.
