data_PCOD9401310
_publ_section_title
;
Structure prediction by ZEFSAII (Michael W. Deem and Ramdas Pophale) SiO2 
 PCOD9401310
Probable space group: P M M A
;
_chemical_formula_sum "Si O2"
_cell_formula_units_Z 40
_cell_length_a 26.100133
_cell_length_b 7.457848
_cell_length_c 8.624103
_cell_angle_alpha 90.000000
_cell_angle_beta 90.000000
_cell_angle_gamma 90.000000
_cell_volume 1678.688761
_symmetry_space_group_name_H-M "P M M A"
_symmetry_group_IT_number 51
_symmetry_cell_setting 'orthorhombic'
loop_
_space_group_symop_operation_xyz
x,y,z
1/2-x,-y,z
1/2+x,-y,-z
-x,y,-z
-x,-y,-z
1/2+x,y,-z
1/2-x,y,z
x,-y,z
loop_
_atom_site_type_symbol
_atom_site_label
_atom_site_fract_x
_atom_site_fract_y
_atom_site_fract_z
Si Si1 0.973770 0.202678 0.640389
Si Si2 0.659997 0.796615 0.030379
Si Si3 0.190157 0.784370 0.627550
Si Si4 0.639476 0.219652 0.697520
Si Si5 0.951233 0.297117 0.110630
O O1 0.920429 0.277346 0.703812
O O2 0.000000 0.304064 0.500000
O O3 0.022173 0.193218 0.751986
O O4 0.959071 0.000000 0.592912
O O5 0.676883 0.717331 0.197625
O O6 0.598255 0.797544 0.043690
O O7 0.680714 0.000000 0.027975
O O8 0.668008 0.718677 0.856483
O O9 0.250000 0.751716 0.601538
O O10 0.160586 0.723331 0.471636
O O11 0.181051 0.000000 0.634016
O O12 0.642842 0.000000 0.704644
O O13 0.936236 0.500000 0.154031
O O14 0.000000 0.310086 0.000000
#
# Coordination Sequence:
#
# PCOD9401310 Si02
#       5
#     8   8   8   8   8
#     4  10  19  32  52  76 105 142 182 220 262 318
#     4  10  19  33  55  78 105 143 181 215 265 323
#     4   9  18  32  51  79 109 131 166 224 275 319
#     4   9  17  29  47  73 103 136 170 211 261 314
#     4  11  22  34  50  76 110 144 178 220 267 313
#
# _framework density 23.828122
#
# number of rings (size 3 to 8) (size 9 to 14) (size 15 to 20)
#    0.000    2.200    2.000    1.800    0.000    5.200 
#    0.000    4.000    0.000    0.600    0.000    0.000 
#    0.000    0.000    0.000    0.000    0.000    0.000 
#
# Total GULP energy -222688.551111 kJ/mol
# GULP energy per Si atom -5567.213778 kJ/mol
# Density = 2.377389 g / cm^3
# Si number density = 23.828122 Si / 1000 Ang^3
#
#
#
# Elastic Constant Matrix: (Units=GPa)
#
#
# Indices 1 2 3 4 5 6 
#
# 1 33.3976 -3.8839 27.1514 0.0000 0.0000 0.0000
# 2 -3.8839 85.6713 7.6917 0.0000 0.0000 0.0000
# 3 27.1514 7.6917 191.4664 0.0000 0.0000 0.0000
# 4 0.0000 0.0000 0.0000 -2.3577 0.0000 0.0000
# 5 0.0000 0.0000 0.0000 0.0000 25.9509 0.0000
# 6 0.0000 0.0000 0.0000 0.0000 0.0000 -9.5109
#
#
#
# Elastic Compliance Matrix: (Units=1/GPa)
#
#
# Indices 1 2 3 4 5 6 
#
# 1 0.034179 0.001992 -0.004927 0.000000 0.000000 0.000000
# 2 0.001992 0.011831 -0.000758 0.000000 0.000000 0.000000
# 3 -0.004927 -0.000758 0.005952 0.000000 0.000000 0.000000
# 4 0.000000 0.000000 0.000000 -0.424135 0.000000 0.000000
# 5 0.000000 0.000000 0.000000 0.000000 0.038534 0.000000
# 6 0.000000 0.000000 0.000000 0.000000 0.000000 -0.105142
#
#
# Mechanical properties :
#
#
# Convention : Reuss Voigt Hill
#
# Bulk Modulus (GPa) = 22.43330 41.38374 31.90852
# Shear Modulus (GPa) = -12.00375 21.45485 4.72555
#
# Velocity S-wave (km/s) = -2.24690 3.00392 1.40978
# Velocity P-wave (km/s) = 1.64427 5.42556 4.00876
#
# Compressibility (1/GPa) = 0.04457659
#
# Stress axis : x y z
#
# Youngs Moduli (GPa) = 29.25743 84.52476 168.01190
#
# Poissons Ratio (x) = -0.16836 0.82778
# Poissons Ratio (y) = -0.05828 0.12731
# Poissons Ratio (z) = 0.14415 0.06405
#
# Static dielectric constant tensor:
#      x y z
#    x 1.444210 0.000000 0.000000 
#    y 0.000000 1.960890 0.000000 
#    z 0.000000 0.000000 13.647550 
# 
# From -- ./inp_files/11439.got.cif
#   From: 2010.05.17/outbox.cif.g08.bks.cpg/sg51_6_cif.got.tgz:11439.got - 2010.06.03 11:52:47.
