data_PCOD9401564
_publ_section_title
;
Structure prediction by ZEFSAII (Michael W. Deem and Ramdas Pophale) SiO2 
 PCOD9401564
Probable space group: P M M A
;
_chemical_formula_sum "Si O2"
_cell_formula_units_Z 58
_cell_length_a 26.860304
_cell_length_b 10.473700
_cell_length_c 10.272307
_cell_angle_alpha 90.000000
_cell_angle_beta 90.000000
_cell_angle_gamma 90.000000
_cell_volume 2889.874908
_symmetry_space_group_name_H-M "P M M A"
_symmetry_group_IT_number 51
_symmetry_cell_setting 'orthorhombic'
loop_
_space_group_symop_operation_xyz
x,y,z
1/2-x,-y,z
1/2+x,-y,-z
-x,y,-z
-x,-y,-z
1/2+x,y,-z
1/2-x,y,z
x,-y,z
loop_
_atom_site_type_symbol
_atom_site_label
_atom_site_fract_x
_atom_site_fract_y
_atom_site_fract_z
Si Si1 0.630734 0.145409 0.583991
Si Si2 0.440590 0.359077 0.491643
Si Si3 0.750000 0.500000 0.444015
Si Si4 0.695686 0.746546 0.358158
Si Si5 0.952890 0.642265 0.217042
Si Si6 0.149895 0.348524 0.913411
Si Si7 0.975306 0.860298 0.856868
Si Si8 0.144665 0.853654 0.130244
O O1 0.750000 0.191160 0.339565
O O2 0.662005 0.170858 0.453832
O O3 0.660432 0.164293 0.719246
O O4 0.612563 0.000000 0.585587
O O5 0.500000 0.348579 0.500000
O O6 0.428250 0.500000 0.439389
O O7 0.413908 0.246241 0.418081
O O8 0.425509 0.353262 0.643603
O O9 0.707399 0.613055 0.431596
O O10 0.674776 0.708461 0.216871
O O11 0.974375 0.500000 0.202751
O O12 0.909784 0.659812 0.110726
O O13 0.995710 0.746462 0.212417
O O14 0.162357 0.500000 0.927643
O O15 0.162980 0.257141 0.034251
O O16 0.915949 0.846848 0.867144
O O17 0.985760 0.000000 0.796924
O O18 0.000000 0.861221 0.000000
O O19 0.157299 0.000000 0.089679
#
# Coordination Sequence:
#
# PCOD9401564 Si02
#       8
#     8   8   2   8   8   8   8   8
#     4  11  24  40  61  90 128 168 205 252 308 373
#     4  10  21  36  57  85 121 163 209 260 309 358
#     4   8  20  40  74  98 114 158 188 258 322 372
#     4  10  21  42  71  92 120 151 199 250 317 374
#     4  10  20  31  52  80 115 149 196 253 303 346
#     4  11  20  37  60  91 116 150 197 252 304 360
#     4  10  19  33  51  74 111 164 214 247 282 348
#     4  10  23  40  56  82 125 168 205 247 301 355
#
# _framework density 20.070073000000001
#
# number of rings (size 3 to 8) (size 9 to 14) (size 15 to 20)
#    0.414    1.379    3.448    0.828    0.966    3.034 
#    0.000    0.690    0.000    1.655    0.000    0.000 
#    0.000    0.000    0.000    0.000    0.000    0.000 
#
# Total GULP energy -322886.643723 kJ/mol
# GULP energy per Si atom -5567.011099 kJ/mol
# Density = 2.002439 g / cm^3
# Si number density = 20.070073 Si / 1000 Ang^3
#
#
#
# Elastic Constant Matrix: (Units=GPa)
#
#
# Indices 1 2 3 4 5 6 
#
# 1 39.8232 31.0346 12.6814 0.0000 0.0000 0.0000
# 2 31.0346 135.2035 75.0244 0.0000 0.0000 0.0000
# 3 12.6814 75.0244 88.6374 0.0000 0.0000 0.0000
# 4 0.0000 0.0000 0.0000 14.3627 0.0000 0.0000
# 5 0.0000 0.0000 0.0000 0.0000 7.0340 0.0000
# 6 0.0000 0.0000 0.0000 0.0000 0.0000 -24.1379
#
#
#
# Elastic Compliance Matrix: (Units=1/GPa)
#
#
# Indices 1 2 3 4 5 6 
#
# 1 0.030997 -0.008776 0.002994 0.000000 0.000000 0.000000
# 2 -0.008776 0.016432 -0.012652 0.000000 0.000000 0.000000
# 3 0.002994 -0.012652 0.021563 0.000000 0.000000 0.000000
# 4 0.000000 0.000000 0.000000 0.069625 0.000000 0.000000
# 5 0.000000 0.000000 0.000000 0.000000 0.142167 0.000000
# 6 0.000000 0.000000 0.000000 0.000000 0.000000 -0.041429
#
#
# Mechanical properties :
#
#
# Convention : Reuss Voigt Hill
#
# Bulk Modulus (GPa) = 31.13179 55.68275 43.40727
# Shear Modulus (GPa) = 17.42576 9.11335 13.26955
#
# Velocity S-wave (km/s) = 2.94980 2.13322 2.57410
# Velocity P-wave (km/s) = 5.21027 5.81996 5.52353
#
# Compressibility (1/GPa) = 0.03212151
#
# Stress axis : x y z
#
# Youngs Moduli (GPa) = 32.26106 60.85867 46.37617
#
# Poissons Ratio (x) = 0.53411 -0.13883
# Poissons Ratio (y) = 0.28313 0.58677
# Poissons Ratio (z) = -0.09658 0.77000
#
# Static dielectric constant tensor:
#      x y z
#    x 1.735410 0.000000 0.000000 
#    y 0.000000 1.707400 0.000000 
#    z 0.000000 0.000000 1.754980 
# 
# From -- ./inp_files/19146.got.cif
#   From: 2010.05.17/outbox.cif.g08.bks.cpg/sg51_10_cif.got.tgz:19146.got - 2010.06.03 11:52:47.
