data_PCOD9401505
_publ_section_title
;
Structure prediction by ZEFSAII (Michael W. Deem and Ramdas Pophale) SiO2 
 PCOD9401505
Probable space group: P M M A
;
_chemical_formula_sum "Si O2"
_cell_formula_units_Z 48
_cell_length_a 24.346530
_cell_length_b 7.936307
_cell_length_c 13.072230
_cell_angle_alpha 90.000000
_cell_angle_beta 90.000000
_cell_angle_gamma 90.000000
_cell_volume 2525.836366
_symmetry_space_group_name_H-M "P M M A"
_symmetry_group_IT_number 51
_symmetry_cell_setting 'orthorhombic'
loop_
_space_group_symop_operation_xyz
x,y,z
1/2-x,-y,z
1/2+x,-y,-z
-x,y,-z
-x,-y,-z
1/2+x,y,-z
1/2-x,y,z
x,-y,z
loop_
_atom_site_type_symbol
_atom_site_label
_atom_site_fract_x
_atom_site_fract_y
_atom_site_fract_z
Si Si1 0.505686 0.202663 0.383038
Si Si2 0.312873 0.294338 0.124893
Si Si3 0.188266 0.701427 0.496205
Si Si4 0.812380 0.703171 0.107338
Si Si5 0.112334 0.703625 0.311093
Si Si6 0.122966 0.799518 0.694599
O O1 0.500000 0.266254 0.500000
O O2 0.450773 0.246296 0.321856
O O3 0.561940 0.265885 0.331856
O O4 0.509113 0.000000 0.388191
O O5 0.250000 0.244751 0.150034
O O6 0.313403 0.500000 0.125481
O O7 0.356072 0.236879 0.209589
O O8 0.325110 0.240444 0.008566
O O9 0.250000 0.769150 0.484483
O O10 0.191206 0.500000 0.482035
O O11 0.146083 0.766297 0.410469
O O12 0.164487 0.733484 0.608354
O O13 0.750000 0.760194 0.132330
O O14 0.811419 0.500000 0.106058
O O15 0.854789 0.756895 0.193537
O O16 0.114280 0.500000 0.311195
O O17 0.121826 0.000000 0.684673
#
# Coordination Sequence:
#
# PCOD9401505 Si02
#       6
#     8   8   8   8   8   8
#     4  10  21  38  53  68 100 144 179 211 257 306
#     4   8  15  31  55  81 108 136 165 204 259 313
#     4  10  20  32  49  77 109 133 158 204 262 312
#     4   9  18  34  56  79 105 137 169 206 256 309
#     4  10  19  32  55  82 103 129 172 215 251 301
#     4  11  22  35  52  73 100 137 178 215 253 299
#
# _framework density 19.003606999999999
#
# number of rings (size 3 to 8) (size 9 to 14) (size 15 to 20)
#    0.000    2.333    1.667    2.500    0.000    6.333 
#    0.000    1.667    0.000    7.500    0.000    0.000 
#    0.000    0.000    0.000    0.000    0.000    0.000 
#
# Total GULP energy -267884.647184 kJ/mol
# GULP energy per Si atom -5580.930150 kJ/mol
# Density = 1.896035 g / cm^3
# Si number density = 19.003607 Si / 1000 Ang^3
#
#
#
# Elastic Constant Matrix: (Units=GPa)
#
#
# Indices 1 2 3 4 5 6 
#
# 1 118.2340 0.7964 54.1161 0.0000 0.0000 0.0000
# 2 0.7964 14.6279 -2.4499 0.0000 0.0000 0.0000
# 3 54.1161 -2.4499 93.0664 0.0000 0.0000 0.0000
# 4 0.0000 0.0000 0.0000 -0.0244 0.0000 0.0000
# 5 0.0000 0.0000 0.0000 0.0000 16.1743 0.0000
# 6 0.0000 0.0000 0.0000 0.0000 0.0000 42.9909
#
#
#
# Elastic Compliance Matrix: (Units=1/GPa)
#
#
# Indices 1 2 3 4 5 6 
#
# 1 0.011570 -0.001765 -0.006774 0.000000 0.000000 0.000000
# 2 -0.001765 0.068935 0.002841 0.000000 0.000000 0.000000
# 3 -0.006774 0.002841 0.014759 0.000000 0.000000 0.000000
# 4 0.000000 0.000000 0.000000-40.901637 0.000000 0.000000
# 5 0.000000 0.000000 0.000000 0.000000 0.061827 0.000000
# 6 0.000000 0.000000 0.000000 0.000000 0.000000 0.023261
#
#
# Mechanical properties :
#
#
# Convention : Reuss Voigt Hill
#
# Bulk Modulus (GPa) = 11.92358 36.76152 24.34255
# Shear Modulus (GPa) = -0.12290 23.39253 11.63481
#
# Velocity S-wave (km/s) = -0.25459 3.51230 2.47704
# Velocity P-wave (km/s) = 2.49030 5.98622 4.58456
#
# Compressibility (1/GPa) = 0.08386742
#
# Stress axis : x y z
#
# Youngs Moduli (GPa) = 86.42794 14.50652 67.75555
#
# Poissons Ratio (x) = 0.02560 0.45900
# Poissons Ratio (y) = 0.15251 -0.19247
# Poissons Ratio (z) = 0.58549 -0.04121
#
# Static dielectric constant tensor:
#      x y z
#    x 1.650700 0.000000 0.000000 
#    y 0.000000 1.693620 0.000000 
#    z 0.000000 0.000000 1.648530 
# 
# From -- ./inp_files/18539.got.cif
#   From: 2010.05.17/outbox.cif.g08.bks.cpg/sg51_10_cif.got.tgz:18539.got - 2010.06.03 11:52:47.
