data_PCOD9401776
_publ_section_title
;
Structure prediction by ZEFSAII (Michael W. Deem and Ramdas Pophale) SiO2 
 PCOD9401776
Probable space group: P M M A
;
_chemical_formula_sum "Si O2"
_cell_formula_units_Z 56
_cell_length_a 9.928136
_cell_length_b 14.522569
_cell_length_c 19.978263
_cell_angle_alpha 90.000000
_cell_angle_beta 90.000000
_cell_angle_gamma 90.000000
_cell_volume 2880.506717
_symmetry_space_group_name_H-M "P M M A"
_symmetry_group_IT_number 51
_symmetry_cell_setting 'orthorhombic'
loop_
_space_group_symop_operation_xyz
x,y,z
1/2-x,-y,z
1/2+x,-y,-z
-x,y,-z
-x,-y,-z
1/2+x,y,-z
1/2-x,y,z
x,-y,z
loop_
_atom_site_type_symbol
_atom_site_label
_atom_site_fract_x
_atom_site_fract_y
_atom_site_fract_z
Si Si1 0.086658 0.895710 0.662913
Si Si2 0.988214 0.396353 0.202285
Si Si3 0.912624 0.269081 0.433009
Si Si4 0.396361 0.610028 0.053997
Si Si5 0.908108 0.889902 0.064159
Si Si6 0.903080 0.194566 0.201018
Si Si7 0.601349 0.393260 0.652940
O O1 0.250000 0.897257 0.667010
O O2 0.057973 0.830000 0.600484
O O3 0.035394 0.849955 0.732116
O O4 0.038639 0.000000 0.655862
O O5 0.926496 0.500000 0.202737
O O6 0.900389 0.304615 0.208147
O O7 0.060237 0.384785 0.130922
O O8 0.084607 0.392193 0.266763
O O9 0.750000 0.280094 0.441185
O O10 0.000000 0.279678 0.500000
O O11 0.977047 0.341028 0.380541
O O12 0.250000 0.651635 0.044106
O O13 0.387272 0.500000 0.040572
O O14 0.500000 0.648367 0.000000
O O15 0.750000 0.866453 0.052258
O O16 0.961508 0.836784 0.129949
O O17 0.913806 0.000000 0.077574
O O18 0.000000 0.871287 0.000000
O O19 0.750000 0.159442 0.197832
O O20 0.750000 0.355695 0.634803
O O21 0.596835 0.500000 0.632028
#
# Coordination Sequence:
#
# PCOD9401776 Si02
#       7
#     8   8   8   8   8   8   8
#     4   9  18  35  60  88 117 151 192 237 288 348
#     4  10  20  34  54  81 113 153 197 241 291 346
#     4  11  23  40  63  93 124 156 193 235 288 347
#     4   9  18  33  51  72 102 143 190 236 282 332
#     4   9  18  34  57  82 110 146 190 242 297 351
#     4  10  19  33  54  84 115 149 194 241 290 343
#     4  10  21  39  63  89 119 159 203 245 292 345
#
# _framework density 19.441023999999999
#
# number of rings (size 3 to 8) (size 9 to 14) (size 15 to 20)
#    0.000    2.286    1.429    1.286    0.000    5.714 
#    0.000    5.714    0.000    1.286    0.000    0.000 
#    0.000    0.000    0.000    0.000    0.000    0.000 
#
# Total GULP energy -312034.980391 kJ/mol
# GULP energy per Si atom -5572.053221 kJ/mol
# Density = 1.939678 g / cm^3
# Si number density = 19.441024 Si / 1000 Ang^3
#
#
#
# Elastic Constant Matrix: (Units=GPa)
#
#
# Indices 1 2 3 4 5 6 
#
# 1 80.3513 22.8830 47.6358 0.0000 0.0000 0.0000
# 2 22.8830 80.8862 29.1115 0.0000 0.0000 0.0000
# 3 47.6358 29.1115 114.3663 0.0000 0.0000 0.0000
# 4 0.0000 0.0000 0.0000 68.7428 0.0000 0.0000
# 5 0.0000 0.0000 0.0000 0.0000 12.1387 0.0000
# 6 0.0000 0.0000 0.0000 0.0000 0.0000 7.3836
#
#
#
# Elastic Compliance Matrix: (Units=1/GPa)
#
#
# Indices 1 2 3 4 5 6 
#
# 1 0.016968 -0.002484 -0.006435 0.000000 0.000000 0.000000
# 2 -0.002484 0.013974 -0.002522 0.000000 0.000000 0.000000
# 3 -0.006435 -0.002522 0.012066 0.000000 0.000000 0.000000
# 4 0.000000 0.000000 0.000000 0.014547 0.000000 0.000000
# 5 0.000000 0.000000 0.000000 0.000000 0.082381 0.000000
# 6 0.000000 0.000000 0.000000 0.000000 0.000000 0.135435
#
#
# Mechanical properties :
#
#
# Convention : Reuss Voigt Hill
#
# Bulk Modulus (GPa) = 49.69041 52.76270 51.22655
# Shear Modulus (GPa) = 16.39549 29.38459 22.89004
#
# Velocity S-wave (km/s) = 2.90719 3.89198 3.43506
# Velocity P-wave (km/s) = 6.07323 6.88444 6.49152
#
# Compressibility (1/GPa) = 0.02012461
#
# Stress axis : x y z
#
# Youngs Moduli (GPa) = 58.93511 71.56350 82.87622
#
# Poissons Ratio (x) = 0.17778 0.53331
# Poissons Ratio (y) = 0.14641 0.20903
# Poissons Ratio (z) = 0.37925 0.18050
#
# Static dielectric constant tensor:
#      x y z
#    x 1.687520 0.000000 0.000000 
#    y 0.000000 1.700590 0.000000 
#    z 0.000000 0.000000 1.697720 
# 
# From -- ./inp_files/31928.got.cif
#   From: 2010.05.17/outbox.cif.g08.bks.cpg/sg51_16_cif.got.tgz:31928.got - 2010.06.03 11:52:47.
