data_PCOD9401408
_publ_section_title
;
Structure prediction by ZEFSAII (Michael W. Deem and Ramdas Pophale) SiO2 
 PCOD9401408
Probable space group: P M M A
;
_chemical_formula_sum "Si O2"
_cell_formula_units_Z 40
_cell_length_a 10.370558
_cell_length_b 8.905321
_cell_length_c 24.993395
_cell_angle_alpha 90.000000
_cell_angle_beta 90.000000
_cell_angle_gamma 90.000000
_cell_volume 2308.218706
_symmetry_space_group_name_H-M "P M M A"
_symmetry_group_IT_number 51
_symmetry_cell_setting 'orthorhombic'
loop_
_space_group_symop_operation_xyz
x,y,z
1/2-x,-y,z
1/2+x,-y,-z
-x,y,-z
-x,-y,-z
1/2+x,y,-z
1/2-x,y,z
x,-y,z
loop_
_atom_site_type_symbol
_atom_site_label
_atom_site_fract_x
_atom_site_fract_y
_atom_site_fract_z
Si Si1 0.406498 0.827216 0.335749
Si Si2 0.993171 0.821132 0.881979
Si Si3 0.750000 0.678311 0.941988
Si Si4 0.594654 0.324040 0.774273
Si Si5 0.899055 0.183392 0.545100
Si Si6 0.250000 0.678374 0.930268
O O1 0.250000 0.829669 0.336320
O O2 0.445598 0.730054 0.284772
O O3 0.442096 0.771197 0.395003
O O4 0.449658 0.000000 0.329073
O O5 0.875209 0.752121 0.915683
O O6 0.971402 0.770660 0.820844
O O7 0.124090 0.752891 0.905039
O O8 0.992797 0.000000 0.886217
O O9 0.750000 0.500000 0.930628
O O10 0.750000 0.699977 0.005694
O O11 0.750000 0.302523 0.778706
O O12 0.568364 0.500000 0.781718
O O13 0.750000 0.230308 0.535723
O O14 0.000000 0.232090 0.500000
O O15 0.897836 0.000000 0.545604
O O16 0.250000 0.500000 0.920069
#
# Coordination Sequence:
#
# PCOD9401408 Si02
#       6
#     8   8   4   8   8   4
#     4   8  14  25  43  68  97 128 167 215 262 308
#     4  12  24  38  60  87 114 144 183 231 276 321
#     4  11  23  41  63  87 113 147 186 221 268 327
#     4  10  19  32  53  78 105 137 179 225 270 324
#     4   8  13  22  39  64  93 125 161 203 254 309
#     4  11  25  43  61  81 115 153 182 219 270 333
#
# _framework density 17.32938
#
# number of rings (size 3 to 8) (size 9 to 14) (size 15 to 20)
#    0.000    2.200    1.000    4.800    0.000    4.800 
#    0.000    0.000    2.200    0.600    0.000    0.000 
#    0.000    0.000    0.000    0.000    0.000    0.000 
#
# Total GULP energy -223179.561257 kJ/mol
# GULP energy per Si atom -5579.489031 kJ/mol
# Density = 1.728994 g / cm^3
# Si number density = 17.329380 Si / 1000 Ang^3
#
#
#
# Elastic Constant Matrix: (Units=GPa)
#
#
# Indices 1 2 3 4 5 6 
#
# 1 106.1013 53.5696 72.9429 0.0000 0.0000 0.0000
# 2 53.5696 91.9766 80.8319 0.0000 0.0000 0.0000
# 3 72.9429 80.8319 152.5236 0.0000 0.0000 0.0000
# 4 0.0000 0.0000 0.0000 47.0977 0.0000 0.0000
# 5 0.0000 0.0000 0.0000 0.0000 21.8895 0.0000
# 6 0.0000 0.0000 0.0000 0.0000 0.0000 21.6317
#
#
#
# Elastic Compliance Matrix: (Units=1/GPa)
#
#
# Indices 1 2 3 4 5 6 
#
# 1 0.014994 -0.004550 -0.004759 0.000000 0.000000 0.000000
# 2 -0.004550 0.021732 -0.009341 0.000000 0.000000 0.000000
# 3 -0.004759 -0.009341 0.013783 0.000000 0.000000 0.000000
# 4 0.000000 0.000000 0.000000 0.021232 0.000000 0.000000
# 5 0.000000 0.000000 0.000000 0.000000 0.045684 0.000000
# 6 0.000000 0.000000 0.000000 0.000000 0.000000 0.046228
#
#
# Mechanical properties :
#
#
# Convention : Reuss Voigt Hill
#
# Bulk Modulus (GPa) = 75.71387 85.03223 80.37305
# Shear Modulus (GPa) = 24.34782 27.67426 26.01104
#
# Velocity S-wave (km/s) = 3.75240 4.00053 3.87845
# Velocity P-wave (km/s) = 7.90948 8.39725 8.15701
#
# Compressibility (1/GPa) = 0.01320762
#
# Stress axis : x y z
#
# Youngs Moduli (GPa) = 66.69145 46.01606 72.55471
#
# Poissons Ratio (x) = 0.20940 0.34531
# Poissons Ratio (y) = 0.30348 0.67771
# Poissons Ratio (z) = 0.31741 0.42982
#
# Static dielectric constant tensor:
#      x y z
#    x 1.550450 0.000000 0.000000 
#    y 0.000000 1.576280 0.000000 
#    z 0.000000 0.000000 1.599560 
# 
# From -- ./inp_files/35992.got.cif
#   From: 2010.05.17/outbox.cif.g08.bks.cpg/sg51_18_cif.got.tgz:35992.got - 2010.06.03 11:52:47.
