data_PCOD9401223
_publ_section_title
;
Structure prediction by ZEFSAII (Michael W. Deem and Ramdas Pophale) SiO2 
 PCOD9401223
Probable space group: P M M A
;
_chemical_formula_sum "Si O2"
_cell_formula_units_Z 56
_cell_length_a 23.575213
_cell_length_b 7.536576
_cell_length_c 15.044670
_cell_angle_alpha 90.000000
_cell_angle_beta 90.000000
_cell_angle_gamma 90.000000
_cell_volume 2673.082571
_symmetry_space_group_name_H-M "P M M A"
_symmetry_group_IT_number 51
_symmetry_cell_setting 'orthorhombic'
loop_
_space_group_symop_operation_xyz
x,y,z
1/2-x,-y,z
1/2+x,-y,-z
-x,y,-z
-x,-y,-z
1/2+x,y,-z
1/2-x,y,z
x,-y,z
loop_
_atom_site_type_symbol
_atom_site_label
_atom_site_fract_x
_atom_site_fract_y
_atom_site_fract_z
Si Si1 0.576457 0.716561 0.581719
Si Si2 0.418281 0.206653 0.807934
Si Si3 0.651831 0.714543 0.881028
Si Si4 0.949811 0.714024 0.382184
Si Si5 0.187809 0.717016 0.312265
Si Si6 0.311976 0.789505 0.919608
Si Si7 0.526351 0.705168 0.910768
O O1 0.576461 0.500000 0.584219
O O2 0.515894 0.772473 0.623221
O O3 0.573956 0.769579 0.478169
O O4 0.632749 0.776428 0.632564
O O5 0.414230 0.225080 0.702350
O O6 0.365387 0.281996 0.863754
O O7 0.477584 0.290899 0.837737
O O8 0.423335 0.000000 0.830982
O O9 0.653514 0.500000 0.877722
O O10 0.681151 0.774139 0.790362
O O11 0.586576 0.779317 0.881433
O O12 0.678130 0.766613 0.975246
O O13 0.950116 0.500000 0.381490
O O14 0.250000 0.771373 0.345958
O O15 0.186637 0.500000 0.313722
O O16 0.250000 0.715794 0.896125
O O17 0.310578 0.000000 0.901489
O O18 0.539195 0.500000 0.932644
O O19 0.500000 0.787427 0.000000
#
# Coordination Sequence:
#
# PCOD9401223 Si02
#       7
#     8   8   8   8   8   8   8
#     4   8  15  30  51  73  97 129 163 197 247 311
#     4  11  22  34  51  75 103 134 169 210 252 297
#     4  10  19  32  52  77 102 130 167 207 251 300
#     4   9  17  32  55  76  97 128 165 205 252 303
#     4   9  16  26  44  73 104 128 155 199 251 301
#     4  10  22  38  51  65  95 140 179 208 244 294
#     4  10  19  32  51  75 102 132 165 207 254 299
#
# _framework density 20.949594999999999
#
# number of rings (size 3 to 8) (size 9 to 14) (size 15 to 20)
#    0.000    2.429    1.429    2.571    0.000    4.571 
#    0.000    2.143    0.000    1.714    0.000    0.000 
#    0.000    0.000    0.000    0.000    0.000    0.000 
#
# Total GULP energy -312571.508784 kJ/mol
# GULP energy per Si atom -5581.634085 kJ/mol
# Density = 2.090191 g / cm^3
# Si number density = 20.949595 Si / 1000 Ang^3
#
#
#
# Elastic Constant Matrix: (Units=GPa)
#
#
# Indices 1 2 3 4 5 6 
#
# 1 140.6400 1.4280 55.8822 0.0000 0.0000 0.0000
# 2 1.4280 48.7142 -8.7501 0.0000 0.0000 0.0000
# 3 55.8822 -8.7501 108.2328 0.0000 0.0000 0.0000
# 4 0.0000 0.0000 0.0000 27.9335 0.0000 0.0000
# 5 0.0000 0.0000 0.0000 0.0000 21.7813 0.0000
# 6 0.0000 0.0000 0.0000 0.0000 0.0000 -1.2278
#
#
#
# Elastic Compliance Matrix: (Units=1/GPa)
#
#
# Indices 1 2 3 4 5 6 
#
# 1 0.009005 -0.001115 -0.004740 0.000000 0.000000 0.000000
# 2 -0.001115 0.020969 0.002271 0.000000 0.000000 0.000000
# 3 -0.004740 0.002271 0.011870 0.000000 0.000000 0.000000
# 4 0.000000 0.000000 0.000000 0.035799 0.000000 0.000000
# 5 0.000000 0.000000 0.000000 0.000000 0.045911 0.000000
# 6 0.000000 0.000000 0.000000 0.000000 0.000000 -0.814475
#
#
# Mechanical properties :
#
#
# Convention : Reuss Voigt Hill
#
# Bulk Modulus (GPa) = 28.83847 43.85634 36.34740
# Shear Modulus (GPa) = -7.43832 26.29918 9.43043
#
# Velocity S-wave (km/s) = -1.88634 3.54694 2.12397
# Velocity P-wave (km/s) = 3.00851 6.14443 4.83762
#
# Compressibility (1/GPa) = 0.03467591
#
# Stress axis : x y z
#
# Youngs Moduli (GPa) = 111.05079 47.69054 84.24575
#
# Poissons Ratio (x) = 0.05319 0.39928
# Poissons Ratio (y) = 0.12385 -0.19132
# Poissons Ratio (z) = 0.52633 -0.10831
#
# Static dielectric constant tensor:
#      x y z
#    x 1.776090 0.000000 0.000000 
#    y 0.000000 1.812860 0.000000 
#    z 0.000000 0.000000 1.738550 
# 
# From -- ./inp_files/25711.got.cif
#   From: 2010.05.17/outbox.cif.g08.bks.cpg/sg51_13_cif.got.tgz:25711.got - 2010.06.03 11:52:47.
