data_PCOD9401678
_publ_section_title
;
Structure prediction by ZEFSAII (Michael W. Deem and Ramdas Pophale) SiO2 
 PCOD9401678
Probable space group: P M M A
;
_chemical_formula_sum "Si O2"
_cell_formula_units_Z 40
_cell_length_a 20.949401
_cell_length_b 11.794384
_cell_length_c 9.374290
_cell_angle_alpha 90.000000
_cell_angle_beta 90.000000
_cell_angle_gamma 90.000000
_cell_volume 2316.249069
_symmetry_space_group_name_H-M "P M M A"
_symmetry_group_IT_number 51
_symmetry_cell_setting 'orthorhombic'
loop_
_space_group_symop_operation_xyz
x,y,z
1/2-x,-y,z
1/2+x,-y,-z
-x,y,-z
-x,-y,-z
1/2+x,y,-z
1/2-x,y,z
x,-y,z
loop_
_atom_site_type_symbol
_atom_site_label
_atom_site_fract_x
_atom_site_fract_y
_atom_site_fract_z
Si Si1 0.750000 0.129801 0.669677
Si Si2 0.896449 0.500000 0.438772
Si Si3 0.032371 0.500000 0.272333
Si Si4 0.388869 0.136432 0.350828
Si Si5 0.494065 0.743566 0.164620
Si Si6 0.250000 0.130138 0.677741
Si Si7 0.877249 0.254294 0.345887
O O1 0.680583 0.178027 0.707268
O O2 0.750000 0.128673 0.496248
O O3 0.750000 0.000000 0.273926
O O4 0.912906 0.500000 0.606769
O O5 0.863284 0.383978 0.391265
O O6 0.965330 0.500000 0.359291
O O7 0.032250 0.384955 0.182471
O O8 0.445495 0.176814 0.250325
O O9 0.396751 0.189539 0.508168
O O10 0.386716 0.000000 0.363152
O O11 0.562954 0.748279 0.240219
O O12 0.500000 0.774040 0.000000
O O13 0.185245 0.194428 0.717342
O O14 0.250000 0.000000 0.278736
#
# Coordination Sequence:
#
# PCOD9401678 Si02
#       7
#     4   4   4   8   8   4   8
#     4   7  14  30  50  72  95 127 170 210 260 312
#     4   9  16  29  56  83 101 128 174 225 258 311
#     4   9  17  34  52  75 105 137 172 212 271 319
#     4  10  19  33  54  76 103 139 178 224 270 318
#     4  11  22  34  52  78 108 141 179 222 267 319
#     4   9  18  33  54  78 107 140 173 214 266 324
#     4  10  19  34  55  80 105 137 177 220 269 316
#
# _framework density 17.269300999999999
#
# number of rings (size 3 to 8) (size 9 to 14) (size 15 to 20)
#    0.000    2.400    2.000    2.700    0.000    3.200 
#    0.000    1.000    0.000    1.800    0.000    2.800 
#    0.000    0.000    0.000    0.000    0.000    0.000 
#
# Total GULP energy -222917.891160 kJ/mol
# GULP energy per Si atom -5572.947279 kJ/mol
# Density = 1.722999 g / cm^3
# Si number density = 17.269301 Si / 1000 Ang^3
#
#
#
# Elastic Constant Matrix: (Units=GPa)
#
#
# Indices 1 2 3 4 5 6 
#
# 1 111.6113 49.7238 43.1254 0.0000 0.0000 0.0000
# 2 49.7238 111.4111 25.7243 0.0000 0.0000 0.0000
# 3 43.1254 25.7243 71.9841 0.0000 0.0000 0.0000
# 4 0.0000 0.0000 0.0000 2.1951 0.0000 0.0000
# 5 0.0000 0.0000 0.0000 0.0000 -3.3382 0.0000
# 6 0.0000 0.0000 0.0000 0.0000 0.0000 23.3522
#
#
#
# Elastic Compliance Matrix: (Units=1/GPa)
#
#
# Indices 1 2 3 4 5 6 
#
# 1 0.013467 -0.004520 -0.006452 0.000000 0.000000 0.000000
# 2 -0.004520 0.011300 -0.001330 0.000000 0.000000 0.000000
# 3 -0.006452 -0.001330 0.018233 0.000000 0.000000 0.000000
# 4 0.000000 0.000000 0.000000 0.455551 0.000000 0.000000
# 5 0.000000 0.000000 0.000000 0.000000 -0.299562 0.000000
# 6 0.000000 0.000000 0.000000 0.000000 0.000000 0.042823
#
#
# Mechanical properties :
#
#
# Convention : Reuss Voigt Hill
#
# Bulk Modulus (GPa) = 54.36555 59.12816 56.74685
# Shear Modulus (GPa) = 18.34534 16.20402 17.27468
#
# Velocity S-wave (km/s) = 3.26284 3.06651 3.16620
# Velocity P-wave (km/s) = 6.76345 6.84480 6.80424
#
# Compressibility (1/GPa) = 0.01839400
#
# Stress axis : x y z
#
# Youngs Moduli (GPa) = 74.25702 88.49235 54.84583
#
# Poissons Ratio (x) = 0.40003 0.35389
# Poissons Ratio (y) = 0.33568 0.07295
# Poissons Ratio (z) = 0.47914 0.11770
#
# Static dielectric constant tensor:
#      x y z
#    x 1.605210 0.000000 0.000000 
#    y 0.000000 1.601000 0.000000 
#    z 0.000000 0.000000 1.558580 
# 
# From -- ./inp_files/10721.got.cif
#   From: 2010.05.17/outbox.cif.g08.bks.cpg/sg51_6_cif.got.tgz:10721.got - 2010.06.03 11:52:47.
