data_PCOD9401173
_publ_section_title
;
Structure prediction by ZEFSAII (Michael W. Deem and Ramdas Pophale) SiO2 
 PCOD9401173
Probable space group: P M M A
;
_chemical_formula_sum "Si O2"
_cell_formula_units_Z 52
_cell_length_a 8.617687
_cell_length_b 24.104652
_cell_length_c 14.781075
_cell_angle_alpha 90.000000
_cell_angle_beta 90.000000
_cell_angle_gamma 90.000000
_cell_volume 3070.418702
_symmetry_space_group_name_H-M "P M M A"
_symmetry_group_IT_number 51
_symmetry_cell_setting 'orthorhombic'
loop_
_space_group_symop_operation_xyz
x,y,z
1/2-x,-y,z
1/2+x,-y,-z
-x,y,-z
-x,-y,-z
1/2+x,y,-z
1/2-x,y,z
x,-y,z
loop_
_atom_site_type_symbol
_atom_site_label
_atom_site_fract_x
_atom_site_fract_y
_atom_site_fract_z
Si Si1 0.937039 0.061144 0.783660
Si Si2 0.936579 0.500000 0.898116
Si Si3 0.935802 0.102766 0.403445
Si Si4 0.063330 0.273644 0.789530
Si Si5 0.936791 0.378166 0.897241
Si Si6 0.563641 0.767480 0.403991
Si Si7 0.936878 0.832112 0.898516
O O1 0.750000 0.062704 0.780957
O O2 0.988519 0.111865 0.846916
O O3 0.998883 0.070873 0.682666
O O4 0.985316 0.000000 0.816150
O O5 0.750000 0.500000 0.900396
O O6 0.983434 0.439659 0.860955
O O7 0.000000 0.500000 0.000000
O O8 0.750000 0.099938 0.403949
O O9 0.983577 0.167753 0.393470
O O10 0.000000 0.083035 0.500000
O O11 0.250000 0.272926 0.793011
O O12 0.013801 0.265746 0.685019
O O13 0.001742 0.329323 0.835555
O O14 0.000100 0.220966 0.844784
O O15 0.750000 0.374887 0.900546
O O16 0.000000 0.372393 0.000000
O O17 0.500000 0.747269 0.500000
O O18 0.750000 0.766647 0.407640
O O19 0.750000 0.830195 0.899590
O O20 0.000000 0.831467 0.000000
#
# Coordination Sequence:
#
# PCOD9401173 Si02
#       7
#     8   4   8   8   8   8   8
#     4  10  22  39  56  75  99 129 168 211 256 309
#     4   8  16  30  48  70 103 140 179 216 251 294
#     4  10  19  34  55  79 103 131 163 203 253 308
#     4  11  21  35  53  78 108 136 169 211 253 302
#     4  10  19  32  50  76 107 144 180 215 254 297
#     4   9  19  33  52  76 103 131 163 203 251 303
#     4  11  23  38  56  75  99 132 168 211 258 305
#
# _framework density 16.935801999999999
#
# number of rings (size 3 to 8) (size 9 to 14) (size 15 to 20)
#    0.000    2.000    1.538    2.308    0.000    4.000 
#    0.000    0.000    0.000    0.000    0.000    0.538 
#    0.000    0.000    0.000    0.000    0.000    0.000 
#
# Total GULP energy -290170.223730 kJ/mol
# GULP energy per Si atom -5580.196610 kJ/mol
# Density = 1.689725 g / cm^3
# Si number density = 16.935802 Si / 1000 Ang^3
#
#
#
# Elastic Constant Matrix: (Units=GPa)
#
#
# Indices 1 2 3 4 5 6 
#
# 1 31.1076 34.5374 25.8473 0.0000 0.0000 0.0000
# 2 34.5374 152.7181 77.0961 0.0000 0.0000 0.0000
# 3 25.8473 77.0961 122.9745 0.0000 0.0000 0.0000
# 4 0.0000 0.0000 0.0000 -75.5667 0.0000 0.0000
# 5 0.0000 0.0000 0.0000 0.0000 27.1324 0.0000
# 6 0.0000 0.0000 0.0000 0.0000 0.0000 -13.9390
#
#
#
# Elastic Compliance Matrix: (Units=1/GPa)
#
#
# Indices 1 2 3 4 5 6 
#
# 1 0.044533 -0.007821 -0.004457 0.000000 0.000000 0.000000
# 2 -0.007821 0.010954 -0.005223 0.000000 0.000000 0.000000
# 3 -0.004457 -0.005223 0.012343 0.000000 0.000000 0.000000
# 4 0.000000 0.000000 0.000000 -0.013233 0.000000 0.000000
# 5 0.000000 0.000000 0.000000 0.000000 0.036856 0.000000
# 6 0.000000 0.000000 0.000000 0.000000 0.000000 -0.071741
#
#
# Mechanical properties :
#
#
# Convention : Reuss Voigt Hill
#
# Bulk Modulus (GPa) = 30.46241 64.64020 47.55130
# Shear Modulus (GPa) = 76.15329 -1.18670 37.48329
#
# Velocity S-wave (km/s) = 6.71293 -0.83799 4.70963
# Velocity P-wave (km/s) = 8.83802 6.10855 7.59687
#
# Compressibility (1/GPa) = 0.03282735
#
# Stress axis : x y z
#
# Youngs Moduli (GPa) = 22.45510 91.29377 81.01700
#
# Poissons Ratio (x) = 0.71404 0.36107
# Poissons Ratio (y) = 0.17563 0.42317
# Poissons Ratio (z) = 0.10008 0.47685
#
# Static dielectric constant tensor:
#      x y z
#    x 1.570920 0.000000 0.000000 
#    y 0.000000 1.592620 0.000000 
#    z 0.000000 0.000000 1.546090 
# 
# From -- ./inp_files/21506.got.cif
#   From: 2010.05.17/outbox.cif.g08.bks.cpg/sg51_11_cif.got.tgz:21506.got - 2010.06.03 11:52:47.
