data_PCOD9401734
_publ_section_title
;
Structure prediction by ZEFSAII (Michael W. Deem and Ramdas Pophale) SiO2 
 PCOD9401734
Probable space group: P M M A
;
_chemical_formula_sum "Si O2"
_cell_formula_units_Z 48
_cell_length_a 8.201087
_cell_length_b 32.600810
_cell_length_c 9.286548
_cell_angle_alpha 90.000000
_cell_angle_beta 90.000000
_cell_angle_gamma 90.000000
_cell_volume 2482.870781
_symmetry_space_group_name_H-M "P M M A"
_symmetry_group_IT_number 51
_symmetry_cell_setting 'orthorhombic'
loop_
_space_group_symop_operation_xyz
x,y,z
1/2-x,-y,z
1/2+x,-y,-z
-x,y,-z
-x,-y,-z
1/2+x,y,-z
1/2-x,y,z
x,-y,z
loop_
_atom_site_type_symbol
_atom_site_label
_atom_site_fract_x
_atom_site_fract_y
_atom_site_fract_z
Si Si1 0.055693 0.419796 0.835660
Si Si2 0.052539 0.500000 0.665129
Si Si3 0.947346 0.161142 0.666493
Si Si4 0.554701 0.339765 0.666238
Si Si5 0.052843 0.080827 0.164805
Si Si6 0.053372 0.749555 0.333141
Si Si7 0.446984 0.000000 0.334928
O O1 0.250000 0.421758 0.833385
O O2 0.992985 0.459144 0.746587
O O3 0.004412 0.377676 0.759834
O O4 0.000000 0.421445 0.000000
O O5 0.250000 0.500000 0.669246
O O6 0.000000 0.500000 0.500000
O O7 0.750000 0.160959 0.668745
O O8 0.005895 0.122681 0.759422
O O9 0.003167 0.206046 0.723431
O O10 0.000000 0.156834 0.500000
O O11 0.500000 0.344304 0.500000
O O12 0.750000 0.339669 0.667547
O O13 0.496457 0.294871 0.722755
O O14 0.250000 0.081029 0.169627
O O15 0.995739 0.040923 0.252928
O O16 0.000000 0.078583 0.000000
O O17 0.250000 0.749538 0.325465
O O18 0.000000 0.749650 0.500000
O O19 0.500000 0.000000 0.500000
O O20 0.250000 0.000000 0.330830
#
# Coordination Sequence:
#
# PCOD9401734 Si02
#       7
#     8   4   8   8   8   8   4
#     4  11  23  39  57  80 109 142 177 215 261 312
#     4  10  23  40  60  84 108 136 173 214 257 306
#     4   9  17  31  51  75 101 132 171 214 255 302
#     4  10  19  33  54  80 108 140 177 219 262 308
#     4  10  21  35  51  73 103 135 169 207 252 304
#     4   8  15  28  48  73 102 133 169 213 258 299
#     4  10  21  36  54  78 102 128 165 210 254 302
#
# _framework density 19.332459
#
# number of rings (size 3 to 8) (size 9 to 14) (size 15 to 20)
#    0.000    2.333    0.000    2.500    0.000    4.667 
#    0.000    0.833    0.000    2.000    0.000    0.000 
#    0.000    0.000    0.000    0.000    0.000    0.000 
#
# Total GULP energy -267750.417690 kJ/mol
# GULP energy per Si atom -5578.133702 kJ/mol
# Density = 1.928846 g / cm^3
# Si number density = 19.332459 Si / 1000 Ang^3
#
#
#
# Elastic Constant Matrix: (Units=GPa)
#
#
# Indices 1 2 3 4 5 6 
#
# 1 16.2974 24.4802 9.5644 0.0000 0.0000 0.0000
# 2 24.4802 253.9085 116.1242 0.0000 0.0000 0.0000
# 3 9.5644 116.1242 132.1151 0.0000 0.0000 0.0000
# 4 0.0000 0.0000 0.0000 -6.4580 0.0000 0.0000
# 5 0.0000 0.0000 0.0000 0.0000 31.0714 0.0000
# 6 0.0000 0.0000 0.0000 0.0000 0.0000 -10.7796
#
#
#
# Elastic Compliance Matrix: (Units=1/GPa)
#
#
# Indices 1 2 3 4 5 6 
#
# 1 0.071925 -0.007614 0.001485 0.000000 0.000000 0.000000
# 2 -0.007614 0.007392 -0.005946 0.000000 0.000000 0.000000
# 3 0.001485 -0.005946 0.012688 0.000000 0.000000 0.000000
# 4 0.000000 0.000000 0.000000 -0.154847 0.000000 0.000000
# 5 0.000000 0.000000 0.000000 0.000000 0.032184 0.000000
# 6 0.000000 0.000000 0.000000 0.000000 0.000000 -0.092768
#
#
# Mechanical properties :
#
#
# Convention : Reuss Voigt Hill
#
# Bulk Modulus (GPa) = 14.73723 78.07319 46.40521
# Shear Modulus (GPa) = -65.22344 19.57692 -22.82326
#
# Velocity S-wave (km/s) = -5.81473 3.18566 -3.43967
# Velocity P-wave (km/s) = 6.11897 7.34870 2.87764
#
# Compressibility (1/GPa) = 0.06785535
#
# Stress axis : x y z
#
# Youngs Moduli (GPa) = 13.90346 135.28378 78.81518
#
# Poissons Ratio (x) = 1.03002 -0.11706
# Poissons Ratio (y) = 0.10586 0.46863
# Poissons Ratio (z) = -0.02065 0.80439
#
# Static dielectric constant tensor:
#      x y z
#    x 1.638160 0.000000 0.000000 
#    y 0.000000 1.732860 0.000000 
#    z 0.000000 0.000000 1.605670 
# 
# From -- ./inp_files/6154.got.cif
#   From: 2010.05.17/outbox.cif.g08.bks.cpg/sg51_4_cif.got.tgz:6154.got - 2010.06.03 11:52:47.
