data_PCOD9401970
_publ_section_title
;
Structure prediction by ZEFSAII (Michael W. Deem and Ramdas Pophale) SiO2 
 PCOD9401970
Probable space group: P M M A
;
_chemical_formula_sum "Si O2"
_cell_formula_units_Z 64
_cell_length_a 15.523074
_cell_length_b 9.038471
_cell_length_c 24.735681
_cell_angle_alpha 90.000000
_cell_angle_beta 90.000000
_cell_angle_gamma 90.000000
_cell_volume 3470.536116
_symmetry_space_group_name_H-M "P M M A"
_symmetry_group_IT_number 51
_symmetry_cell_setting 'orthorhombic'
loop_
_space_group_symop_operation_xyz
x,y,z
1/2-x,-y,z
1/2+x,-y,-z
-x,y,-z
-x,-y,-z
1/2+x,y,-z
1/2-x,y,z
x,-y,z
loop_
_atom_site_type_symbol
_atom_site_label
_atom_site_fract_x
_atom_site_fract_y
_atom_site_fract_z
Si Si1 0.103992 0.168658 0.611762
Si Si2 0.146746 0.668296 0.501322
Si Si3 0.599693 0.169885 0.608378
Si Si4 0.491493 0.820900 0.793222
Si Si5 0.495507 0.820066 0.917590
Si Si6 0.149028 0.819861 0.003404
Si Si7 0.343994 0.180188 0.275205
Si Si8 0.848233 0.672975 0.279821
O O1 0.119351 0.236458 0.552903
O O2 0.144524 0.264028 0.659506
O O3 0.001554 0.166759 0.621155
O O4 0.135746 0.000000 0.613877
O O5 0.250000 0.667269 0.499890
O O6 0.115611 0.500000 0.507453
O O7 0.115094 0.737198 0.445271
O O8 0.644420 0.228397 0.662622
O O9 0.628278 0.000000 0.598424
O O10 0.490973 0.772499 0.855534
O O11 0.578249 0.771448 0.762614
O O12 0.411979 0.760002 0.759197
O O13 0.489126 0.000000 0.792257
O O14 0.585313 0.775490 0.946963
O O15 0.495910 0.000000 0.918618
O O16 0.410157 0.775647 0.951638
O O17 0.250000 0.770467 0.004312
O O18 0.152404 0.000000 0.003628
O O19 0.250000 0.223774 0.254867
O O20 0.347545 0.000000 0.276973
O O21 0.750000 0.689484 0.261391
O O22 0.870673 0.500000 0.280492
#
# Coordination Sequence:
#
# PCOD9401970 Si02
#       8
#     8   8   8   8   8   8   8   8
#     4  11  22  38  60  83 104 133 177 224 272 327
#     4  11  24  38  52  77 110 140 174 217 268 328
#     4  10  20  36  56  77 102 135 176 220 271 327
#     4  10  19  34  54  80 110 142 186 230 270 318
#     4   8  15  25  41  68 104 142 179 221 264 313
#     4   8  13  23  39  65 105 147 180 216 268 317
#     4   9  17  31  52  77 106 138 174 222 275 322
#     4  11  24  40  57  78 107 144 181 221 275 332
#
# _framework density 18.440954999999999
#
# number of rings (size 3 to 8) (size 9 to 14) (size 15 to 20)
#    0.000    2.250    1.250    3.000    0.000    7.500 
#    0.000    3.750    0.000    0.375    0.000    1.750 
#    0.000    1.000    0.000    0.000    0.000    0.000 
#
# Total GULP energy -356967.885161 kJ/mol
# GULP energy per Si atom -5577.623206 kJ/mol
# Density = 1.839898 g / cm^3
# Si number density = 18.440955 Si / 1000 Ang^3
#
#
#
# Elastic Constant Matrix: (Units=GPa)
#
#
# Indices 1 2 3 4 5 6 
#
# 1 112.8132 21.7899 55.0143 0.0000 0.0000 0.0000
# 2 21.7899 30.1668 21.5431 0.0000 0.0000 0.0000
# 3 55.0143 21.5431 134.6508 0.0000 0.0000 0.0000
# 4 0.0000 0.0000 0.0000 0.6887 0.0000 0.0000
# 5 0.0000 0.0000 0.0000 0.0000 -47.0731 0.0000
# 6 0.0000 0.0000 0.0000 0.0000 0.0000 28.8627
#
#
#
# Elastic Compliance Matrix: (Units=1/GPa)
#
#
# Indices 1 2 3 4 5 6 
#
# 1 0.011902 -0.005785 -0.003937 0.000000 0.000000 0.000000
# 2 -0.005785 0.040237 -0.004074 0.000000 0.000000 0.000000
# 3 -0.003937 -0.004074 0.009687 0.000000 0.000000 0.000000
# 4 0.000000 0.000000 0.000000 1.452035 0.000000 0.000000
# 5 0.000000 0.000000 0.000000 0.000000 -0.021244 0.000000
# 6 0.000000 0.000000 0.000000 0.000000 0.000000 0.034647
#
#
# Mechanical properties :
#
#
# Convention : Reuss Voigt Hill
#
# Bulk Modulus (GPa) = 29.21128 52.70281 40.95704
# Shear Modulus (GPa) = 3.19230 8.44790 5.82010
#
# Velocity S-wave (km/s) = 1.31714 2.14266 1.77846
# Velocity P-wave (km/s) = 4.26473 5.89598 5.14541
#
# Compressibility (1/GPa) = 0.03423335
#
# Stress axis : x y z
#
# Youngs Moduli (GPa) = 84.02284 24.85268 103.23132
#
# Poissons Ratio (x) = 0.14377 0.40643
# Poissons Ratio (y) = 0.48608 0.42057
# Poissons Ratio (z) = 0.33080 0.10125
#
# Static dielectric constant tensor:
#      x y z
#    x 1.650750 0.000000 0.000000 
#    y 0.000000 1.620170 0.000000 
#    z 0.000000 0.000000 1.623390 
# 
# From -- ./inp_files/35768.got.cif
#   From: 2010.05.17/outbox.cif.g08.bks.cpg/sg51_18_cif.got.tgz:35768.got - 2010.06.03 11:52:47.
