data_PCOD9401395
_publ_section_title
;
Structure prediction by ZEFSAII (Michael W. Deem and Ramdas Pophale) SiO2 
 PCOD9401395
Probable space group: P M M A
;
_chemical_formula_sum "Si O2"
_cell_formula_units_Z 48
_cell_length_a 26.084838
_cell_length_b 7.619963
_cell_length_c 12.176039
_cell_angle_alpha 90.000000
_cell_angle_beta 90.000000
_cell_angle_gamma 90.000000
_cell_volume 2420.176485
_symmetry_space_group_name_H-M "P M M A"
_symmetry_group_IT_number 51
_symmetry_cell_setting 'orthorhombic'
loop_
_space_group_symop_operation_xyz
x,y,z
1/2-x,-y,z
1/2+x,-y,-z
-x,y,-z
-x,-y,-z
1/2+x,y,-z
1/2-x,y,z
x,-y,z
loop_
_atom_site_type_symbol
_atom_site_label
_atom_site_fract_x
_atom_site_fract_y
_atom_site_fract_z
Si Si1 0.442906 0.704995 0.485143
Si Si2 0.907082 0.794222 0.279209
Si Si3 0.191773 0.711844 0.858058
Si Si4 0.999952 0.787209 0.873888
Si Si5 0.808542 0.285492 0.892067
Si Si6 0.101801 0.292723 0.262082
O O1 0.500000 0.782429 0.500000
O O2 0.450796 0.500000 0.456650
O O3 0.414031 0.714537 0.600546
O O4 0.411883 0.781488 0.382127
O O5 0.851602 0.769778 0.225852
O O6 0.950546 0.725770 0.195070
O O7 0.916846 0.000000 0.293096
O O8 0.250000 0.769852 0.832906
O O9 0.192080 0.500000 0.858108
O O10 0.179064 0.769401 0.982810
O O11 0.948797 0.729175 0.811744
O O12 0.000736 0.000000 0.875391
O O13 0.000000 0.726709 0.000000
O O14 0.750000 0.233952 0.867909
O O15 0.809675 0.500000 0.892754
O O16 0.849861 0.219666 0.804855
O O17 0.112685 0.500000 0.274987
#
# Coordination Sequence:
#
# PCOD9401395 Si02
#       6
#     8   8   8   8   8   8
#     4  10  20  35  52  73 105 140 177 221 260 304
#     4  11  22  34  52  76 103 138 176 213 258 311
#     4   9  18  34  56  79 104 134 166 208 261 310
#     4  10  21  34  48  72 106 136 164 208 264 316
#     4   8  15  30  53  80 105 128 163 212 261 309
#     4  10  19  32  53  77  99 133 175 214 258 305
#
# _framework density 19.833265999999998
#
# number of rings (size 3 to 8) (size 9 to 14) (size 15 to 20)
#    0.000    2.333    1.667    2.500    0.000    2.333 
#    0.000    0.833    0.000    4.500    0.000    0.000 
#    0.000    0.000    0.000    0.000    0.000    0.000 
#
# Total GULP energy -267940.175263 kJ/mol
# GULP energy per Si atom -5582.086985 kJ/mol
# Density = 1.978812 g / cm^3
# Si number density = 19.833266 Si / 1000 Ang^3
#
#
#
# Elastic Constant Matrix: (Units=GPa)
#
#
# Indices 1 2 3 4 5 6 
#
# 1 126.3498 -13.5466 85.2181 0.0000 0.0000 0.0000
# 2 -13.5466 34.0890 -12.4324 0.0000 0.0000 0.0000
# 3 85.2181 -12.4324 157.6484 0.0000 0.0000 0.0000
# 4 0.0000 0.0000 0.0000 -4.0789 0.0000 0.0000
# 5 0.0000 0.0000 0.0000 0.0000 17.9722 0.0000
# 6 0.0000 0.0000 0.0000 0.0000 0.0000 60.3808
#
#
#
# Elastic Compliance Matrix: (Units=1/GPa)
#
#
# Indices 1 2 3 4 5 6 
#
# 1 0.012678 0.002614 -0.006647 0.000000 0.000000 0.000000
# 2 0.002614 0.030743 0.001011 0.000000 0.000000 0.000000
# 3 -0.006647 0.001011 0.010016 0.000000 0.000000 0.000000
# 4 0.000000 0.000000 0.000000 -0.245166 0.000000 0.000000
# 5 0.000000 0.000000 0.000000 0.000000 0.055641 0.000000
# 6 0.000000 0.000000 0.000000 0.000000 0.000000 0.016562
#
#
# Mechanical properties :
#
#
# Convention : Reuss Voigt Hill
#
# Bulk Modulus (GPa) = 21.10007 48.50726 34.80367
# Shear Modulus (GPa) = -51.18460 32.11138 -9.53661
#
# Velocity S-wave (km/s) = -5.08561 4.02813 -2.19518
# Velocity P-wave (km/s) = 4.88086 6.79301 3.34083
#
# Compressibility (1/GPa) = 0.04739321
#
# Stress axis : x y z
#
# Youngs Moduli (GPa) = 78.87708 32.52821 99.83925
#
# Poissons Ratio (x) = -0.08502 0.66363
# Poissons Ratio (y) = -0.20617 -0.10098
# Poissons Ratio (z) = 0.52430 -0.03290
#
# Static dielectric constant tensor:
#      x y z
#    x 1.676070 0.000000 0.000000 
#    y 0.000000 1.739140 0.000000 
#    z 0.000000 0.000000 1.687490 
# 
# From -- ./inp_files/18557.got.cif
#   From: 2010.05.17/outbox.cif.g08.bks.cpg/sg51_10_cif.got.tgz:18557.got - 2010.06.03 11:52:47.
