data_PCOD9401816
_publ_section_title
;
Structure prediction by ZEFSAII (Michael W. Deem and Ramdas Pophale) SiO2 
 PCOD9401816
Probable space group: P M M A
;
_chemical_formula_sum "Si O2"
_cell_formula_units_Z 40
_cell_length_a 8.167145
_cell_length_b 7.548855
_cell_length_c 29.880469
_cell_angle_alpha 90.000000
_cell_angle_beta 90.000000
_cell_angle_gamma 90.000000
_cell_volume 1842.208405
_symmetry_space_group_name_H-M "P M M A"
_symmetry_group_IT_number 51
_symmetry_cell_setting 'orthorhombic'
loop_
_space_group_symop_operation_xyz
x,y,z
1/2-x,-y,z
1/2+x,-y,-z
-x,y,-z
-x,-y,-z
1/2+x,y,-z
1/2-x,y,z
x,-y,z
loop_
_atom_site_type_symbol
_atom_site_label
_atom_site_fract_x
_atom_site_fract_y
_atom_site_fract_z
Si Si1 0.571757 0.716812 0.263656
Si Si2 0.944979 0.203561 0.452916
Si Si3 0.250000 0.211718 0.106506
Si Si4 0.438299 0.215994 0.950286
Si Si5 0.250000 0.287598 0.211313
Si Si6 0.931455 0.708722 0.644604
O O1 0.750000 0.775955 0.247453
O O2 0.573234 0.500000 0.262068
O O3 0.415302 0.777430 0.235389
O O4 0.545383 0.774393 0.315312
O O5 0.750000 0.207558 0.452110
O O6 0.000000 0.286884 0.500000
O O7 0.007698 0.275264 0.405979
O O8 0.004200 0.000000 0.453741
O O9 0.418729 0.277048 0.083547
O O10 0.250000 0.247472 0.159039
O O11 0.250000 0.000000 0.099394
O O12 0.250000 0.275178 0.942402
O O13 0.433894 0.000000 0.948632
O O14 0.500000 0.264243 0.000000
O O15 0.250000 0.500000 0.216968
O O16 0.750000 0.786815 0.648455
O O17 0.918349 0.500000 0.653203
#
# Coordination Sequence:
#
# PCOD9401816 Si02
#       6
#     8   8   4   8   4   8
#     4   9  17  32  55  78 100 131 172 217 258 303
#     4  10  21  36  52  72 102 139 174 206 251 316
#     4  10  20  32  50  78 108 134 168 218 265 298
#     4   9  15  26  47  75 103 133 172 214 255 303
#     4  10  20  36  54  74 104 140 178 210 253 318
#     4  10  19  33  55  81 103 126 167 220 265 305
#
# _framework density 21.713069999999998
#
# number of rings (size 3 to 8) (size 9 to 14) (size 15 to 20)
#    0.000    2.400    2.000    1.200    0.000    3.600 
#    0.000    1.000    0.000    1.800    0.000    0.000 
#    0.000    0.000    0.000    0.000    0.000    0.000 
#
# Total GULP energy -223206.452861 kJ/mol
# GULP energy per Si atom -5580.161322 kJ/mol
# Density = 2.166365 g / cm^3
# Si number density = 21.713070 Si / 1000 Ang^3
#
#
#
# Elastic Constant Matrix: (Units=GPa)
#
#
# Indices 1 2 3 4 5 6 
#
# 1 204.5009 9.9958 109.2044 0.0000 0.0000 0.0000
# 2 9.9958 46.7271 -4.4253 0.0000 0.0000 0.0000
# 3 109.2044 -4.4253 158.0840 0.0000 0.0000 0.0000
# 4 0.0000 0.0000 0.0000 4.3083 0.0000 0.0000
# 5 0.0000 0.0000 0.0000 0.0000 28.0724 0.0000
# 6 0.0000 0.0000 0.0000 0.0000 0.0000 1.6996
#
#
#
# Elastic Compliance Matrix: (Units=1/GPa)
#
#
# Indices 1 2 3 4 5 6 
#
# 1 0.007974 -0.002233 -0.005571 0.000000 0.000000 0.000000
# 2 -0.002233 0.022083 0.002161 0.000000 0.000000 0.000000
# 3 -0.005571 0.002161 0.010235 0.000000 0.000000 0.000000
# 4 0.000000 0.000000 0.000000 0.232111 0.000000 0.000000
# 5 0.000000 0.000000 0.000000 0.000000 0.035622 0.000000
# 6 0.000000 0.000000 0.000000 0.000000 0.000000 0.588389
#
#
# Mechanical properties :
#
#
# Convention : Reuss Voigt Hill
#
# Bulk Modulus (GPa) = 34.47646 70.98462 52.73054
# Shear Modulus (GPa) = 5.45037 26.45186 15.95111
#
# Velocity S-wave (km/s) = 1.58607 3.49412 2.71335
# Velocity P-wave (km/s) = 4.38940 7.00297 5.84416
#
# Compressibility (1/GPa) = 0.02900529
#
# Stress axis : x y z
#
# Youngs Moduli (GPa) = 125.40666 45.28309 97.70691
#
# Poissons Ratio (x) = 0.10114 0.54433
# Poissons Ratio (y) = 0.28008 -0.21115
# Poissons Ratio (z) = 0.69864 -0.09786
#
# Static dielectric constant tensor:
#      x y z
#    x 1.776310 0.000000 0.000000 
#    y 0.000000 1.833280 0.000000 
#    z 0.000000 0.000000 1.766560 
# 
# From -- ./inp_files/36094.got.cif
#   From: 2010.05.17/outbox.cif.g08.bks.cpg/sg51_19_cif.got.tgz:36094.got - 2010.06.03 11:52:47.
