data_PCOD9401544
_publ_section_title
;
Structure prediction by ZEFSAII (Michael W. Deem and Ramdas Pophale) SiO2 
 PCOD9401544
Probable space group: P M M A
;
_chemical_formula_sum "Si O2"
_cell_formula_units_Z 64
_cell_length_a 13.983638
_cell_length_b 23.676203
_cell_length_c 9.794747
_cell_angle_alpha 90.000000
_cell_angle_beta 90.000000
_cell_angle_gamma 90.000000
_cell_volume 3242.839469
_symmetry_space_group_name_H-M "P M M A"
_symmetry_group_IT_number 51
_symmetry_cell_setting 'orthorhombic'
loop_
_space_group_symop_operation_xyz
x,y,z
1/2-x,-y,z
1/2+x,-y,-z
-x,y,-z
-x,-y,-z
1/2+x,y,-z
1/2-x,y,z
x,-y,z
loop_
_atom_site_type_symbol
_atom_site_label
_atom_site_fract_x
_atom_site_fract_y
_atom_site_fract_z
Si Si1 0.019909 0.897314 0.353076
Si Si2 0.360053 0.785695 0.425933
Si Si3 0.645436 0.567388 0.093890
Si Si4 0.063339 0.433190 0.204608
Si Si5 0.363053 0.858567 0.852095
Si Si6 0.536950 0.675479 0.653815
Si Si7 0.363546 0.062464 0.101543
Si Si8 0.860586 0.741010 0.261826
O O1 0.074097 0.838263 0.386264
O O2 0.084646 0.930130 0.245170
O O3 0.000000 0.924436 0.500000
O O4 0.922765 0.884921 0.271431
O O5 0.250000 0.799193 0.397361
O O6 0.394063 0.729791 0.346617
O O7 0.368263 0.769617 0.586772
O O8 0.750000 0.591611 0.130097
O O9 0.655041 0.500000 0.096604
O O10 0.615877 0.580030 0.937999
O O11 0.550693 0.575814 0.183245
O O12 0.079815 0.500000 0.238028
O O13 0.088405 0.382608 0.305776
O O14 0.250000 0.867520 0.830446
O O15 0.378883 0.791237 0.845652
O O16 0.390031 0.889229 0.992834
O O17 0.500000 0.668474 0.500000
O O18 0.443444 0.694374 0.741334
O O19 0.250000 0.066611 0.122592
O O20 0.384281 0.000000 0.043900
O O21 0.750000 0.721778 0.248382
#
# Coordination Sequence:
#
# PCOD9401544 Si02
#       8
#     8   8   8   8   8   8   8   8
#     4  12  21  36  63  92 118 150 199 251 297 348
#     4  10  19  34  56  82 110 143 188 243 296 342
#     4   8  15  31  52  69  90 127 175 225 271 317
#     4   9  18  31  50  77 105 137 181 227 278 346
#     4  10  20  37  61  86 115 155 199 242 293 352
#     4  10  19  33  50  78 112 147 182 226 285 343
#     4  10  24  44  62  86 125 167 200 236 289 351
#     4   9  17  33  56  80 105 141 192 242 290 344
#
# _framework density 19.735790999999999
#
# number of rings (size 3 to 8) (size 9 to 14) (size 15 to 20)
#    0.000    2.250    2.500    1.875    0.000    3.000 
#    0.000    2.500    0.000    3.000    0.000    7.000 
#    0.000    0.000    0.000    0.000    0.000    0.000 
#
# Total GULP energy -356745.110429 kJ/mol
# GULP energy per Si atom -5574.142350 kJ/mol
# Density = 1.969087 g / cm^3
# Si number density = 19.735791 Si / 1000 Ang^3
#
#
#
# Elastic Constant Matrix: (Units=GPa)
#
#
# Indices 1 2 3 4 5 6 
#
# 1 59.6387 13.8706 8.5064 0.0000 0.0000 0.0000
# 2 13.8706 95.5289 34.4719 0.0000 0.0000 0.0000
# 3 8.5064 34.4719 59.0743 0.0000 0.0000 0.0000
# 4 0.0000 0.0000 0.0000 23.2478 0.0000 0.0000
# 5 0.0000 0.0000 0.0000 0.0000 53.3325 0.0000
# 6 0.0000 0.0000 0.0000 0.0000 0.0000 1.0477
#
#
#
# Elastic Compliance Matrix: (Units=1/GPa)
#
#
# Indices 1 2 3 4 5 6 
#
# 1 0.017433 -0.002059 -0.001309 0.000000 0.000000 0.000000
# 2 -0.002059 0.013503 -0.007583 0.000000 0.000000 0.000000
# 3 -0.001309 -0.007583 0.021541 0.000000 0.000000 0.000000
# 4 0.000000 0.000000 0.000000 0.043015 0.000000 0.000000
# 5 0.000000 0.000000 0.000000 0.000000 0.018750 0.000000
# 6 0.000000 0.000000 0.000000 0.000000 0.000000 0.954488
#
#
# Mechanical properties :
#
#
# Convention : Reuss Voigt Hill
#
# Bulk Modulus (GPa) = 32.70544 36.43776 34.57160
# Shear Modulus (GPa) = 4.54205 26.01847 15.28026
#
# Velocity S-wave (km/s) = 1.51869 3.63483 2.78554
# Velocity P-wave (km/s) = 4.43654 6.00990 5.28213
#
# Compressibility (1/GPa) = 0.03057595
#
# Stress axis : x y z
#
# Youngs Moduli (GPa) = 57.36188 74.05521 46.42229
#
# Poissons Ratio (x) = 0.15248 0.06076
# Poissons Ratio (y) = 0.11811 0.35203
# Poissons Ratio (z) = 0.07507 0.56158
#
# Static dielectric constant tensor:
#      x y z
#    x 1.747830 0.000000 0.000000 
#    y 0.000000 1.699580 0.000000 
#    z 0.000000 0.000000 1.702530 
# 
# From -- ./inp_files/8713.got.cif
#   From: 2010.05.17/outbox.cif.g08.bks.cpg/sg51_5_cif.got.tgz:8713.got - 2010.06.03 11:52:47.
