data_PCOD9401453
_publ_section_title
;
Structure prediction by ZEFSAII (Michael W. Deem and Ramdas Pophale) SiO2 
 PCOD9401453
Probable space group: P M M A
;
_chemical_formula_sum "Si O2"
_cell_formula_units_Z 48
_cell_length_a 19.164426
_cell_length_b 8.555492
_cell_length_c 15.267879
_cell_angle_alpha 90.000000
_cell_angle_beta 90.000000
_cell_angle_gamma 90.000000
_cell_volume 2503.338134
_symmetry_space_group_name_H-M "P M M A"
_symmetry_group_IT_number 51
_symmetry_cell_setting 'orthorhombic'
loop_
_space_group_symop_operation_xyz
x,y,z
1/2-x,-y,z
1/2+x,-y,-z
-x,y,-z
-x,-y,-z
1/2+x,y,-z
1/2-x,y,z
x,-y,z
loop_
_atom_site_type_symbol
_atom_site_label
_atom_site_fract_x
_atom_site_fract_y
_atom_site_fract_z
Si Si1 0.056854 0.310920 0.627301
Si Si2 0.329197 0.313303 0.969077
Si Si3 0.901897 0.689058 0.558866
Si Si4 0.828335 0.689205 0.728873
Si Si5 0.927425 0.186308 0.878375
Si Si6 0.419872 0.187123 0.820326
O O1 0.060411 0.500000 0.634924
O O2 0.100703 0.258372 0.541762
O O3 0.077766 0.237911 0.719260
O O4 0.976962 0.270393 0.601314
O O5 0.250000 0.257393 0.986762
O O6 0.328608 0.500000 0.973363
O O7 0.356435 0.258877 0.874656
O O8 0.384631 0.252627 0.039982
O O9 0.900818 0.500000 0.554514
O O10 0.844059 0.736707 0.628790
O O11 0.750000 0.731886 0.755148
O O12 0.834573 0.500000 0.734603
O O13 0.884669 0.764004 0.792448
O O14 0.007152 0.240680 0.865570
O O15 0.929119 0.000000 0.886589
O O16 0.416966 0.000000 0.825919
#
# Coordination Sequence:
#
# PCOD9401453 Si02
#       6
#     8   8   8   8   8   8
#     4   9  16  31  56  80 107 146 189 234 278 322
#     4  11  25  43  62  84 109 143 188 234 282 336
#     4   8  15  29  51  79 109 144 188 234 279 325
#     4  10  19  32  53  81 113 149 190 236 285 336
#     4  11  23  38  57  84 116 149 185 227 279 338
#     4  11  23  38  58  87 117 148 186 230 280 336
#
# _framework density 19.174396999999999
#
# number of rings (size 3 to 8) (size 9 to 14) (size 15 to 20)
#    0.000    2.000    1.667    3.500    0.000    7.667 
#    0.000    3.333    0.000    3.000    0.000    0.000 
#    0.000    0.000    0.000    0.000    0.000    0.000 
#
# Total GULP energy -267919.867995 kJ/mol
# GULP energy per Si atom -5581.663917 kJ/mol
# Density = 1.913076 g / cm^3
# Si number density = 19.174397 Si / 1000 Ang^3
#
#
#
# Elastic Constant Matrix: (Units=GPa)
#
#
# Indices 1 2 3 4 5 6 
#
# 1 40.7395 10.1433 18.8178 0.0000 0.0000 0.0000
# 2 10.1433 20.8120 9.0932 0.0000 0.0000 0.0000
# 3 18.8178 9.0932 110.6973 0.0000 0.0000 0.0000
# 4 0.0000 0.0000 0.0000 125.5534 0.0000 0.0000
# 5 0.0000 0.0000 0.0000 0.0000 13.4230 0.0000
# 6 0.0000 0.0000 0.0000 0.0000 0.0000 16.3150
#
#
#
# Elastic Compliance Matrix: (Units=1/GPa)
#
#
# Indices 1 2 3 4 5 6 
#
# 1 0.029536 -0.012656 -0.003981 0.000000 0.000000 0.000000
# 2 -0.012656 0.055261 -0.002388 0.000000 0.000000 0.000000
# 3 -0.003981 -0.002388 0.009907 0.000000 0.000000 0.000000
# 4 0.000000 0.000000 0.000000 0.007965 0.000000 0.000000
# 5 0.000000 0.000000 0.000000 0.000000 0.074499 0.000000
# 6 0.000000 0.000000 0.000000 0.000000 0.000000 0.061293
#
#
# Mechanical properties :
#
#
# Convention : Reuss Voigt Hill
#
# Bulk Modulus (GPa) = 17.65122 27.59528 22.62325
# Shear Modulus (GPa) = 16.92648 40.00459 28.46553
#
# Velocity S-wave (km/s) = 2.97436 4.57262 3.85718
# Velocity P-wave (km/s) = 4.58490 6.50395 5.62685
#
# Compressibility (1/GPa) = 0.05665332
#
# Stress axis : x y z
#
# Youngs Moduli (GPa) = 33.85664 18.09603 100.94270
#
# Poissons Ratio (x) = 0.22902 0.40189
# Poissons Ratio (y) = 0.42848 0.24105
# Poissons Ratio (z) = 0.13480 0.04321
#
# Static dielectric constant tensor:
#      x y z
#    x 1.664950 0.000000 0.000000 
#    y 0.000000 1.654860 0.000000 
#    z 0.000000 0.000000 1.680800 
# 
# From -- ./inp_files/24712.got.cif
#   From: 2010.05.17/outbox.cif.g08.bks.cpg/sg51_13_cif.got.tgz:24712.got - 2010.06.03 11:52:47.
