data_PCOD9401403
_publ_section_title
;
Structure prediction by ZEFSAII (Michael W. Deem and Ramdas Pophale) SiO2 
 PCOD9401403
Probable space group: P M M A
;
_chemical_formula_sum "Si O2"
_cell_formula_units_Z 64
_cell_length_a 18.925674
_cell_length_b 7.467019
_cell_length_c 20.884768
_cell_angle_alpha 90.000000
_cell_angle_beta 90.000000
_cell_angle_gamma 90.000000
_cell_volume 2951.401316
_symmetry_space_group_name_H-M "P M M A"
_symmetry_group_IT_number 51
_symmetry_cell_setting 'orthorhombic'
loop_
_space_group_symop_operation_xyz
x,y,z
1/2-x,-y,z
1/2+x,-y,-z
-x,y,-z
-x,-y,-z
1/2+x,y,-z
1/2-x,y,z
x,-y,z
loop_
_atom_site_type_symbol
_atom_site_label
_atom_site_fract_x
_atom_site_fract_y
_atom_site_fract_z
Si Si1 0.089348 0.781367 0.938885
Si Si2 0.088500 0.292491 0.324288
Si Si3 0.427887 0.782569 0.700739
Si Si4 0.170938 0.781344 0.816695
Si Si5 0.669695 0.215710 0.417108
Si Si6 0.170470 0.714096 0.201778
Si Si7 0.070803 0.214660 0.081223
Si Si8 0.928741 0.712189 0.533761
O O1 0.146210 0.723577 0.886899
O O2 0.010890 0.725132 0.915964
O O3 0.090058 0.000000 0.939072
O O4 0.099877 0.722765 0.012149
O O5 0.110402 0.500000 0.331245
O O6 0.136550 0.214028 0.267761
O O7 0.087829 0.212644 0.395856
O O8 0.007415 0.285124 0.301482
O O9 0.385470 0.726033 0.763637
O O10 0.383201 0.722930 0.638796
O O11 0.431210 0.000000 0.700059
O O12 0.250000 0.722617 0.801040
O O13 0.171245 0.000000 0.815866
O O14 0.750000 0.280598 0.409614
O O15 0.635376 0.263770 0.484846
O O16 0.671794 0.000000 0.412675
O O17 0.250000 0.782037 0.190643
O O18 0.174730 0.500000 0.208659
O O19 0.118748 0.743006 0.141786
O O20 0.067634 0.000000 0.077985
O O21 0.941607 0.500000 0.542786
O O22 0.000000 0.785654 0.500000
#
# Coordination Sequence:
#
# PCOD9401403 Si02
#       8
#     8   8   8   8   8   8   8   8
#     4   8  15  28  48  76 107 134 166 213 262 302
#     4  10  21  37  57  77 100 132 172 216 259 310
#     4  10  19  32  53  78 104 135 170 210 253 301
#     4   9  16  26  43  70 103 136 169 203 244 299
#     4  10  21  35  52  79 113 143 170 206 259 318
#     4  10  22  38  53  73 104 140 175 214 265 318
#     4   9  17  32  54  78 103 132 171 218 260 302
#     4  10  20  36  57  80 103 132 177 224 261 307
#
# _framework density 21.684612999999999
#
# number of rings (size 3 to 8) (size 9 to 14) (size 15 to 20)
#    0.000    2.500    1.250    1.875    0.000    5.250 
#    0.000    3.750    0.000    1.875    0.000    0.000 
#    0.000    0.000    0.000    0.000    0.000    0.000 
#
# Total GULP energy -357401.017308 kJ/mol
# GULP energy per Si atom -5584.390895 kJ/mol
# Density = 2.163526 g / cm^3
# Si number density = 21.684613 Si / 1000 Ang^3
#
#
#
# Elastic Constant Matrix: (Units=GPa)
#
#
# Indices 1 2 3 4 5 6 
#
# 1 55.3471 -6.3212 32.2815 0.0000 0.0000 0.0000
# 2 -6.3212 60.9631 3.5130 0.0000 0.0000 0.0000
# 3 32.2815 3.5130 129.2554 0.0000 0.0000 0.0000
# 4 0.0000 0.0000 0.0000 -24.9559 0.0000 0.0000
# 5 0.0000 0.0000 0.0000 0.0000 6.5231 0.0000
# 6 0.0000 0.0000 0.0000 0.0000 0.0000 18.3053
#
#
#
# Elastic Compliance Matrix: (Units=1/GPa)
#
#
# Indices 1 2 3 4 5 6 
#
# 1 0.021536 0.002547 -0.005448 0.000000 0.000000 0.000000
# 2 0.002547 0.016730 -0.001091 0.000000 0.000000 0.000000
# 3 -0.005448 -0.001091 0.009127 0.000000 0.000000 0.000000
# 4 0.000000 0.000000 0.000000 -0.040071 0.000000 0.000000
# 5 0.000000 0.000000 0.000000 0.000000 0.153301 0.000000
# 6 0.000000 0.000000 0.000000 0.000000 0.000000 0.054629
#
#
# Mechanical properties :
#
#
# Convention : Reuss Voigt Hill
#
# Bulk Modulus (GPa) = 25.37430 33.83470 29.60450
# Shear Modulus (GPa) = 21.15305 14.38066 17.76686
#
# Velocity S-wave (km/s) = 3.12667 2.57801 2.86550
# Velocity P-wave (km/s) = 4.97611 4.94959 4.96287
#
# Compressibility (1/GPa) = 0.03940996
#
# Stress axis : x y z
#
# Youngs Moduli (GPa) = 46.43344 59.77176 109.56653
#
# Poissons Ratio (x) = -0.15224 0.59691
# Poissons Ratio (y) = -0.11827 0.11952
# Poissons Ratio (z) = 0.25296 0.06520
#
# Static dielectric constant tensor:
#      x y z
#    x 1.749580 0.000000 0.000000 
#    y 0.000000 1.854320 0.000000 
#    z 0.000000 0.000000 1.779930 
# 
# From -- ./inp_files/33767.got.cif
#   From: 2010.05.17/outbox.cif.g08.bks.cpg/sg51_17_cif.got.tgz:33767.got - 2010.06.03 11:52:47.
