data_PCOD9401218
_publ_section_title
;
Structure prediction by ZEFSAII (Michael W. Deem and Ramdas Pophale) SiO2 
 PCOD9401218
Probable space group: P M M A
;
_chemical_formula_sum "Si O2"
_cell_formula_units_Z 44
_cell_length_a 8.474455
_cell_length_b 30.142192
_cell_length_c 9.153542
_cell_angle_alpha 90.000000
_cell_angle_beta 90.000000
_cell_angle_gamma 90.000000
_cell_volume 2338.168409
_symmetry_space_group_name_H-M "P M M A"
_symmetry_group_IT_number 51
_symmetry_cell_setting 'orthorhombic'
loop_
_space_group_symop_operation_xyz
x,y,z
1/2-x,-y,z
1/2+x,-y,-z
-x,y,-z
-x,-y,-z
1/2+x,y,-z
1/2-x,y,z
x,-y,z
loop_
_atom_site_type_symbol
_atom_site_label
_atom_site_fract_x
_atom_site_fract_y
_atom_site_fract_z
Si Si1 0.439613 0.240057 0.333274
Si Si2 0.938029 0.500000 0.835063
Si Si3 0.441044 0.047740 0.331845
Si Si4 0.439515 0.413911 0.664984
Si Si5 0.059423 0.143077 0.332632
Si Si6 0.438925 0.325620 0.835677
O O1 0.500000 0.244076 0.500000
O O2 0.250000 0.241544 0.335330
O O3 0.490592 0.191259 0.273698
O O4 0.502670 0.280541 0.238982
O O5 0.750000 0.500000 0.835459
O O6 0.998633 0.543657 0.752443
O O7 0.000000 0.500000 0.000000
O O8 0.500000 0.047751 0.500000
O O9 0.250000 0.047719 0.332597
O O10 0.493008 0.095466 0.267276
O O11 0.493064 0.000000 0.267574
O O12 0.500000 0.415137 0.500000
O O13 0.250000 0.414962 0.664958
O O14 0.492500 0.368462 0.743200
O O15 0.250000 0.142992 0.332904
O O16 0.000000 0.142944 0.500000
O O17 0.250000 0.325511 0.836694
O O18 0.500000 0.329013 0.000000
#
# Coordination Sequence:
#
# PCOD9401218 Si02
#       6
#     8   4   8   8   8   8
#     4  10  19  32  51  74 103 137 175 218 263 315
#     4  12  25  42  65  92 124 158 192 230 271 316
#     4   8  12  18  29  47  75 112 153 195 240 293
#     4  11  24  42  64  90 119 151 187 226 268 315
#     4   8  14  23  36  57  85 120 160 202 249 300
#     4  11  24  40  59  82 109 141 178 221 270 322
#
# _framework density 18.818148999999998
#
# number of rings (size 3 to 8) (size 9 to 14) (size 15 to 20)
#    0.000    2.182    0.000    3.818    0.000    6.545 
#    0.000    0.000    0.000    0.000    0.000    0.000 
#    0.000    0.727    0.000    1.273    0.000    9.091 
#
# Total GULP energy -245293.441702 kJ/mol
# GULP energy per Si atom -5574.850948 kJ/mol
# Density = 1.877532 g / cm^3
# Si number density = 18.818149 Si / 1000 Ang^3
#
#
#
# Elastic Constant Matrix: (Units=GPa)
#
#
# Indices 1 2 3 4 5 6 
#
# 1 41.7310 41.8495 23.3831 0.0000 0.0000 0.0000
# 2 41.8495 250.9049 87.5347 0.0000 0.0000 0.0000
# 3 23.3831 87.5347 98.2739 0.0000 0.0000 0.0000
# 4 0.0000 0.0000 0.0000 -9.8394 0.0000 0.0000
# 5 0.0000 0.0000 0.0000 0.0000 25.3713 0.0000
# 6 0.0000 0.0000 0.0000 0.0000 0.0000 27.8161
#
#
#
# Elastic Compliance Matrix: (Units=1/GPa)
#
#
# Indices 1 2 3 4 5 6 
#
# 1 0.029751 -0.003617 -0.003858 0.000000 0.000000 0.000000
# 2 -0.003617 0.006222 -0.004682 0.000000 0.000000 0.000000
# 3 -0.003858 -0.004682 0.015264 0.000000 0.000000 0.000000
# 4 0.000000 0.000000 0.000000 -0.101633 0.000000 0.000000
# 5 0.000000 0.000000 0.000000 0.000000 0.039415 0.000000
# 6 0.000000 0.000000 0.000000 0.000000 0.000000 0.035950
#
#
# Mechanical properties :
#
#
# Convention : Reuss Voigt Hill
#
# Bulk Modulus (GPa) = 37.13971 77.38270 57.26121
# Shear Modulus (GPa) = 85.82770 24.54578 55.18674
#
# Velocity S-wave (km/s) = 6.76077 3.61552 5.42125
# Velocity P-wave (km/s) = 8.98460 7.65767 8.34754
#
# Compressibility (1/GPa) = 0.02692536
#
# Stress axis : x y z
#
# Youngs Moduli (GPa) = 33.61195 160.71734 65.51547
#
# Poissons Ratio (x) = 0.58124 0.25274
# Poissons Ratio (y) = 0.12156 0.30672
# Poissons Ratio (z) = 0.12966 0.75242
#
# Static dielectric constant tensor:
#      x y z
#    x 1.643550 0.000000 0.000000 
#    y 0.000000 1.722740 0.000000 
#    z 0.000000 0.000000 1.591990 
# 
# From -- ./inp_files/5847.got.cif
#   From: 2010.05.17/outbox.cif.g08.bks.cpg/sg51_3_cif.got.tgz:5847.got - 2010.06.03 11:52:47.
