data_PCOD9401264
_publ_section_title
;
Structure prediction by ZEFSAII (Michael W. Deem and Ramdas Pophale) SiO2 
 PCOD9401264
Probable space group: P M M A
;
_chemical_formula_sum "Si O2"
_cell_formula_units_Z 64
_cell_length_a 19.275343
_cell_length_b 9.155377
_cell_length_c 21.925442
_cell_angle_alpha 90.000000
_cell_angle_beta 90.000000
_cell_angle_gamma 90.000000
_cell_volume 3869.249227
_symmetry_space_group_name_H-M "P M M A"
_symmetry_group_IT_number 51
_symmetry_cell_setting 'orthorhombic'
loop_
_space_group_symop_operation_xyz
x,y,z
1/2-x,-y,z
1/2+x,-y,-z
-x,y,-z
-x,-y,-z
1/2+x,y,-z
1/2-x,y,z
x,-y,z
loop_
_atom_site_type_symbol
_atom_site_label
_atom_site_fract_x
_atom_site_fract_y
_atom_site_fract_z
Si Si1 0.863244 0.833914 0.268527
Si Si2 0.667934 0.826439 0.898554
Si Si3 0.831727 0.673518 0.026381
Si Si4 0.437109 0.674451 0.193226
Si Si5 0.476475 0.832613 0.313292
Si Si6 0.824243 0.324827 0.389041
Si Si7 0.094589 0.674245 0.848771
Si Si8 0.024472 0.676097 0.567783
O O1 0.944074 0.836070 0.289037
O O2 0.827389 0.743007 0.321753
O O3 0.862210 0.757017 0.203203
O O4 0.838259 0.000000 0.265912
O O5 0.750000 0.799696 0.888004
O O6 0.621115 0.746359 0.848793
O O7 0.656024 0.000000 0.896954
O O8 0.651495 0.762398 0.965471
O O9 0.750000 0.696181 0.040804
O O10 0.841095 0.500000 0.014624
O O11 0.878624 0.714468 0.084203
O O12 0.429148 0.500000 0.196579
O O13 0.436760 0.743680 0.260851
O O14 0.513164 0.704315 0.163338
O O15 0.481053 0.753260 0.378558
O O16 0.452327 0.000000 0.318337
O O17 0.750000 0.283719 0.417660
O O18 0.826538 0.500000 0.384051
O O19 0.894667 0.280839 0.423272
O O20 0.104534 0.500000 0.841379
O O21 0.019215 0.500000 0.575288
O O22 0.000000 0.713695 0.500000
#
# Coordination Sequence:
#
# PCOD9401264 Si02
#       8
#     8   8   8   8   8   8   8   8
#     4   9  17  28  43  65  93 123 154 190 231 276
#     4  10  21  36  52  70  93 121 156 201 252 301
#     4   9  18  33  50  66  89 124 163 199 237 288
#     4  10  19  32  52  74  97 125 158 199 242 285
#     4   9  17  30  48  71  98 124 153 190 233 281
#     4   9  17  29  45  65  91 124 160 196 233 275
#     4   9  18  31  47  70  98 127 160 197 237 282
#     4   9  17  30  49  72  97 127 163 199 236 282
#
# _framework density 16.540676000000001
#
# number of rings (size 3 to 8) (size 9 to 14) (size 15 to 20)
#    0.000    2.750    0.000    1.500    0.000    6.250 
#    0.000    3.750    0.000    0.750    0.000    1.750 
#    0.000    0.000    0.000    0.000    0.000    0.000 
#
# Total GULP energy -356675.984536 kJ/mol
# GULP energy per Si atom -5573.062258 kJ/mol
# Density = 1.650303 g / cm^3
# Si number density = 16.540676 Si / 1000 Ang^3
#
#
#
# Elastic Constant Matrix: (Units=GPa)
#
#
# Indices 1 2 3 4 5 6 
#
# 1 63.1736 41.9619 68.7967 0.0000 0.0000 0.0000
# 2 41.9619 56.2491 68.0609 0.0000 0.0000 0.0000
# 3 68.7967 68.0609 157.2087 0.0000 0.0000 0.0000
# 4 0.0000 0.0000 0.0000 1.9526 0.0000 0.0000
# 5 0.0000 0.0000 0.0000 0.0000 12.2238 0.0000
# 6 0.0000 0.0000 0.0000 0.0000 0.0000 15.8021
#
#
#
# Elastic Compliance Matrix: (Units=1/GPa)
#
#
# Indices 1 2 3 4 5 6 
#
# 1 0.036323 -0.016515 -0.008746 0.000000 0.000000 0.000000
# 2 -0.016515 0.044846 -0.012188 0.000000 0.000000 0.000000
# 3 -0.008746 -0.012188 0.015465 0.000000 0.000000 0.000000
# 4 0.000000 0.000000 0.000000 0.512128 0.000000 0.000000
# 5 0.000000 0.000000 0.000000 0.000000 0.081808 0.000000
# 6 0.000000 0.000000 0.000000 0.000000 0.000000 0.063283
#
#
# Mechanical properties :
#
#
# Convention : Reuss Voigt Hill
#
# Bulk Modulus (GPa) = 46.00593 70.47450 58.24021
# Shear Modulus (GPa) = 5.98090 12.51651 9.24871
#
# Velocity S-wave (km/s) = 1.90361 2.75382 2.36720
# Velocity P-wave (km/s) = 5.71890 7.26709 6.53898
#
# Compressibility (1/GPa) = 0.02173633
#
# Stress axis : x y z
#
# Youngs Moduli (GPa) = 27.53053 22.29877 64.66328
#
# Poissons Ratio (x) = 0.36827 0.56552
# Poissons Ratio (y) = 0.45467 0.78811
# Poissons Ratio (z) = 0.24077 0.27177
#
# Static dielectric constant tensor:
#      x y z
#    x 1.569750 0.000000 0.000000 
#    y 0.000000 1.554180 0.000000 
#    z 0.000000 0.000000 1.523920 
# 
# From -- ./inp_files/33932.got.cif
#   From: 2010.05.17/outbox.cif.g08.bks.cpg/sg51_17_cif.got.tgz:33932.got - 2010.06.03 11:52:47.
