data_PCOD9401356
_publ_section_title
;
Structure prediction by ZEFSAII (Michael W. Deem and Ramdas Pophale) SiO2 
 PCOD9401356
Probable space group: P M M A
;
_chemical_formula_sum "Si O2"
_cell_formula_units_Z 64
_cell_length_a 30.347406
_cell_length_b 7.770830
_cell_length_c 12.998087
_cell_angle_alpha 90.000000
_cell_angle_beta 90.000000
_cell_angle_gamma 90.000000
_cell_volume 3065.267796
_symmetry_space_group_name_H-M "P M M A"
_symmetry_group_IT_number 51
_symmetry_cell_setting 'orthorhombic'
loop_
_space_group_symop_operation_xyz
x,y,z
1/2-x,-y,z
1/2+x,-y,-z
-x,y,-z
-x,-y,-z
1/2+x,y,-z
1/2-x,y,z
x,-y,z
loop_
_atom_site_type_symbol
_atom_site_label
_atom_site_fract_x
_atom_site_fract_y
_atom_site_fract_z
Si Si1 0.393218 0.205494 0.363847
Si Si2 0.422140 0.295479 0.583971
Si Si3 0.797248 0.795474 0.574209
Si Si4 0.674578 0.291387 0.350764
Si Si5 0.298176 0.292954 0.875296
Si Si6 0.107288 0.793336 0.949681
Si Si7 0.059500 0.211412 0.157071
Si Si8 0.962991 0.205915 0.212788
O O1 0.422182 0.236458 0.466145
O O2 0.343610 0.275590 0.382796
O O3 0.415549 0.269774 0.260052
O O4 0.389268 0.000000 0.353822
O O5 0.420607 0.500000 0.581429
O O6 0.375668 0.231291 0.631709
O O7 0.458828 0.244318 0.666234
O O8 0.750000 0.725233 0.611346
O O9 0.799932 0.768965 0.451512
O O10 0.797270 0.000000 0.594379
O O11 0.675217 0.500000 0.350572
O O12 0.693219 0.231718 0.241860
O O13 0.250000 0.231439 0.910932
O O14 0.296679 0.500000 0.871542
O O15 0.341309 0.247701 0.939886
O O16 0.084387 0.731837 0.054338
O O17 0.103945 0.000000 0.949120
O O18 0.078917 0.726856 0.852075
O O19 0.008792 0.267776 0.164624
O O20 0.059352 0.000000 0.156530
O O21 0.962843 0.000000 0.203190
#
# Coordination Sequence:
#
# PCOD9401356 Si02
#       8
#     8   8   8   8   8   8   8   8
#     4   9  18  34  53  72 102 139 175 210 256 315
#     4  10  19  32  52  78 109 136 166 210 260 309
#     4   9  17  28  45  71  98 125 163 210 254 295
#     4   9  17  30  48  70 100 135 166 198 245 308
#     4  10  20  34  52  75 106 142 174 206 257 320
#     4  10  20  35  56  80 106 134 175 227 265 300
#     4   9  19  36  56  77 101 138 181 219 261 313
#     4  10  19  33  56  81 105 135 174 217 266 318
#
# _framework density 20.879090000000001
#
# number of rings (size 3 to 8) (size 9 to 14) (size 15 to 20)
#    0.000    2.500    1.250    1.125    0.000    4.000 
#    0.000    5.000    0.000    3.750    0.000    0.000 
#    0.000    0.000    0.000    0.000    0.000    0.000 
#
# Total GULP energy -357099.555689 kJ/mol
# GULP energy per Si atom -5579.680558 kJ/mol
# Density = 2.083157 g / cm^3
# Si number density = 20.879090 Si / 1000 Ang^3
#
#
#
# Elastic Constant Matrix: (Units=GPa)
#
#
# Indices 1 2 3 4 5 6 
#
# 1 69.1666 1.2380 27.3540 0.0000 0.0000 0.0000
# 2 1.2380 26.1539 -1.0834 0.0000 0.0000 0.0000
# 3 27.3540 -1.0834 86.5523 0.0000 0.0000 0.0000
# 4 0.0000 0.0000 0.0000 2032.3323 0.0000 0.0000
# 5 0.0000 0.0000 0.0000 0.0000 -4.5658 0.0000
# 6 0.0000 0.0000 0.0000 0.0000 0.0000 -9.2449
#
#
#
# Elastic Compliance Matrix: (Units=1/GPa)
#
#
# Indices 1 2 3 4 5 6 
#
# 1 0.016549 -0.001001 -0.005243 0.000000 0.000000 0.000000
# 2 -0.001001 0.038316 0.000796 0.000000 0.000000 0.000000
# 3 -0.005243 0.000796 0.013221 0.000000 0.000000 0.000000
# 4 0.000000 0.000000 0.000000 0.000492 0.000000 0.000000
# 5 0.000000 0.000000 0.000000 0.000000 -0.219018 0.000000
# 6 0.000000 0.000000 0.000000 0.000000 0.000000 -0.108167
#
#
# Mechanical properties :
#
#
# Convention : Reuss Voigt Hill
#
# Bulk Modulus (GPa) = 17.48546 26.32110 21.90328
# Shear Modulus (GPa) = -21.86746 413.99526 196.06390
#
# Velocity S-wave (km/s) = -3.23977 14.09655 9.70094
# Velocity P-wave (km/s) = 2.36686 16.66085 11.66152
#
# Compressibility (1/GPa) = 0.05719038
#
# Stress axis : x y z
#
# Youngs Moduli (GPa) = 60.42616 26.09909 75.63971
#
# Poissons Ratio (x) = 0.02611 0.39656
# Poissons Ratio (y) = 0.06046 -0.06020
# Poissons Ratio (z) = 0.31680 -0.02077
#
# Static dielectric constant tensor:
#      x y z
#    x 1.794090 0.000000 0.000000 
#    y 0.000000 1.765490 0.000000 
#    z 0.000000 0.000000 1.727830 
# 
# From -- ./inp_files/19436.got.cif
#   From: 2010.05.17/outbox.cif.g08.bks.cpg/sg51_10_cif.got.tgz:19436.got - 2010.06.03 11:52:47.
