data_PCOD9401446
_publ_section_title
;
Structure prediction by ZEFSAII (Michael W. Deem and Ramdas Pophale) SiO2 
 PCOD9401446
Probable space group: P M M A
;
_chemical_formula_sum "Si O2"
_cell_formula_units_Z 56
_cell_length_a 8.820021
_cell_length_b 20.576616
_cell_length_c 15.815664
_cell_angle_alpha 90.000000
_cell_angle_beta 90.000000
_cell_angle_gamma 90.000000
_cell_volume 2870.324526
_symmetry_space_group_name_H-M "P M M A"
_symmetry_group_IT_number 51
_symmetry_cell_setting 'orthorhombic'
loop_
_space_group_symop_operation_xyz
x,y,z
1/2-x,-y,z
1/2+x,-y,-z
-x,y,-z
-x,-y,-z
1/2+x,y,-z
1/2-x,y,z
x,-y,z
loop_
_atom_site_type_symbol
_atom_site_label
_atom_site_fract_x
_atom_site_fract_y
_atom_site_fract_z
Si Si1 0.429125 0.075258 0.764508
Si Si2 0.928980 0.883584 0.587200
Si Si3 0.067559 0.429661 0.232180
Si Si4 0.426906 0.601973 0.587225
Si Si5 0.930452 0.164608 0.910161
Si Si6 0.426520 0.751302 0.632748
Si Si7 0.432644 0.711931 0.189653
O O1 0.250000 0.089054 0.760880
O O2 0.499179 0.086819 0.671919
O O3 0.505326 0.121126 0.834068
O O4 0.450787 0.000000 0.788036
O O5 0.750000 0.893104 0.587033
O O6 0.000000 0.909059 0.500000
O O7 0.970004 0.806951 0.593288
O O8 0.250000 0.429781 0.234124
O O9 0.016118 0.500000 0.198617
O O10 0.022249 0.363820 0.183257
O O11 0.008594 0.422552 0.328209
O O12 0.500000 0.579004 0.500000
O O13 0.250000 0.584976 0.590701
O O14 0.439474 0.680573 0.590791
O O15 0.750000 0.157293 0.912811
O O16 0.965948 0.239838 0.887135
O O17 0.000000 0.146529 0.000000
O O18 0.250000 0.771505 0.629455
O O19 0.481595 0.740295 0.728728
O O20 0.250000 0.714799 0.205088
#
# Coordination Sequence:
#
# PCOD9401446 Si02
#       7
#     8   8   8   8   8   8   8
#     4  11  25  45  67  92 125 162 201 249 302 359
#     4  12  24  38  59  87 121 163 208 253 299 353
#     4   9  18  33  53  76 105 145 191 239 293 353
#     4  10  20  31  45  69 102 143 190 243 297 350
#     4  11  23  40  66  97 126 159 198 246 301 364
#     4  10  19  32  53  80 111 149 194 246 302 353
#     4   9  18  34  57  85 115 150 193 241 295 351
#
# _framework density 19.509989999999998
#
# number of rings (size 3 to 8) (size 9 to 14) (size 15 to 20)
#    0.000    1.714    1.429    3.429    0.000    5.714 
#    0.000    0.000    0.000    0.429    0.000    0.000 
#    0.000    0.000    0.000    0.000    0.000    0.143 
#
# Total GULP energy -312823.596047 kJ/mol
# GULP energy per Si atom -5586.135644 kJ/mol
# Density = 1.946558 g / cm^3
# Si number density = 19.509990 Si / 1000 Ang^3
#
#
#
# Elastic Constant Matrix: (Units=GPa)
#
#
# Indices 1 2 3 4 5 6 
#
# 1 68.4249 37.3950 41.5140 0.0000 0.0000 0.0000
# 2 37.3950 99.4686 44.8457 0.0000 0.0000 0.0000
# 3 41.5140 44.8457 107.3599 0.0000 0.0000 0.0000
# 4 0.0000 0.0000 0.0000 -7.1835 0.0000 0.0000
# 5 0.0000 0.0000 0.0000 0.0000 26.0591 0.0000
# 6 0.0000 0.0000 0.0000 0.0000 0.0000 16.4988
#
#
#
# Elastic Compliance Matrix: (Units=1/GPa)
#
#
# Indices 1 2 3 4 5 6 
#
# 1 0.021101 -0.005241 -0.005970 0.000000 0.000000 0.000000
# 2 -0.005241 0.013688 -0.003691 0.000000 0.000000 0.000000
# 3 -0.005970 -0.003691 0.013165 0.000000 0.000000 0.000000
# 4 0.000000 0.000000 0.000000 -0.139208 0.000000 0.000000
# 5 0.000000 0.000000 0.000000 0.000000 0.038374 0.000000
# 6 0.000000 0.000000 0.000000 0.000000 0.000000 0.060611
#
#
# Mechanical properties :
#
#
# Convention : Reuss Voigt Hill
#
# Bulk Modulus (GPa) = 55.09877 58.08475 56.59176
# Shear Modulus (GPa) = 114.72027 17.17480 65.94753
#
# Velocity S-wave (km/s) = 7.67649 2.97022 5.82025
# Velocity P-wave (km/s) = 10.33798 6.44976 8.61607
#
# Compressibility (1/GPa) = 0.01814923
#
# Stress axis : x y z
#
# Youngs Moduli (GPa) = 47.39096 73.05700 75.96065
#
# Poissons Ratio (x) = 0.38291 0.45349
# Poissons Ratio (y) = 0.24839 0.28037
# Poissons Ratio (z) = 0.28293 0.26965
#
# Static dielectric constant tensor:
#      x y z
#    x 1.647550 0.000000 0.000000 
#    y 0.000000 1.736820 0.000000 
#    z 0.000000 0.000000 1.646850 
# 
# From -- ./inp_files/21837.got.cif
#   From: 2010.05.17/outbox.cif.g08.bks.cpg/sg51_11_cif.got.tgz:21837.got - 2010.06.03 11:52:47.
