data_PCOD9401200
_publ_section_title
;
Structure prediction by ZEFSAII (Michael W. Deem and Ramdas Pophale) SiO2 
 PCOD9401200
Probable space group: P M M A
;
_chemical_formula_sum "Si O2"
_cell_formula_units_Z 48
_cell_length_a 16.546444
_cell_length_b 17.064901
_cell_length_c 9.342683
_cell_angle_alpha 90.000000
_cell_angle_beta 90.000000
_cell_angle_gamma 90.000000
_cell_volume 2638.032006
_symmetry_space_group_name_H-M "P M M A"
_symmetry_group_IT_number 51
_symmetry_cell_setting 'orthorhombic'
loop_
_space_group_symop_operation_xyz
x,y,z
1/2-x,-y,z
1/2+x,-y,-z
-x,y,-z
-x,-y,-z
1/2+x,y,-z
1/2-x,y,z
x,-y,z
loop_
_atom_site_type_symbol
_atom_site_label
_atom_site_fract_x
_atom_site_fract_y
_atom_site_fract_z
Si Si1 0.387705 0.188104 0.710478
Si Si2 0.848359 0.413078 0.199020
Si Si3 0.341561 0.330943 0.522153
Si Si4 0.653030 0.911982 0.540277
Si Si5 0.654515 0.736806 0.011059
Si Si6 0.425077 0.767452 0.291621
O O1 0.338129 0.253254 0.621636
O O2 0.375134 0.109498 0.620806
O O3 0.359244 0.194218 0.873140
O O4 0.480106 0.216165 0.702176
O O5 0.750000 0.411136 0.200564
O O6 0.874416 0.500000 0.155587
O O7 0.872209 0.394553 0.363388
O O8 0.872793 0.342959 0.092907
O O9 0.250000 0.349563 0.473754
O O10 0.397901 0.305350 0.391546
O O11 0.750000 0.907864 0.545727
O O12 0.617126 0.844913 0.642413
O O13 0.627585 0.000000 0.579078
O O14 0.750000 0.730525 0.978776
O O15 0.605220 0.751801 0.867893
#
# Coordination Sequence:
#
# PCOD9401200 Si02
#       6
#     8   8   8   8   8   8
#     4  10  19  32  51  73  99 132 169 202 239 296
#     4   8  15  29  50  74  98 129 170 211 249 293
#     4   9  16  29  50  71  94 127 166 204 242 292
#     4  10  20  35  55  77 102 132 166 204 246 294
#     4  10  19  33  53  73  99 134 171 209 248 299
#     4  11  20  31  50  77 105 129 162 209 256 296
#
# _framework density 18.195381000000001
#
# number of rings (size 3 to 8) (size 9 to 14) (size 15 to 20)
#    0.000    2.333    0.000    7.500    0.000    1.333 
#    0.000    1.667    0.000   25.000    0.000    0.000 
#    0.000    0.000    0.000    0.000    0.000    0.000 
#
# Total GULP energy -267563.460375 kJ/mol
# GULP energy per Si atom -5574.238758 kJ/mol
# Density = 1.815397 g / cm^3
# Si number density = 18.195381 Si / 1000 Ang^3
#
#
#
# Elastic Constant Matrix: (Units=GPa)
#
#
# Indices 1 2 3 4 5 6 
#
# 1 74.5039 11.5387 8.7444 0.0000 0.0000 0.0000
# 2 11.5387 83.8166 28.1207 0.0000 0.0000 0.0000
# 3 8.7444 28.1207 88.6984 0.0000 0.0000 0.0000
# 4 0.0000 0.0000 0.0000 19.1251 0.0000 0.0000
# 5 0.0000 0.0000 0.0000 0.0000 22.7131 0.0000
# 6 0.0000 0.0000 0.0000 0.0000 0.0000 6.2019
#
#
#
# Elastic Compliance Matrix: (Units=1/GPa)
#
#
# Indices 1 2 3 4 5 6 
#
# 1 0.013771 -0.001612 -0.000847 0.000000 0.000000 0.000000
# 2 -0.001612 0.013540 -0.004134 0.000000 0.000000 0.000000
# 3 -0.000847 -0.004134 0.012668 0.000000 0.000000 0.000000
# 4 0.000000 0.000000 0.000000 0.052287 0.000000 0.000000
# 5 0.000000 0.000000 0.000000 0.000000 0.044027 0.000000
# 6 0.000000 0.000000 0.000000 0.000000 0.000000 0.161241
#
#
# Mechanical properties :
#
#
# Convention : Reuss Voigt Hill
#
# Bulk Modulus (GPa) = 37.32083 38.20296 37.76189
# Shear Modulus (GPa) = 15.64209 22.84902 19.24555
#
# Velocity S-wave (km/s) = 2.93520 3.54751 3.25578
# Velocity P-wave (km/s) = 5.66064 6.14991 5.91034
#
# Compressibility (1/GPa) = 0.02679469
#
# Stress axis : x y z
#
# Youngs Moduli (GPa) = 72.61577 73.85771 78.93810
#
# Poissons Ratio (x) = 0.11904 0.06683
# Poissons Ratio (y) = 0.11704 0.32630
# Poissons Ratio (z) = 0.06148 0.30530
#
# Static dielectric constant tensor:
#      x y z
#    x 1.631450 0.000000 0.000000 
#    y 0.000000 1.654200 0.000000 
#    z 0.000000 0.000000 1.633950 
# 
# From -- ./inp_files/8236.got.cif
#   From: 2010.05.17/outbox.cif.g08.bks.cpg/sg51_5_cif.got.tgz:8236.got - 2010.06.03 11:52:47.
