data_PCOD9401193
_publ_section_title
;
Structure prediction by ZEFSAII (Michael W. Deem and Ramdas Pophale) SiO2 
 PCOD9401193
Probable space group: P M M A
;
_chemical_formula_sum "Si O2"
_cell_formula_units_Z 64
_cell_length_a 9.459411
_cell_length_b 28.080439
_cell_length_c 11.233279
_cell_angle_alpha 90.000000
_cell_angle_beta 90.000000
_cell_angle_gamma 90.000000
_cell_volume 2983.833147
_symmetry_space_group_name_H-M "P M M A"
_symmetry_group_IT_number 51
_symmetry_cell_setting 'orthorhombic'
loop_
_space_group_symop_operation_xyz
x,y,z
1/2-x,-y,z
1/2+x,-y,-z
-x,y,-z
-x,-y,-z
1/2+x,y,-z
1/2-x,y,z
x,-y,z
loop_
_atom_site_type_symbol
_atom_site_label
_atom_site_fract_x
_atom_site_fract_y
_atom_site_fract_z
Si Si1 0.912967 0.312465 0.341566
Si Si2 0.087702 0.079367 0.113645
Si Si3 0.579548 0.406339 0.614792
Si Si4 0.402245 0.186253 0.172701
Si Si5 0.085480 0.557394 0.118597
Si Si6 0.412111 0.291755 0.107569
Si Si7 0.087551 0.057432 0.383046
Si Si8 0.907492 0.797233 0.393358
O O1 0.750000 0.330233 0.336464
O O2 0.906213 0.260624 0.402035
O O3 0.021017 0.352472 0.385815
O O4 0.984666 0.300716 0.216443
O O5 0.250000 0.061711 0.109175
O O6 0.092249 0.136852 0.104731
O O7 0.033952 0.069877 0.249046
O O8 0.000000 0.061227 0.000000
O O9 0.500000 0.429545 0.500000
O O10 0.750000 0.408969 0.601045
O O11 0.542570 0.424982 0.748466
O O12 0.250000 0.187504 0.238924
O O13 0.402426 0.234379 0.096575
O O14 0.524851 0.189407 0.268297
O O15 0.250000 0.570807 0.103251
O O16 0.076427 0.500000 0.122696
O O17 0.000000 0.572727 0.000000
O O18 0.250000 0.308972 0.122001
O O19 0.500000 0.312949 0.000000
O O20 0.250000 0.075010 0.390207
O O21 0.000000 0.072856 0.500000
O O22 0.090499 0.000000 0.386987
O O23 0.750000 0.815006 0.401072
O O24 0.000000 0.816108 0.500000
#
# Coordination Sequence:
#
# PCOD9401193 Si02
#       8
#     8   8   8   8   8   8   8   8
#     4  10  21  36  53  75 105 142 184 229 279 331
#     4  10  21  36  55  82 114 146 182 225 275 330
#     4  11  23  38  58  86 119 153 190 233 281 335
#     4   9  19  34  50  71 102 138 177 224 273 323
#     4   9  20  40  64  89 117 149 186 229 278 333
#     4  10  19  32  51  73 100 137 182 230 278 329
#     4   9  19  37  59  82 110 144 182 225 273 327
#     4  10  20  33  51  73  99 136 181 228 276 328
#
# _framework density 21.448920999999999
#
# number of rings (size 3 to 8) (size 9 to 14) (size 15 to 20)
#    0.000    2.250    0.000    2.250    0.000    6.500 
#    0.000    2.500    0.000    0.000    0.000    0.000 
#    0.000    0.000    0.000    0.000    0.000    0.000 
#
# Total GULP energy -356700.576664 kJ/mol
# GULP energy per Si atom -5573.446510 kJ/mol
# Density = 2.140010 g / cm^3
# Si number density = 21.448921 Si / 1000 Ang^3
#
#
#
# Elastic Constant Matrix: (Units=GPa)
#
#
# Indices 1 2 3 4 5 6 
#
# 1 112.4606 -2.4978 70.6995 0.0000 0.0000 0.0000
# 2 -2.4978 56.9179 13.8795 0.0000 0.0000 0.0000
# 3 70.6995 13.8795 151.3128 0.0000 0.0000 0.0000
# 4 0.0000 0.0000 0.0000 6.0578 0.0000 0.0000
# 5 0.0000 0.0000 0.0000 0.0000 35.7980 0.0000
# 6 0.0000 0.0000 0.0000 0.0000 0.0000 6.7498
#
#
#
# Elastic Compliance Matrix: (Units=1/GPa)
#
#
# Indices 1 2 3 4 5 6 
#
# 1 0.012824 0.002070 -0.006182 0.000000 0.000000 0.000000
# 2 0.002070 0.018305 -0.002646 0.000000 0.000000 0.000000
# 3 -0.006182 -0.002646 0.009740 0.000000 0.000000 0.000000
# 4 0.000000 0.000000 0.000000 0.165076 0.000000 0.000000
# 5 0.000000 0.000000 0.000000 0.000000 0.027935 0.000000
# 6 0.000000 0.000000 0.000000 0.000000 0.000000 0.148153
#
#
# Mechanical properties :
#
#
# Convention : Reuss Voigt Hill
#
# Bulk Modulus (GPa) = 36.55839 53.87265 45.21552
# Shear Modulus (GPa) = 12.35583 25.62846 18.99214
#
# Velocity S-wave (km/s) = 2.40273 3.46042 2.97889
# Velocity P-wave (km/s) = 4.97784 6.41384 5.74091
#
# Compressibility (1/GPa) = 0.02735350
#
# Stress axis : x y z
#
# Youngs Moduli (GPa) = 77.97676 54.62887 102.66898
#
# Poissons Ratio (x) = -0.11310 0.63470
# Poissons Ratio (y) = -0.16143 0.27170
# Poissons Ratio (z) = 0.48205 0.14457
#
# Static dielectric constant tensor:
#      x y z
#    x 1.758750 0.000000 0.000000 
#    y 0.000000 1.824300 0.000000 
#    z 0.000000 0.000000 1.654260 
# 
# From -- ./inp_files/14852.got.cif
#   From: 2010.05.17/outbox.cif.g08.bks.cpg/sg51_8_cif.got.tgz:14852.got - 2010.06.03 11:52:47.
