data_PCOD9401813
_publ_section_title
;
Structure prediction by ZEFSAII (Michael W. Deem and Ramdas Pophale) SiO2 
 PCOD9401813
Probable space group: P M M A
;
_chemical_formula_sum "Si O2"
_cell_formula_units_Z 64
_cell_length_a 8.149367
_cell_length_b 27.138414
_cell_length_c 14.938602
_cell_angle_alpha 90.000000
_cell_angle_beta 90.000000
_cell_angle_gamma 90.000000
_cell_volume 3303.834596
_symmetry_space_group_name_H-M "P M M A"
_symmetry_group_IT_number 51
_symmetry_cell_setting 'orthorhombic'
loop_
_space_group_symop_operation_xyz
x,y,z
1/2-x,-y,z
1/2+x,-y,-z
-x,y,-z
-x,-y,-z
1/2+x,y,-z
1/2-x,y,z
x,-y,z
loop_
_atom_site_type_symbol
_atom_site_label
_atom_site_fract_x
_atom_site_fract_y
_atom_site_fract_z
Si Si1 0.054117 0.055634 0.100642
Si Si2 0.552491 0.184743 0.402419
Si Si3 0.440588 0.554675 0.787465
Si Si4 0.432679 0.558907 0.406003
Si Si5 0.447821 0.852201 0.785441
Si Si6 0.051875 0.756818 0.897227
Si Si7 0.548411 0.339752 0.211619
Si Si8 0.552566 0.701364 0.401304
O O1 0.250000 0.054397 0.102273
O O2 0.996029 0.096924 0.168946
O O3 0.991979 0.000000 0.119233
O O4 0.000000 0.068903 0.000000
O O5 0.500000 0.166766 0.500000
O O6 0.750000 0.185653 0.400766
O O7 0.494001 0.154443 0.316581
O O8 0.496987 0.241667 0.391925
O O9 0.250000 0.552030 0.813408
O O10 0.514262 0.500000 0.805765
O O11 0.452520 0.563244 0.680191
O O12 0.510134 0.606584 0.822625
O O13 0.500000 0.578030 0.500000
O O14 0.250000 0.578188 0.387270
O O15 0.417578 0.500000 0.417466
O O16 0.250000 0.849693 0.784517
O O17 0.506383 0.805238 0.843638
O O18 0.250000 0.756963 0.892960
O O19 0.996905 0.706474 0.848732
O O20 0.000000 0.758582 0.000000
O O21 0.750000 0.341109 0.211508
O O22 0.495929 0.328551 0.314144
O O23 0.500000 0.685021 0.500000
O O24 0.750000 0.700798 0.398925
#
# Coordination Sequence:
#
# PCOD9401813 Si02
#       8
#     8   8   8   8   8   8   8   8
#     4  10  21  36  54  79 112 148 184 222 264 309
#     4   9  17  30  49  74 103 137 173 211 255 303
#     4   9  17  29  46  66  85 114 159 202 242 294
#     4   9  16  26  40  58  83 115 149 188 233 280
#     4  10  19  33  55  80 108 141 177 215 259 309
#     4  10  20  35  53  75 102 131 163 203 255 310
#     4   9  17  32  51  68  95 131 160 197 251 305
#     4   9  16  29  47  67  94 129 164 199 243 295
#
# _framework density 19.37143
#
# number of rings (size 3 to 8) (size 9 to 14) (size 15 to 20)
#    0.000    2.625    1.250    1.125    0.000    4.750 
#    0.000    3.125    0.000    0.750    0.000    0.000 
#    0.000    0.000    0.000    0.000    0.000    0.000 
#
# Total GULP energy -356797.933267 kJ/mol
# GULP energy per Si atom -5574.967707 kJ/mol
# Density = 1.932734 g / cm^3
# Si number density = 19.371430 Si / 1000 Ang^3
#
#
#
# Elastic Constant Matrix: (Units=GPa)
#
#
# Indices 1 2 3 4 5 6 
#
# 1 14.0841 11.0689 8.2085 0.0000 0.0000 0.0000
# 2 11.0689 143.0026 86.4126 0.0000 0.0000 0.0000
# 3 8.2085 86.4126 119.1753 0.0000 0.0000 0.0000
# 4 0.0000 0.0000 0.0000 -9.1372 0.0000 0.0000
# 5 0.0000 0.0000 0.0000 0.0000 23.6637 0.0000
# 6 0.0000 0.0000 0.0000 0.0000 0.0000 22.5359
#
#
#
# Elastic Compliance Matrix: (Units=1/GPa)
#
#
# Indices 1 2 3 4 5 6 
#
# 1 0.075799 -0.004827 -0.001721 0.000000 0.000000 0.000000
# 2 -0.004827 0.012754 -0.008915 0.000000 0.000000 0.000000
# 3 -0.001721 -0.008915 0.014974 0.000000 0.000000 0.000000
# 4 0.000000 0.000000 0.000000 -0.109443 0.000000 0.000000
# 5 0.000000 0.000000 0.000000 0.000000 0.042259 0.000000
# 6 0.000000 0.000000 0.000000 0.000000 0.000000 0.044374
#
#
# Mechanical properties :
#
#
# Convention : Reuss Voigt Hill
#
# Bulk Modulus (GPa) = 13.77405 54.18244 33.97825
# Shear Modulus (GPa) = 36.80744 18.78394 27.79569
#
# Velocity S-wave (km/s) = 4.36373 3.11733 3.79209
# Velocity P-wave (km/s) = 5.70223 6.40219 6.06232
#
# Compressibility (1/GPa) = 0.07260030
#
# Stress axis : x y z
#
# Youngs Moduli (GPa) = 13.19280 78.40897 66.78385
#
# Poissons Ratio (x) = 0.37852 0.11490
# Poissons Ratio (y) = 0.06369 0.59538
# Poissons Ratio (z) = 0.02270 0.69902
#
# Static dielectric constant tensor:
#      x y z
#    x 1.696480 0.000000 0.000000 
#    y 0.000000 1.720060 0.000000 
#    z 0.000000 0.000000 1.660750 
# 
# From -- ./inp_files/22344.got.cif
#   From: 2010.05.17/outbox.cif.g08.bks.cpg/sg51_12_cif.got.tgz:22344.got - 2010.06.03 11:52:47.
