data_PCOD9401448
_publ_section_title
;
Structure prediction by ZEFSAII (Michael W. Deem and Ramdas Pophale) SiO2 
 PCOD9401448
Probable space group: P M M A
;
_chemical_formula_sum "Si O2"
_cell_formula_units_Z 64
_cell_length_a 8.766731
_cell_length_b 15.648359
_cell_length_c 25.781643
_cell_angle_alpha 90.000000
_cell_angle_beta 90.000000
_cell_angle_gamma 90.000000
_cell_volume 3536.853508
_symmetry_space_group_name_H-M "P M M A"
_symmetry_group_IT_number 51
_symmetry_cell_setting 'orthorhombic'
loop_
_space_group_symop_operation_xyz
x,y,z
1/2-x,-y,z
1/2+x,-y,-z
-x,y,-z
-x,-y,-z
1/2+x,y,-z
1/2-x,y,z
x,-y,z
loop_
_atom_site_type_symbol
_atom_site_label
_atom_site_fract_x
_atom_site_fract_y
_atom_site_fract_z
Si Si1 0.565943 0.901620 0.443459
Si Si2 0.065481 0.218795 0.650545
Si Si3 0.933459 0.905076 0.140691
Si Si4 0.065955 0.405141 0.096714
Si Si5 0.432845 0.231524 0.944975
Si Si6 0.573193 0.830242 0.758905
Si Si7 0.072661 0.631466 0.214662
Si Si8 0.932808 0.407598 0.323579
O O1 0.500000 0.881140 0.500000
O O2 0.750000 0.898742 0.445970
O O3 0.515520 0.835443 0.399261
O O4 0.522310 0.000000 0.430863
O O5 0.250000 0.219419 0.651513
O O6 0.011614 0.318136 0.651575
O O7 0.007846 0.174757 0.703327
O O8 0.750000 0.900304 0.143067
O O9 0.985652 0.831961 0.100864
O O10 0.996812 0.889118 0.198069
O O11 0.976694 0.000000 0.122633
O O12 0.250000 0.396098 0.093751
O O13 0.024653 0.500000 0.077855
O O14 0.024330 0.397957 0.157756
O O15 0.989142 0.327081 0.067326
O O16 0.250000 0.230130 0.946865
O O17 0.500000 0.203987 0.000000
O O18 0.750000 0.852338 0.752017
O O19 0.563988 0.734018 0.781927
O O20 0.250000 0.606743 0.222034
O O21 0.976666 0.597741 0.262945
O O22 0.750000 0.407212 0.328383
O O23 0.989083 0.500000 0.343776
#
# Coordination Sequence:
#
# PCOD9401448 Si02
#       8
#     8   8   8   8   8   8   8   8
#     4   9  18  33  53  75  99 132 174 219 265 310
#     4   9  18  32  50  74 107 143 176 212 259 313
#     4  10  22  40  60  81 106 138 173 210 260 321
#     4  10  20  35  56  80 107 139 173 211 259 314
#     4  11  24  41  61  80 103 134 172 219 266 314
#     4  10  19  32  53  81 111 140 172 212 257 305
#     4   9  17  30  49  73 104 138 170 206 253 304
#     4   9  17  28  44  69 101 137 176 213 248 294
#
# _framework density 18.095179000000002
#
# number of rings (size 3 to 8) (size 9 to 14) (size 15 to 20)
#    0.000    2.375    1.250    1.125    0.000    4.250 
#    0.000    1.250    0.000    0.375    0.000    0.000 
#    0.000    0.000    0.000    0.000    0.000    0.000 
#
# Total GULP energy -356970.342086 kJ/mol
# GULP energy per Si atom -5577.661595 kJ/mol
# Density = 1.805399 g / cm^3
# Si number density = 18.095179 Si / 1000 Ang^3
#
#
#
# Elastic Constant Matrix: (Units=GPa)
#
#
# Indices 1 2 3 4 5 6 
#
# 1 12.1050 26.7573 19.7404 0.0000 0.0000 0.0000
# 2 26.7573 106.1634 64.7838 0.0000 0.0000 0.0000
# 3 19.7404 64.7838 103.3727 0.0000 0.0000 0.0000
# 4 0.0000 0.0000 0.0000 -0.8575 0.0000 0.0000
# 5 0.0000 0.0000 0.0000 0.0000 28.2576 0.0000
# 6 0.0000 0.0000 0.0000 0.0000 0.0000 11.9378
#
#
#
# Elastic Compliance Matrix: (Units=1/GPa)
#
#
# Indices 1 2 3 4 5 6 
#
# 1 0.193096 -0.042369 -0.010321 0.000000 0.000000 0.000000
# 2 -0.042369 0.024549 -0.007294 0.000000 0.000000 0.000000
# 3 -0.010321 -0.007294 0.016216 0.000000 0.000000 0.000000
# 4 0.000000 0.000000 0.000000 -1.166246 0.000000 0.000000
# 5 0.000000 0.000000 0.000000 0.000000 0.035389 0.000000
# 6 0.000000 0.000000 0.000000 0.000000 0.000000 0.083767
#
#
# Mechanical properties :
#
#
# Convention : Reuss Voigt Hill
#
# Bulk Modulus (GPa) = 8.78027 49.35601 29.06814
# Shear Modulus (GPa) = -7.63015 15.22491 3.79738
#
# Velocity S-wave (km/s) = -2.05568 2.90380 1.45021
# Velocity P-wave (km/s) = 0.87843 6.21110 4.34776
#
# Compressibility (1/GPa) = 0.11389175
#
# Stress axis : x y z
#
# Youngs Moduli (GPa) = 5.17877 40.73456 61.66793
#
# Poissons Ratio (x) = 1.72590 0.63649
# Poissons Ratio (y) = 0.21942 0.44981
# Poissons Ratio (z) = 0.05345 0.29712
#
# Static dielectric constant tensor:
#      x y z
#    x 1.614580 0.000000 0.000000 
#    y 0.000000 1.660700 0.000000 
#    z 0.000000 0.000000 1.583600 
# 
# From -- ./inp_files/34851.got.cif
#   From: 2010.05.17/outbox.cif.g08.bks.cpg/sg51_18_cif.got.tgz:34851.got - 2010.06.03 11:52:47.
