data_PCOD9401582
_publ_section_title
;
Structure prediction by ZEFSAII (Michael W. Deem and Ramdas Pophale) SiO2 
 PCOD9401582
Probable space group: P M M A
;
_chemical_formula_sum "Si O2"
_cell_formula_units_Z 64
_cell_length_a 20.213238
_cell_length_b 8.879791
_cell_length_c 20.226181
_cell_angle_alpha 90.000000
_cell_angle_beta 90.000000
_cell_angle_gamma 90.000000
_cell_volume 3630.383653
_symmetry_space_group_name_H-M "P M M A"
_symmetry_group_IT_number 51
_symmetry_cell_setting 'orthorhombic'
loop_
_space_group_symop_operation_xyz
x,y,z
1/2-x,-y,z
1/2+x,-y,-z
-x,y,-z
-x,-y,-z
1/2+x,y,-z
1/2-x,y,z
x,-y,z
loop_
_atom_site_type_symbol
_atom_site_label
_atom_site_fract_x
_atom_site_fract_y
_atom_site_fract_z
Si Si1 0.326809 0.820080 0.111123
Si Si2 0.675657 0.821527 0.268494
Si Si3 0.560976 0.680504 0.798322
Si Si4 0.826461 0.319097 0.032615
Si Si5 0.575279 0.674391 0.528588
Si Si6 0.890657 0.680970 0.387379
Si Si7 0.584678 0.681081 0.156626
Si Si8 0.031040 0.179127 0.343236
O O1 0.250000 0.783400 0.126310
O O2 0.377020 0.743858 0.161708
O O3 0.339753 0.760079 0.037055
O O4 0.334289 0.000000 0.112919
O O5 0.750000 0.792989 0.244019
O O6 0.664828 0.742233 0.338783
O O7 0.623249 0.755644 0.217252
O O8 0.666181 0.000000 0.275693
O O9 0.564694 0.500000 0.792894
O O10 0.492695 0.718364 0.837105
O O11 0.555524 0.751430 0.725473
O O12 0.750000 0.285409 0.052149
O O13 0.831124 0.500000 0.023822
O O14 0.878274 0.273920 0.089198
O O15 0.500000 0.678812 0.500000
O O16 0.589361 0.500000 0.545136
O O17 0.617336 0.722202 0.464592
O O18 0.576253 0.772928 0.594323
O O19 0.895939 0.500000 0.384140
O O20 0.959043 0.751297 0.360009
O O21 0.590846 0.500000 0.162596
O O22 0.026116 0.000000 0.338441
#
# Coordination Sequence:
#
# PCOD9401582 Si02
#       8
#     8   8   8   8   8   8   8   8
#     4  10  22  40  60  82 108 140 179 224 280 340
#     4  11  23  35  50  76 111 151 191 233 282 333
#     4  11  22  36  57  83 113 147 183 227 277 328
#     4   9  18  35  58  81 107 143 187 229 268 319
#     4   8  16  30  49  73 102 136 177 222 266 318
#     4  10  19  33  52  74 103 142 186 229 271 320
#     4  10  21  36  56  81 110 146 187 230 274 325
#     4  11  20  31  51  80 112 142 175 222 277 326
#
# _framework density 17.628992
#
# number of rings (size 3 to 8) (size 9 to 14) (size 15 to 20)
#    0.000    2.000    1.250    3.750    0.000    6.500 
#    0.000    3.750    0.000    0.750    0.000    3.500 
#    0.000    0.000    0.000    0.000    0.000    0.000 
#
# Total GULP energy -357173.177597 kJ/mol
# GULP energy per Si atom -5580.830900 kJ/mol
# Density = 1.758887 g / cm^3
# Si number density = 17.628992 Si / 1000 Ang^3
#
#
#
# Elastic Constant Matrix: (Units=GPa)
#
#
# Indices 1 2 3 4 5 6 
#
# 1 81.1158 46.9752 69.0395 0.0000 0.0000 0.0000
# 2 46.9752 57.2984 54.9190 0.0000 0.0000 0.0000
# 3 69.0395 54.9190 128.6368 0.0000 0.0000 0.0000
# 4 0.0000 0.0000 0.0000 -75.6707 0.0000 0.0000
# 5 0.0000 0.0000 0.0000 0.0000 22.9801 0.0000
# 6 0.0000 0.0000 0.0000 0.0000 0.0000 22.1029
#
#
#
# Elastic Compliance Matrix: (Units=1/GPa)
#
#
# Indices 1 2 3 4 5 6 
#
# 1 0.028559 -0.014764 -0.009024 0.000000 0.000000 0.000000
# 2 -0.014764 0.037173 -0.007946 0.000000 0.000000 0.000000
# 3 -0.009024 -0.007946 0.016010 0.000000 0.000000 0.000000
# 4 0.000000 0.000000 0.000000 -0.013215 0.000000 0.000000
# 5 0.000000 0.000000 0.000000 0.000000 0.043516 0.000000
# 6 0.000000 0.000000 0.000000 0.000000 0.000000 0.045243
#
#
# Mechanical properties :
#
#
# Convention : Reuss Voigt Hill
#
# Bulk Modulus (GPa) = 54.72831 67.65760 61.19295
# Shear Modulus (GPa) = 22.04140 0.29029 11.16584
#
# Velocity S-wave (km/s) = 3.53978 0.40623 2.51943
# Velocity P-wave (km/s) = 6.91510 6.21948 6.57650
#
# Compressibility (1/GPa) = 0.01827208
#
# Stress axis : x y z
#
# Youngs Moduli (GPa) = 35.01523 26.90127 62.46164
#
# Poissons Ratio (x) = 0.39717 0.56368
# Poissons Ratio (y) = 0.51696 0.49635
# Poissons Ratio (z) = 0.31599 0.21377
#
# Static dielectric constant tensor:
#      x y z
#    x 1.599640 0.000000 0.000000 
#    y 0.000000 1.583930 0.000000 
#    z 0.000000 0.000000 1.598750 
# 
# From -- ./inp_files/30682.got.cif
#   From: 2010.05.17/outbox.cif.g08.bks.cpg/sg51_16_cif.got.tgz:30682.got - 2010.06.03 11:52:47.
