data_PCOD9401491
_publ_section_title
;
Structure prediction by ZEFSAII (Michael W. Deem and Ramdas Pophale) SiO2 
 PCOD9401491
Probable space group: P M M A
;
_chemical_formula_sum "Si O2"
_cell_formula_units_Z 44
_cell_length_a 9.303313
_cell_length_b 7.986722
_cell_length_c 31.177011
_cell_angle_alpha 90.000000
_cell_angle_beta 90.000000
_cell_angle_gamma 90.000000
_cell_volume 2316.544657
_symmetry_space_group_name_H-M "P M M A"
_symmetry_group_IT_number 51
_symmetry_cell_setting 'orthorhombic'
loop_
_space_group_symop_operation_xyz
x,y,z
1/2-x,-y,z
1/2+x,-y,-z
-x,y,-z
-x,-y,-z
1/2+x,y,-z
1/2-x,y,z
x,-y,z
loop_
_atom_site_type_symbol
_atom_site_label
_atom_site_fract_x
_atom_site_fract_y
_atom_site_fract_z
Si Si1 0.423607 0.500000 0.454345
Si Si2 0.415420 0.298382 0.873351
Si Si3 0.578029 0.813417 0.605053
Si Si4 0.917723 0.698282 0.311400
Si Si5 0.584805 0.295005 0.957476
Si Si6 0.415896 0.199643 0.780926
O O1 0.250000 0.500000 0.459437
O O2 0.500000 0.500000 0.500000
O O3 0.464625 0.664839 0.427068
O O4 0.250000 0.236448 0.876152
O O5 0.410713 0.500000 0.875100
O O6 0.506073 0.239258 0.914042
O O7 0.478329 0.250115 0.826919
O O8 0.750000 0.801230 0.610777
O O9 0.503063 0.786895 0.650788
O O10 0.544394 0.000000 0.588643
O O11 0.750000 0.752954 0.311918
O O12 0.922110 0.500000 0.319132
O O13 0.977488 0.732991 0.263672
O O14 0.750000 0.241672 0.958790
O O15 0.583569 0.500000 0.957304
O O16 0.500000 0.241810 0.000000
O O17 0.250000 0.263399 0.782254
O O18 0.413998 0.000000 0.778291
#
# Coordination Sequence:
#
# PCOD9401491 Si02
#       6
#     4   8   8   8   8   8
#     4  10  22  40  60  84 116 150 190 236 281 332
#     4   9  16  27  44  65  90 121 157 197 244 297
#     4  10  21  38  59  83 114 152 189 228 280 336
#     4  10  19  32  54  83 112 143 183 228 271 319
#     4   9  16  26  42  65  91 117 149 193 245 299
#     4   9  17  29  46  70 100 133 169 210 255 303
#
# _framework density 18.993805999999999
#
# number of rings (size 3 to 8) (size 9 to 14) (size 15 to 20)
#    0.000    2.545    0.909    1.636    0.000    6.545 
#    0.000    0.909    0.000    4.364    0.000    0.000 
#    0.000    0.000    0.000    0.000    0.000    0.000 
#
# Total GULP energy -245408.806489 kJ/mol
# GULP energy per Si atom -5577.472875 kJ/mol
# Density = 1.895058 g / cm^3
# Si number density = 18.993806 Si / 1000 Ang^3
#
#
#
# Elastic Constant Matrix: (Units=GPa)
#
#
# Indices 1 2 3 4 5 6 
#
# 1 47.9708 25.9233 55.9900 0.0000 0.0000 0.0000
# 2 25.9233 72.2775 54.0634 0.0000 0.0000 0.0000
# 3 55.9900 54.0634 178.0057 0.0000 0.0000 0.0000
# 4 0.0000 0.0000 0.0000 -6.1841 0.0000 0.0000
# 5 0.0000 0.0000 0.0000 0.0000 31.2005 0.0000
# 6 0.0000 0.0000 0.0000 0.0000 0.0000 10.8198
#
#
#
# Elastic Compliance Matrix: (Units=1/GPa)
#
#
# Indices 1 2 3 4 5 6 
#
# 1 0.034559 -0.005518 -0.009194 0.000000 0.000000 0.000000
# 2 -0.005518 0.018784 -0.003969 0.000000 0.000000 0.000000
# 3 -0.009194 -0.003969 0.009715 0.000000 0.000000 0.000000
# 4 0.000000 0.000000 0.000000 -0.161704 0.000000 0.000000
# 5 0.000000 0.000000 0.000000 0.000000 0.032051 0.000000
# 6 0.000000 0.000000 0.000000 0.000000 0.000000 0.092424
#
#
# Mechanical properties :
#
#
# Convention : Reuss Voigt Hill
#
# Bulk Modulus (GPa) = 38.91774 63.35638 51.13706
# Shear Modulus (GPa) = 69.67988 17.98570 43.83279
#
# Velocity S-wave (km/s) = 6.06343 3.08055 4.80911
# Velocity P-wave (km/s) = 8.33993 6.78836 7.60382
#
# Compressibility (1/GPa) = 0.02569522
#
# Stress axis : x y z
#
# Youngs Moduli (GPa) = 28.93574 53.23775 102.92939
#
# Poissons Ratio (x) = 0.29375 0.94638
# Poissons Ratio (y) = 0.15966 0.40856
# Poissons Ratio (z) = 0.26605 0.21132
#
# Static dielectric constant tensor:
#      x y z
#    x 1.649340 0.000000 0.000000 
#    y 0.000000 1.679220 0.000000 
#    z 0.000000 0.000000 1.649710 
# 
# From -- ./inp_files/36782.got.cif
#   From: 2010.05.17/outbox.cif.g08.bks.cpg/sg51_19_cif.got.tgz:36782.got - 2010.06.03 11:52:47.
