data_PCOD9401043
_publ_section_title
;
Structure prediction by ZEFSAII (Michael W. Deem and Ramdas Pophale) SiO2 
 PCOD9401043
Probable space group: P M M A
;
_chemical_formula_sum "Si O2"
_cell_formula_units_Z 64
_cell_length_a 8.901448
_cell_length_b 14.330311
_cell_length_c 26.875316
_cell_angle_alpha 90.000000
_cell_angle_beta 90.000000
_cell_angle_gamma 90.000000
_cell_volume 3428.229235
_symmetry_space_group_name_H-M "P M M A"
_symmetry_group_IT_number 51
_symmetry_cell_setting 'orthorhombic'
loop_
_space_group_symop_operation_xyz
x,y,z
1/2-x,-y,z
1/2+x,-y,-z
-x,y,-z
-x,-y,-z
1/2+x,y,-z
1/2-x,y,z
x,-y,z
loop_
_atom_site_type_symbol
_atom_site_label
_atom_site_fract_x
_atom_site_fract_y
_atom_site_fract_z
Si Si1 0.429520 0.607779 0.700966
Si Si2 0.073573 0.112930 0.855611
Si Si3 0.072290 0.212576 0.050694
Si Si4 0.920523 0.386674 0.804240
Si Si5 0.067304 0.108266 0.745830
Si Si6 0.071790 0.609156 0.907663
Si Si7 0.570601 0.108919 0.553083
Si Si8 0.569499 0.214456 0.354531
O O1 0.250000 0.613092 0.710144
O O2 0.468221 0.500000 0.691298
O O3 0.511010 0.640562 0.751286
O O4 0.464144 0.677155 0.655992
O O5 0.250000 0.138323 0.860622
O O6 0.018174 0.142870 0.800471
O O7 0.984361 0.156676 0.901084
O O8 0.065003 0.000000 0.856560
O O9 0.250000 0.209704 0.047262
O O10 0.015844 0.318747 0.058090
O O11 0.000000 0.174675 0.000000
O O12 0.750000 0.352894 0.811591
O O13 0.915616 0.500000 0.802835
O O14 0.024779 0.364664 0.851187
O O15 0.250000 0.111241 0.747526
O O16 0.021431 0.162631 0.696490
O O17 0.023137 0.000000 0.740916
O O18 0.250000 0.619525 0.913990
O O19 0.032758 0.500000 0.915687
O O20 0.500000 0.135427 0.500000
O O21 0.750000 0.115452 0.550282
O O22 0.508401 0.170656 0.597884
O O23 0.530088 0.000000 0.562328
O O24 0.750000 0.203225 0.359415
#
# Coordination Sequence:
#
# PCOD9401043 Si02
#       8
#     8   8   8   8   8   8   8   8
#     4   9  18  31  47  74 113 155 196 233 272 321
#     4   9  19  38  62  85 112 147 185 228 277 332
#     4  12  26  42  60  83 109 141 182 231 282 338
#     4   9  17  30  49  75 107 142 181 225 272 323
#     4   8  15  29  51  80 111 142 177 218 269 329
#     4  10  21  38  60  83 109 143 181 224 275 334
#     4  10  21  37  57  82 113 148 185 231 283 336
#     4  10  19  31  53  83 113 152 193 232 275 324
#
# _framework density 18.668530000000001
#
# number of rings (size 3 to 8) (size 9 to 14) (size 15 to 20)
#    0.000    2.375    0.000    3.375    1.750    4.750 
#    0.000    0.625    0.000    1.125    0.000    0.000 
#    0.000    0.000    0.000    0.000    0.000    0.000 
#
# Total GULP energy -357333.015861 kJ/mol
# GULP energy per Si atom -5583.328373 kJ/mol
# Density = 1.862604 g / cm^3
# Si number density = 18.668530 Si / 1000 Ang^3
#
#
#
# Elastic Constant Matrix: (Units=GPa)
#
#
# Indices 1 2 3 4 5 6 
#
# 1 64.5464 29.6123 49.8948 0.0000 0.0000 0.0000
# 2 29.6123 61.3618 55.2307 0.0000 0.0000 0.0000
# 3 49.8948 55.2307 141.3466 0.0000 0.0000 0.0000
# 4 0.0000 0.0000 0.0000 29.1027 0.0000 0.0000
# 5 0.0000 0.0000 0.0000 0.0000 31.7797 0.0000
# 6 0.0000 0.0000 0.0000 0.0000 0.0000 21.5019
#
#
#
# Elastic Compliance Matrix: (Units=1/GPa)
#
#
# Indices 1 2 3 4 5 6 
#
# 1 0.022542 -0.005732 -0.005717 0.000000 0.000000 0.000000
# 2 -0.005732 0.026596 -0.008369 0.000000 0.000000 0.000000
# 3 -0.005717 -0.008369 0.012363 0.000000 0.000000 0.000000
# 4 0.000000 0.000000 0.000000 0.034361 0.000000 0.000000
# 5 0.000000 0.000000 0.000000 0.000000 0.031467 0.000000
# 6 0.000000 0.000000 0.000000 0.000000 0.000000 0.046508
#
#
# Mechanical properties :
#
#
# Convention : Reuss Voigt Hill
#
# Bulk Modulus (GPa) = 45.73727 59.63670 52.68699
# Shear Modulus (GPa) = 22.64892 25.31132 23.98012
#
# Velocity S-wave (km/s) = 3.48690 3.68615 3.58791
# Velocity P-wave (km/s) = 6.38468 7.08035 6.74149
#
# Compressibility (1/GPa) = 0.02186401
#
# Stress axis : x y z
#
# Youngs Moduli (GPa) = 44.36130 37.60012 80.88619
#
# Poissons Ratio (x) = 0.21554 0.46246
# Poissons Ratio (y) = 0.25430 0.67691
# Poissons Ratio (z) = 0.25363 0.31466
#
# Static dielectric constant tensor:
#      x y z
#    x 1.631300 0.000000 0.000000 
#    y 0.000000 1.681020 0.000000 
#    z 0.000000 0.000000 1.624290 
# 
# From -- ./inp_files/34909.got.cif
#   From: 2010.05.17/outbox.cif.g08.bks.cpg/sg51_18_cif.got.tgz:34909.got - 2010.06.03 11:52:47.
