data_PCOD9401510
_publ_section_title
;
Structure prediction by ZEFSAII (Michael W. Deem and Ramdas Pophale) SiO2 
 PCOD9401510
Probable space group: P M M A
;
_chemical_formula_sum "Si O2"
_cell_formula_units_Z 64
_cell_length_a 24.183024
_cell_length_b 14.994761
_cell_length_c 9.277721
_cell_angle_alpha 90.000000
_cell_angle_beta 90.000000
_cell_angle_gamma 90.000000
_cell_volume 3364.274805
_symmetry_space_group_name_H-M "P M M A"
_symmetry_group_IT_number 51
_symmetry_cell_setting 'orthorhombic'
loop_
_space_group_symop_operation_xyz
x,y,z
1/2-x,-y,z
1/2+x,-y,-z
-x,y,-z
-x,-y,-z
1/2+x,y,-z
1/2-x,y,z
x,-y,z
loop_
_atom_site_type_symbol
_atom_site_label
_atom_site_fract_x
_atom_site_fract_y
_atom_site_fract_z
Si Si1 0.417624 0.678080 0.813724
Si Si2 0.815919 0.395557 0.670845
Si Si3 0.140118 0.096678 0.537325
Si Si4 0.025949 0.844509 0.655167
Si Si5 0.185119 0.288288 0.620596
Si Si6 0.588754 0.097914 0.778643
Si Si7 0.599653 0.704000 0.856819
Si Si8 0.513805 0.400969 0.666164
O O1 0.449890 0.765356 0.752957
O O2 0.356442 0.682931 0.747005
O O3 0.455656 0.601389 0.748655
O O4 0.416637 0.673310 0.984679
O O5 0.750000 0.390131 0.685075
O O6 0.831113 0.500000 0.667684
O O7 0.830507 0.346070 0.520940
O O8 0.845061 0.342363 0.799380
O O9 0.080396 0.099959 0.615361
O O10 0.173353 0.184277 0.584173
O O11 0.124575 0.102590 0.368306
O O12 0.166510 0.000000 0.565108
O O13 0.000000 0.815686 0.500000
O O14 0.975841 0.893806 0.734441
O O15 0.250000 0.301617 0.651577
O O16 0.602572 0.188713 0.861436
O O17 0.598127 0.000000 0.845568
O O18 0.554658 0.670052 0.739706
O O19 0.500000 0.382957 0.500000
O O20 0.538524 0.500000 0.677051
#
# Coordination Sequence:
#
# PCOD9401510 Si02
#       8
#     8   8   8   8   8   8   8   8
#     4  11  23  36  57  85 125 159 191 240 296 350
#     4  10  22  42  66  87 110 148 197 246 296 352
#     4   9  17  31  55  87 116 147 195 249 293 331
#     4   9  17  32  53  80 117 161 200 235 276 340
#     4  10  21  39  62  87 113 150 198 245 291 349
#     4  10  19  32  55  84 119 159 196 237 286 343
#     4  12  23  38  59  89 125 155 195 240 294 356
#     4  11  24  40  62  88 117 157 198 241 297 354
#
# _framework density 19.023416000000001
#
# number of rings (size 3 to 8) (size 9 to 14) (size 15 to 20)
#    0.000    1.750    2.500    2.250    1.750    5.250 
#    0.000    3.750    0.000    1.875    0.000    0.000 
#    0.000    0.000    0.000    0.000    0.000    0.000 
#
# Total GULP energy -357076.233056 kJ/mol
# GULP energy per Si atom -5579.316141 kJ/mol
# Density = 1.898012 g / cm^3
# Si number density = 19.023416 Si / 1000 Ang^3
#
#
#
# Elastic Constant Matrix: (Units=GPa)
#
#
# Indices 1 2 3 4 5 6 
#
# 1 62.4845 21.7412 25.2077 0.0000 0.0000 0.0000
# 2 21.7412 118.3237 28.8681 0.0000 0.0000 0.0000
# 3 25.2077 28.8681 90.5543 0.0000 0.0000 0.0000
# 4 0.0000 0.0000 0.0000 -82.2514 0.0000 0.0000
# 5 0.0000 0.0000 0.0000 0.0000 15.6368 0.0000
# 6 0.0000 0.0000 0.0000 0.0000 0.0000 10.2423
#
#
#
# Elastic Compliance Matrix: (Units=1/GPa)
#
#
# Indices 1 2 3 4 5 6 
#
# 1 0.018606 -0.002337 -0.004434 0.000000 0.000000 0.000000
# 2 -0.002337 0.009458 -0.002365 0.000000 0.000000 0.000000
# 3 -0.004434 -0.002365 0.013031 0.000000 0.000000 0.000000
# 4 0.000000 0.000000 0.000000 -0.012158 0.000000 0.000000
# 5 0.000000 0.000000 0.000000 0.000000 0.063952 0.000000
# 6 0.000000 0.000000 0.000000 0.000000 0.000000 0.097634
#
#
# Mechanical properties :
#
#
# Convention : Reuss Voigt Hill
#
# Bulk Modulus (GPa) = 43.81465 46.99961 45.40713
# Shear Modulus (GPa) = 23.10510 1.76191 12.43350
#
# Velocity S-wave (km/s) = 3.48884 0.96343 2.55931
# Velocity P-wave (km/s) = 6.26987 5.09877 5.71440
#
# Compressibility (1/GPa) = 0.02282342
#
# Stress axis : x y z
#
# Youngs Moduli (GPa) = 53.74607 105.73445 76.73835
#
# Poissons Ratio (x) = 0.24709 0.34029
# Poissons Ratio (y) = 0.12560 0.18145
# Poissons Ratio (z) = 0.23833 0.25001
#
# Static dielectric constant tensor:
#      x y z
#    x 1.663040 0.000000 0.000000 
#    y 0.000000 1.710100 0.000000 
#    z 0.000000 0.000000 1.628690 
# 
# From -- ./inp_files/11916.got.cif
#   From: 2010.05.17/outbox.cif.g08.bks.cpg/sg51_6_cif.got.tgz:11916.got - 2010.06.03 11:52:47.
