data_PCOD9401116
_publ_section_title
;
Structure prediction by ZEFSAII (Michael W. Deem and Ramdas Pophale) SiO2 
 PCOD9401116
Probable space group: P M M A
;
_chemical_formula_sum "Si O2"
_cell_formula_units_Z 64
_cell_length_a 8.918058
_cell_length_b 14.878792
_cell_length_c 30.266710
_cell_angle_alpha 90.000000
_cell_angle_beta 90.000000
_cell_angle_gamma 90.000000
_cell_volume 4016.087632
_symmetry_space_group_name_H-M "P M M A"
_symmetry_group_IT_number 51
_symmetry_cell_setting 'orthorhombic'
loop_
_space_group_symop_operation_xyz
x,y,z
1/2-x,-y,z
1/2+x,-y,-z
-x,y,-z
-x,-y,-z
1/2+x,y,-z
1/2-x,y,z
x,-y,z
loop_
_atom_site_type_symbol
_atom_site_label
_atom_site_fract_x
_atom_site_fract_y
_atom_site_fract_z
Si Si1 0.074363 0.240168 0.694398
Si Si2 0.579157 0.891143 0.864172
Si Si3 0.576865 0.109554 0.045598
Si Si4 0.425354 0.603288 0.359976
Si Si5 0.576850 0.155050 0.541102
Si Si6 0.430802 0.895568 0.771061
Si Si7 0.929333 0.350286 0.453696
Si Si8 0.920252 0.899735 0.638906
O O1 0.250000 0.259337 0.699914
O O2 0.019020 0.181957 0.736790
O O3 0.991796 0.328953 0.676611
O O4 0.043559 0.168200 0.655889
O O5 0.750000 0.859726 0.860123
O O6 0.505740 0.859573 0.909923
O O7 0.486484 0.871180 0.820045
O O8 0.582100 0.000000 0.866815
O O9 0.750000 0.136125 0.046449
O O10 0.572227 0.000000 0.045729
O O11 0.500000 0.138773 0.000000
O O12 0.250000 0.625749 0.367238
O O13 0.437097 0.500000 0.345248
O O14 0.507670 0.611085 0.407549
O O15 0.500000 0.107281 0.500000
O O16 0.750000 0.178251 0.531281
O O17 0.483249 0.246547 0.547765
O O18 0.575360 0.101363 0.586236
O O19 0.250000 0.897008 0.769626
O O20 0.480274 0.000000 0.761755
O O21 0.750000 0.358858 0.455154
O O22 0.000000 0.386362 0.500000
O O23 0.750000 0.870953 0.651693
O O24 0.945067 0.000000 0.655753
#
# Coordination Sequence:
#
# PCOD9401116 Si02
#       8
#     8   8   8   8   8   8   8   8
#     4  11  22  36  55  76  97 122 154 195 238 280
#     4   9  16  25  38  58  83 114 156 201 241 282
#     4   9  15  22  33  50  76 112 153 199 247 289
#     4  11  24  41  59  78 100 125 152 185 227 278
#     4  10  19  32  50  70  96 125 154 184 217 259
#     4   9  18  32  48  68  95 125 157 195 239 283
#     4  11  21  35  57  80 102 125 149 179 219 267
#     4  10  21  35  51  71  97 128 158 188 224 268
#
# _framework density 15.935907
#
# number of rings (size 3 to 8) (size 9 to 14) (size 15 to 20)
#    0.000    2.000    1.250    4.125    0.000    6.750 
#    0.000    1.250    0.000    0.000    0.000    0.000 
#    0.000    0.000    0.000    0.000    0.000    0.625 
#
# Total GULP energy -356706.980087 kJ/mol
# GULP energy per Si atom -5573.546564 kJ/mol
# Density = 1.589964 g / cm^3
# Si number density = 15.935907 Si / 1000 Ang^3
#
#
#
# Elastic Constant Matrix: (Units=GPa)
#
#
# Indices 1 2 3 4 5 6 
#
# 1 78.6117 26.9008 41.6686 0.0000 0.0000 0.0000
# 2 26.9008 59.2308 31.6503 0.0000 0.0000 0.0000
# 3 41.6686 31.6503 116.9272 0.0000 0.0000 0.0000
# 4 0.0000 0.0000 0.0000 8.2393 0.0000 0.0000
# 5 0.0000 0.0000 0.0000 0.0000 26.8142 0.0000
# 6 0.0000 0.0000 0.0000 0.0000 0.0000 -0.6032
#
#
#
# Elastic Compliance Matrix: (Units=1/GPa)
#
#
# Indices 1 2 3 4 5 6 
#
# 1 0.016965 -0.005231 -0.004630 0.000000 0.000000 0.000000
# 2 -0.005231 0.021351 -0.003915 0.000000 0.000000 0.000000
# 3 -0.004630 -0.003915 0.011262 0.000000 0.000000 0.000000
# 4 0.000000 0.000000 0.000000 0.121369 0.000000 0.000000
# 5 0.000000 0.000000 0.000000 0.000000 0.037294 0.000000
# 6 0.000000 0.000000 0.000000 0.000000 0.000000 -1.657804
#
#
# Mechanical properties :
#
#
# Convention : Reuss Voigt Hill
#
# Bulk Modulus (GPa) = 45.40103 50.57879 47.98991
# Shear Modulus (GPa) = -3.53439 17.19340 6.82950
#
# Velocity S-wave (km/s) = -1.49087 3.28824 2.07242
# Velocity P-wave (km/s) = 5.05846 6.79886 5.99218
#
# Compressibility (1/GPa) = 0.02202593
#
# Stress axis : x y z
#
# Youngs Moduli (GPa) = 58.94566 46.83621 88.79445
#
# Poissons Ratio (x) = 0.24500 0.41109
# Poissons Ratio (y) = 0.30834 0.34765
# Poissons Ratio (z) = 0.27290 0.18337
#
# Static dielectric constant tensor:
#      x y z
#    x 1.554180 0.000000 0.000000 
#    y 0.000000 1.531420 0.000000 
#    z 0.000000 0.000000 1.554620 
# 
# From -- ./inp_files/37550.got.cif
#   From: 2010.05.17/outbox.cif.g08.bks.cpg/sg51_19_cif.got.tgz:37550.got - 2010.06.03 11:52:47.
