data_PCOD9401354
_publ_section_title
;
Structure prediction by ZEFSAII (Michael W. Deem and Ramdas Pophale) SiO2 
 PCOD9401354
Probable space group: P M M A
;
_chemical_formula_sum "Si O2"
_cell_formula_units_Z 56
_cell_length_a 8.906856
_cell_length_b 22.861775
_cell_length_c 15.298442
_cell_angle_alpha 90.000000
_cell_angle_beta 90.000000
_cell_angle_gamma 90.000000
_cell_volume 3115.168779
_symmetry_space_group_name_H-M "P M M A"
_symmetry_group_IT_number 51
_symmetry_cell_setting 'orthorhombic'
loop_
_space_group_symop_operation_xyz
x,y,z
1/2-x,-y,z
1/2+x,-y,-z
-x,y,-z
-x,-y,-z
1/2+x,y,-z
1/2-x,y,z
x,-y,z
loop_
_atom_site_type_symbol
_atom_site_label
_atom_site_fract_x
_atom_site_fract_y
_atom_site_fract_z
Si Si1 0.429338 0.739038 0.091374
Si Si2 0.569884 0.398246 0.907322
Si Si3 0.931593 0.839784 0.776344
Si Si4 0.928492 0.069179 0.093112
Si Si5 0.430085 0.656399 0.405891
Si Si6 0.071342 0.565640 0.728403
Si Si7 0.069710 0.206853 0.407064
O O1 0.250000 0.742160 0.083543
O O2 0.467618 0.670950 0.104676
O O3 0.474559 0.781150 0.170106
O O4 0.500000 0.758718 0.000000
O O5 0.750000 0.404741 0.908746
O O6 0.498483 0.430062 0.824883
O O7 0.500000 0.416672 0.000000
O O8 0.750000 0.844273 0.778432
O O9 0.978770 0.831429 0.675952
O O10 0.001771 0.893428 0.828735
O O11 0.750000 0.077957 0.089127
O O12 0.958475 0.000000 0.104914
O O13 0.000000 0.086795 0.000000
O O14 0.500000 0.641218 0.500000
O O15 0.250000 0.651230 0.408210
O O16 0.496180 0.614269 0.332449
O O17 0.467542 0.724771 0.389273
O O18 0.250000 0.574985 0.732863
O O19 0.044070 0.500000 0.693672
O O20 0.250000 0.203562 0.413487
O O21 0.000000 0.190306 0.500000
#
# Coordination Sequence:
#
# PCOD9401354 Si02
#       7
#     8   8   8   8   8   8   8
#     4   9  18  31  48  74 105 133 163 204 254 309
#     4  10  20  36  56  76 102 136 172 212 261 315
#     4  10  19  32  52  78 108 139 173 214 259 306
#     4  10  21  36  53  76 108 145 184 222 258 300
#     4  10  20  37  60  83 108 137 169 208 260 318
#     4  11  24  39  54  75 102 133 174 220 262 309
#     4   9  19  35  55  81 110 138 170 212 260 312
#
# _framework density 17.976555000000001
#
# number of rings (size 3 to 8) (size 9 to 14) (size 15 to 20)
#    0.000    2.143    0.000    3.000    0.000    8.286 
#    0.000    1.429    0.000    0.429    0.000    0.000 
#    0.000    0.000    0.000    0.000    0.000    0.000 
#
# Total GULP energy -312719.059784 kJ/mol
# GULP energy per Si atom -5584.268925 kJ/mol
# Density = 1.793564 g / cm^3
# Si number density = 17.976555 Si / 1000 Ang^3
#
#
#
# Elastic Constant Matrix: (Units=GPa)
#
#
# Indices 1 2 3 4 5 6 
#
# 1 43.1264 37.2353 48.7274 0.0000 0.0000 0.0000
# 2 37.2353 62.5867 67.9036 0.0000 0.0000 0.0000
# 3 48.7274 67.9036 157.8436 0.0000 0.0000 0.0000
# 4 0.0000 0.0000 0.0000 -59.8316 0.0000 0.0000
# 5 0.0000 0.0000 0.0000 0.0000 35.4062 0.0000
# 6 0.0000 0.0000 0.0000 0.0000 0.0000 20.9627
#
#
#
# Elastic Compliance Matrix: (Units=1/GPa)
#
#
# Indices 1 2 3 4 5 6 
#
# 1 0.049629 -0.024198 -0.004911 0.000000 0.000000 0.000000
# 2 -0.024198 0.041761 -0.010495 0.000000 0.000000 0.000000
# 3 -0.004911 -0.010495 0.012366 0.000000 0.000000 0.000000
# 4 0.000000 0.000000 0.000000 -0.016714 0.000000 0.000000
# 5 0.000000 0.000000 0.000000 0.000000 0.028244 0.000000
# 6 0.000000 0.000000 0.000000 0.000000 0.000000 0.047704
#
#
# Mechanical properties :
#
#
# Convention : Reuss Voigt Hill
#
# Bulk Modulus (GPa) = 40.73670 63.47658 52.10664
# Shear Modulus (GPa) = 19.96945 6.62014 13.29479
#
# Velocity S-wave (km/s) = 3.33657 1.92111 2.72244
# Velocity P-wave (km/s) = 6.12812 6.34888 6.23948
#
# Compressibility (1/GPa) = 0.02454789
#
# Stress axis : x y z
#
# Youngs Moduli (GPa) = 20.14944 23.94561 80.86398
#
# Poissons Ratio (x) = 0.57944 0.39711
# Poissons Ratio (y) = 0.48758 0.84869
# Poissons Ratio (z) = 0.09895 0.25132
#
# Static dielectric constant tensor:
#      x y z
#    x 1.597760 0.000000 0.000000 
#    y 0.000000 1.617960 0.000000 
#    z 0.000000 0.000000 1.598190 
# 
# From -- ./inp_files/21752.got.cif
#   From: 2010.05.17/outbox.cif.g08.bks.cpg/sg51_11_cif.got.tgz:21752.got - 2010.06.03 11:52:47.
