data_PCOD9401771
_publ_section_title
;
Structure prediction by ZEFSAII (Michael W. Deem and Ramdas Pophale) SiO2 
 PCOD9401771
Probable space group: P M M A
;
_chemical_formula_sum "Si O2"
_cell_formula_units_Z 28
_cell_length_a 8.544277
_cell_length_b 18.986215
_cell_length_c 9.180365
_cell_angle_alpha 90.000000
_cell_angle_beta 90.000000
_cell_angle_gamma 90.000000
_cell_volume 1489.270759
_symmetry_space_group_name_H-M "P M M A"
_symmetry_group_IT_number 51
_symmetry_cell_setting 'orthorhombic'
loop_
_space_group_symop_operation_xyz
x,y,z
1/2-x,-y,z
1/2+x,-y,-z
-x,y,-z
-x,-y,-z
1/2+x,y,-z
1/2-x,y,z
x,-y,z
loop_
_atom_site_type_symbol
_atom_site_label
_atom_site_fract_x
_atom_site_fract_y
_atom_site_fract_z
Si Si1 0.936815 0.000000 0.163892
Si Si2 0.936707 0.135139 0.663718
Si Si3 0.061252 0.269954 0.833840
Si Si4 0.561152 0.424458 0.166094
O O1 0.997207 0.069192 0.246389
O O2 0.750000 0.000000 0.162434
O O3 0.000000 0.000000 0.000000
O O4 0.750000 0.131865 0.663158
O O5 0.000000 0.131934 0.500000
O O6 0.992314 0.207066 0.739585
O O7 0.250000 0.265354 0.835206
O O8 0.013845 0.347843 0.774604
O O9 0.000000 0.264184 0.000000
O O10 0.750000 0.424523 0.163551
O O11 0.510027 0.500000 0.232314
O O12 0.500000 0.424741 0.000000
#
# Coordination Sequence:
#
# PCOD9401771 Si02
#       4
#     4   8   8   8
#     4  12  25  44  67  92 118 146 182 224 271 322
#     4  12  25  42  61  84 114 149 187 228 277 331
#     4  10  19  33  54  82 114 149 189 233 280 330
#     4   8  14  25  44  72 106 142 181 227 277 326
#
# _framework density 18.801145999999999
#
# number of rings (size 3 to 8) (size 9 to 14) (size 15 to 20)
#    0.000    1.714    0.000    6.000    0.000    1.143 
#    0.000    0.000    0.000    0.857    0.000    0.000 
#    0.000    0.000    0.000    0.000    0.000    0.000 
#
# Total GULP energy -156260.969890 kJ/mol
# GULP energy per Si atom -5580.748925 kJ/mol
# Density = 1.875835 g / cm^3
# Si number density = 18.801146 Si / 1000 Ang^3
#
#
#
# Elastic Constant Matrix: (Units=GPa)
#
#
# Indices 1 2 3 4 5 6 
#
# 1 129.2508 75.1429 47.5936 0.0000 0.0000 0.0000
# 2 75.1429 247.3888 95.8697 0.0000 0.0000 0.0000
# 3 47.5936 95.8697 108.5244 0.0000 0.0000 0.0000
# 4 0.0000 0.0000 0.0000 -17.2670 0.0000 0.0000
# 5 0.0000 0.0000 0.0000 0.0000 29.6138 0.0000
# 6 0.0000 0.0000 0.0000 0.0000 0.0000 8.0386
#
#
#
# Elastic Compliance Matrix: (Units=1/GPa)
#
#
# Indices 1 2 3 4 5 6 
#
# 1 0.009838 -0.002001 -0.002546 0.000000 0.000000 0.000000
# 2 -0.002001 0.006554 -0.004912 0.000000 0.000000 0.000000
# 3 -0.002546 -0.004912 0.014670 0.000000 0.000000 0.000000
# 4 0.000000 0.000000 0.000000 -0.057914 0.000000 0.000000
# 5 0.000000 0.000000 0.000000 0.000000 0.033768 0.000000
# 6 0.000000 0.000000 0.000000 0.000000 0.000000 0.124400
#
#
# Mechanical properties :
#
#
# Convention : Reuss Voigt Hill
#
# Bulk Modulus (GPa) = 82.35340 102.48628 92.41984
# Shear Modulus (GPa) = 32.40807 21.84760 27.12783
#
# Velocity S-wave (km/s) = 4.15629 3.41256 3.80265
# Velocity P-wave (km/s) = 8.18110 8.37594 8.27909
#
# Compressibility (1/GPa) = 0.01214279
#
# Stress axis : x y z
#
# Youngs Moduli (GPa) = 101.64490 152.58955 68.16557
#
# Poissons Ratio (x) = 0.30540 0.17358
# Poissons Ratio (y) = 0.20344 0.33480
# Poissons Ratio (z) = 0.25884 0.74946
#
# Static dielectric constant tensor:
#      x y z
#    x 1.627500 0.000000 0.000000 
#    y 0.000000 1.700610 0.000000 
#    z 0.000000 0.000000 1.594800 
# 
# From -- ./inp_files/4652.got.cif
#   From: 2010.05.17/outbox.cif.g08.bks.cpg/sg51_3_cif.got.tgz:4652.got - 2010.06.03 11:52:47.
