data_PCOD9401198
_publ_section_title
;
Structure prediction by ZEFSAII (Michael W. Deem and Ramdas Pophale) SiO2 
 PCOD9401198
Probable space group: P M M A
;
_chemical_formula_sum "Si O2"
_cell_formula_units_Z 48
_cell_length_a 16.077746
_cell_length_b 9.423614
_cell_length_c 15.722909
_cell_angle_alpha 90.000000
_cell_angle_beta 90.000000
_cell_angle_gamma 90.000000
_cell_volume 2382.185368
_symmetry_space_group_name_H-M "P M M A"
_symmetry_group_IT_number 51
_symmetry_cell_setting 'orthorhombic'
loop_
_space_group_symop_operation_xyz
x,y,z
1/2-x,-y,z
1/2+x,-y,-z
-x,y,-z
-x,-y,-z
1/2+x,y,-z
1/2-x,y,z
x,-y,z
loop_
_atom_site_type_symbol
_atom_site_label
_atom_site_fract_x
_atom_site_fract_y
_atom_site_fract_z
Si Si1 0.101600 0.337595 0.493391
Si Si2 0.113530 0.836333 0.658405
Si Si3 0.389775 0.666592 0.821838
Si Si4 0.909989 0.160676 0.667426
Si Si5 0.440283 0.832560 0.146702
Si Si6 0.655554 0.340821 0.987020
O O1 0.128486 0.500000 0.500263
O O2 0.134427 0.243605 0.571276
O O3 0.122352 0.269206 0.402480
O O4 0.000000 0.335814 0.500000
O O5 0.144528 0.752043 0.741120
O O6 0.011661 0.835148 0.664162
O O7 0.139427 0.000000 0.658431
O O8 0.396286 0.500000 0.800258
O O9 0.478919 0.735919 0.841771
O O10 0.343736 0.679890 0.911621
O O11 0.888329 0.188022 0.765840
O O12 0.885566 0.000000 0.644667
O O13 0.461087 0.000000 0.142305
O O14 0.394684 0.777526 0.063161
O O15 0.750000 0.338842 0.956131
O O16 0.620228 0.500000 0.971595
#
# Coordination Sequence:
#
# PCOD9401198 Si02
#       6
#     8   8   8   8   8   8
#     4   9  15  22  36  61  92 125 159 193 231 279
#     4   9  16  26  41  63  94 128 159 195 239 285
#     4  10  19  32  51  73  98 129 165 204 245 290
#     4   8  15  26  39  60  92 126 156 190 235 282
#     4  10  20  33  51  75 101 129 163 203 246 292
#     4  10  22  38  53  71  97 129 164 203 248 295
#
# _framework density 20.149566
#
# number of rings (size 3 to 8) (size 9 to 14) (size 15 to 20)
#    0.000    2.667    0.000    3.500    0.000   10.333 
#    0.000    0.000    0.000    0.000    0.000    1.167 
#    0.000    6.667    0.000    0.000    0.000    0.000 
#
# Total GULP energy -267767.770192 kJ/mol
# GULP energy per Si atom -5578.495212 kJ/mol
# Density = 2.010370 g / cm^3
# Si number density = 20.149566 Si / 1000 Ang^3
#
#
#
# Elastic Constant Matrix: (Units=GPa)
#
#
# Indices 1 2 3 4 5 6 
#
# 1 15.9301 21.9765 14.8100 0.0000 0.0000 0.0000
# 2 21.9765 161.4959 88.5492 0.0000 0.0000 0.0000
# 3 14.8100 88.5492 105.6274 0.0000 0.0000 0.0000
# 4 0.0000 0.0000 0.0000 44.1639 0.0000 0.0000
# 5 0.0000 0.0000 0.0000 0.0000 -13.1947 0.0000
# 6 0.0000 0.0000 0.0000 0.0000 0.0000 -6.3238
#
#
#
# Elastic Compliance Matrix: (Units=1/GPa)
#
#
# Indices 1 2 3 4 5 6 
#
# 1 0.078088 -0.008556 -0.003776 0.000000 0.000000 0.000000
# 2 -0.008556 0.012397 -0.009193 0.000000 0.000000 0.000000
# 3 -0.003776 -0.009193 0.017703 0.000000 0.000000 0.000000
# 4 0.000000 0.000000 0.000000 0.022643 0.000000 0.000000
# 5 0.000000 0.000000 0.000000 0.000000 -0.075788 0.000000
# 6 0.000000 0.000000 0.000000 0.000000 0.000000 -0.158133
#
#
# Mechanical properties :
#
#
# Convention : Reuss Voigt Hill
#
# Bulk Modulus (GPa) = 15.35189 59.30277 37.32733
# Shear Modulus (GPa) = -130.45672 15.44359 -57.50656
#
# Velocity S-wave (km/s) = -8.05511 2.77148 -5.34807
# Velocity P-wave (km/s) = 8.88130 6.30370 4.42384
#
# Compressibility (1/GPa) = 0.06513856
#
# Stress axis : x y z
#
# Youngs Moduli (GPa) = 12.80599 80.66511 56.48655
#
# Poissons Ratio (x) = 0.69015 0.21331
# Poissons Ratio (y) = 0.10956 0.51928
# Poissons Ratio (z) = 0.04836 0.74155
#
# Static dielectric constant tensor:
#      x y z
#    x 1.771280 0.000000 0.000000 
#    y 0.000000 1.684390 0.000000 
#    z 0.000000 0.000000 1.715860 
# 
# From -- ./inp_files/24714.got.cif
#   From: 2010.05.17/outbox.cif.g08.bks.cpg/sg51_13_cif.got.tgz:24714.got - 2010.06.03 11:52:47.
