data_PCOD9401071
_publ_section_title
;
Structure prediction by ZEFSAII (Michael W. Deem and Ramdas Pophale) SiO2 
 PCOD9401071
Probable space group: P M M A
;
_chemical_formula_sum "Si O2"
_cell_formula_units_Z 52
_cell_length_a 8.214505
_cell_length_b 15.839099
_cell_length_c 24.079849
_cell_angle_alpha 90.000000
_cell_angle_beta 90.000000
_cell_angle_gamma 90.000000
_cell_volume 3133.037772
_symmetry_space_group_name_H-M "P M M A"
_symmetry_group_IT_number 51
_symmetry_cell_setting 'orthorhombic'
loop_
_space_group_symop_operation_xyz
x,y,z
1/2-x,-y,z
1/2+x,-y,-z
-x,y,-z
-x,-y,-z
1/2+x,y,-z
1/2-x,y,z
x,-y,z
loop_
_atom_site_type_symbol
_atom_site_label
_atom_site_fract_x
_atom_site_fract_y
_atom_site_fract_z
Si Si1 0.555454 0.500000 0.063299
Si Si2 0.940686 0.675168 0.887429
Si Si3 0.449037 0.093678 0.819355
Si Si4 0.940848 0.265573 0.229227
Si Si5 0.049478 0.402037 0.681805
Si Si6 0.444720 0.841375 0.940443
Si Si7 0.563753 0.397601 0.440678
O O1 0.750000 0.500000 0.067216
O O2 0.485158 0.416493 0.091190
O O3 0.500000 0.500000 0.000000
O O4 0.750000 0.681656 0.874991
O O5 0.040007 0.694382 0.831660
O O6 0.986734 0.746955 0.931945
O O7 0.250000 0.096127 0.818657
O O8 0.507952 0.170691 0.780484
O O9 0.496447 0.110874 0.883791
O O10 0.500831 0.000000 0.802671
O O11 0.750000 0.256243 0.242617
O O12 0.007326 0.332414 0.273881
O O13 0.250000 0.402774 0.681436
O O14 0.002432 0.500000 0.693761
O O15 0.990483 0.377619 0.619681
O O16 0.250000 0.838378 0.940257
O O17 0.500000 0.876164 0.000000
O O18 0.500000 0.366916 0.500000
O O19 0.750000 0.370676 0.438066
O O20 0.558657 0.500000 0.442555
#
# Coordination Sequence:
#
# PCOD9401071 Si02
#       7
#     4   8   8   8   8   8   8
#     4  12  24  38  52  66  84 110 147 184 219 262
#     4  11  22  35  48  65  89 114 142 180 222 260
#     4   8  15  28  45  65  88 111 139 177 221 268
#     4   9  17  30  48  67  86 116 150 180 219 264
#     4   8  14  24  40  63  88 116 150 183 213 253
#     4  10  19  32  49  67  86 110 138 170 218 271
#     4   8  13  22  36  55  82 114 147 179 211 248
#
# _framework density 16.59731
#
# number of rings (size 3 to 8) (size 9 to 14) (size 15 to 20)
#    0.000    2.769    0.000    4.846    1.077    0.308 
#    0.000    0.769    0.000   12.000    0.000    0.000 
#    0.000    0.615    0.000    0.462    0.000    0.923 
#
# Total GULP energy -289531.900496 kJ/mol
# GULP energy per Si atom -5567.921163 kJ/mol
# Density = 1.655953 g / cm^3
# Si number density = 16.597310 Si / 1000 Ang^3
#
#
#
# Elastic Constant Matrix: (Units=GPa)
#
#
# Indices 1 2 3 4 5 6 
#
# 1 12.1758 0.6112 -4.0551 0.0000 0.0000 0.0000
# 2 0.6112 114.0489 55.2905 0.0000 0.0000 0.0000
# 3 -4.0551 55.2905 99.1486 0.0000 0.0000 0.0000
# 4 0.0000 0.0000 0.0000 12.2737 0.0000 0.0000
# 5 0.0000 0.0000 0.0000 0.0000 16.6124 0.0000
# 6 0.0000 0.0000 0.0000 0.0000 0.0000 2.0076
#
#
#
# Elastic Compliance Matrix: (Units=1/GPa)
#
#
# Indices 1 2 3 4 5 6 
#
# 1 0.083958 -0.002898 0.005050 0.000000 0.000000 0.000000
# 2 -0.002898 0.012117 -0.006876 0.000000 0.000000 0.000000
# 3 0.005050 -0.006876 0.014127 0.000000 0.000000 0.000000
# 4 0.000000 0.000000 0.000000 0.081475 0.000000 0.000000
# 5 0.000000 0.000000 0.000000 0.000000 0.060196 0.000000
# 6 0.000000 0.000000 0.000000 0.000000 0.000000 0.498110
#
#
# Mechanical properties :
#
#
# Convention : Reuss Voigt Hill
#
# Bulk Modulus (GPa) = 9.92521 36.56294 23.24407
# Shear Modulus (GPa) = 6.30505 17.74717 12.02611
#
# Velocity S-wave (km/s) = 1.95118 3.27353 2.69473
# Velocity P-wave (km/s) = 3.32703 6.03036 4.87003
#
# Compressibility (1/GPa) = 0.10075355
#
# Stress axis : x y z
#
# Youngs Moduli (GPa) = 11.91078 82.52895 70.78845
#
# Poissons Ratio (x) = 0.23918 -0.35747
# Poissons Ratio (y) = 0.03452 0.48671
# Poissons Ratio (z) = -0.06015 0.56743
#
# Static dielectric constant tensor:
#      x y z
#    x 1.587030 0.000000 0.000000 
#    y 0.000000 1.566810 0.000000 
#    z 0.000000 0.000000 1.574240 
# 
# From -- ./inp_files/34715.got.cif
#   From: 2010.05.17/outbox.cif.g08.bks.cpg/sg51_18_cif.got.tgz:34715.got - 2010.06.03 11:52:47.
