data_PCOD9401528
_publ_section_title
;
Structure prediction by ZEFSAII (Michael W. Deem and Ramdas Pophale) SiO2 
 PCOD9401528
Probable space group: P M M A
;
_chemical_formula_sum "Si O2"
_cell_formula_units_Z 36
_cell_length_a 9.075881
_cell_length_b 13.052835
_cell_length_c 20.248416
_cell_angle_alpha 90.000000
_cell_angle_beta 90.000000
_cell_angle_gamma 90.000000
_cell_volume 2398.748388
_symmetry_space_group_name_H-M "P M M A"
_symmetry_group_IT_number 51
_symmetry_cell_setting 'orthorhombic'
loop_
_space_group_symop_operation_xyz
x,y,z
1/2-x,-y,z
1/2+x,-y,-z
-x,y,-z
-x,-y,-z
1/2+x,y,-z
1/2-x,y,z
x,-y,z
loop_
_atom_site_type_symbol
_atom_site_label
_atom_site_fract_x
_atom_site_fract_y
_atom_site_fract_z
Si Si1 0.074494 0.121131 0.298744
Si Si2 0.427934 0.185720 0.153194
Si Si3 0.927628 0.000000 0.072629
Si Si4 0.573378 0.616273 0.929655
Si Si5 0.920246 0.124721 0.433174
O O1 0.250000 0.129710 0.308428
O O2 0.034594 0.175993 0.230470
O O3 0.995037 0.158297 0.364920
O O4 0.041089 0.000000 0.289712
O O5 0.250000 0.168267 0.147194
O O6 0.463592 0.296398 0.122929
O O7 0.512707 0.098962 0.112105
O O8 0.750000 0.000000 0.068485
O O9 0.000000 0.000000 0.000000
O O10 0.750000 0.617831 0.937972
O O11 0.530353 0.500000 0.910819
O O12 0.500000 0.640000 0.000000
O O13 0.750000 0.153499 0.434717
O O14 0.000000 0.159705 0.500000
O O15 0.928902 0.000000 0.433039
#
# Coordination Sequence:
#
# PCOD9401528 Si02
#       5
#     8   8   4   8   8
#     4   9  16  27  42  59  84 117 147 177 216 262
#     4  10  19  33  49  66  91 120 151 185 227 273
#     4  12  24  34  46  64  89 118 153 188 224 270
#     4   9  18  32  50  69  88 113 148 190 232 273
#     4   9  16  25  38  57  82 113 149 183 212 250
#
# _framework density 15.007826
#
# number of rings (size 3 to 8) (size 9 to 14) (size 15 to 20)
#    0.000    2.444    1.111    2.333    0.000    6.222 
#    0.000    0.000    0.000    0.000    0.000    0.000 
#    0.000    0.889    0.000    1.556    0.000    2.222 
#
# Total GULP energy -200655.300054 kJ/mol
# GULP energy per Si atom -5573.758335 kJ/mol
# Density = 1.497367 g / cm^3
# Si number density = 15.007826 Si / 1000 Ang^3
#
#
#
# Elastic Constant Matrix: (Units=GPa)
#
#
# Indices 1 2 3 4 5 6 
#
# 1 51.9521 36.5128 70.9324 0.0000 0.0000 0.0000
# 2 36.5128 66.0434 70.2753 0.0000 0.0000 0.0000
# 3 70.9324 70.2753 177.9172 0.0000 0.0000 0.0000
# 4 0.0000 0.0000 0.0000 12.8659 0.0000 0.0000
# 5 0.0000 0.0000 0.0000 0.0000 28.8008 0.0000
# 6 0.0000 0.0000 0.0000 0.0000 0.0000 7.5662
#
#
#
# Elastic Compliance Matrix: (Units=1/GPa)
#
#
# Indices 1 2 3 4 5 6 
#
# 1 0.045898 -0.010184 -0.014276 0.000000 0.000000 0.000000
# 2 -0.010184 0.028379 -0.007149 0.000000 0.000000 0.000000
# 3 -0.014276 -0.007149 0.014136 0.000000 0.000000 0.000000
# 4 0.000000 0.000000 0.000000 0.077725 0.000000 0.000000
# 5 0.000000 0.000000 0.000000 0.000000 0.034721 0.000000
# 6 0.000000 0.000000 0.000000 0.000000 0.000000 0.132167
#
#
# Mechanical properties :
#
#
# Convention : Reuss Voigt Hill
#
# Bulk Modulus (GPa) = 39.69171 72.37264 56.03217
# Shear Modulus (GPa) = 12.35655 17.72606 15.04130
#
# Velocity S-wave (km/s) = 2.87250 3.44047 3.16924
# Velocity P-wave (km/s) = 6.12425 8.00690 7.12800
#
# Compressibility (1/GPa) = 0.02519418
#
# Stress axis : x y z
#
# Youngs Moduli (GPa) = 21.78752 35.23676 70.74133
#
# Poissons Ratio (x) = 0.35887 1.00990
# Poissons Ratio (y) = 0.22189 0.50575
# Poissons Ratio (z) = 0.31104 0.25192
#
# Static dielectric constant tensor:
#      x y z
#    x 1.503650 0.000000 0.000000 
#    y 0.000000 1.483550 0.000000 
#    z 0.000000 0.000000 1.489760 
# 
# From -- ./inp_files/31311.got.cif
#   From: 2010.05.17/outbox.cif.g08.bks.cpg/sg51_16_cif.got.tgz:31311.got - 2010.06.03 11:52:47.
