data_PCOD9401481
_publ_section_title
;
Structure prediction by ZEFSAII (Michael W. Deem and Ramdas Pophale) SiO2 
 PCOD9401481
Probable space group: P M M A
;
_chemical_formula_sum "Si O2"
_cell_formula_units_Z 48
_cell_length_a 15.663187
_cell_length_b 7.627296
_cell_length_c 19.578003
_cell_angle_alpha 90.000000
_cell_angle_beta 90.000000
_cell_angle_gamma 90.000000
_cell_volume 2338.940233
_symmetry_space_group_name_H-M "P M M A"
_symmetry_group_IT_number 51
_symmetry_cell_setting 'orthorhombic'
loop_
_space_group_symop_operation_xyz
x,y,z
1/2-x,-y,z
1/2+x,-y,-z
-x,y,-z
-x,-y,-z
1/2+x,y,-z
1/2-x,y,z
x,-y,z
loop_
_atom_site_type_symbol
_atom_site_label
_atom_site_fract_x
_atom_site_fract_y
_atom_site_fract_z
Si Si1 0.845632 0.794125 0.328837
Si Si2 0.250000 0.288392 0.921409
Si Si3 0.999619 0.785010 0.578603
Si Si4 0.100492 0.293476 0.823253
Si Si5 0.750000 0.208938 0.919323
Si Si6 0.094500 0.788133 0.172434
Si Si7 0.652831 0.785910 0.676282
O O1 0.750000 0.718407 0.333316
O O2 0.917193 0.722251 0.379900
O O3 0.879111 0.782532 0.251276
O O4 0.839023 0.000000 0.345207
O O5 0.250000 0.500000 0.920099
O O6 0.166691 0.225816 0.879891
O O7 0.250000 0.238575 0.000276
O O8 0.000000 0.730458 0.500000
O O9 0.915103 0.729709 0.619612
O O10 0.000017 0.000000 0.579695
O O11 0.115497 0.500000 0.816493
O O12 0.002295 0.264603 0.842268
O O13 0.664830 0.276012 0.881578
O O14 0.750000 0.000000 0.908094
O O15 0.121511 0.730420 0.248540
O O16 0.095846 0.000000 0.172778
O O17 0.750000 0.728999 0.664263
O O18 0.653118 0.000000 0.676608
#
# Coordination Sequence:
#
# PCOD9401481 Si02
#       7
#     8   4   8   8   4   8   8
#     4  10  19  32  54  81 108 141 182 231 275 319
#     4  10  24  42  56  76 113 148 180 221 276 337
#     4   9  17  28  45  76 115 145 172 215 273 328
#     4  11  22  37  57  81 108 146 189 227 269 329
#     4  10  22  38  60  86 113 140 178 229 278 331
#     4  10  19  35  58  84 109 139 183 228 273 328
#     4   9  15  26  48  74 102 138 174 213 263 315
#
# _framework density 20.522114999999999
#
# number of rings (size 3 to 8) (size 9 to 14) (size 15 to 20)
#    0.000    2.167    3.333    0.500    0.000    3.333 
#    0.000    6.667    0.000    0.500    0.000    0.000 
#    0.000    0.000    0.000    0.000    0.000    0.000 
#
# Total GULP energy -268067.787092 kJ/mol
# GULP energy per Si atom -5584.745564 kJ/mol
# Density = 2.047541 g / cm^3
# Si number density = 20.522115 Si / 1000 Ang^3
#
#
#
# Elastic Constant Matrix: (Units=GPa)
#
#
# Indices 1 2 3 4 5 6 
#
# 1 221.4859 -2.8434 105.4835 0.0000 0.0000 0.0000
# 2 -2.8434 38.4390 -7.8223 0.0000 0.0000 0.0000
# 3 105.4835 -7.8223 169.0202 0.0000 0.0000 0.0000
# 4 0.0000 0.0000 0.0000 198.5609 0.0000 0.0000
# 5 0.0000 0.0000 0.0000 0.0000 37.1852 0.0000
# 6 0.0000 0.0000 0.0000 0.0000 0.0000 -1.2341
#
#
#
# Elastic Compliance Matrix: (Units=1/GPa)
#
#
# Indices 1 2 3 4 5 6 
#
# 1 0.006429 -0.000344 -0.004028 0.000000 0.000000 0.000000
# 2 -0.000344 0.026281 0.001431 0.000000 0.000000 0.000000
# 3 -0.004028 0.001431 0.008497 0.000000 0.000000 0.000000
# 4 0.000000 0.000000 0.000000 0.005036 0.000000 0.000000
# 5 0.000000 0.000000 0.000000 0.000000 0.026892 0.000000
# 6 0.000000 0.000000 0.000000 0.000000 0.000000 -0.810303
#
#
# Mechanical properties :
#
#
# Convention : Reuss Voigt Hill
#
# Bulk Modulus (GPa) = 28.30930 68.73118 48.52024
# Shear Modulus (GPa) = -6.94917 69.17754 31.11418
#
# Velocity S-wave (km/s) = -1.84216 5.81222 3.89797
# Velocity P-wave (km/s) = 3.04955 8.86604 6.62972
#
# Compressibility (1/GPa) = 0.03532408
#
# Stress axis : x y z
#
# Youngs Moduli (GPa) = 155.54571 38.05031 117.69383
#
# Poissons Ratio (x) = 0.01310 0.47409
# Poissons Ratio (y) = 0.05353 -0.16843
# Poissons Ratio (z) = 0.62657 -0.05445
#
# Static dielectric constant tensor:
#      x y z
#    x 1.726500 0.000000 0.000000 
#    y 0.000000 1.788160 0.000000 
#    z 0.000000 0.000000 1.677710 
# 
# From -- ./inp_files/29575.got.cif
#   From: 2010.05.17/outbox.cif.g08.bks.cpg/sg51_15_cif.got.tgz:29575.got - 2010.06.03 11:52:47.
