data_PCOD9401313
_publ_section_title
;
Structure prediction by ZEFSAII (Michael W. Deem and Ramdas Pophale) SiO2 
 PCOD9401313
Probable space group: P M M A
;
_chemical_formula_sum "Si O2"
_cell_formula_units_Z 36
_cell_length_a 8.208243
_cell_length_b 24.821607
_cell_length_c 9.378887
_cell_angle_alpha 90.000000
_cell_angle_beta 90.000000
_cell_angle_gamma 90.000000
_cell_volume 1910.871150
_symmetry_space_group_name_H-M "P M M A"
_symmetry_group_IT_number 51
_symmetry_cell_setting 'orthorhombic'
loop_
_space_group_symop_operation_xyz
x,y,z
1/2-x,-y,z
1/2+x,-y,-z
-x,y,-z
-x,-y,-z
1/2+x,y,-z
1/2-x,y,z
x,-y,z
loop_
_atom_site_type_symbol
_atom_site_label
_atom_site_fract_x
_atom_site_fract_y
_atom_site_fract_z
Si Si1 0.553182 0.557813 0.834293
Si Si2 0.444186 0.779184 0.662334
Si Si3 0.054842 0.675241 0.164410
Si Si4 0.946366 0.000000 0.165182
Si Si5 0.947358 0.117322 0.164702
O O1 0.750000 0.557682 0.828295
O O2 0.496116 0.500000 0.772582
O O3 0.497107 0.616260 0.779363
O O4 0.500000 0.557655 0.000000
O O5 0.500000 0.778218 0.500000
O O6 0.250000 0.782150 0.665174
O O7 0.494747 0.725116 0.743879
O O8 0.508586 0.832211 0.744323
O O9 0.250000 0.675290 0.166200
O O10 0.000000 0.680919 0.000000
O O11 0.002572 0.058317 0.221342
O O12 0.750000 0.000000 0.172230
O O13 0.000000 0.000000 0.000000
O O14 0.750000 0.117681 0.167024
O O15 0.000000 0.122745 0.000000
#
# Coordination Sequence:
#
# PCOD9401313 Si02
#       5
#     8   8   8   4   8
#     4   8  14  25  43  69  99 127 156 194 240 287
#     4  11  23  37  51  70  98 133 170 209 253 297
#     4  10  19  32  52  77 103 132 166 204 245 292
#     4   8  14  28  49  74 100 124 154 194 239 286
#     4   9  18  32  53  77 100 127 160 199 242 290
#
# _framework density 18.839575
#
# number of rings (size 3 to 8) (size 9 to 14) (size 15 to 20)
#    0.000    2.667    0.000    2.000    0.000    4.444 
#    0.000    0.556    0.000    0.667    0.000    0.000 
#    0.000    0.000    0.000    0.000    0.000    0.000 
#
# Total GULP energy -200487.760369 kJ/mol
# GULP energy per Si atom -5569.104455 kJ/mol
# Density = 1.879670 g / cm^3
# Si number density = 18.839575 Si / 1000 Ang^3
#
#
#
# Elastic Constant Matrix: (Units=GPa)
#
#
# Indices 1 2 3 4 5 6 
#
# 1 21.3417 23.7406 8.3942 0.0000 0.0000 0.0000
# 2 23.7406 261.9016 85.4256 0.0000 0.0000 0.0000
# 3 8.3942 85.4256 67.9937 0.0000 0.0000 0.0000
# 4 0.0000 0.0000 0.0000 -5.1358 0.0000 0.0000
# 5 0.0000 0.0000 0.0000 0.0000 21.8539 0.0000
# 6 0.0000 0.0000 0.0000 0.0000 0.0000 17.0610
#
#
#
# Elastic Compliance Matrix: (Units=1/GPa)
#
#
# Indices 1 2 3 4 5 6 
#
# 1 0.052140 -0.004451 -0.000845 0.000000 0.000000 0.000000
# 2 -0.004451 0.006849 -0.008056 0.000000 0.000000 0.000000
# 3 -0.000845 -0.008056 0.024933 0.000000 0.000000 0.000000
# 4 0.000000 0.000000 0.000000 -0.194710 0.000000 0.000000
# 5 0.000000 0.000000 0.000000 0.000000 0.045759 0.000000
# 6 0.000000 0.000000 0.000000 0.000000 0.000000 0.058613
#
#
# Mechanical properties :
#
#
# Convention : Reuss Voigt Hill
#
# Bulk Modulus (GPa) = 17.47688 65.15084 41.31386
# Shear Modulus (GPa) = 127.03318 22.33426 74.68372
#
# Velocity S-wave (km/s) = 8.22042 3.44684 6.30301
# Velocity P-wave (km/s) = 9.96981 7.10619 8.65723
#
# Compressibility (1/GPa) = 0.05721844
#
# Stress axis : x y z
#
# Youngs Moduli (GPa) = 19.17918 146.00148 40.10805
#
# Poissons Ratio (x) = 0.64979 0.03390
# Poissons Ratio (y) = 0.08536 0.32310
# Poissons Ratio (z) = 0.01621 1.17615
#
# Static dielectric constant tensor:
#      x y z
#    x 1.671740 0.000000 0.000000 
#    y 0.000000 1.750110 0.000000 
#    z 0.000000 0.000000 1.582070 
# 
# From -- ./inp_files/5249.got.cif
#   From: 2010.05.17/outbox.cif.g08.bks.cpg/sg51_3_cif.got.tgz:5249.got - 2010.06.03 11:52:47.
