data_PCOD9401865
_publ_section_title
;
Structure prediction by ZEFSAII (Michael W. Deem and Ramdas Pophale) SiO2 
 PCOD9401865
Probable space group: P M M A
;
_chemical_formula_sum "Si O2"
_cell_formula_units_Z 48
_cell_length_a 21.807930
_cell_length_b 7.571090
_cell_length_c 16.181838
_cell_angle_alpha 90.000000
_cell_angle_beta 90.000000
_cell_angle_gamma 90.000000
_cell_volume 2671.780048
_symmetry_space_group_name_H-M "P M M A"
_symmetry_group_IT_number 51
_symmetry_cell_setting 'orthorhombic'
loop_
_space_group_symop_operation_xyz
x,y,z
1/2-x,-y,z
1/2+x,-y,-z
-x,y,-z
-x,-y,-z
1/2+x,y,-z
1/2-x,y,z
x,-y,z
loop_
_atom_site_type_symbol
_atom_site_label
_atom_site_fract_x
_atom_site_fract_y
_atom_site_fract_z
Si Si1 0.942111 0.285455 0.055803
Si Si2 0.635150 0.787677 0.794692
Si Si3 0.682553 0.706318 0.972704
Si Si4 0.901344 0.500000 0.528992
Si Si5 0.821916 0.208241 0.612369
Si Si6 0.974068 0.500000 0.363904
Si Si7 0.494147 0.794757 0.768840
O O1 0.942161 0.500000 0.053984
O O2 0.953642 0.226584 0.149251
O O3 0.877669 0.220324 0.018378
O O4 0.000000 0.226797 0.000000
O O5 0.668907 0.716122 0.874973
O O6 0.664108 0.736595 0.707059
O O7 0.563481 0.737255 0.793288
O O8 0.638585 0.000000 0.800586
O O9 0.750000 0.783700 0.989888
O O10 0.685102 0.500000 0.995616
O O11 0.862030 0.328584 0.552881
O O12 0.922874 0.500000 0.434583
O O13 0.961381 0.500000 0.587331
O O14 0.750000 0.230174 0.596223
O O15 0.837303 0.000000 0.605406
O O16 0.971956 0.329931 0.304662
O O17 0.496794 0.000000 0.743972
#
# Coordination Sequence:
#
# PCOD9401865 Si02
#       7
#     8   8   8   4   8   4   8
#     4  10  19  33  56  80 112 155 197 240 279 330
#     4  10  20  33  51  80 118 154 186 226 280 345
#     4  10  21  33  50  80 116 154 193 237 286 336
#     4  11  23  38  62  86 114 152 191 225 290 357
#     4  10  21  37  58  87 121 153 188 232 285 351
#     4  11  24  40  59  86 115 149 188 240 290 343
#     4  11  22  37  59  85 118 153 191 240 290 338
#
# _framework density 17.965551000000001
#
# number of rings (size 3 to 8) (size 9 to 14) (size 15 to 20)
#    0.000    1.667    4.167    0.750    2.333    2.667 
#    0.000    1.667    0.000    2.000    0.000    0.000 
#    0.000    0.000    0.000    0.000    0.000    0.000 
#
# Total GULP energy -268108.636252 kJ/mol
# GULP energy per Si atom -5585.596589 kJ/mol
# Density = 1.792466 g / cm^3
# Si number density = 17.965551 Si / 1000 Ang^3
#
#
#
# Elastic Constant Matrix: (Units=GPa)
#
#
# Indices 1 2 3 4 5 6 
#
# 1 134.9168 44.3009 66.8490 0.0000 0.0000 0.0000
# 2 44.3009 69.4310 38.0015 0.0000 0.0000 0.0000
# 3 66.8490 38.0015 110.2708 0.0000 0.0000 0.0000
# 4 0.0000 0.0000 0.0000 -76.0930 0.0000 0.0000
# 5 0.0000 0.0000 0.0000 0.0000 17.0998 0.0000
# 6 0.0000 0.0000 0.0000 0.0000 0.0000 3.5687
#
#
#
# Elastic Compliance Matrix: (Units=1/GPa)
#
#
# Indices 1 2 3 4 5 6 
#
# 1 0.011579 -0.004370 -0.005513 0.000000 0.000000 0.000000
# 2 -0.004370 0.019401 -0.004036 0.000000 0.000000 0.000000
# 3 -0.005513 -0.004036 0.013802 0.000000 0.000000 0.000000
# 4 0.000000 0.000000 0.000000 -0.013142 0.000000 0.000000
# 5 0.000000 0.000000 0.000000 0.000000 0.058480 0.000000
# 6 0.000000 0.000000 0.000000 0.000000 0.000000 0.280216
#
#
# Mechanical properties :
#
#
# Convention : Reuss Voigt Hill
#
# Bulk Modulus (GPa) = 59.02764 68.10238 63.56501
# Shear Modulus (GPa) = 12.38168 -0.05376 6.16396
#
# Velocity S-wave (km/s) = 2.62809 -0.17317 1.85430
# Velocity P-wave (km/s) = 6.49126 6.16032 6.32795
#
# Compressibility (1/GPa) = 0.01694122
#
# Stress axis : x y z
#
# Youngs Moduli (GPa) = 86.36544 51.54495 72.45399
#
# Poissons Ratio (x) = 0.22527 0.39945
# Poissons Ratio (y) = 0.37745 0.29245
# Poissons Ratio (z) = 0.47615 0.20806
#
# Static dielectric constant tensor:
#      x y z
#    x 1.629160 0.000000 0.000000 
#    y 0.000000 1.612240 0.000000 
#    z 0.000000 0.000000 1.572660 
# 
# From -- ./inp_files/24903.got.cif
#   From: 2010.05.17/outbox.cif.g08.bks.cpg/sg51_13_cif.got.tgz:24903.got - 2010.06.03 11:52:47.
