data_PCOD9401794
_publ_section_title
;
Structure prediction by ZEFSAII (Michael W. Deem and Ramdas Pophale) SiO2 
 PCOD9401794
Probable space group: P M M A
;
_chemical_formula_sum "Si O2"
_cell_formula_units_Z 48
_cell_length_a 33.056899
_cell_length_b 7.789972
_cell_length_c 9.094741
_cell_angle_alpha 90.000000
_cell_angle_beta 90.000000
_cell_angle_gamma 90.000000
_cell_volume 2342.007833
_symmetry_space_group_name_H-M "P M M A"
_symmetry_group_IT_number 51
_symmetry_cell_setting 'orthorhombic'
loop_
_space_group_symop_operation_xyz
x,y,z
1/2-x,-y,z
1/2+x,-y,-z
-x,y,-z
-x,-y,-z
1/2+x,y,-z
1/2-x,y,z
x,-y,z
loop_
_atom_site_type_symbol
_atom_site_label
_atom_site_fract_x
_atom_site_fract_y
_atom_site_fract_z
Si Si1 0.793108 0.298451 0.073236
Si Si2 0.620195 0.710986 0.088152
Si Si3 0.037205 0.200430 0.401077
Si Si4 0.540530 0.700395 0.930965
Si Si5 0.794058 0.205621 0.416076
Si Si6 0.382445 0.295950 0.570338
O O1 0.750000 0.221354 0.025359
O O2 0.792305 0.500000 0.035326
O O3 0.836522 0.227197 0.026413
O O4 0.794312 0.283634 0.251303
O O5 0.621832 0.500000 0.086531
O O6 0.615876 0.762221 0.259018
O O7 0.582006 0.772957 0.996162
O O8 0.039027 0.288672 0.243545
O O9 0.080181 0.218732 0.481953
O O10 0.000000 0.267828 0.500000
O O11 0.029092 0.000000 0.373807
O O12 0.541132 0.500000 0.975517
O O13 0.500000 0.778450 0.000000
O O14 0.750000 0.254565 0.482480
O O15 0.836880 0.257753 0.486303
O O16 0.794508 0.000000 0.401857
O O17 0.387866 0.500000 0.568280
#
# Coordination Sequence:
#
# PCOD9401794 Si02
#       6
#     8   8   8   8   8   8
#     4   8  13  23  41  66  97 132 169 207 244 286
#     4   8  15  28  48  75 101 126 163 210 254 293
#     4  11  24  39  54  75 104 135 169 212 262 315
#     4  10  20  35  55  76  99 129 167 209 253 306
#     4   9  16  26  43  71 107 141 171 208 254 300
#     4  10  19  33  55  79 104 136 175 216 255 300
#
# _framework density 20.495234
#
# number of rings (size 3 to 8) (size 9 to 14) (size 15 to 20)
#    0.000    2.667    0.000    3.500    0.000    4.000 
#    0.000    4.167    0.000    1.000    0.000    2.333 
#    0.000    0.000    0.000    0.000    0.000    0.000 
#
# Total GULP energy -267490.312416 kJ/mol
# GULP energy per Si atom -5572.714842 kJ/mol
# Density = 2.044859 g / cm^3
# Si number density = 20.495234 Si / 1000 Ang^3
#
#
#
# Elastic Constant Matrix: (Units=GPa)
#
#
# Indices 1 2 3 4 5 6 
#
# 1 232.2574 -6.7296 59.9311 0.0000 0.0000 0.0000
# 2 -6.7296 31.0289 -10.6280 0.0000 0.0000 0.0000
# 3 59.9311 -10.6280 44.4675 0.0000 0.0000 0.0000
# 4 0.0000 0.0000 0.0000 57.5443 0.0000 0.0000
# 5 0.0000 0.0000 0.0000 0.0000 23.8082 0.0000
# 6 0.0000 0.0000 0.0000 0.0000 0.0000 -0.0380
#
#
#
# Elastic Compliance Matrix: (Units=1/GPa)
#
#
# Indices 1 2 3 4 5 6 
#
# 1 0.006691 -0.001784 -0.009444 0.000000 0.000000 0.000000
# 2 -0.001784 0.035577 0.010907 0.000000 0.000000 0.000000
# 3 -0.009444 0.010907 0.037823 0.000000 0.000000 0.000000
# 4 0.000000 0.000000 0.000000 0.017378 0.000000 0.000000
# 5 0.000000 0.000000 0.000000 0.000000 0.042002 0.000000
# 6 0.000000 0.000000 0.000000 0.000000 0.000000-26.310625
#
#
# Mechanical properties :
#
#
# Convention : Reuss Voigt Hill
#
# Bulk Modulus (GPa) = 12.58653 43.65564 28.12109
# Shear Modulus (GPa) = -0.19125 33.94157 16.87516
#
# Velocity S-wave (km/s) = -0.30580 4.07390 2.87256
# Velocity P-wave (km/s) = 2.45557 6.59360 4.97521
#
# Compressibility (1/GPa) = 0.07945001
#
# Stress axis : x y z
#
# Youngs Moduli (GPa) = 149.46094 28.10801 26.43904
#
# Poissons Ratio (x) = 0.05013 0.24968
# Poissons Ratio (y) = 0.26657 -0.28837
# Poissons Ratio (z) = 1.41146 -0.30657
#
# Static dielectric constant tensor:
#      x y z
#    x 1.801710 0.000000 0.000000 
#    y 0.000000 1.731020 0.000000 
#    z 0.000000 0.000000 1.679100 
# 
# From -- ./inp_files/12808.got.cif
#   From: 2010.05.17/outbox.cif.g08.bks.cpg/sg51_7_cif.got.tgz:12808.got - 2010.06.03 11:52:47.
