data_PCOD9401650
_publ_section_title
;
Structure prediction by ZEFSAII (Michael W. Deem and Ramdas Pophale) SiO2 
 PCOD9401650
Probable space group: P M M A
;
_chemical_formula_sum "Si O2"
_cell_formula_units_Z 52
_cell_length_a 8.523254
_cell_length_b 23.731147
_cell_length_c 14.728412
_cell_angle_alpha 90.000000
_cell_angle_beta 90.000000
_cell_angle_gamma 90.000000
_cell_volume 2979.065724
_symmetry_space_group_name_H-M "P M M A"
_symmetry_group_IT_number 51
_symmetry_cell_setting 'orthorhombic'
loop_
_space_group_symop_operation_xyz
x,y,z
1/2-x,-y,z
1/2+x,-y,-z
-x,y,-z
-x,-y,-z
1/2+x,y,-z
1/2-x,y,z
x,-y,z
loop_
_atom_site_type_symbol
_atom_site_label
_atom_site_fract_x
_atom_site_fract_y
_atom_site_fract_z
Si Si1 0.060966 0.847682 0.901999
Si Si2 0.059749 0.000000 0.602885
Si Si3 0.439517 0.435878 0.399418
Si Si4 0.938583 0.775023 0.397611
Si Si5 0.938084 0.669604 0.717647
Si Si6 0.441232 0.888108 0.708792
Si Si7 0.437725 0.716277 0.901866
O O1 0.250000 0.848798 0.904277
O O2 0.007689 0.882058 0.813513
O O3 0.013025 0.782019 0.889257
O O4 0.000000 0.866853 0.000000
O O5 0.007256 0.944163 0.656834
O O6 0.000000 0.000000 0.500000
O O7 0.250000 0.000000 0.600908
O O8 0.500000 0.421346 0.500000
O O9 0.250000 0.435453 0.401721
O O10 0.490704 0.500000 0.378766
O O11 0.491429 0.389045 0.327555
O O12 0.750000 0.773387 0.397624
O O13 0.988746 0.832078 0.345839
O O14 0.000000 0.775153 0.500000
O O15 0.000743 0.721013 0.343736
O O16 0.750000 0.670553 0.717599
O O17 0.998209 0.680015 0.819007
O O18 0.250000 0.888695 0.709678
O O19 0.250000 0.715075 0.901036
O O20 0.500000 0.698098 0.000000
#
# Coordination Sequence:
#
# PCOD9401650 Si02
#       7
#     8   4   8   8   8   8   8
#     4   9  17  32  51  74 101 132 165 203 253 307
#     4  10  20  36  57  74  96 134 177 216 253 306
#     4   9  19  35  53  74 103 139 177 216 256 304
#     4  11  21  34  49  72 105 136 169 214 265 313
#     4  11  21  33  52  79 106 136 174 212 260 313
#     4   9  18  34  53  73 100 135 171 209 259 310
#     4  10  19  33  53  77 108 139 171 212 259 313
#
# _framework density 17.455137000000001
#
# number of rings (size 3 to 8) (size 9 to 14) (size 15 to 20)
#    0.000    2.154    1.538    2.308    0.000    3.077 
#    0.000    1.923    0.000    0.462    0.000    0.000 
#    0.000    0.000    0.000    0.000    0.000    0.000 
#
# Total GULP energy -290213.980330 kJ/mol
# GULP energy per Si atom -5581.038083 kJ/mol
# Density = 1.741541 g / cm^3
# Si number density = 17.455137 Si / 1000 Ang^3
#
#
#
# Elastic Constant Matrix: (Units=GPa)
#
#
# Indices 1 2 3 4 5 6 
#
# 1 23.4649 23.9198 29.7417 0.0000 0.0000 0.0000
# 2 23.9198 117.9624 101.1512 0.0000 0.0000 0.0000
# 3 29.7417 101.1512 199.5456 0.0000 0.0000 0.0000
# 4 0.0000 0.0000 0.0000 31.3473 0.0000 0.0000
# 5 0.0000 0.0000 0.0000 0.0000 32.9164 0.0000
# 6 0.0000 0.0000 0.0000 0.0000 0.0000 13.0847
#
#
#
# Elastic Compliance Matrix: (Units=1/GPa)
#
#
# Indices 1 2 3 4 5 6 
#
# 1 0.055993 -0.007425 -0.004582 0.000000 0.000000 0.000000
# 2 -0.007425 0.015980 -0.006994 0.000000 0.000000 0.000000
# 3 -0.004582 -0.006994 0.009239 0.000000 0.000000 0.000000
# 4 0.000000 0.000000 0.000000 0.031901 0.000000 0.000000
# 5 0.000000 0.000000 0.000000 0.000000 0.030380 0.000000
# 6 0.000000 0.000000 0.000000 0.000000 0.000000 0.076425
#
#
# Mechanical properties :
#
#
# Convention : Reuss Voigt Hill
#
# Bulk Modulus (GPa) = 23.14198 72.28869 47.71534
# Shear Modulus (GPa) = 18.36052 27.88036 23.12044
#
# Velocity S-wave (km/s) = 3.24677 4.00091 3.64340
# Velocity P-wave (km/s) = 5.22897 7.92760 6.71525
#
# Compressibility (1/GPa) = 0.04321151
#
# Stress axis : x y z
#
# Youngs Moduli (GPa) = 17.85922 62.57877 108.23222
#
# Poissons Ratio (x) = 0.46466 0.49589
# Poissons Ratio (y) = 0.13261 0.75693
# Poissons Ratio (z) = 0.08183 0.43765
#
# Static dielectric constant tensor:
#      x y z
#    x 1.599930 0.000000 0.000000 
#    y 0.000000 1.588790 0.000000 
#    z 0.000000 0.000000 1.575560 
# 
# From -- ./inp_files/21623.got.cif
#   From: 2010.05.17/outbox.cif.g08.bks.cpg/sg51_11_cif.got.tgz:21623.got - 2010.06.03 11:52:47.
