data_PCOD9401852
_publ_section_title
;
Structure prediction by ZEFSAII (Michael W. Deem and Ramdas Pophale) SiO2 
 PCOD9401852
Probable space group: P M M A
;
_chemical_formula_sum "Si O2"
_cell_formula_units_Z 48
_cell_length_a 8.673309
_cell_length_b 14.819089
_cell_length_c 20.900543
_cell_angle_alpha 90.000000
_cell_angle_beta 90.000000
_cell_angle_gamma 90.000000
_cell_volume 2686.358036
_symmetry_space_group_name_H-M "P M M A"
_symmetry_group_IT_number 51
_symmetry_cell_setting 'orthorhombic'
loop_
_space_group_symop_operation_xyz
x,y,z
1/2-x,-y,z
1/2+x,-y,-z
-x,y,-z
-x,-y,-z
1/2+x,y,-z
1/2-x,y,z
x,-y,z
loop_
_atom_site_type_symbol
_atom_site_label
_atom_site_fract_x
_atom_site_fract_y
_atom_site_fract_z
Si Si1 0.434640 0.696134 0.815156
Si Si2 0.066429 0.000000 0.882412
Si Si3 0.933675 0.189039 0.931280
Si Si4 0.434792 0.000000 0.260269
Si Si5 0.935709 0.500000 0.230692
Si Si6 0.935766 0.802954 0.693536
Si Si7 0.564188 0.308022 0.569294
Si Si8 0.063800 0.500000 0.374415
O O1 0.250000 0.701837 0.821640
O O2 0.511858 0.743544 0.875715
O O3 0.480147 0.591767 0.805413
O O4 0.486324 0.749079 0.751455
O O5 0.997996 0.089945 0.913885
O O6 0.019698 0.000000 0.807740
O O7 0.250000 0.000000 0.889121
O O8 0.750000 0.185343 0.933302
O O9 0.000000 0.216285 0.000000
O O10 0.471578 0.908517 0.298109
O O11 0.250000 0.000000 0.247496
O O12 0.750000 0.500000 0.236839
O O13 0.005064 0.500000 0.301799
O O14 0.750000 0.792253 0.699608
O O15 0.982471 0.760052 0.625913
O O16 0.500000 0.284615 0.500000
O O17 0.750000 0.308133 0.566448
O O18 0.513031 0.408799 0.590006
O O19 0.250000 0.500000 0.372811
#
# Coordination Sequence:
#
# PCOD9401852 Si02
#       8
#     8   4   8   4   4   8   8   4
#     4  11  22  38  60  88 119 153 194 241 291 349
#     4  12  23  37  60  93 126 155 193 242 294 351
#     4  12  25  42  62  88 122 160 198 241 294 347
#     4  10  20  35  58  87 117 151 195 240 293 347
#     4  10  22  37  58  89 121 151 189 241 296 347
#     4  10  20  36  58  83 114 152 195 243 291 347
#     4  10  21  35  53  80 114 153 194 241 297 353
#     4  10  19  33  55  83 113 145 190 243 294 357
#
# _framework density 17.868057
#
# number of rings (size 3 to 8) (size 9 to 14) (size 15 to 20)
#    0.000    1.333    3.333    3.250    0.000    2.000 
#    0.000    0.833    0.000    0.000    0.000    0.000 
#    0.000    0.000    0.000    0.000    0.000    0.000 
#
# Total GULP energy -268270.073755 kJ/mol
# GULP energy per Si atom -5588.959870 kJ/mol
# Density = 1.782739 g / cm^3
# Si number density = 17.868057 Si / 1000 Ang^3
#
#
#
# Elastic Constant Matrix: (Units=GPa)
#
#
# Indices 1 2 3 4 5 6 
#
# 1 63.8772 52.2262 55.7532 0.0000 0.0000 0.0000
# 2 52.2262 140.5193 79.6238 0.0000 0.0000 0.0000
# 3 55.7532 79.6238 172.1260 0.0000 0.0000 0.0000
# 4 0.0000 0.0000 0.0000 38.5385 0.0000 0.0000
# 5 0.0000 0.0000 0.0000 0.0000 33.9171 0.0000
# 6 0.0000 0.0000 0.0000 0.0000 0.0000 -38.9280
#
#
#
# Elastic Compliance Matrix: (Units=1/GPa)
#
#
# Indices 1 2 3 4 5 6 
#
# 1 0.025590 -0.006524 -0.005271 0.000000 0.000000 0.000000
# 2 -0.006524 0.011308 -0.003118 0.000000 0.000000 0.000000
# 3 -0.005271 -0.003118 0.008959 0.000000 0.000000 0.000000
# 4 0.000000 0.000000 0.000000 0.025948 0.000000 0.000000
# 5 0.000000 0.000000 0.000000 0.000000 0.029484 0.000000
# 6 0.000000 0.000000 0.000000 0.000000 0.000000 -0.025688
#
#
# Mechanical properties :
#
#
# Convention : Reuss Voigt Hill
#
# Bulk Modulus (GPa) = 62.37718 83.52542 72.95130
# Shear Modulus (GPa) = 45.13912 19.30015 32.21963
#
# Velocity S-wave (km/s) = 5.03163 3.29013 4.25101
# Velocity P-wave (km/s) = 8.29108 7.82818 8.06295
#
# Compressibility (1/GPa) = 0.01603150
#
# Stress axis : x y z
#
# Youngs Moduli (GPa) = 39.07844 88.43403 111.61819
#
# Poissons Ratio (x) = 0.57696 0.58830
# Poissons Ratio (y) = 0.25495 0.34799
# Poissons Ratio (z) = 0.20597 0.27571
#
# Static dielectric constant tensor:
#      x y z
#    x 1.603100 0.000000 0.000000 
#    y 0.000000 1.608970 0.000000 
#    z 0.000000 0.000000 1.575280 
# 
# From -- ./inp_files/27702.got.cif
#   From: 2010.05.17/outbox.cif.g08.bks.cpg/sg51_14_cif.got.tgz:27702.got - 2010.06.03 11:52:47.
