data_PCOD9401630
_publ_section_title
;
Structure prediction by ZEFSAII (Michael W. Deem and Ramdas Pophale) SiO2 
 PCOD9401630
Probable space group: P M M A
;
_chemical_formula_sum "Si O2"
_cell_formula_units_Z 40
_cell_length_a 20.617859
_cell_length_b 11.948462
_cell_length_c 9.209886
_cell_angle_alpha 90.000000
_cell_angle_beta 90.000000
_cell_angle_gamma 90.000000
_cell_volume 2268.871117
_symmetry_space_group_name_H-M "P M M A"
_symmetry_group_IT_number 51
_symmetry_cell_setting 'orthorhombic'
loop_
_space_group_symop_operation_xyz
x,y,z
1/2-x,-y,z
1/2+x,-y,-z
-x,y,-z
-x,-y,-z
1/2+x,y,-z
1/2-x,y,z
x,-y,z
loop_
_atom_site_type_symbol
_atom_site_label
_atom_site_fract_x
_atom_site_fract_y
_atom_site_fract_z
Si Si1 0.816915 0.000000 0.162344
Si Si2 0.821772 0.758168 0.300509
Si Si3 0.542647 0.366723 0.855576
Si Si4 0.822860 0.634590 0.990416
Si Si5 0.535339 0.789243 0.353195
Si Si6 0.545369 0.000000 0.137045
O O1 0.818068 0.110551 0.260312
O O2 0.881997 0.000000 0.073032
O O3 0.750000 0.000000 0.075880
O O4 0.750000 0.727001 0.362288
O O5 0.828764 0.692081 0.147917
O O6 0.890747 0.746187 0.380567
O O7 0.542571 0.500000 0.832128
O O8 0.507943 0.305260 0.723781
O O9 0.500000 0.343959 0.000000
O O10 0.616513 0.330566 0.890985
O O11 0.750000 0.660241 0.935255
O O12 0.827480 0.500000 0.008857
O O13 0.500000 0.824703 0.500000
O O14 0.537894 0.891644 0.239026
O O15 0.500000 0.000000 0.000000
#
# Coordination Sequence:
#
# PCOD9401630 Si02
#       6
#     4   8   8   8   8   4
#     4   8  16  29  48  75  98 122 162 213 256 298
#     4   9  17  31  51  73  99 134 176 213 254 308
#     4  10  19  33  53  76 104 135 174 220 260 302
#     4   9  17  30  51  77 102 132 174 223 264 299
#     4  11  22  35  52  78 110 140 173 214 264 318
#     4  10  21  35  58  77 101 138 176 219 262 306
#
# _framework density 17.629912999999998
#
# number of rings (size 3 to 8) (size 9 to 14) (size 15 to 20)
#    0.000    2.400    2.000    0.900    2.800    0.400 
#    0.000    1.000    0.000    1.200    0.000    0.000 
#    0.000    0.000    0.000    0.000    0.000    0.000 
#
# Total GULP energy -222673.476827 kJ/mol
# GULP energy per Si atom -5566.836921 kJ/mol
# Density = 1.758979 g / cm^3
# Si number density = 17.629913 Si / 1000 Ang^3
#
#
#
# Elastic Constant Matrix: (Units=GPa)
#
#
# Indices 1 2 3 4 5 6 
#
# 1 201.7699 22.8327 48.5346 0.0000 0.0000 0.0000
# 2 22.8327 28.2895 11.3914 0.0000 0.0000 0.0000
# 3 48.5346 11.3914 45.3396 0.0000 0.0000 0.0000
# 4 0.0000 0.0000 0.0000 9.5322 0.0000 0.0000
# 5 0.0000 0.0000 0.0000 0.0000 21.5930 0.0000
# 6 0.0000 0.0000 0.0000 0.0000 0.0000 -9.3697
#
#
#
# Elastic Compliance Matrix: (Units=1/GPa)
#
#
# Indices 1 2 3 4 5 6 
#
# 1 0.006879 -0.002878 -0.006641 0.000000 0.000000 0.000000
# 2 -0.002878 0.040532 -0.007102 0.000000 0.000000 0.000000
# 3 -0.006641 -0.007102 0.030949 0.000000 0.000000 0.000000
# 4 0.000000 0.000000 0.000000 0.104907 0.000000 0.000000
# 5 0.000000 0.000000 0.000000 0.000000 0.046311 0.000000
# 6 0.000000 0.000000 0.000000 0.000000 0.000000 -0.106728
#
#
# Mechanical properties :
#
#
# Convention : Reuss Voigt Hill
#
# Bulk Modulus (GPa) = 22.16455 48.99071 35.57763
# Shear Modulus (GPa) = 29.21700 17.19381 23.20540
#
# Velocity S-wave (km/s) = 4.07534 3.12631 3.63195
# Velocity P-wave (km/s) = 5.89440 6.39378 6.14916
#
# Compressibility (1/GPa) = 0.04511709
#
# Stress axis : x y z
#
# Youngs Moduli (GPa) = 145.36404 24.67205 32.31112
#
# Poissons Ratio (x) = 0.07101 0.21458
# Poissons Ratio (y) = 0.41839 0.22949
# Poissons Ratio (z) = 0.96535 0.17523
#
# Static dielectric constant tensor:
#      x y z
#    x 1.682240 0.000000 0.000000 
#    y 0.000000 1.621040 0.000000 
#    z 0.000000 0.000000 1.539260 
# 
# From -- ./inp_files/10681.got.cif
#   From: 2010.05.17/outbox.cif.g08.bks.cpg/sg51_6_cif.got.tgz:10681.got - 2010.06.03 11:52:47.
