data_PCOD9401212
_publ_section_title
;
Structure prediction by ZEFSAII (Michael W. Deem and Ramdas Pophale) SiO2 
 PCOD9401212
Probable space group: P M M A
;
_chemical_formula_sum "Si O2"
_cell_formula_units_Z 52
_cell_length_a 8.078015
_cell_length_b 14.050192
_cell_length_c 24.871971
_cell_angle_alpha 90.000000
_cell_angle_beta 90.000000
_cell_angle_gamma 90.000000
_cell_volume 2822.910551
_symmetry_space_group_name_H-M "P M M A"
_symmetry_group_IT_number 51
_symmetry_cell_setting 'orthorhombic'
loop_
_space_group_symop_operation_xyz
x,y,z
1/2-x,-y,z
1/2+x,-y,-z
-x,y,-z
-x,-y,-z
1/2+x,y,-z
1/2-x,y,z
x,-y,z
loop_
_atom_site_type_symbol
_atom_site_label
_atom_site_fract_x
_atom_site_fract_y
_atom_site_fract_z
Si Si1 0.049147 0.709493 0.438096
Si Si2 0.946547 0.392109 0.940958
Si Si3 0.946561 0.707523 0.166469
Si Si4 0.555767 0.204525 0.666114
Si Si5 0.050944 0.500000 0.437598
Si Si6 0.049173 0.392591 0.725237
Si Si7 0.550083 0.894030 0.772051
O O1 0.250000 0.708153 0.436520
O O2 0.988217 0.786138 0.394398
O O3 0.989631 0.603673 0.419340
O O4 0.000000 0.724986 0.500000
O O5 0.750000 0.398449 0.941082
O O6 0.015529 0.500000 0.933512
O O7 0.995837 0.325789 0.891643
O O8 0.000000 0.358273 0.000000
O O9 0.750000 0.708894 0.166222
O O10 0.996804 0.632296 0.213000
O O11 0.004698 0.810828 0.186615
O O12 0.750000 0.181156 0.661452
O O13 0.535098 0.310279 0.690703
O O14 0.485509 0.136589 0.712650
O O15 0.250000 0.500000 0.431955
O O16 0.000000 0.500000 0.500000
O O17 0.250000 0.384928 0.720271
O O18 0.000517 0.500000 0.710923
O O19 0.750000 0.895178 0.769211
O O20 0.492867 0.000000 0.786265
#
# Coordination Sequence:
#
# PCOD9401212 Si02
#       7
#     8   8   8   8   4   8   8
#     4   9  17  28  42  60  85 116 153 191 232 282
#     4  10  20  33  51  77 110 147 183 212 240 278
#     4  10  19  32  51  74 102 133 168 208 249 295
#     4   9  18  30  46  68  90 117 155 197 241 289
#     4   8  14  24  36  52  76 108 144 180 215 258
#     4   9  18  30  43  64  95 128 157 190 236 286
#     4   9  18  34  54  74  96 123 159 205 256 307
#
# _framework density 18.420703
#
# number of rings (size 3 to 8) (size 9 to 14) (size 15 to 20)
#    0.000    2.769    0.000    1.385    1.077    3.385 
#    0.000    0.000    0.000    0.923    0.000    0.000 
#    0.000    0.000    0.000    0.000    0.000    0.000 
#
# Total GULP energy -289702.402266 kJ/mol
# GULP energy per Si atom -5571.200044 kJ/mol
# Density = 1.837878 g / cm^3
# Si number density = 18.420703 Si / 1000 Ang^3
#
#
#
# Elastic Constant Matrix: (Units=GPa)
#
#
# Indices 1 2 3 4 5 6 
#
# 1 14.0199 2.4375 4.3182 0.0000 0.0000 0.0000
# 2 2.4375 53.8801 28.3592 0.0000 0.0000 0.0000
# 3 4.3182 28.3592 119.0578 0.0000 0.0000 0.0000
# 4 0.0000 0.0000 0.0000 18.8864 0.0000 0.0000
# 5 0.0000 0.0000 0.0000 0.0000 18.2311 0.0000
# 6 0.0000 0.0000 0.0000 0.0000 0.0000 14.5183
#
#
#
# Elastic Compliance Matrix: (Units=1/GPa)
#
#
# Indices 1 2 3 4 5 6 
#
# 1 0.072353 -0.002163 -0.002109 0.000000 0.000000 0.000000
# 2 -0.002163 0.021285 -0.004992 0.000000 0.000000 0.000000
# 3 -0.002109 -0.004992 0.009665 0.000000 0.000000 0.000000
# 4 0.000000 0.000000 0.000000 0.052948 0.000000 0.000000
# 5 0.000000 0.000000 0.000000 0.000000 0.054851 0.000000
# 6 0.000000 0.000000 0.000000 0.000000 0.000000 0.068879
#
#
# Mechanical properties :
#
#
# Convention : Reuss Voigt Hill
#
# Bulk Modulus (GPa) = 11.79591 28.57639 20.18615
# Shear Modulus (GPa) = 15.30147 20.45002 17.87574
#
# Velocity S-wave (km/s) = 2.88526 3.33553 3.11853
# Velocity P-wave (km/s) = 4.18535 5.51191 4.89379
#
# Compressibility (1/GPa) = 0.08477515
#
# Stress axis : x y z
#
# Youngs Moduli (GPa) = 13.82117 46.98188 103.46890
#
# Poissons Ratio (x) = 0.10163 0.21821
# Poissons Ratio (y) = 0.02990 0.51647
# Poissons Ratio (z) = 0.02915 0.23451
#
# Static dielectric constant tensor:
#      x y z
#    x 1.644990 0.000000 0.000000 
#    y 0.000000 1.654880 0.000000 
#    z 0.000000 0.000000 1.730060 
# 
# From -- ./inp_files/31771.got.cif
#   From: 2010.05.17/outbox.cif.g08.bks.cpg/sg51_16_cif.got.tgz:31771.got - 2010.06.03 11:52:47.
