data_PCOD9401226
_publ_section_title
;
Structure prediction by ZEFSAII (Michael W. Deem and Ramdas Pophale) SiO2 
 PCOD9401226
Probable space group: P M M A
;
_chemical_formula_sum "Si O2"
_cell_formula_units_Z 48
_cell_length_a 8.495646
_cell_length_b 16.919744
_cell_length_c 19.146308
_cell_angle_alpha 90.000000
_cell_angle_beta 90.000000
_cell_angle_gamma 90.000000
_cell_volume 2752.169873
_symmetry_space_group_name_H-M "P M M A"
_symmetry_group_IT_number 51
_symmetry_cell_setting 'orthorhombic'
loop_
_space_group_symop_operation_xyz
x,y,z
1/2-x,-y,z
1/2+x,-y,-z
-x,y,-z
-x,-y,-z
1/2+x,y,-z
1/2-x,y,z
x,-y,z
loop_
_atom_site_type_symbol
_atom_site_label
_atom_site_fract_x
_atom_site_fract_y
_atom_site_fract_z
Si Si1 0.942103 0.411823 0.212633
Si Si2 0.061536 0.172145 0.421020
Si Si3 0.060859 0.678252 0.923784
Si Si4 0.062603 0.000000 0.080015
Si Si5 0.939463 0.000000 0.579203
Si Si6 0.060197 0.746775 0.712026
Si Si7 0.940433 0.160140 0.150747
O O1 0.750000 0.412706 0.213925
O O2 0.996895 0.500000 0.229560
O O3 0.989840 0.384122 0.135074
O O4 0.991550 0.340079 0.262603
O O5 0.250000 0.173279 0.423878
O O6 0.000000 0.183067 0.500000
O O7 0.001310 0.233162 0.364219
O O8 0.008024 0.084986 0.393166
O O9 0.250000 0.678302 0.924155
O O10 0.012196 0.766197 0.898862
O O11 0.000000 0.660087 0.000000
O O12 0.006590 0.078336 0.121427
O O13 0.250000 0.000000 0.076787
O O14 0.000000 0.000000 0.000000
O O15 0.000000 0.000000 0.500000
O O16 0.750000 0.000000 0.580235
O O17 0.250000 0.747625 0.711616
O O18 0.011167 0.810943 0.771352
O O19 0.750000 0.154969 0.150184
#
# Coordination Sequence:
#
# PCOD9401226 Si02
#       7
#     8   8   8   4   4   8   8
#     4   8  15  30  51  72  95 125 159 194 237 292
#     4  10  19  32  51  75 104 134 165 201 240 286
#     4   9  17  29  47  70  95 124 158 196 240 290
#     4  12  24  35  50  71  96 130 174 218 254 289
#     4   8  16  29  44  65  93 124 154 184 221 265
#     4   9  18  33  53  75  98 127 163 201 244 293
#     4   9  19  35  50  67  95 130 167 205 246 293
#
# _framework density 17.440783
#
# number of rings (size 3 to 8) (size 9 to 14) (size 15 to 20)
#    0.000    2.833    0.000    3.750    0.000    4.333 
#    0.000    4.167    0.000    2.000    0.000    0.000 
#    0.000    0.000    0.000    0.000    0.000    0.000 
#
# Total GULP energy -267395.221839 kJ/mol
# GULP energy per Si atom -5570.733788 kJ/mol
# Density = 1.740109 g / cm^3
# Si number density = 17.440783 Si / 1000 Ang^3
#
#
#
# Elastic Constant Matrix: (Units=GPa)
#
#
# Indices 1 2 3 4 5 6 
#
# 1 21.4750 26.8332 23.5987 0.0000 0.0000 0.0000
# 2 26.8332 145.9680 80.4073 0.0000 0.0000 0.0000
# 3 23.5987 80.4073 126.3554 0.0000 0.0000 0.0000
# 4 0.0000 0.0000 0.0000 12.6760 0.0000 0.0000
# 5 0.0000 0.0000 0.0000 0.0000 27.1737 0.0000
# 6 0.0000 0.0000 0.0000 0.0000 0.0000 11.9288
#
#
#
# Elastic Compliance Matrix: (Units=1/GPa)
#
#
# Indices 1 2 3 4 5 6 
#
# 1 0.064124 -0.007992 -0.006890 0.000000 0.000000 0.000000
# 2 -0.007992 0.011545 -0.005854 0.000000 0.000000 0.000000
# 3 -0.006890 -0.005854 0.012926 0.000000 0.000000 0.000000
# 4 0.000000 0.000000 0.000000 0.078889 0.000000 0.000000
# 5 0.000000 0.000000 0.000000 0.000000 0.036800 0.000000
# 6 0.000000 0.000000 0.000000 0.000000 0.000000 0.083831
#
#
# Mechanical properties :
#
#
# Convention : Reuss Voigt Hill
#
# Bulk Modulus (GPa) = 21.22147 61.71963 41.47055
# Shear Modulus (GPa) = 14.48037 21.21964 17.85001
#
# Velocity S-wave (km/s) = 2.88455 3.49186 3.20263
# Velocity P-wave (km/s) = 4.82580 7.19183 6.12416
#
# Compressibility (1/GPa) = 0.04712208
#
# Stress axis : x y z
#
# Youngs Moduli (GPa) = 15.59483 86.61990 77.36265
#
# Poissons Ratio (x) = 0.69230 0.53303
# Poissons Ratio (y) = 0.12464 0.45287
# Poissons Ratio (z) = 0.10745 0.50706
#
# Static dielectric constant tensor:
#      x y z
#    x 1.601920 0.000000 0.000000 
#    y 0.000000 1.614730 0.000000 
#    z 0.000000 0.000000 1.572150 
# 
# From -- ./inp_files/27680.got.cif
#   From: 2010.05.17/outbox.cif.g08.bks.cpg/sg51_14_cif.got.tgz:27680.got - 2010.06.03 11:52:47.
