data_PCOD9401854
_publ_section_title
;
Structure prediction by ZEFSAII (Michael W. Deem and Ramdas Pophale) SiO2 
 PCOD9401854
Probable space group: P M M A
;
_chemical_formula_sum "Si O2"
_cell_formula_units_Z 48
_cell_length_a 14.859765
_cell_length_b 8.517348
_cell_length_c 20.947689
_cell_angle_alpha 90.000000
_cell_angle_beta 90.000000
_cell_angle_gamma 90.000000
_cell_volume 2651.260801
_symmetry_space_group_name_H-M "P M M A"
_symmetry_group_IT_number 51
_symmetry_cell_setting 'orthorhombic'
loop_
_space_group_symop_operation_xyz
x,y,z
1/2-x,-y,z
1/2+x,-y,-z
-x,y,-z
-x,-y,-z
1/2+x,y,-z
1/2-x,y,z
x,-y,z
loop_
_atom_site_type_symbol
_atom_site_label
_atom_site_fract_x
_atom_site_fract_y
_atom_site_fract_z
Si Si1 0.558775 0.189389 0.180398
Si Si2 0.444555 0.310482 0.063030
Si Si3 0.558741 0.811339 0.325150
Si Si4 0.562258 0.687789 0.560659
Si Si5 0.250000 0.810281 0.874400
Si Si6 0.750000 0.310141 0.980926
Si Si7 0.750000 0.686656 0.372743
Si Si8 0.250000 0.185501 0.483978
O O1 0.490600 0.248461 0.126786
O O2 0.537976 0.238672 0.252605
O O3 0.659156 0.242847 0.160604
O O4 0.558791 0.000000 0.179350
O O5 0.447307 0.500000 0.064470
O O6 0.341480 0.259821 0.053728
O O7 0.500000 0.259438 0.000000
O O8 0.490353 0.738854 0.376097
O O9 0.659810 0.758562 0.342658
O O10 0.554255 0.000000 0.329141
O O11 0.500000 0.733041 0.500000
O O12 0.572950 0.500000 0.559305
O O13 0.659447 0.766259 0.552799
O O14 0.250000 0.000000 0.874767
O O15 0.250000 0.751236 0.946843
O O16 0.750000 0.500000 0.983685
O O17 0.750000 0.500000 0.364312
O O18 0.750000 0.726365 0.448004
O O19 0.250000 0.000000 0.496109
#
# Coordination Sequence:
#
# PCOD9401854 Si02
#       8
#     8   8   8   8   4   4   4   4
#     4  10  22  38  57  84 118 152 191 238 289 347
#     4  10  20  35  57  82 112 150 193 238 286 344
#     4  11  23  40  61  87 121 160 201 246 299 357
#     4  11  23  40  63  90 123 157 200 250 296 351
#     4  10  19  33  55  83 115 149 184 231 290 340
#     4  10  20  35  54  83 115 143 187 239 284 336
#     4  12  23  37  59  91 125 157 194 243 300 357
#     4  12  24  39  64  93 121 157 201 245 296 353
#
# _framework density 18.104593999999999
#
# number of rings (size 3 to 8) (size 9 to 14) (size 15 to 20)
#    0.000    1.333    3.333    3.000    0.000    4.333 
#    0.000    1.667    0.000    4.000    0.000    0.000 
#    0.000    0.000    0.000    0.000    0.000    0.000 
#
# Total GULP energy -268269.852522 kJ/mol
# GULP energy per Si atom -5588.955261 kJ/mol
# Density = 1.806339 g / cm^3
# Si number density = 18.104594 Si / 1000 Ang^3
#
#
#
# Elastic Constant Matrix: (Units=GPa)
#
#
# Indices 1 2 3 4 5 6 
#
# 1 141.0339 15.8915 72.7610 0.0000 0.0000 0.0000
# 2 15.8915 20.9537 8.4703 0.0000 0.0000 0.0000
# 3 72.7610 8.4703 153.0552 0.0000 0.0000 0.0000
# 4 0.0000 0.0000 0.0000 80.0206 0.0000 0.0000
# 5 0.0000 0.0000 0.0000 0.0000 10.0573 0.0000
# 6 0.0000 0.0000 0.0000 0.0000 0.0000 44.1984
#
#
#
# Elastic Compliance Matrix: (Units=1/GPa)
#
#
# Indices 1 2 3 4 5 6 
#
# 1 0.010043 -0.005817 -0.004452 0.000000 0.000000 0.000000
# 2 -0.005817 0.052185 -0.000123 0.000000 0.000000 0.000000
# 3 -0.004452 -0.000123 0.008657 0.000000 0.000000 0.000000
# 4 0.000000 0.000000 0.000000 0.012497 0.000000 0.000000
# 5 0.000000 0.000000 0.000000 0.000000 0.099430 0.000000
# 6 0.000000 0.000000 0.000000 0.000000 0.000000 0.022625
#
#
# Mechanical properties :
#
#
# Convention : Reuss Voigt Hill
#
# Bulk Modulus (GPa) = 19.95951 56.58761 38.27356
# Shear Modulus (GPa) = 20.58270 41.38326 30.98298
#
# Velocity S-wave (km/s) = 3.37542 4.78618 4.14131
# Velocity P-wave (km/s) = 5.12248 7.86557 6.63728
#
# Compressibility (1/GPa) = 0.05010142
#
# Stress axis : x y z
#
# Youngs Moduli (GPa) = 99.57194 19.16241 115.51315
#
# Poissons Ratio (x) = 0.11147 0.51431
# Poissons Ratio (y) = 0.57920 0.01418
# Poissons Ratio (z) = 0.44334 0.00235
#
# Static dielectric constant tensor:
#      x y z
#    x 1.603570 0.000000 0.000000 
#    y 0.000000 1.616160 0.000000 
#    z 0.000000 0.000000 1.592860 
# 
# From -- ./inp_files/29703.got.cif
#   From: 2010.05.17/outbox.cif.g08.bks.cpg/sg51_15_cif.got.tgz:29703.got - 2010.06.03 11:52:47.
