data_PCOD9401925
_publ_section_title
;
Structure prediction by ZEFSAII (Michael W. Deem and Ramdas Pophale) SiO2 
 PCOD9401925
Probable space group: P M M A
;
_chemical_formula_sum "Si O2"
_cell_formula_units_Z 44
_cell_length_a 9.113670
_cell_length_b 17.221613
_cell_length_c 16.039573
_cell_angle_alpha 90.000000
_cell_angle_beta 90.000000
_cell_angle_gamma 90.000000
_cell_volume 2517.444629
_symmetry_space_group_name_H-M "P M M A"
_symmetry_group_IT_number 51
_symmetry_cell_setting 'orthorhombic'
loop_
_space_group_symop_operation_xyz
x,y,z
1/2-x,-y,z
1/2+x,-y,-z
-x,y,-z
-x,-y,-z
1/2+x,y,-z
1/2-x,y,z
x,-y,z
loop_
_atom_site_type_symbol
_atom_site_label
_atom_site_fract_x
_atom_site_fract_y
_atom_site_fract_z
Si Si1 0.417594 0.629111 0.690826
Si Si2 0.926441 0.788440 0.730194
Si Si3 0.918953 0.587479 0.115927
Si Si4 0.077029 0.500000 0.411981
Si Si5 0.575526 0.749244 0.917246
Si Si6 0.073981 0.090474 0.413460
O O1 0.250000 0.629734 0.659672
O O2 0.485033 0.714409 0.697160
O O3 0.415020 0.594027 0.783921
O O4 0.520285 0.575131 0.636563
O O5 0.750000 0.775274 0.725035
O O6 0.961059 0.791918 0.829491
O O7 0.962645 0.859860 0.669036
O O8 0.750000 0.597960 0.086351
O O9 0.967978 0.500000 0.093820
O O10 0.018359 0.660078 0.089927
O O11 0.250000 0.500000 0.419219
O O12 0.000000 0.500000 0.500000
O O13 0.750000 0.749589 0.926793
O O14 0.500000 0.782810 0.000000
O O15 0.250000 0.094491 0.423881
O O16 0.000000 0.118089 0.500000
O O17 0.032723 0.000000 0.402031
#
# Coordination Sequence:
#
# PCOD9401925 Si02
#       6
#     8   8   8   4   8   8
#     4  10  19  34  52  72  98 131 172 216 263 311
#     4   9  19  35  54  78 106 140 179 214 258 317
#     4   9  17  31  50  69  93 126 165 212 261 312
#     4  12  24  36  50  68  95 132 175 222 268 312
#     4  10  20  33  49  71  99 134 176 221 264 311
#     4   9  18  34  57  84 113 140 168 208 258 314
#
# _framework density 17.478041999999999
#
# number of rings (size 3 to 8) (size 9 to 14) (size 15 to 20)
#    0.000    2.364    0.909    1.909    0.000    3.636 
#    0.000    1.818    0.000    0.545    0.000    0.000 
#    0.000    0.000    0.000    0.000    0.000    0.545 
#
# Total GULP energy -245327.903579 kJ/mol
# GULP energy per Si atom -5575.634172 kJ/mol
# Density = 1.743826 g / cm^3
# Si number density = 17.478042 Si / 1000 Ang^3
#
#
#
# Elastic Constant Matrix: (Units=GPa)
#
#
# Indices 1 2 3 4 5 6 
#
# 1 81.1347 32.6058 61.8637 0.0000 0.0000 0.0000
# 2 32.6058 72.4680 60.1568 0.0000 0.0000 0.0000
# 3 61.8637 60.1568 138.2257 0.0000 0.0000 0.0000
# 4 0.0000 0.0000 0.0000 29.7747 0.0000 0.0000
# 5 0.0000 0.0000 0.0000 0.0000 31.7175 0.0000
# 6 0.0000 0.0000 0.0000 0.0000 0.0000 19.1485
#
#
#
# Elastic Compliance Matrix: (Units=1/GPa)
#
#
# Indices 1 2 3 4 5 6 
#
# 1 0.018957 -0.002327 -0.007472 0.000000 0.000000 0.000000
# 2 -0.002327 0.021890 -0.008485 0.000000 0.000000 0.000000
# 3 -0.007472 -0.008485 0.014271 0.000000 0.000000 0.000000
# 4 0.000000 0.000000 0.000000 0.033586 0.000000 0.000000
# 5 0.000000 0.000000 0.000000 0.000000 0.031528 0.000000
# 6 0.000000 0.000000 0.000000 0.000000 0.000000 0.052224
#
#
# Mechanical properties :
#
#
# Convention : Reuss Voigt Hill
#
# Bulk Modulus (GPa) = 53.90642 66.78678 60.34660
# Shear Modulus (GPa) = 23.23337 25.27493 24.25415
#
# Velocity S-wave (km/s) = 3.64990 3.80688 3.72922
# Velocity P-wave (km/s) = 6.97651 7.59065 7.29005
#
# Compressibility (1/GPa) = 0.01855067
#
# Stress axis : x y z
#
# Youngs Moduli (GPa) = 52.74960 45.68321 70.07062
#
# Poissons Ratio (x) = 0.10632 0.52355
# Poissons Ratio (y) = 0.12276 0.59455
# Poissons Ratio (z) = 0.39413 0.38762
#
# Static dielectric constant tensor:
#      x y z
#    x 1.592770 0.000000 0.000000 
#    y 0.000000 1.530140 0.000000 
#    z 0.000000 0.000000 1.536310 
# 
# From -- ./inp_files/20870.got.cif
#   From: 2010.05.17/outbox.cif.g08.bks.cpg/sg51_11_cif.got.tgz:20870.got - 2010.06.03 11:52:47.
