data_PCOD9401847
_publ_section_title
;
Structure prediction by ZEFSAII (Michael W. Deem and Ramdas Pophale) SiO2 
 PCOD9401847
Probable space group: P M M A
;
_chemical_formula_sum "Si O2"
_cell_formula_units_Z 48
_cell_length_a 15.809845
_cell_length_b 8.874477
_cell_length_c 17.625725
_cell_angle_alpha 90.000000
_cell_angle_beta 90.000000
_cell_angle_gamma 90.000000
_cell_volume 2472.961586
_symmetry_space_group_name_H-M "P M M A"
_symmetry_group_IT_number 51
_symmetry_cell_setting 'orthorhombic'
loop_
_space_group_symop_operation_xyz
x,y,z
1/2-x,-y,z
1/2+x,-y,-z
-x,y,-z
-x,-y,-z
1/2+x,y,-z
1/2-x,y,z
x,-y,z
loop_
_atom_site_type_symbol
_atom_site_label
_atom_site_fract_x
_atom_site_fract_y
_atom_site_fract_z
Si Si1 0.905372 0.321000 0.838890
Si Si2 0.396874 0.826043 0.006116
Si Si3 0.343596 0.319853 0.688259
Si Si4 0.844900 0.820532 0.685216
Si Si5 0.593356 0.818904 0.160032
Si Si6 0.495455 0.681897 0.412218
O O1 0.906194 0.500000 0.832094
O O2 0.871880 0.271145 0.921450
O O3 0.856082 0.248576 0.768940
O O4 0.001172 0.257439 0.833445
O O5 0.372909 0.000000 0.019408
O O6 0.500000 0.821675 0.000000
O O7 0.367998 0.778102 0.922251
O O8 0.250000 0.290406 0.656773
O O9 0.351163 0.500000 0.701254
O O10 0.354623 0.236335 0.768101
O O11 0.419102 0.274725 0.632334
O O12 0.750000 0.788117 0.657525
O O13 0.915961 0.751457 0.631155
O O14 0.856111 0.000000 0.690079
O O15 0.583126 0.000000 0.160310
O O16 0.500000 0.727465 0.500000
O O17 0.488564 0.500000 0.409310
#
# Coordination Sequence:
#
# PCOD9401847 Si02
#       6
#     8   8   8   8   8   8
#     4  11  20  32  55  85 117 155 199 247 300 352
#     4   8  16  30  49  77 113 154 199 244 292 347
#     4  10  21  37  58  87 122 158 196 241 294 351
#     4  11  24  41  62  89 122 160 201 247 298 352
#     4  10  19  33  55  82 115 157 202 246 294 348
#     4  10  22  41  66  94 122 155 194 239 296 360
#
# _framework density 19.409925999999999
#
# number of rings (size 3 to 8) (size 9 to 14) (size 15 to 20)
#    0.000    2.000    1.667    3.500    0.000    6.333 
#    0.000    2.500    0.000    1.000    0.000    0.000 
#    0.000    0.000    0.000    0.000    0.000    0.000 
#
# Total GULP energy -268081.020242 kJ/mol
# GULP energy per Si atom -5585.021255 kJ/mol
# Density = 1.936575 g / cm^3
# Si number density = 19.409926 Si / 1000 Ang^3
#
#
#
# Elastic Constant Matrix: (Units=GPa)
#
#
# Indices 1 2 3 4 5 6 
#
# 1 114.2805 48.4136 77.1573 0.0000 0.0000 0.0000
# 2 48.4136 47.2982 49.6364 0.0000 0.0000 0.0000
# 3 77.1573 49.6364 159.6704 0.0000 0.0000 0.0000
# 4 0.0000 0.0000 0.0000 41.6552 0.0000 0.0000
# 5 0.0000 0.0000 0.0000 0.0000 -7.0711 0.0000
# 6 0.0000 0.0000 0.0000 0.0000 0.0000 11.0628
#
#
#
# Elastic Compliance Matrix: (Units=1/GPa)
#
#
# Indices 1 2 3 4 5 6 
#
# 1 0.017161 -0.013155 -0.004203 0.000000 0.000000 0.000000
# 2 -0.013155 0.041463 -0.006533 0.000000 0.000000 0.000000
# 3 -0.004203 -0.006533 0.010325 0.000000 0.000000 0.000000
# 4 0.000000 0.000000 0.000000 0.024007 0.000000 0.000000
# 5 0.000000 0.000000 0.000000 0.000000 -0.141420 0.000000
# 6 0.000000 0.000000 0.000000 0.000000 0.000000 0.090393
#
#
# Mechanical properties :
#
#
# Convention : Reuss Voigt Hill
#
# Bulk Modulus (GPa) = 47.24240 74.62930 60.93585
# Shear Modulus (GPa) = 51.67076 18.86550 35.26813
#
# Velocity S-wave (km/s) = 5.16513 3.12100 4.26727
# Velocity P-wave (km/s) = 7.74362 7.17774 7.46604
#
# Compressibility (1/GPa) = 0.02116743
#
# Stress axis : x y z
#
# Youngs Moduli (GPa) = 58.27106 24.11784 96.85273
#
# Poissons Ratio (x) = 0.31726 0.40711
# Poissons Ratio (y) = 0.76654 0.63272
# Poissons Ratio (z) = 0.24494 0.15756
#
# Static dielectric constant tensor:
#      x y z
#    x 1.704880 0.000000 0.000000 
#    y 0.000000 1.647670 0.000000 
#    z 0.000000 0.000000 1.671890 
# 
# From -- ./inp_files/29434.got.cif
#   From: 2010.05.17/outbox.cif.g08.bks.cpg/sg51_15_cif.got.tgz:29434.got - 2010.06.03 11:52:47.
