data_PCOD9401319
_publ_section_title
;
Structure prediction by ZEFSAII (Michael W. Deem and Ramdas Pophale) SiO2 
 PCOD9401319
Probable space group: P M M A
;
_chemical_formula_sum "Si O2"
_cell_formula_units_Z 44
_cell_length_a 8.237770
_cell_length_b 29.584496
_cell_length_c 9.643579
_cell_angle_alpha 90.000000
_cell_angle_beta 90.000000
_cell_angle_gamma 90.000000
_cell_volume 2350.239277
_symmetry_space_group_name_H-M "P M M A"
_symmetry_group_IT_number 51
_symmetry_cell_setting 'orthorhombic'
loop_
_space_group_symop_operation_xyz
x,y,z
1/2-x,-y,z
1/2+x,-y,-z
-x,y,-z
-x,-y,-z
1/2+x,y,-z
1/2-x,y,z
x,-y,z
loop_
_atom_site_type_symbol
_atom_site_label
_atom_site_fract_x
_atom_site_fract_y
_atom_site_fract_z
Si Si1 0.946055 0.048481 0.660738
Si Si2 0.446020 0.583266 0.656379
Si Si3 0.056370 0.768337 0.842119
Si Si4 0.944672 0.147428 0.659855
Si Si5 0.446289 0.314409 0.656694
Si Si6 0.553703 0.500000 0.157892
O O1 0.750000 0.048414 0.666217
O O2 0.001323 0.097659 0.712973
O O3 0.000000 0.048182 0.500000
O O4 0.002504 0.000000 0.721422
O O5 0.500000 0.572634 0.500000
O O6 0.250000 0.583488 0.659155
O O7 0.501932 0.634405 0.689203
O O8 0.503769 0.544814 0.761316
O O9 0.250000 0.766072 0.841484
O O10 0.993746 0.723501 0.762944
O O11 0.005503 0.812204 0.755061
O O12 0.000000 0.770547 0.000000
O O13 0.750000 0.147802 0.660358
O O14 0.000000 0.153010 0.500000
O O15 0.500000 0.303579 0.500000
O O16 0.250000 0.314458 0.659084
O O17 0.750000 0.500000 0.162596
O O18 0.500000 0.500000 0.000000
#
# Coordination Sequence:
#
# PCOD9401319 Si02
#       6
#     8   8   8   8   8   4
#     4   8  14  25  43  69  99 128 159 198 244 291
#     4   9  18  34  54  77 102 130 166 207 249 295
#     4  11  23  37  52  72 100 134 170 210 255 303
#     4  10  19  32  52  77 104 134 168 207 249 296
#     4   9  19  35  55  77 101 129 164 206 251 299
#     4  10  21  34  50  74 106 138 169 206 246 292
#
# _framework density 18.721496999999999
#
# number of rings (size 3 to 8) (size 9 to 14) (size 15 to 20)
#    0.000    2.545    0.000    1.909    0.000    5.091 
#    0.000    0.000    0.000    0.545    0.000    0.000 
#    0.000    0.000    0.000    0.000    0.000    0.000 
#
# Total GULP energy -245290.658603 kJ/mol
# GULP energy per Si atom -5574.787696 kJ/mol
# Density = 1.867889 g / cm^3
# Si number density = 18.721497 Si / 1000 Ang^3
#
#
#
# Elastic Constant Matrix: (Units=GPa)
#
#
# Indices 1 2 3 4 5 6 
#
# 1 16.5216 22.2569 13.0648 0.0000 0.0000 0.0000
# 2 22.2569 198.5888 124.2402 0.0000 0.0000 0.0000
# 3 13.0648 124.2402 118.2484 0.0000 0.0000 0.0000
# 4 0.0000 0.0000 0.0000 -2.8984 0.0000 0.0000
# 5 0.0000 0.0000 0.0000 0.0000 27.6105 0.0000
# 6 0.0000 0.0000 0.0000 0.0000 0.0000 19.0564
#
#
#
# Elastic Compliance Matrix: (Units=1/GPa)
#
#
# Indices 1 2 3 4 5 6 
#
# 1 0.071383 -0.008948 0.001514 0.000000 0.000000 0.000000
# 2 -0.008948 0.015816 -0.015629 0.000000 0.000000 0.000000
# 3 0.001514 -0.015629 0.024710 0.000000 0.000000 0.000000
# 4 0.000000 0.000000 0.000000 -0.345023 0.000000 0.000000
# 5 0.000000 0.000000 0.000000 0.000000 0.036218 0.000000
# 6 0.000000 0.000000 0.000000 0.000000 0.000000 0.052476
#
#
# Mechanical properties :
#
#
# Convention : Reuss Voigt Hill
#
# Bulk Modulus (GPa) = 15.20110 72.49808 43.84959
# Shear Modulus (GPa) = -65.47284 20.34017 -22.56634
#
# Velocity S-wave (km/s) = -5.92013 3.29973 -3.47561
# Velocity P-wave (km/s) = 6.21236 7.30248 2.71411
#
# Compressibility (1/GPa) = 0.06578473
#
# Stress axis : x y z
#
# Youngs Moduli (GPa) = 14.00894 63.22735 40.46915
#
# Poissons Ratio (x) = 0.56573 -0.06128
# Poissons Ratio (y) = 0.12535 0.63248
# Poissons Ratio (z) = -0.02121 0.98817
#
# Static dielectric constant tensor:
#      x y z
#    x 1.665940 0.000000 0.000000 
#    y 0.000000 1.710410 0.000000 
#    z 0.000000 0.000000 1.583030 
# 
# From -- ./inp_files/5819.got.cif
#   From: 2010.05.17/outbox.cif.g08.bks.cpg/sg51_3_cif.got.tgz:5819.got - 2010.06.03 11:52:47.
