data_PCOD9401777
_publ_section_title
;
Structure prediction by ZEFSAII (Michael W. Deem and Ramdas Pophale) SiO2 
 PCOD9401777
Probable space group: P M M A
;
_chemical_formula_sum "Si O2"
_cell_formula_units_Z 64
_cell_length_a 16.993720
_cell_length_b 14.370767
_cell_length_c 12.433693
_cell_angle_alpha 90.000000
_cell_angle_beta 90.000000
_cell_angle_gamma 90.000000
_cell_volume 3036.466865
_symmetry_space_group_name_H-M "P M M A"
_symmetry_group_IT_number 51
_symmetry_cell_setting 'orthorhombic'
loop_
_space_group_symop_operation_xyz
x,y,z
1/2-x,-y,z
1/2+x,-y,-z
-x,y,-z
-x,-y,-z
1/2+x,y,-z
1/2-x,y,z
x,-y,z
loop_
_atom_site_type_symbol
_atom_site_label
_atom_site_fract_x
_atom_site_fract_y
_atom_site_fract_z
Si Si1 0.658484 0.709701 0.165931
Si Si2 0.340561 0.136485 0.525257
Si Si3 0.908586 0.390217 0.966399
Si Si4 0.597389 0.101432 0.703940
Si Si5 0.609131 0.690084 0.729780
Si Si6 0.835317 0.642578 0.509161
Si Si7 0.549445 0.604145 0.331133
Si Si8 0.413131 0.898591 0.757448
O O1 0.750000 0.718102 0.192592
O O2 0.615592 0.639873 0.248609
O O3 0.617980 0.810375 0.177388
O O4 0.644297 0.667376 0.048809
O O5 0.250000 0.106435 0.511014
O O6 0.392467 0.103405 0.425137
O O7 0.340136 0.248307 0.520278
O O8 0.373808 0.107184 0.639688
O O9 0.893588 0.500000 0.976414
O O10 0.893597 0.356886 0.845370
O O11 0.000000 0.373995 0.000000
O O12 0.632834 0.201238 0.738847
O O13 0.506764 0.105820 0.739985
O O14 0.629244 0.000000 0.740583
O O15 0.659037 0.638929 0.637882
O O16 0.521094 0.677538 0.680174
O O17 0.750000 0.607195 0.473386
O O18 0.908931 0.600765 0.446687
O O19 0.521756 0.500000 0.301778
O O20 0.393760 0.000000 0.805217
#
# Coordination Sequence:
#
# PCOD9401777 Si02
#       8
#     8   8   8   8   8   8   8   8
#     4  12  25  42  64  94 128 159 204 270 327 372
#     4  10  19  33  54  86 128 170 211 260 314 373
#     4  11  23  43  68  90 117 161 215 266 317 376
#     4  10  20  35  58  89 124 167 215 257 308 378
#     4  11  22  41  66  91 126 167 216 263 313 380
#     4  10  22  38  58  90 134 172 202 251 318 383
#     4  12  23  39  64  92 122 163 208 259 321 387
#     4  11  21  36  60  89 125 170 214 258 316 383
#
# _framework density 21.077127999999998
#
# number of rings (size 3 to 8) (size 9 to 14) (size 15 to 20)
#    0.000    1.125    3.750    2.625    0.000    8.500 
#    0.000    0.625    0.000    2.250    0.000    0.000 
#    0.000    0.000    0.000    0.000    0.000    0.000 
#
# Total GULP energy -357687.073735 kJ/mol
# GULP energy per Si atom -5588.860527 kJ/mol
# Density = 2.102916 g / cm^3
# Si number density = 21.077128 Si / 1000 Ang^3
#
#
#
# Elastic Constant Matrix: (Units=GPa)
#
#
# Indices 1 2 3 4 5 6 
#
# 1 37.4782 -12.2496 0.1855 0.0000 0.0000 0.0000
# 2 -12.2496 123.7263 20.1205 0.0000 0.0000 0.0000
# 3 0.1855 20.1205 86.5969 0.0000 0.0000 0.0000
# 4 0.0000 0.0000 0.0000 46.1287 0.0000 0.0000
# 5 0.0000 0.0000 0.0000 0.0000 17.9519 0.0000
# 6 0.0000 0.0000 0.0000 0.0000 0.0000 -11.2086
#
#
#
# Elastic Compliance Matrix: (Units=1/GPa)
#
#
# Indices 1 2 3 4 5 6 
#
# 1 0.027618 0.002852 -0.000722 0.000000 0.000000 0.000000
# 2 0.002852 0.008694 -0.002026 0.000000 0.000000 0.000000
# 3 -0.000722 -0.002026 0.012020 0.000000 0.000000 0.000000
# 4 0.000000 0.000000 0.000000 0.021678 0.000000 0.000000
# 5 0.000000 0.000000 0.000000 0.000000 0.055704 0.000000
# 6 0.000000 0.000000 0.000000 0.000000 0.000000 -0.089218
#
#
# Mechanical properties :
#
#
# Convention : Reuss Voigt Hill
#
# Bulk Modulus (GPa) = 20.60171 29.32379 24.96275
# Shear Modulus (GPa) = 95.29324 26.55742 60.92533
#
# Velocity S-wave (km/s) = 6.73126 3.55351 5.38225
# Velocity P-wave (km/s) = 8.37907 5.54792 7.10592
#
# Compressibility (1/GPa) = 0.04853965
#
# Stress axis : x y z
#
# Youngs Moduli (GPa) = 36.20849 115.01931 83.19415
#
# Poissons Ratio (x) = -0.32800 0.06005
# Poissons Ratio (y) = -0.10326 0.16857
# Poissons Ratio (z) = 0.02613 0.23305
#
# Static dielectric constant tensor:
#      x y z
#    x 1.763870 0.000000 0.000000 
#    y 0.000000 1.790620 0.000000 
#    z 0.000000 0.000000 1.739820 
# 
# From -- ./inp_files/17512.got.cif
#   From: 2010.05.17/outbox.cif.g08.bks.cpg/sg51_9_cif.got.tgz:17512.got - 2010.06.03 11:52:47.
