data_PCOD9401752
_publ_section_title
;
Structure prediction by ZEFSAII (Michael W. Deem and Ramdas Pophale) SiO2 
 PCOD9401752
Probable space group: P M M A
;
_chemical_formula_sum "Si O2"
_cell_formula_units_Z 40
_cell_length_a 8.587788
_cell_length_b 27.354811
_cell_length_c 9.215667
_cell_angle_alpha 90.000000
_cell_angle_beta 90.000000
_cell_angle_gamma 90.000000
_cell_volume 2164.919772
_symmetry_space_group_name_H-M "P M M A"
_symmetry_group_IT_number 51
_symmetry_cell_setting 'orthorhombic'
loop_
_space_group_symop_operation_xyz
x,y,z
1/2-x,-y,z
1/2+x,-y,-z
-x,y,-z
-x,-y,-z
1/2+x,y,-z
1/2-x,y,z
x,-y,z
loop_
_atom_site_type_symbol
_atom_site_label
_atom_site_fract_x
_atom_site_fract_y
_atom_site_fract_z
Si Si1 0.437759 0.159554 0.835077
Si Si2 0.935643 0.654924 0.164476
Si Si3 0.064212 0.252321 0.337620
Si Si4 0.436808 0.553342 0.165328
Si Si5 0.562132 0.947550 0.165055
O O1 0.250000 0.162877 0.836896
O O2 0.506718 0.203603 0.743305
O O3 0.484251 0.105574 0.774839
O O4 0.500000 0.163006 0.000000
O O5 0.750000 0.655879 0.159639
O O6 0.999622 0.700413 0.253987
O O7 0.991931 0.602827 0.228988
O O8 0.000000 0.658373 0.000000
O O9 0.250000 0.253784 0.337857
O O10 0.000000 0.252325 0.500000
O O11 0.250000 0.557585 0.161771
O O12 0.477155 0.500000 0.230358
O O13 0.500000 0.552180 0.000000
O O14 0.750000 0.947595 0.161298
O O15 0.511812 0.000000 0.231237
O O16 0.500000 0.947697 0.000000
#
# Coordination Sequence:
#
# PCOD9401752 Si02
#       5
#     8   8   8   8   8
#     4  10  19  33  54  81 110 140 176 216 259 307
#     4  11  21  35  56  82 110 141 178 218 261 308
#     4  12  25  41  57  75 102 136 176 220 269 320
#     4   9  16  27  46  75 109 141 173 212 258 305
#     4   8  14  25  44  72 105 137 168 206 252 301
#
# _framework density 18.476436
#
# number of rings (size 3 to 8) (size 9 to 14) (size 15 to 20)
#    0.000    2.000    0.000    6.600    0.000    2.000 
#    0.000    0.000    0.000    1.200    0.000    0.000 
#    0.000    0.000    0.000    0.000    0.000    0.000 
#
# Total GULP energy -223027.031230 kJ/mol
# GULP energy per Si atom -5575.675781 kJ/mol
# Density = 1.843438 g / cm^3
# Si number density = 18.476436 Si / 1000 Ang^3
#
#
#
# Elastic Constant Matrix: (Units=GPa)
#
#
# Indices 1 2 3 4 5 6 
#
# 1 125.7257 79.4546 30.7184 0.0000 0.0000 0.0000
# 2 79.4546 251.5584 68.2159 0.0000 0.0000 0.0000
# 3 30.7184 68.2159 54.1545 0.0000 0.0000 0.0000
# 4 0.0000 0.0000 0.0000 -7.1310 0.0000 0.0000
# 5 0.0000 0.0000 0.0000 0.0000 22.3659 0.0000
# 6 0.0000 0.0000 0.0000 0.0000 0.0000 28.4896
#
#
#
# Elastic Compliance Matrix: (Units=1/GPa)
#
#
# Indices 1 2 3 4 5 6 
#
# 1 0.010176 -0.002504 -0.002618 0.000000 0.000000 0.000000
# 2 -0.002504 0.006654 -0.006961 0.000000 0.000000 0.000000
# 3 -0.002618 -0.006961 0.028719 0.000000 0.000000 0.000000
# 4 0.000000 0.000000 0.000000 -0.140232 0.000000 0.000000
# 5 0.000000 0.000000 0.000000 0.000000 0.044711 0.000000
# 6 0.000000 0.000000 0.000000 0.000000 0.000000 0.035101
#
#
# Mechanical properties :
#
#
# Convention : Reuss Voigt Hill
#
# Bulk Modulus (GPa) = 46.76634 87.57961 67.17297
# Shear Modulus (GPa) = 304.47175 25.61486 165.04330
#
# Velocity S-wave (km/s) = 12.85095 3.72742 9.46152
# Velocity P-wave (km/s) = 15.67043 8.12579 12.48180
#
# Compressibility (1/GPa) = 0.02138290
#
# Stress axis : x y z
#
# Youngs Moduli (GPa) = 98.27038 150.28952 34.82005
#
# Poissons Ratio (x) = 0.37636 0.09115
# Poissons Ratio (y) = 0.24609 0.24238
# Poissons Ratio (z) = 0.25725 1.04617
#
# Static dielectric constant tensor:
#      x y z
#    x 1.620500 0.000000 0.000000 
#    y 0.000000 1.710460 0.000000 
#    z 0.000000 0.000000 1.582890 
# 
# From -- ./inp_files/5498.got.cif
#   From: 2010.05.17/outbox.cif.g08.bks.cpg/sg51_3_cif.got.tgz:5498.got - 2010.06.03 11:52:47.
