data_PCOD9401492
_publ_section_title
;
Structure prediction by ZEFSAII (Michael W. Deem and Ramdas Pophale) SiO2 
 PCOD9401492
Probable space group: P M M A
;
_chemical_formula_sum "Si O2"
_cell_formula_units_Z 48
_cell_length_a 9.968306
_cell_length_b 9.007397
_cell_length_c 30.030685
_cell_angle_alpha 90.000000
_cell_angle_beta 90.000000
_cell_angle_gamma 90.000000
_cell_volume 2696.409847
_symmetry_space_group_name_H-M "P M M A"
_symmetry_group_IT_number 51
_symmetry_cell_setting 'orthorhombic'
loop_
_space_group_symop_operation_xyz
x,y,z
1/2-x,-y,z
1/2+x,-y,-z
-x,y,-z
-x,-y,-z
1/2+x,y,-z
1/2-x,y,z
x,-y,z
loop_
_atom_site_type_symbol
_atom_site_label
_atom_site_fract_x
_atom_site_fract_y
_atom_site_fract_z
Si Si1 0.587380 0.330012 0.280816
Si Si2 0.750000 0.176669 0.940437
Si Si3 0.908239 0.820863 0.542893
Si Si4 0.989591 0.323161 0.100836
Si Si5 0.750000 0.176633 0.046589
Si Si6 0.407044 0.320227 0.618246
Si Si7 0.912642 0.829170 0.191278
O O1 0.750000 0.333739 0.279586
O O2 0.540819 0.500000 0.274880
O O3 0.555604 0.278831 0.330854
O O4 0.543304 0.229653 0.239653
O O5 0.623934 0.253617 0.918144
O O6 0.750000 0.000000 0.932689
O O7 0.750000 0.199427 0.993680
O O8 0.750000 0.776349 0.539181
O O9 0.000000 0.781650 0.500000
O O10 0.987328 0.749626 0.584317
O O11 0.909811 0.000000 0.546885
O O12 0.987559 0.500000 0.097950
O O13 0.875523 0.251908 0.070088
O O14 0.965900 0.271542 0.151442
O O15 0.750000 0.000000 0.055243
O O16 0.250000 0.276489 0.609735
O O17 0.410741 0.500000 0.615706
O O18 0.750000 0.822553 0.189796
O O19 0.952167 0.000000 0.184451
#
# Coordination Sequence:
#
# PCOD9401492 Si02
#       7
#     8   4   8   8   4   8   8
#     4   8  15  29  50  77 109 140 176 225 277 327
#     4  11  25  43  61  81 115 153 187 233 288 343
#     4  10  21  36  54  77 107 145 188 233 279 329
#     4  12  24  38  60  87 116 150 189 235 285 340
#     4  11  23  41  63  87 113 149 191 233 284 339
#     4   9  18  33  54  81 111 143 179 224 278 334
#     4  10  19  32  54  83 114 146 186 232 279 332
#
# _framework density 17.801449999999999
#
# number of rings (size 3 to 8) (size 9 to 14) (size 15 to 20)
#    0.000    2.000    0.833    4.500    0.000    6.333 
#    0.000    1.667    1.833    0.000    0.000    0.000 
#    0.000    0.000    0.000    0.000    0.000    0.000 
#
# Total GULP energy -267828.397744 kJ/mol
# GULP energy per Si atom -5579.758286 kJ/mol
# Density = 1.776093 g / cm^3
# Si number density = 17.801450 Si / 1000 Ang^3
#
#
#
# Elastic Constant Matrix: (Units=GPa)
#
#
# Indices 1 2 3 4 5 6 
#
# 1 118.7508 51.2210 65.3501 0.0000 0.0000 0.0000
# 2 51.2210 92.5473 80.2095 0.0000 0.0000 0.0000
# 3 65.3501 80.2095 141.9666 0.0000 0.0000 0.0000
# 4 0.0000 0.0000 0.0000 36.6923 0.0000 0.0000
# 5 0.0000 0.0000 0.0000 0.0000 -4.1882 0.0000
# 6 0.0000 0.0000 0.0000 0.0000 0.0000 27.6462
#
#
#
# Elastic Compliance Matrix: (Units=1/GPa)
#
#
# Indices 1 2 3 4 5 6 
#
# 1 0.011857 -0.003590 -0.003430 0.000000 0.000000 0.000000
# 2 -0.003590 0.022260 -0.010924 0.000000 0.000000 0.000000
# 3 -0.003430 -0.010924 0.014795 0.000000 0.000000 0.000000
# 4 0.000000 0.000000 0.000000 0.027254 0.000000 0.000000
# 5 0.000000 0.000000 0.000000 0.000000 -0.238769 0.000000
# 6 0.000000 0.000000 0.000000 0.000000 0.000000 0.036171
#
#
# Mechanical properties :
#
#
# Convention : Reuss Voigt Hill
#
# Bulk Modulus (GPa) = 76.78062 82.98064 79.88063
# Shear Modulus (GPa) = -58.00216 22.46235 -17.76991
#
# Velocity S-wave (km/s) = -5.71433 3.55607 -3.16290
# Velocity P-wave (km/s) = 0.55927 7.97349 5.62423
#
# Compressibility (1/GPa) = 0.01302412
#
# Stress axis : x y z
#
# Youngs Moduli (GPa) = 84.33979 44.92399 67.59164
#
# Poissons Ratio (x) = 0.16126 0.23183
# Poissons Ratio (y) = 0.30275 0.73838
# Poissons Ratio (z) = 0.28927 0.49076
#
# Static dielectric constant tensor:
#      x y z
#    x 1.574850 0.000000 0.000000 
#    y 0.000000 1.594660 0.000000 
#    z 0.000000 0.000000 1.605880 
# 
# From -- ./inp_files/37117.got.cif
#   From: 2010.05.17/outbox.cif.g08.bks.cpg/sg51_19_cif.got.tgz:37117.got - 2010.06.03 11:52:47.
