data_PCOD9401384
_publ_section_title
;
Structure prediction by ZEFSAII (Michael W. Deem and Ramdas Pophale) SiO2 
 PCOD9401384
Probable space group: P M M A
;
_chemical_formula_sum "Si O2"
_cell_formula_units_Z 64
_cell_length_a 25.157409
_cell_length_b 7.616167
_cell_length_c 16.887775
_cell_angle_alpha 90.000000
_cell_angle_beta 90.000000
_cell_angle_gamma 90.000000
_cell_volume 3235.748830
_symmetry_space_group_name_H-M "P M M A"
_symmetry_group_IT_number 51
_symmetry_cell_setting 'orthorhombic'
loop_
_space_group_symop_operation_xyz
x,y,z
1/2-x,-y,z
1/2+x,-y,-z
-x,y,-z
-x,-y,-z
1/2+x,y,-z
1/2-x,y,z
x,-y,z
loop_
_atom_site_type_symbol
_atom_site_label
_atom_site_fract_x
_atom_site_fract_y
_atom_site_fract_z
Si Si1 0.895492 0.210037 0.136453
Si Si2 0.525123 0.789291 0.275701
Si Si3 0.189786 0.714355 0.471948
Si Si4 0.917151 0.209926 0.797270
Si Si5 0.809155 0.710508 0.253036
Si Si6 0.308783 0.288956 0.290192
Si Si7 0.613611 0.710681 0.391395
Si Si8 0.559650 0.214173 0.974251
O O1 0.938104 0.276562 0.202118
O O2 0.837987 0.250461 0.171004
O O3 0.902711 0.000000 0.134446
O O4 0.904747 0.275112 0.047863
O O5 0.465238 0.725416 0.259372
O O6 0.554654 0.748687 0.358433
O O7 0.524791 0.000000 0.270985
O O8 0.250000 0.764696 0.498960
O O9 0.189557 0.500000 0.472702
O O10 0.183393 0.771608 0.381055
O O11 0.141275 0.773998 0.527709
O O12 0.858928 0.242932 0.763110
O O13 0.925578 0.277718 0.886762
O O14 0.923409 0.000000 0.801412
O O15 0.750000 0.780424 0.258394
O O16 0.806990 0.500000 0.262430
O O17 0.847409 0.778587 0.322084
O O18 0.250000 0.227493 0.263567
O O19 0.306817 0.500000 0.293018
O O20 0.616683 0.500000 0.393989
O O21 0.561837 0.000000 0.971293
O O22 0.500000 0.260546 0.000000
#
# Coordination Sequence:
#
# PCOD9401384 Si02
#       8
#     8   8   8   8   8   8   8   8
#     4   9  16  28  47  68  90 118 155 196 230 267
#     4   9  17  29  45  69 100 128 151 184 237 289
#     4   8  14  28  51  73  91 119 164 208 238 272
#     4  10  19  32  53  76  96 123 159 197 239 286
#     4   9  17  28  42  63  95 129 154 183 230 282
#     4   9  19  36  55  73  95 124 158 199 245 285
#     4   9  16  27  47  72  94 120 160 201 232 270
#     4   9  15  28  51  74  92 116 157 200 233 270
#
# _framework density 19.779039000000001
#
# number of rings (size 3 to 8) (size 9 to 14) (size 15 to 20)
#    0.000    3.000    1.250    1.125    0.000    2.500 
#    0.000    2.500    0.000   10.125    0.000    0.000 
#    0.000    0.000    0.000    0.000    0.000    0.000 
#
# Total GULP energy -356577.764302 kJ/mol
# GULP energy per Si atom -5571.527567 kJ/mol
# Density = 1.973402 g / cm^3
# Si number density = 19.779039 Si / 1000 Ang^3
#
#
#
# Elastic Constant Matrix: (Units=GPa)
#
#
# Indices 1 2 3 4 5 6 
#
# 1 123.6070 0.5625 65.6220 0.0000 0.0000 0.0000
# 2 0.5625 37.6738 3.7485 0.0000 0.0000 0.0000
# 3 65.6220 3.7485 97.3542 0.0000 0.0000 0.0000
# 4 0.0000 0.0000 0.0000 12.2079 0.0000 0.0000
# 5 0.0000 0.0000 0.0000 0.0000 26.6994 0.0000
# 6 0.0000 0.0000 0.0000 0.0000 0.0000 20.6889
#
#
#
# Elastic Compliance Matrix: (Units=1/GPa)
#
#
# Indices 1 2 3 4 5 6 
#
# 1 0.012615 0.000660 -0.008529 0.000000 0.000000 0.000000
# 2 0.000660 0.026680 -0.001472 0.000000 0.000000 0.000000
# 3 -0.008529 -0.001472 0.016077 0.000000 0.000000 0.000000
# 4 0.000000 0.000000 0.000000 0.081914 0.000000 0.000000
# 5 0.000000 0.000000 0.000000 0.000000 0.037454 0.000000
# 6 0.000000 0.000000 0.000000 0.000000 0.000000 0.048335
#
#
# Mechanical properties :
#
#
# Convention : Reuss Voigt Hill
#
# Bulk Modulus (GPa) = 27.25459 44.27790 35.76625
# Shear Modulus (GPa) = 19.68604 24.49938 22.09271
#
# Velocity S-wave (km/s) = 3.15826 3.52327 3.34574
# Velocity P-wave (km/s) = 5.20662 6.24389 5.74870
#
# Compressibility (1/GPa) = 0.03669106
#
# Stress axis : x y z
#
# Youngs Moduli (GPa) = 79.27151 37.48084 62.20012
#
# Poissons Ratio (x) = -0.02475 0.53048
# Poissons Ratio (y) = -0.05234 0.09158
# Poissons Ratio (z) = 0.67607 0.05518
#
# Static dielectric constant tensor:
#      x y z
#    x 1.706900 0.000000 0.000000 
#    y 0.000000 1.754580 0.000000 
#    z 0.000000 0.000000 1.700300 
# 
# From -- ./inp_files/30816.got.cif
#   From: 2010.05.17/outbox.cif.g08.bks.cpg/sg51_16_cif.got.tgz:30816.got - 2010.06.03 11:52:47.
