data_PCOD9401101
_publ_section_title
;
Structure prediction by ZEFSAII (Michael W. Deem and Ramdas Pophale) SiO2 
 PCOD9401101
Probable space group: P M M A
;
_chemical_formula_sum "Si O2"
_cell_formula_units_Z 64
_cell_length_a 7.797886
_cell_length_b 32.530028
_cell_length_c 14.737063
_cell_angle_alpha 90.000000
_cell_angle_beta 90.000000
_cell_angle_gamma 90.000000
_cell_volume 3738.283716
_symmetry_space_group_name_H-M "P M M A"
_symmetry_group_IT_number 51
_symmetry_cell_setting 'orthorhombic'
loop_
_space_group_symop_operation_xyz
x,y,z
1/2-x,-y,z
1/2+x,-y,-z
-x,y,-z
-x,-y,-z
1/2+x,y,-z
1/2-x,y,z
x,-y,z
loop_
_atom_site_type_symbol
_atom_site_label
_atom_site_fract_x
_atom_site_fract_y
_atom_site_fract_z
Si Si1 0.542858 0.866228 0.893533
Si Si2 0.956938 0.546372 0.104288
Si Si3 0.045857 0.756759 0.600634
Si Si4 0.453655 0.214661 0.206382
Si Si5 0.043527 0.662515 0.600555
Si Si6 0.543481 0.044182 0.892897
Si Si7 0.046626 0.377181 0.782616
Si Si8 0.044757 0.703334 0.105866
O O1 0.750000 0.866880 0.886448
O O2 0.476554 0.827037 0.838150
O O3 0.480073 0.911207 0.860214
O O4 0.500000 0.861617 0.000000
O O5 0.750000 0.545687 0.110848
O O6 0.019653 0.500000 0.123360
O O7 0.024487 0.581897 0.170265
O O8 0.000000 0.556328 0.000000
O O9 0.250000 0.755245 0.607319
O O10 0.978612 0.709644 0.608472
O O11 0.000000 0.771889 0.500000
O O12 0.980555 0.782112 0.686208
O O13 0.250000 0.214696 0.188988
O O14 0.522027 0.256174 0.158595
O O15 0.250000 0.664309 0.607525
O O16 0.976599 0.635675 0.684142
O O17 0.000000 0.647359 0.500000
O O18 0.750000 0.044040 0.883706
O O19 0.479692 0.000000 0.856038
O O20 0.500000 0.044125 0.000000
O O21 0.250000 0.383967 0.771298
O O22 0.024415 0.338009 0.848137
O O23 0.250000 0.701997 0.114905
O O24 0.000000 0.705624 0.000000
#
# Coordination Sequence:
#
# PCOD9401101 Si02
#       8
#     8   8   8   8   8   8   8   8
#     4   9  17  28  41  59  86 120 155 188 222 263
#     4   9  18  32  50  70  92 118 147 181 220 262
#     4  10  19  32  50  68  88 114 147 186 225 265
#     4  10  20  32  44  62  89 121 153 184 219 262
#     4   9  18  31  48  69  90 114 143 180 220 261
#     4   8  13  22  37  56  78 107 145 187 226 261
#     4  10  19  33  50  69  92 116 149 185 221 263
#     4  11  22  32  44  63  90 122 154 184 216 254
#
# _framework density 17.120156000000001
#
# number of rings (size 3 to 8) (size 9 to 14) (size 15 to 20)
#    0.000    2.500    1.250    1.500    0.000    3.500 
#    0.000    0.000    0.000    0.375    0.000    0.000 
#    0.000    0.500    0.000    0.875    0.000    1.500 
#
# Total GULP energy -356719.893784 kJ/mol
# GULP energy per Si atom -5573.748340 kJ/mol
# Density = 1.708119 g / cm^3
# Si number density = 17.120156 Si / 1000 Ang^3
#
#
#
# Elastic Constant Matrix: (Units=GPa)
#
#
# Indices 1 2 3 4 5 6 
#
# 1 18.9131 -0.2221 -10.4703 0.0000 0.0000 0.0000
# 2 -0.2221 137.0633 74.8241 0.0000 0.0000 0.0000
# 3 -10.4703 74.8241 110.0999 0.0000 0.0000 0.0000
# 4 0.0000 0.0000 0.0000 5.0019 0.0000 0.0000
# 5 0.0000 0.0000 0.0000 0.0000 20.3670 0.0000
# 6 0.0000 0.0000 0.0000 0.0000 0.0000 7.1682
#
#
#
# Elastic Compliance Matrix: (Units=1/GPa)
#
#
# Indices 1 2 3 4 5 6 
#
# 1 0.057583 -0.004604 0.008605 0.000000 0.000000 0.000000
# 2 -0.004604 0.011967 -0.008571 0.000000 0.000000 0.000000
# 3 0.008605 -0.008571 0.015726 0.000000 0.000000 0.000000
# 4 0.000000 0.000000 0.000000 0.199923 0.000000 0.000000
# 5 0.000000 0.000000 0.000000 0.000000 0.049099 0.000000
# 6 0.000000 0.000000 0.000000 0.000000 0.000000 0.139506
#
#
# Mechanical properties :
#
#
# Convention : Reuss Voigt Hill
#
# Bulk Modulus (GPa) = 13.13438 43.81553 28.47495
# Shear Modulus (GPa) = 9.83627 19.97039 14.90333
#
# Velocity S-wave (km/s) = 2.39956 3.41909 2.95365
# Velocity P-wave (km/s) = 3.91992 6.42148 5.31983
#
# Compressibility (1/GPa) = 0.07613607
#
# Stress axis : x y z
#
# Youngs Moduli (GPa) = 17.36622 83.56052 63.58979
#
# Poissons Ratio (x) = 0.38474 -0.54720
# Poissons Ratio (y) = 0.07996 0.54502
# Poissons Ratio (z) = -0.14944 0.71619
#
# Static dielectric constant tensor:
#      x y z
#    x 1.630400 0.000000 0.000000 
#    y 0.000000 1.623430 0.000000 
#    z 0.000000 0.000000 1.559640 
# 
# From -- ./inp_files/22607.got.cif
#   From: 2010.05.17/outbox.cif.g08.bks.cpg/sg51_12_cif.got.tgz:22607.got - 2010.06.03 11:52:47.
