data_PCOD9401022
_publ_section_title
;
Structure prediction by ZEFSAII (Michael W. Deem and Ramdas Pophale) SiO2 
 PCOD9401022
Probable space group: P M M A
;
_chemical_formula_sum "Si O2"
_cell_formula_units_Z 64
_cell_length_a 19.223235
_cell_length_b 8.918850
_cell_length_c 21.310063
_cell_angle_alpha 90.000000
_cell_angle_beta 90.000000
_cell_angle_gamma 90.000000
_cell_volume 3653.592177
_symmetry_space_group_name_H-M "P M M A"
_symmetry_group_IT_number 51
_symmetry_cell_setting 'orthorhombic'
loop_
_space_group_symop_operation_xyz
x,y,z
1/2-x,-y,z
1/2+x,-y,-z
-x,y,-z
-x,-y,-z
1/2+x,y,-z
1/2-x,y,z
x,-y,z
loop_
_atom_site_type_symbol
_atom_site_label
_atom_site_fract_x
_atom_site_fract_y
_atom_site_fract_z
Si Si1 0.426764 0.679174 0.133697
Si Si2 0.831198 0.320147 0.749120
Si Si3 0.670142 0.317503 0.382986
Si Si4 0.666566 0.676767 0.242177
Si Si5 0.920425 0.820241 0.132223
Si Si6 0.584467 0.826932 0.994593
Si Si7 0.918998 0.681391 0.502718
Si Si8 0.831424 0.179373 0.615382
O O1 0.432975 0.500000 0.133352
O O2 0.378382 0.724219 0.191980
O O3 0.503070 0.750659 0.140641
O O4 0.396919 0.733006 0.066663
O O5 0.750000 0.286326 0.761570
O O6 0.837432 0.500000 0.740818
O O7 0.850940 0.240811 0.684137
O O8 0.750000 0.269130 0.393960
O O9 0.670920 0.500000 0.382099
O O10 0.647865 0.271956 0.312886
O O11 0.620270 0.270187 0.439079
O O12 0.750000 0.690014 0.237099
O O13 0.649062 0.500000 0.236297
O O14 0.628148 0.766898 0.188291
O O15 0.926620 0.000000 0.130550
O O16 0.891744 0.773450 0.063303
O O17 0.605140 0.000000 0.985278
O O18 0.500000 0.823923 0.000000
O O19 0.914890 0.500000 0.506695
O O20 0.879389 0.750011 0.561988
O O21 0.000000 0.723138 0.500000
O O22 0.750000 0.220996 0.604599
O O23 0.836412 0.000000 0.614348
#
# Coordination Sequence:
#
# PCOD9401022 Si02
#       8
#     8   8   8   8   8   8   8   8
#     4  10  19  31  52  78 100 127 168 215 256 296
#     4   9  19  36  55  75 101 133 169 210 256 305
#     4   8  15  30  51  71  94 129 168 203 244 295
#     4   9  18  33  52  73  97 128 171 219 257 292
#     4  10  20  33  50  73 103 137 169 203 250 310
#     4   8  16  31  48  68  98 134 169 204 245 299
#     4  10  20  33  52  79 107 134 167 208 253 301
#     4  10  21  36  54  76 102 135 173 209 249 301
#
# _framework density 17.517008000000001
#
# number of rings (size 3 to 8) (size 9 to 14) (size 15 to 20)
#    0.000    2.750    0.000    3.000    0.000    6.500 
#    0.000    3.750    0.000    3.000    0.000    0.000 
#    0.000    0.000    0.000    0.000    0.000    0.000 
#
# Total GULP energy -356828.944265 kJ/mol
# GULP energy per Si atom -5575.452254 kJ/mol
# Density = 1.747714 g / cm^3
# Si number density = 17.517008 Si / 1000 Ang^3
#
#
#
# Elastic Constant Matrix: (Units=GPa)
#
#
# Indices 1 2 3 4 5 6 
#
# 1 62.9686 33.2919 88.3696 0.0000 0.0000 0.0000
# 2 33.2919 35.7124 55.4746 0.0000 0.0000 0.0000
# 3 88.3696 55.4746 196.5581 0.0000 0.0000 0.0000
# 4 0.0000 0.0000 0.0000 -57.2398 0.0000 0.0000
# 5 0.0000 0.0000 0.0000 0.0000 35.2521 0.0000
# 6 0.0000 0.0000 0.0000 0.0000 0.0000 13.2236
#
#
#
# Elastic Compliance Matrix: (Units=1/GPa)
#
#
# Indices 1 2 3 4 5 6 
#
# 1 0.050604 -0.021072 -0.016804 0.000000 0.000000 0.000000
# 2 -0.021072 0.058635 -0.007075 0.000000 0.000000 0.000000
# 3 -0.016804 -0.007075 0.014639 0.000000 0.000000 0.000000
# 4 0.000000 0.000000 0.000000 -0.017470 0.000000 0.000000
# 5 0.000000 0.000000 0.000000 0.000000 0.028367 0.000000
# 6 0.000000 0.000000 0.000000 0.000000 0.000000 0.075623
#
#
# Mechanical properties :
#
#
# Convention : Reuss Voigt Hill
#
# Bulk Modulus (GPa) = 29.43148 72.16791 50.79969
# Shear Modulus (GPa) = 16.04499 6.12072 11.08286
#
# Velocity S-wave (km/s) = 3.02978 1.87129 2.51806
# Velocity P-wave (km/s) = 5.39236 6.77917 6.12514
#
# Compressibility (1/GPa) = 0.03397723
#
# Stress axis : x y z
#
# Youngs Moduli (GPa) = 19.76140 17.05460 68.31044
#
# Poissons Ratio (x) = 0.35937 1.14787
# Poissons Ratio (y) = 0.41640 0.48331
# Poissons Ratio (z) = 0.33206 0.12066
#
# Static dielectric constant tensor:
#      x y z
#    x 1.577660 0.000000 0.000000 
#    y 0.000000 1.586520 0.000000 
#    z 0.000000 0.000000 1.600070 
# 
# From -- ./inp_files/33865.got.cif
#   From: 2010.05.17/outbox.cif.g08.bks.cpg/sg51_17_cif.got.tgz:33865.got - 2010.06.03 11:52:47.
