data_PCOD9401622
_publ_section_title
;
Structure prediction by ZEFSAII (Michael W. Deem and Ramdas Pophale) SiO2 
 PCOD9401622
Probable space group: P M M A
;
_chemical_formula_sum "Si O2"
_cell_formula_units_Z 40
_cell_length_a 14.821261
_cell_length_b 8.250862
_cell_length_c 14.637545
_cell_angle_alpha 90.000000
_cell_angle_beta 90.000000
_cell_angle_gamma 90.000000
_cell_volume 1789.998726
_symmetry_space_group_name_H-M "P M M A"
_symmetry_group_IT_number 51
_symmetry_cell_setting 'orthorhombic'
loop_
_space_group_symop_operation_xyz
x,y,z
1/2-x,-y,z
1/2+x,-y,-z
-x,y,-z
-x,-y,-z
1/2+x,y,-z
1/2-x,y,z
x,-y,z
loop_
_atom_site_type_symbol
_atom_site_label
_atom_site_fract_x
_atom_site_fract_y
_atom_site_fract_z
Si Si1 0.890194 0.000000 0.893407
Si Si2 0.103641 0.315018 0.788294
Si Si3 0.858606 0.310945 0.417592
Si Si4 0.359055 0.178909 0.389938
Si Si5 0.893628 0.674458 0.797533
Si Si6 0.889205 0.000000 0.106085
O O1 0.856888 0.836146 0.844672
O O2 0.000399 0.000000 0.886699
O O3 0.866421 0.000000 0.999625
O O4 0.142071 0.500000 0.794495
O O5 0.105216 0.264369 0.681601
O O6 0.999924 0.329123 0.818407
O O7 0.143068 0.165889 0.845711
O O8 0.750000 0.293971 0.412212
O O9 0.879610 0.500000 0.431457
O O10 0.890073 0.218808 0.507818
O O11 0.250000 0.178579 0.392574
O O12 0.385309 0.303274 0.311469
O O13 0.391067 0.000000 0.362717
O O14 0.855159 0.500000 0.824904
#
# Coordination Sequence:
#
# PCOD9401622 Si02
#       6
#     4   8   8   8   8   4
#     4   9  18  34  50  77 102 126 171 207 252 305
#     4   9  19  33  51  78 103 130 170 208 248 296
#     4   9  18  33  51  72 102 137 170 203 242 293
#     4  10  20  33  50  74 103 134 171 207 242 297
#     4  10  19  33  53  75 103 133 165 209 253 295
#     4   9  18  32  54  73 102 134 159 211 258 297
#
# _framework density 22.346382999999999
#
# number of rings (size 3 to 8) (size 9 to 14) (size 15 to 20)
#    0.000    2.600    1.000    0.600    1.400    2.800 
#    0.000    8.000    0.000    2.400    0.000    2.800 
#    0.000    0.000    0.000    0.000    0.000    0.000 
#
# Total GULP energy -223282.454644 kJ/mol
# GULP energy per Si atom -5582.061366 kJ/mol
# Density = 2.229552 g / cm^3
# Si number density = 22.346383 Si / 1000 Ang^3
#
#
#
# Elastic Constant Matrix: (Units=GPa)
#
#
# Indices 1 2 3 4 5 6 
#
# 1 49.8094 14.3627 3.1423 0.0000 0.0000 0.0000
# 2 14.3627 186.2329 91.4453 0.0000 0.0000 0.0000
# 3 3.1423 91.4453 111.5321 0.0000 0.0000 0.0000
# 4 0.0000 0.0000 0.0000 4.2875 0.0000 0.0000
# 5 0.0000 0.0000 0.0000 0.0000 33.3666 0.0000
# 6 0.0000 0.0000 0.0000 0.0000 0.0000 4.8028
#
#
#
# Elastic Compliance Matrix: (Units=1/GPa)
#
#
# Indices 1 2 3 4 5 6 
#
# 1 0.020630 -0.002186 0.001211 0.000000 0.000000 0.000000
# 2 -0.002186 0.009220 -0.007498 0.000000 0.000000 0.000000
# 3 0.001211 -0.007498 0.015079 0.000000 0.000000 0.000000
# 4 0.000000 0.000000 0.000000 0.233236 0.000000 0.000000
# 5 0.000000 0.000000 0.000000 0.000000 0.029970 0.000000
# 6 0.000000 0.000000 0.000000 0.000000 0.000000 0.208214
#
#
# Mechanical properties :
#
#
# Convention : Reuss Voigt Hill
#
# Bulk Modulus (GPa) = 35.73431 62.83055 49.28243
# Shear Modulus (GPa) = 9.21451 24.39964 16.80708
#
# Velocity S-wave (km/s) = 2.03284 3.30795 2.74545
# Velocity P-wave (km/s) = 4.64066 6.53970 5.67025
#
# Compressibility (1/GPa) = 0.02798431
#
# Stress axis : x y z
#
# Youngs Moduli (GPa) = 48.47223 108.46282 66.31604
#
# Poissons Ratio (x) = 0.23705 -0.08029
# Poissons Ratio (y) = 0.10594 0.49722
# Poissons Ratio (z) = -0.05869 0.81322
#
# Static dielectric constant tensor:
#      x y z
#    x 1.849480 0.000000 0.000000 
#    y 0.000000 1.831210 0.000000 
#    z 0.000000 0.000000 1.772230 
# 
# From -- ./inp_files/17984.got.cif
#   From: 2010.05.17/outbox.cif.g08.bks.cpg/sg51_9_cif.got.tgz:17984.got - 2010.06.03 11:52:47.
