data_PCOD9401422
_publ_section_title
;
Structure prediction by ZEFSAII (Michael W. Deem and Ramdas Pophale) SiO2 
 PCOD9401422
Probable space group: P M M A
;
_chemical_formula_sum "Si O2"
_cell_formula_units_Z 48
_cell_length_a 8.646313
_cell_length_b 31.972056
_cell_length_c 9.692693
_cell_angle_alpha 90.000000
_cell_angle_beta 90.000000
_cell_angle_gamma 90.000000
_cell_volume 2679.451963
_symmetry_space_group_name_H-M "P M M A"
_symmetry_group_IT_number 51
_symmetry_cell_setting 'orthorhombic'
loop_
_space_group_symop_operation_xyz
x,y,z
1/2-x,-y,z
1/2+x,-y,-z
-x,y,-z
-x,-y,-z
1/2+x,y,-z
1/2-x,y,z
x,-y,z
loop_
_atom_site_type_symbol
_atom_site_label
_atom_site_fract_x
_atom_site_fract_y
_atom_site_fract_z
Si Si1 0.436223 0.288391 0.655534
Si Si2 0.064137 0.620282 0.655623
Si Si3 0.435242 0.547408 0.153806
Si Si4 0.564828 0.048860 0.650363
Si Si5 0.063013 0.196751 0.655695
Si Si6 0.564285 0.880608 0.154088
O O1 0.500000 0.288516 0.500000
O O2 0.250000 0.288403 0.652158
O O3 0.483088 0.333656 0.714443
O O4 0.484305 0.242914 0.711698
O O5 0.250000 0.618432 0.651406
O O6 0.000000 0.617283 0.500000
O O7 0.000649 0.582616 0.746192
O O8 0.250000 0.549884 0.150570
O O9 0.478681 0.500000 0.197499
O O10 0.500000 0.553554 0.000000
O O11 0.500000 0.061211 0.500000
O O12 0.750000 0.052604 0.649155
O O13 0.494727 0.078364 0.766685
O O14 0.524557 0.000000 0.672252
O O15 0.250000 0.195726 0.647834
O O16 0.012614 0.159454 0.755315
O O17 0.000000 0.191661 0.500000
O O18 0.750000 0.880912 0.150049
O O19 0.500000 0.878588 0.000000
#
# Coordination Sequence:
#
# PCOD9401422 Si02
#       6
#     8   8   8   8   8   8
#     4   8  15  29  49  74 103 133 167 208 254 303
#     4  10  19  32  53  79 107 137 170 212 258 305
#     4  10  21  37  55  74  99 133 172 213 258 310
#     4  10  21  38  60  84 109 138 174 216 260 309
#     4   9  18  33  54  78 103 134 173 214 256 305
#     4  11  23  37  54  77 108 144 179 218 263 310
#
# _framework density 17.914109
#
# number of rings (size 3 to 8) (size 9 to 14) (size 15 to 20)
#    0.000    2.333    0.000    2.500    0.000    6.000 
#    0.000    0.833    0.000    2.000    0.000    0.000 
#    0.000    0.000    0.000    0.000    0.000    0.000 
#
# Total GULP energy -267646.523640 kJ/mol
# GULP energy per Si atom -5575.969243 kJ/mol
# Density = 1.787334 g / cm^3
# Si number density = 17.914109 Si / 1000 Ang^3
#
#
#
# Elastic Constant Matrix: (Units=GPa)
#
#
# Indices 1 2 3 4 5 6 
#
# 1 38.3987 44.6169 30.8626 0.0000 0.0000 0.0000
# 2 44.6169 159.0725 95.4604 0.0000 0.0000 0.0000
# 3 30.8626 95.4604 101.8362 0.0000 0.0000 0.0000
# 4 0.0000 0.0000 0.0000 -10.5074 0.0000 0.0000
# 5 0.0000 0.0000 0.0000 0.0000 31.2095 0.0000
# 6 0.0000 0.0000 0.0000 0.0000 0.0000 -14.7160
#
#
#
# Elastic Compliance Matrix: (Units=1/GPa)
#
#
# Indices 1 2 3 4 5 6 
#
# 1 0.039201 -0.008837 -0.003597 0.000000 0.000000 0.000000
# 2 -0.008837 0.016362 -0.012660 0.000000 0.000000 0.000000
# 3 -0.003597 -0.012660 0.022777 0.000000 0.000000 0.000000
# 4 0.000000 0.000000 0.000000 -0.095171 0.000000 0.000000
# 5 0.000000 0.000000 0.000000 0.000000 0.032042 0.000000
# 6 0.000000 0.000000 0.000000 0.000000 0.000000 -0.067953
#
#
# Mechanical properties :
#
#
# Convention : Reuss Voigt Hill
#
# Bulk Modulus (GPa) = 35.51944 71.24302 53.38123
# Shear Modulus (GPa) = 732.18602 9.75504 370.97053
#
# Velocity S-wave (km/s) = 20.23876 2.33608 14.40599
# Velocity P-wave (km/s) = 23.79105 6.86527 17.50923
#
# Compressibility (1/GPa) = 0.02815360
#
# Stress axis : x y z
#
# Youngs Moduli (GPa) = 25.50945 61.11695 43.90431
#
# Poissons Ratio (x) = 0.54007 0.15792
# Poissons Ratio (y) = 0.22542 0.55581
# Poissons Ratio (z) = 0.09176 0.77372
#
# Static dielectric constant tensor:
#      x y z
#    x 1.603410 0.000000 0.000000 
#    y 0.000000 1.659380 0.000000 
#    z 0.000000 0.000000 1.558250 
# 
# From -- ./inp_files/5968.got.cif
#   From: 2010.05.17/outbox.cif.g08.bks.cpg/sg51_3_cif.got.tgz:5968.got - 2010.06.03 11:52:47.
