data_PCOD9401341
_publ_section_title
;
Structure prediction by ZEFSAII (Michael W. Deem and Ramdas Pophale) SiO2 
 PCOD9401341
Probable space group: P M M A
;
_chemical_formula_sum "Si O2"
_cell_formula_units_Z 56
_cell_length_a 22.265848
_cell_length_b 7.757249
_cell_length_c 17.119254
_cell_angle_alpha 90.000000
_cell_angle_beta 90.000000
_cell_angle_gamma 90.000000
_cell_volume 2956.867118
_symmetry_space_group_name_H-M "P M M A"
_symmetry_group_IT_number 51
_symmetry_cell_setting 'orthorhombic'
loop_
_space_group_symop_operation_xyz
x,y,z
1/2-x,-y,z
1/2+x,-y,-z
-x,y,-z
-x,-y,-z
1/2+x,y,-z
1/2-x,y,z
x,-y,z
loop_
_atom_site_type_symbol
_atom_site_label
_atom_site_fract_x
_atom_site_fract_y
_atom_site_fract_z
Si Si1 0.092301 0.791918 0.971027
Si Si2 0.061902 0.704795 0.461614
Si Si3 0.972484 0.789808 0.877812
Si Si4 0.485075 0.790915 0.298294
Si Si5 0.182278 0.297411 0.845861
Si Si6 0.816599 0.298749 0.460566
Si Si7 0.379093 0.199584 0.689909
O O1 0.152019 0.728703 0.929717
O O2 0.036175 0.737999 0.916063
O O3 0.092992 0.000000 0.970750
O O4 0.077419 0.735166 0.059118
O O5 0.062107 0.500000 0.478481
O O6 0.124359 0.775923 0.496260
O O7 0.000000 0.775953 0.500000
O O8 0.056347 0.732634 0.369194
O O9 0.967130 0.731936 0.788630
O O10 0.972433 0.000000 0.876739
O O11 0.553237 0.730092 0.315647
O O12 0.486390 0.000000 0.297289
O O13 0.250000 0.230512 0.843569
O O14 0.182932 0.500000 0.828257
O O15 0.142478 0.211406 0.778811
O O16 0.750000 0.223439 0.474367
O O17 0.813369 0.500000 0.482854
O O18 0.833285 0.288863 0.368978
O O19 0.380572 0.000000 0.666777
#
# Coordination Sequence:
#
# PCOD9401341 Si02
#       7
#     8   8   8   8   8   8   8
#     4   9  16  31  54  74  96 129 169 205 242 295
#     4  10  20  34  52  75 101 134 175 212 250 304
#     4   8  15  30  52  76 100 126 158 203 256 298
#     4  10  19  32  52  78 106 133 163 207 261 304
#     4  11  23  35  47  69 106 144 172 204 249 298
#     4  10  21  37  54  72 101 138 172 211 259 306
#     4  11  21  33  52  77 104 135 172 208 250 308
#
# _framework density 18.938965
#
# number of rings (size 3 to 8) (size 9 to 14) (size 15 to 20)
#    0.000    2.143    2.857    2.143    0.000    4.571 
#    0.000    2.143    0.000    0.857    0.000    4.000 
#    0.000    0.000    0.000    0.000    0.000    0.000 
#
# Total GULP energy -312427.860049 kJ/mol
# GULP energy per Si atom -5579.068929 kJ/mol
# Density = 1.889586 g / cm^3
# Si number density = 18.938965 Si / 1000 Ang^3
#
#
#
# Elastic Constant Matrix: (Units=GPa)
#
#
# Indices 1 2 3 4 5 6 
#
# 1 115.1949 7.0970 53.0779 0.0000 0.0000 0.0000
# 2 7.0970 28.2664 -2.1107 0.0000 0.0000 0.0000
# 3 53.0779 -2.1107 108.4190 0.0000 0.0000 0.0000
# 4 0.0000 0.0000 0.0000 39.0658 0.0000 0.0000
# 5 0.0000 0.0000 0.0000 0.0000 19.5701 0.0000
# 6 0.0000 0.0000 0.0000 0.0000 0.0000 9.4940
#
#
#
# Elastic Compliance Matrix: (Units=1/GPa)
#
#
# Indices 1 2 3 4 5 6 
#
# 1 0.011512 -0.003316 -0.005700 0.000000 0.000000 0.000000
# 2 -0.003316 0.036384 0.002332 0.000000 0.000000 0.000000
# 3 -0.005700 0.002332 0.012060 0.000000 0.000000 0.000000
# 4 0.000000 0.000000 0.000000 0.025598 0.000000 0.000000
# 5 0.000000 0.000000 0.000000 0.000000 0.051098 0.000000
# 6 0.000000 0.000000 0.000000 0.000000 0.000000 0.105330
#
#
# Mechanical properties :
#
#
# Convention : Reuss Voigt Hill
#
# Bulk Modulus (GPa) = 21.46540 40.88984 31.17762
# Shear Modulus (GPa) = 18.45840 26.54704 22.50272
#
# Velocity S-wave (km/s) = 3.12529 3.74801 3.45072
# Velocity P-wave (km/s) = 4.93779 6.35353 5.68986
#
# Compressibility (1/GPa) = 0.04658659
#
# Stress axis : x y z
#
# Youngs Moduli (GPa) = 86.86799 27.48430 82.92211
#
# Poissons Ratio (x) = 0.09114 0.47268
# Poissons Ratio (y) = 0.28805 -0.19335
# Poissons Ratio (z) = 0.49517 -0.06408
#
# Static dielectric constant tensor:
#      x y z
#    x 1.666250 0.000000 0.000000 
#    y 0.000000 1.700450 0.000000 
#    z 0.000000 0.000000 1.647370 
# 
# From -- ./inp_files/30393.got.cif
#   From: 2010.05.17/outbox.cif.g08.bks.cpg/sg51_16_cif.got.tgz:30393.got - 2010.06.03 11:52:47.
