data_PCOD9401964
_publ_section_title
;
Structure prediction by ZEFSAII (Michael W. Deem and Ramdas Pophale) SiO2 
 PCOD9401964
Probable space group: P M M A
;
_chemical_formula_sum "Si O2"
_cell_formula_units_Z 64
_cell_length_a 20.118145
_cell_length_b 8.817821
_cell_length_c 20.201634
_cell_angle_alpha 90.000000
_cell_angle_beta 90.000000
_cell_angle_gamma 90.000000
_cell_volume 3583.733538
_symmetry_space_group_name_H-M "P M M A"
_symmetry_group_IT_number 51
_symmetry_cell_setting 'orthorhombic'
loop_
_space_group_symop_operation_xyz
x,y,z
1/2-x,-y,z
1/2+x,-y,-z
-x,y,-z
-x,-y,-z
1/2+x,y,-z
1/2-x,y,z
x,-y,z
loop_
_atom_site_type_symbol
_atom_site_label
_atom_site_fract_x
_atom_site_fract_y
_atom_site_fract_z
Si Si1 0.172965 0.181962 0.461515
Si Si2 0.558389 0.818689 0.303453
Si Si3 0.965323 0.317461 0.159701
Si Si4 0.175630 0.679793 0.228491
Si Si5 0.604815 0.821777 0.887401
Si Si6 0.079146 0.682280 0.349390
Si Si7 0.172518 0.680794 0.607343
Si Si8 0.078482 0.675538 0.980598
O O1 0.250000 0.218627 0.443289
O O2 0.121076 0.254923 0.410886
O O3 0.161663 0.247301 0.534889
O O4 0.166233 0.000000 0.461797
O O5 0.555518 0.756290 0.228495
O O6 0.493075 0.755251 0.340876
O O7 0.622947 0.756353 0.340848
O O8 0.557159 0.000000 0.303298
O O9 0.965757 0.500000 0.165395
O O10 0.919853 0.276211 0.096044
O O11 0.039397 0.263134 0.140796
O O12 0.250000 0.706936 0.254046
O O13 0.168784 0.500000 0.215028
O O14 0.162798 0.770184 0.161423
O O15 0.121665 0.720986 0.283661
O O16 0.593487 0.000000 0.883853
O O17 0.614502 0.771886 0.963300
O O18 0.073586 0.500000 0.353350
O O19 0.250000 0.706387 0.624635
O O20 0.161222 0.500000 0.604436
O O21 0.099019 0.500000 0.985677
O O22 0.000000 0.681582 0.000000
#
# Coordination Sequence:
#
# PCOD9401964 Si02
#       8
#     8   8   8   8   8   8   8   8
#     4  10  21  38  60  86 118 152 188 236 287 334
#     4  12  24  37  58  88 120 150 182 231 293 340
#     4  10  19  34  54  78 109 146 185 226 275 331
#     4  10  21  36  54  75 106 153 200 238 280 335
#     4  11  20  30  49  77 109 143 182 232 284 330
#     4  11  22  37  58  83 114 152 195 237 278 334
#     4  10  22  42  66  88 111 145 189 230 275 341
#     4   8  16  30  50  73 101 139 181 224 269 322
#
# _framework density 17.858470000000001
#
# number of rings (size 3 to 8) (size 9 to 14) (size 15 to 20)
#    0.000    1.750    1.250    4.875    0.000    6.000 
#    0.000    2.500    0.000    0.750    0.000    5.250 
#    0.000    0.000    0.000    0.000    0.000    0.000 
#
# Total GULP energy -357352.553531 kJ/mol
# GULP energy per Si atom -5583.633649 kJ/mol
# Density = 1.781782 g / cm^3
# Si number density = 17.858470 Si / 1000 Ang^3
#
#
#
# Elastic Constant Matrix: (Units=GPa)
#
#
# Indices 1 2 3 4 5 6 
#
# 1 74.2870 50.7504 65.0091 0.0000 0.0000 0.0000
# 2 50.7504 85.3740 57.6992 0.0000 0.0000 0.0000
# 3 65.0091 57.6992 129.4135 0.0000 0.0000 0.0000
# 4 0.0000 0.0000 0.0000 3.1098 0.0000 0.0000
# 5 0.0000 0.0000 0.0000 0.0000 19.0935 0.0000
# 6 0.0000 0.0000 0.0000 0.0000 0.0000 16.6392
#
#
#
# Elastic Compliance Matrix: (Units=1/GPa)
#
#
# Indices 1 2 3 4 5 6 
#
# 1 0.029684 -0.010832 -0.010082 0.000000 0.000000 0.000000
# 2 -0.010832 0.020717 -0.003796 0.000000 0.000000 0.000000
# 3 -0.010082 -0.003796 0.014484 0.000000 0.000000 0.000000
# 4 0.000000 0.000000 0.000000 0.321561 0.000000 0.000000
# 5 0.000000 0.000000 0.000000 0.000000 0.052374 0.000000
# 6 0.000000 0.000000 0.000000 0.000000 0.000000 0.060099
#
#
# Mechanical properties :
#
#
# Convention : Reuss Voigt Hill
#
# Bulk Modulus (GPa) = 64.65580 70.66577 67.66079
# Shear Modulus (GPa) = 9.03353 15.47623 12.25488
#
# Velocity S-wave (km/s) = 2.25153 2.94701 2.62243
# Velocity P-wave (km/s) = 6.56067 7.15791 6.86578
#
# Compressibility (1/GPa) = 0.01546652
#
# Stress axis : x y z
#
# Youngs Moduli (GPa) = 33.68812 48.26866 69.04155
#
# Poissons Ratio (x) = 0.52284 0.69608
# Poissons Ratio (y) = 0.36490 0.26206
# Poissons Ratio (z) = 0.33964 0.18321
#
# Static dielectric constant tensor:
#      x y z
#    x 1.597160 0.000000 0.000000 
#    y 0.000000 1.592260 0.000000 
#    z 0.000000 0.000000 1.615030 
# 
# From -- ./inp_files/33857.got.cif
#   From: 2010.05.17/outbox.cif.g08.bks.cpg/sg51_17_cif.got.tgz:33857.got - 2010.06.03 11:52:47.
