data_PCOD9401248
_publ_section_title
;
Structure prediction by ZEFSAII (Michael W. Deem and Ramdas Pophale) SiO2 
 PCOD9401248
Probable space group: P M M A
;
_chemical_formula_sum "Si O2"
_cell_formula_units_Z 48
_cell_length_a 9.742300
_cell_length_b 13.456872
_cell_length_c 18.976825
_cell_angle_alpha 90.000000
_cell_angle_beta 90.000000
_cell_angle_gamma 90.000000
_cell_volume 2487.878535
_symmetry_space_group_name_H-M "P M M A"
_symmetry_group_IT_number 51
_symmetry_cell_setting 'orthorhombic'
loop_
_space_group_symop_operation_xyz
x,y,z
1/2-x,-y,z
1/2+x,-y,-z
-x,y,-z
-x,-y,-z
1/2+x,y,-z
1/2-x,y,z
x,-y,z
loop_
_atom_site_type_symbol
_atom_site_label
_atom_site_fract_x
_atom_site_fract_y
_atom_site_fract_z
Si Si1 0.095436 0.751842 0.797348
Si Si2 0.089666 0.120995 0.567060
Si Si3 0.912883 0.385462 0.069931
Si Si4 0.250000 0.620386 0.384814
Si Si5 0.250000 0.379299 0.544156
Si Si6 0.410352 0.880813 0.294731
Si Si7 0.044280 0.381153 0.665344
O O1 0.250000 0.794445 0.804846
O O2 0.058089 0.691303 0.867454
O O3 0.100984 0.673019 0.733280
O O4 0.982326 0.830449 0.772378
O O5 0.250000 0.152956 0.567114
O O6 0.000000 0.154713 0.500000
O O7 0.006382 0.145460 0.638098
O O8 0.093676 0.000000 0.563537
O O9 0.750000 0.379724 0.054728
O O10 0.941905 0.500000 0.092039
O O11 0.000000 0.365206 0.000000
O O12 0.250000 0.500000 0.390064
O O13 0.250000 0.659205 0.464829
O O14 0.386263 0.646194 0.343584
O O15 0.250000 0.500000 0.538554
O O16 0.119838 0.354121 0.592474
O O17 0.250000 0.853824 0.304619
O O18 0.414813 0.000000 0.288343
O O19 0.059209 0.500000 0.673313
#
# Coordination Sequence:
#
# PCOD9401248 Si02
#       7
#     8   8   8   4   4   8   8
#     4  11  22  36  58  84 114 148 187 230 281 341
#     4   9  16  29  52  78 104 138 183 237 297 355
#     4   9  19  37  61  91 125 157 187 220 268 334
#     4   9  18  30  46  70 102 146 192 231 272 320
#     4   9  16  30  50  68  98 146 190 227 272 326
#     4  10  22  39  58  80 109 146 191 245 300 349
#     4  10  19  32  51  77 108 142 184 229 275 327
#
# _framework density 19.293545999999999
#
# number of rings (size 3 to 8) (size 9 to 14) (size 15 to 20)
#    0.000    2.333    0.833    2.000    1.167    6.333 
#    0.000    1.667    0.000    0.500    0.000    0.000 
#    0.000    0.000    0.000    0.000    0.000    0.000 
#
# Total GULP energy -268232.016145 kJ/mol
# GULP energy per Si atom -5588.167003 kJ/mol
# Density = 1.924963 g / cm^3
# Si number density = 19.293546 Si / 1000 Ang^3
#
#
#
# Elastic Constant Matrix: (Units=GPa)
#
#
# Indices 1 2 3 4 5 6 
#
# 1 155.9753 44.3342 60.3832 0.0000 0.0000 0.0000
# 2 44.3342 72.8762 32.3521 0.0000 0.0000 0.0000
# 3 60.3832 32.3521 103.4824 0.0000 0.0000 0.0000
# 4 0.0000 0.0000 0.0000 29.5247 0.0000 0.0000
# 5 0.0000 0.0000 0.0000 0.0000 29.2413 0.0000
# 6 0.0000 0.0000 0.0000 0.0000 0.0000 -115.7374
#
#
#
# Elastic Compliance Matrix: (Units=1/GPa)
#
#
# Indices 1 2 3 4 5 6 
#
# 1 0.009057 -0.003673 -0.004136 0.000000 0.000000 0.000000
# 2 -0.003673 0.017423 -0.003304 0.000000 0.000000 0.000000
# 3 -0.004136 -0.003304 0.013110 0.000000 0.000000 0.000000
# 4 0.000000 0.000000 0.000000 0.033870 0.000000 0.000000
# 5 0.000000 0.000000 0.000000 0.000000 0.034198 0.000000
# 6 0.000000 0.000000 0.000000 0.000000 0.000000 -0.008640
#
#
# Mechanical properties :
#
#
# Convention : Reuss Voigt Hill
#
# Bulk Modulus (GPa) = 57.59304 67.38585 62.48945
# Shear Modulus (GPa) = 39.36020 1.62335 20.49178
#
# Velocity S-wave (km/s) = 4.52161 0.91827 3.26253
# Velocity P-wave (km/s) = 7.56146 6.01055 6.83017
#
# Compressibility (1/GPa) = 0.01736321
#
# Stress axis : x y z
#
# Youngs Moduli (GPa) = 110.41587 57.39476 76.27855
#
# Poissons Ratio (x) = 0.21083 0.31551
# Poissons Ratio (y) = 0.40560 0.25199
# Poissons Ratio (z) = 0.45671 0.18961
#
# Static dielectric constant tensor:
#      x y z
#    x 1.679970 0.000000 0.000000 
#    y 0.000000 1.740790 0.000000 
#    z 0.000000 0.000000 1.617100 
# 
# From -- ./inp_files/27667.got.cif
#   From: 2010.05.17/outbox.cif.g08.bks.cpg/sg51_14_cif.got.tgz:27667.got - 2010.06.03 11:52:47.
