data_PCOD9401707
_publ_section_title
;
Structure prediction by ZEFSAII (Michael W. Deem and Ramdas Pophale) SiO2 
 PCOD9401707
Probable space group: P M M A
;
_chemical_formula_sum "Si O2"
_cell_formula_units_Z 32
_cell_length_a 16.813202
_cell_length_b 7.845526
_cell_length_c 11.654178
_cell_angle_alpha 90.000000
_cell_angle_beta 90.000000
_cell_angle_gamma 90.000000
_cell_volume 1537.284130
_symmetry_space_group_name_H-M "P M M A"
_symmetry_group_IT_number 51
_symmetry_cell_setting 'orthorhombic'
loop_
_space_group_symop_operation_xyz
x,y,z
1/2-x,-y,z
1/2+x,-y,-z
-x,y,-z
-x,-y,-z
1/2+x,y,-z
1/2-x,y,z
x,-y,z
loop_
_atom_site_type_symbol
_atom_site_label
_atom_site_fract_x
_atom_site_fract_y
_atom_site_fract_z
Si Si1 0.577521 0.709253 0.074735
Si Si2 0.568861 0.305809 0.336676
Si Si3 0.250000 0.793751 0.273323
Si Si4 0.250000 0.697951 0.012604
Si Si5 0.599323 0.198745 0.579070
O O1 0.576008 0.500000 0.071513
O O2 0.571947 0.764000 0.207806
O O3 0.664214 0.767591 0.029022
O O4 0.500000 0.763770 0.000000
O O5 0.597262 0.500000 0.331698
O O6 0.613186 0.217968 0.443003
O O7 0.477556 0.299093 0.378147
O O8 0.173486 0.745558 0.346560
O O9 0.250000 0.000000 0.260634
O O10 0.250000 0.712651 0.149194
O O11 0.250000 0.500000 0.976390
O O12 0.582370 0.000000 0.601230
#
# Coordination Sequence:
#
# PCOD9401707 Si02
#       5
#     8   8   4   4   8
#     4   9  18  32  51  77 107 135 166 210 260 307
#     4  10  19  33  54  79 104 132 173 216 257 313
#     4  10  22  37  52  74 104 137 173 214 259 310
#     4  10  20  35  56  78 102 137 175 214 263 312
#     4  10  20  35  53  74 104 138 172 214 264 311
#
# _framework density 20.815930000000002
#
# number of rings (size 3 to 8) (size 9 to 14) (size 15 to 20)
#    0.000    2.250    0.000    4.500    0.000    5.000 
#    0.000    3.750    0.000    6.750    0.000    0.000 
#    0.000    0.000    0.000    0.000    0.000    0.000 
#
# Total GULP energy -178489.043166 kJ/mol
# GULP energy per Si atom -5577.782599 kJ/mol
# Density = 2.076855 g / cm^3
# Si number density = 20.815930 Si / 1000 Ang^3
#
#
#
# Elastic Constant Matrix: (Units=GPa)
#
#
# Indices 1 2 3 4 5 6 
#
# 1 120.1655 2.2002 79.2884 0.0000 0.0000 0.0000
# 2 2.2002 21.8487 -0.1216 0.0000 0.0000 0.0000
# 3 79.2884 -0.1216 181.6226 0.0000 0.0000 0.0000
# 4 0.0000 0.0000 0.0000 68.8064 0.0000 0.0000
# 5 0.0000 0.0000 0.0000 0.0000 37.8117 0.0000
# 6 0.0000 0.0000 0.0000 0.0000 0.0000 8.0271
#
#
#
# Elastic Compliance Matrix: (Units=1/GPa)
#
#
# Indices 1 2 3 4 5 6 
#
# 1 0.011721 -0.001209 -0.005118 0.000000 0.000000 0.000000
# 2 -0.001209 0.045894 0.000558 0.000000 0.000000 0.000000
# 3 -0.005118 0.000558 0.007740 0.000000 0.000000 0.000000
# 4 0.000000 0.000000 0.000000 0.014534 0.000000 0.000000
# 5 0.000000 0.000000 0.000000 0.000000 0.026447 0.000000
# 6 0.000000 0.000000 0.000000 0.000000 0.000000 0.124578
#
#
# Mechanical properties :
#
#
# Convention : Reuss Voigt Hill
#
# Bulk Modulus (GPa) = 18.58064 54.04121 36.31092
# Shear Modulus (GPa) = 19.20200 39.08036 29.14118
#
# Velocity S-wave (km/s) = 3.04051 4.33763 3.74564
# Velocity P-wave (km/s) = 4.61214 7.14874 6.01566
#
# Compressibility (1/GPa) = 0.05381947
#
# Stress axis : x y z
#
# Youngs Moduli (GPa) = 85.31927 21.78924 129.19247
#
# Poissons Ratio (x) = 0.02634 0.66115
# Poissons Ratio (y) = 0.10313 -0.07215
# Poissons Ratio (z) = 0.43662 -0.01217
#
# Static dielectric constant tensor:
#      x y z
#    x 1.737380 0.000000 0.000000 
#    y 0.000000 1.750790 0.000000 
#    z 0.000000 0.000000 1.729240 
# 
# From -- ./inp_files/15941.got.cif
#   From: 2010.05.17/outbox.cif.g08.bks.cpg/sg51_8_cif.got.tgz:15941.got - 2010.06.03 11:52:47.
