data_PCOD9401228
_publ_section_title
;
Structure prediction by ZEFSAII (Michael W. Deem and Ramdas Pophale) SiO2 
 PCOD9401228
Probable space group: P M M A
;
_chemical_formula_sum "Si O2"
_cell_formula_units_Z 36
_cell_length_a 8.863768
_cell_length_b 16.259267
_cell_length_c 13.623000
_cell_angle_alpha 90.000000
_cell_angle_beta 90.000000
_cell_angle_gamma 90.000000
_cell_volume 1963.324562
_symmetry_space_group_name_H-M "P M M A"
_symmetry_group_IT_number 51
_symmetry_cell_setting 'orthorhombic'
loop_
_space_group_symop_operation_xyz
x,y,z
1/2-x,-y,z
1/2+x,-y,-z
-x,y,-z
-x,-y,-z
1/2+x,y,-z
1/2-x,y,z
x,-y,z
loop_
_atom_site_type_symbol
_atom_site_label
_atom_site_fract_x
_atom_site_fract_y
_atom_site_fract_z
Si Si1 0.071034 0.246381 0.899068
Si Si2 0.930221 0.329328 0.601371
Si Si3 0.930987 0.833734 0.308731
Si Si4 0.569091 0.407407 0.810441
Si Si5 0.430793 0.000000 0.391184
O O1 0.250000 0.250701 0.908928
O O2 0.035735 0.190965 0.804000
O O3 0.007693 0.336938 0.874441
O O4 0.000000 0.215803 0.000000
O O5 0.750000 0.321000 0.592355
O O6 0.962294 0.386005 0.696120
O O7 0.000000 0.360766 0.500000
O O8 0.003609 0.240849 0.626074
O O9 0.750000 0.838511 0.321439
O O10 0.008398 0.918499 0.337970
O O11 0.750000 0.402035 0.823235
O O12 0.520096 0.500000 0.833589
O O13 0.500000 0.000000 0.500000
O O14 0.250000 0.000000 0.395414
#
# Coordination Sequence:
#
# PCOD9401228 Si02
#       5
#     8   8   8   8   4
#     4  10  21  37  59  82 106 139 177 220 269 319
#     4  10  19  32  51  75 105 142 181 220 266 319
#     4  10  21  38  57  80 109 140 178 221 263 311
#     4   9  19  35  53  75 105 140 180 225 269 316
#     4  12  24  38  59  86 115 146 177 214 260 308
#
# _framework density 18.336245000000002
#
# number of rings (size 3 to 8) (size 9 to 14) (size 15 to 20)
#    0.000    2.000    0.000    3.667    0.000    4.889 
#    0.000    0.556    0.000    0.000    0.000    0.000 
#    0.000    0.000    0.000    0.000    0.000    0.000 
#
# Total GULP energy -201112.302475 kJ/mol
# GULP energy per Si atom -5586.452847 kJ/mol
# Density = 1.829451 g / cm^3
# Si number density = 18.336245 Si / 1000 Ang^3
#
#
#
# Elastic Constant Matrix: (Units=GPa)
#
#
# Indices 1 2 3 4 5 6 
#
# 1 69.9441 37.0353 45.4737 0.0000 0.0000 0.0000
# 2 37.0353 94.6554 17.6747 0.0000 0.0000 0.0000
# 3 45.4737 17.6747 94.6740 0.0000 0.0000 0.0000
# 4 0.0000 0.0000 0.0000 4.4075 0.0000 0.0000
# 5 0.0000 0.0000 0.0000 0.0000 35.9272 0.0000
# 6 0.0000 0.0000 0.0000 0.0000 0.0000 27.2584
#
#
#
# Elastic Compliance Matrix: (Units=1/GPa)
#
#
# Indices 1 2 3 4 5 6 
#
# 1 0.025522 -0.007975 -0.010770 0.000000 0.000000 0.000000
# 2 -0.007975 0.013438 0.001322 0.000000 0.000000 0.000000
# 3 -0.010770 0.001322 0.015489 0.000000 0.000000 0.000000
# 4 0.000000 0.000000 0.000000 0.226888 0.000000 0.000000
# 5 0.000000 0.000000 0.000000 0.000000 0.027834 0.000000
# 6 0.000000 0.000000 0.000000 0.000000 0.000000 0.036686
#
#
# Mechanical properties :
#
#
# Convention : Reuss Voigt Hill
#
# Bulk Modulus (GPa) = 51.01297 51.07120 51.04208
# Shear Modulus (GPa) = 12.91201 24.12460 18.51830
#
# Velocity S-wave (km/s) = 2.65652 3.63116 3.18139
# Velocity P-wave (km/s) = 6.10661 6.74489 6.43367
#
# Compressibility (1/GPa) = 0.01960286
#
# Stress axis : x y z
#
# Youngs Moduli (GPa) = 39.18261 74.41552 64.56315
#
# Poissons Ratio (x) = 0.59344 0.69532
# Poissons Ratio (y) = 0.31247 -0.08533
# Poissons Ratio (z) = 0.42198 -0.09835
#
# Static dielectric constant tensor:
#      x y z
#    x 1.608040 0.000000 0.000000 
#    y 0.000000 1.601250 0.000000 
#    z 0.000000 0.000000 1.634870 
# 
# From -- ./inp_files/20315.got.cif
#   From: 2010.05.17/outbox.cif.g08.bks.cpg/sg51_11_cif.got.tgz:20315.got - 2010.06.03 11:52:47.
