data_PCOD9401441
_publ_section_title
;
Structure prediction by ZEFSAII (Michael W. Deem and Ramdas Pophale) SiO2 
 PCOD9401441
Probable space group: P M M A
;
_chemical_formula_sum "Si O2"
_cell_formula_units_Z 48
_cell_length_a 8.560481
_cell_length_b 32.199542
_cell_length_c 9.308241
_cell_angle_alpha 90.000000
_cell_angle_beta 90.000000
_cell_angle_gamma 90.000000
_cell_volume 2565.756756
_symmetry_space_group_name_H-M "P M M A"
_symmetry_group_IT_number 51
_symmetry_cell_setting 'orthorhombic'
loop_
_space_group_symop_operation_xyz
x,y,z
1/2-x,-y,z
1/2+x,-y,-z
-x,y,-z
-x,-y,-z
1/2+x,y,-z
1/2-x,y,z
x,-y,z
loop_
_atom_site_type_symbol
_atom_site_label
_atom_site_fract_x
_atom_site_fract_y
_atom_site_fract_z
Si Si1 0.938562 0.546895 0.660153
Si Si2 0.938572 0.044547 0.663653
Si Si3 0.562061 0.864360 0.663429
Si Si4 0.937620 0.704471 0.338423
Si Si5 0.562779 0.213724 0.161268
Si Si6 0.062358 0.373611 0.160757
O O1 0.750000 0.547315 0.655718
O O2 0.988885 0.500000 0.699836
O O3 0.989766 0.582757 0.768631
O O4 0.000000 0.555597 0.500000
O O5 0.750000 0.044495 0.661334
O O6 0.986563 0.089745 0.721503
O O7 0.000000 0.044338 0.500000
O O8 0.989401 0.000000 0.729132
O O9 0.500000 0.860312 0.500000
O O10 0.750000 0.862461 0.659819
O O11 0.497926 0.827401 0.759830
O O12 0.750000 0.702881 0.340715
O O13 0.986601 0.745702 0.251581
O O14 0.000000 0.706130 0.500000
O O15 0.001407 0.664051 0.257682
O O16 0.750000 0.212812 0.158161
O O17 0.500000 0.216225 0.000000
O O18 0.250000 0.372678 0.159069
O O19 0.000000 0.369432 0.000000
#
# Coordination Sequence:
#
# PCOD9401441 Si02
#       6
#     8   8   8   8   8   8
#     4   9  19  36  57  82 112 147 188 232 277 325
#     4   8  14  25  43  70 103 137 173 215 263 312
#     4  10  19  32  53  80 110 143 180 223 268 318
#     4  11  24  41  62  86 112 143 180 223 271 324
#     4  11  24  40  58  80 108 142 179 222 272 325
#     4  11  23  38  58  84 116 151 187 229 276 327
#
# _framework density 18.707930999999999
#
# number of rings (size 3 to 8) (size 9 to 14) (size 15 to 20)
#    0.000    2.000    0.000    3.500    0.000    9.000 
#    0.000    0.000    0.000    0.500    0.000    0.000 
#    0.000    0.000    0.000    0.000    0.000    0.000 
#
# Total GULP energy -267905.833578 kJ/mol
# GULP energy per Si atom -5581.371533 kJ/mol
# Density = 1.866535 g / cm^3
# Si number density = 18.707931 Si / 1000 Ang^3
#
#
#
# Elastic Constant Matrix: (Units=GPa)
#
#
# Indices 1 2 3 4 5 6 
#
# 1 35.6081 44.4735 32.1835 0.0000 0.0000 0.0000
# 2 44.4735 196.6317 109.8016 0.0000 0.0000 0.0000
# 3 32.1835 109.8016 137.4677 0.0000 0.0000 0.0000
# 4 0.0000 0.0000 0.0000 4.1055 0.0000 0.0000
# 5 0.0000 0.0000 0.0000 0.0000 32.0205 0.0000
# 6 0.0000 0.0000 0.0000 0.0000 0.0000 32.9563
#
#
#
# Elastic Compliance Matrix: (Units=1/GPa)
#
#
# Indices 1 2 3 4 5 6 
#
# 1 0.040258 -0.006936 -0.003885 0.000000 0.000000 0.000000
# 2 -0.006936 0.010375 -0.006663 0.000000 0.000000 0.000000
# 3 -0.003885 -0.006663 0.013506 0.000000 0.000000 0.000000
# 4 0.000000 0.000000 0.000000 0.243577 0.000000 0.000000
# 5 0.000000 0.000000 0.000000 0.000000 0.031230 0.000000
# 6 0.000000 0.000000 0.000000 0.000000 0.000000 0.030343
#
#
# Mechanical properties :
#
#
# Convention : Reuss Voigt Hill
#
# Bulk Modulus (GPa) = 34.28102 82.51386 58.39744
# Shear Modulus (GPa) = 12.07785 26.03305 19.05545
#
# Velocity S-wave (km/s) = 2.54362 3.73440 3.19498
# Velocity P-wave (km/s) = 5.19527 7.92442 6.70027
#
# Compressibility (1/GPa) = 0.02917066
#
# Stress axis : x y z
#
# Youngs Moduli (GPa) = 24.84004 96.38244 74.03930
#
# Poissons Ratio (x) = 0.66850 0.28764
# Poissons Ratio (y) = 0.17229 0.49336
# Poissons Ratio (z) = 0.09650 0.64224
#
# Static dielectric constant tensor:
#      x y z
#    x 1.633630 0.000000 0.000000 
#    y 0.000000 1.683610 0.000000 
#    z 0.000000 0.000000 1.586300 
# 
# From -- ./inp_files/6016.got.cif
#   From: 2010.05.17/outbox.cif.g08.bks.cpg/sg51_4_cif.got.tgz:6016.got - 2010.06.03 11:52:47.
