data_PCOD9401762
_publ_section_title
;
Structure prediction by ZEFSAII (Michael W. Deem and Ramdas Pophale) SiO2 
 PCOD9401762
Probable space group: P M M A
;
_chemical_formula_sum "Si O2"
_cell_formula_units_Z 58
_cell_length_a 7.419735
_cell_length_b 15.268502
_cell_length_c 25.199025
_cell_angle_alpha 90.000000
_cell_angle_beta 90.000000
_cell_angle_gamma 90.000000
_cell_volume 2854.753159
_symmetry_space_group_name_H-M "P M M A"
_symmetry_group_IT_number 51
_symmetry_cell_setting 'orthorhombic'
loop_
_space_group_symop_operation_xyz
x,y,z
1/2-x,-y,z
1/2+x,-y,-z
-x,y,-z
-x,-y,-z
1/2+x,y,-z
1/2-x,y,z
x,-y,z
loop_
_atom_site_type_symbol
_atom_site_label
_atom_site_fract_x
_atom_site_fract_y
_atom_site_fract_z
Si Si1 0.541987 0.783354 0.341634
Si Si2 0.461236 0.098987 0.753991
Si Si3 0.031672 0.406098 0.218560
Si Si4 0.965770 0.232704 0.841918
Si Si5 0.036213 0.900174 0.440803
Si Si6 0.535156 0.656830 0.937957
Si Si7 0.959301 0.405721 0.343267
Si Si8 0.750000 0.500000 0.085360
O O1 0.750000 0.764125 0.327010
O O2 0.461631 0.835921 0.291409
O O3 0.539702 0.844229 0.392939
O O4 0.460227 0.688971 0.356766
O O5 0.250000 0.091081 0.740913
O O6 0.472581 0.146761 0.810809
O O7 0.535769 0.000000 0.753355
O O8 0.250000 0.405658 0.217595
O O9 0.969824 0.500000 0.195277
O O10 0.968442 0.318894 0.189964
O O11 0.970431 0.405038 0.279247
O O12 0.750000 0.230369 0.837694
O O13 0.008600 0.257432 0.902409
O O14 0.250000 0.902719 0.433328
O O15 0.000000 0.865599 0.500000
O O16 0.966428 0.000000 0.438971
O O17 0.750000 0.636790 0.929947
O O18 0.408585 0.577193 0.919887
O O19 0.500000 0.671026 0.000000
O O20 0.750000 0.407198 0.360222
O O21 0.038473 0.500000 0.360259
#
# Coordination Sequence:
#
# PCOD9401762 Si02
#       8
#     8   8   8   8   8   8   8   2
#     4  10  19  33  54  81 114 148 183 227 276 331
#     4  10  21  36  56  82 112 146 188 238 292 349
#     4   9  17  30  46  69 102 141 174 214 266 314
#     4  10  22  37  54  78 113 148 188 239 285 341
#     4  10  21  36  55  80 109 142 181 228 281 338
#     4  11  24  40  58  87 121 159 201 246 292 353
#     4   9  17  30  48  74 105 141 179 217 256 312
#     4  12  24  40  62  90 118 170 198 244 296 348
#
# _framework density 20.316991000000002
#
# number of rings (size 3 to 8) (size 9 to 14) (size 15 to 20)
#    0.000    2.069    2.069    1.241    1.931    2.759 
#    0.000    0.000    0.000    0.828    0.000    0.000 
#    0.000    0.000    0.000    0.000    0.000    0.000 
#
# Total GULP energy -322958.986969 kJ/mol
# GULP energy per Si atom -5568.258396 kJ/mol
# Density = 2.027075 g / cm^3
# Si number density = 20.316991 Si / 1000 Ang^3
#
#
#
# Elastic Constant Matrix: (Units=GPa)
#
#
# Indices 1 2 3 4 5 6 
#
# 1 93.5520 17.1288 -1.8016 0.0000 0.0000 0.0000
# 2 17.1288 149.9049 47.7248 0.0000 0.0000 0.0000
# 3 -1.8016 47.7248 74.7927 0.0000 0.0000 0.0000
# 4 0.0000 0.0000 0.0000 22.4537 0.0000 0.0000
# 5 0.0000 0.0000 0.0000 0.0000 19.2529 0.0000
# 6 0.0000 0.0000 0.0000 0.0000 0.0000 9.8898
#
#
#
# Elastic Compliance Matrix: (Units=1/GPa)
#
#
# Indices 1 2 3 4 5 6 
#
# 1 0.011024 -0.001687 0.001342 0.000000 0.000000 0.000000
# 2 -0.001687 0.008630 -0.005547 0.000000 0.000000 0.000000
# 3 0.001342 -0.005547 0.016942 0.000000 0.000000 0.000000
# 4 0.000000 0.000000 0.000000 0.044536 0.000000 0.000000
# 5 0.000000 0.000000 0.000000 0.000000 0.051940 0.000000
# 6 0.000000 0.000000 0.000000 0.000000 0.000000 0.101114
#
#
# Mechanical properties :
#
#
# Convention : Reuss Voigt Hill
#
# Bulk Modulus (GPa) = 40.30374 49.37262 44.83818
# Shear Modulus (GPa) = 19.66636 27.33246 23.49941
#
# Velocity S-wave (km/s) = 3.11461 3.67181 3.40463
# Velocity P-wave (km/s) = 5.72843 6.50617 6.12964
#
# Compressibility (1/GPa) = 0.02481159
#
# Stress axis : x y z
#
# Youngs Moduli (GPa) = 90.71171 115.87911 59.02412
#
# Poissons Ratio (x) = 0.19547 -0.07921
# Poissons Ratio (y) = 0.15302 0.32742
# Poissons Ratio (z) = -0.12173 0.64280
#
# Static dielectric constant tensor:
#      x y z
#    x 1.802160 0.000000 0.000000 
#    y 0.000000 1.768390 0.000000 
#    z 0.000000 0.000000 1.708960 
# 
# From -- ./inp_files/34764.got.cif
#   From: 2010.05.17/outbox.cif.g08.bks.cpg/sg51_18_cif.got.tgz:34764.got - 2010.06.03 11:52:47.
