data_PCOD9401423
_publ_section_title
;
Structure prediction by ZEFSAII (Michael W. Deem and Ramdas Pophale) SiO2 
 PCOD9401423
Probable space group: P M M A
;
_chemical_formula_sum "Si O2"
_cell_formula_units_Z 64
_cell_length_a 18.178910
_cell_length_b 9.161351
_cell_length_c 22.097760
_cell_angle_alpha 90.000000
_cell_angle_beta 90.000000
_cell_angle_gamma 90.000000
_cell_volume 3680.235537
_symmetry_space_group_name_H-M "P M M A"
_symmetry_group_IT_number 51
_symmetry_cell_setting 'orthorhombic'
loop_
_space_group_symop_operation_xyz
x,y,z
1/2-x,-y,z
1/2+x,-y,-z
-x,y,-z
-x,-y,-z
1/2+x,y,-z
1/2-x,y,z
x,-y,z
loop_
_atom_site_type_symbol
_atom_site_label
_atom_site_fract_x
_atom_site_fract_y
_atom_site_fract_z
Si Si1 0.904060 0.326262 0.617041
Si Si2 0.332751 0.674226 0.122269
Si Si3 0.921480 0.325661 0.394163
Si Si4 0.164572 0.825772 0.497580
Si Si5 0.550257 0.825585 0.189456
Si Si6 0.527321 0.824526 0.934024
Si Si7 0.409928 0.326482 0.246801
Si Si8 0.163911 0.324906 0.729219
O O1 0.892919 0.500000 0.607739
O O2 0.860480 0.238435 0.566664
O O3 0.883002 0.289742 0.686110
O O4 0.991557 0.297145 0.611146
O O5 0.250000 0.722846 0.108843
O O6 0.337466 0.500000 0.112427
O O7 0.395304 0.753334 0.083893
O O8 0.352211 0.698932 0.193029
O O9 0.912348 0.500000 0.402514
O O10 0.885888 0.243689 0.450518
O O11 0.879187 0.284789 0.332422
O O12 0.250000 0.788829 0.509110
O O13 0.156925 0.000000 0.497710
O O14 0.529566 0.787733 0.120097
O O15 0.482895 0.761766 0.229088
O O16 0.623775 0.753869 0.215313
O O17 0.553183 0.000000 0.194910
O O18 0.535319 0.000000 0.934160
O O19 0.500000 0.777947 0.000000
O O20 0.428552 0.500000 0.247358
O O21 0.250000 0.288617 0.724450
O O22 0.157135 0.500000 0.736237
#
# Coordination Sequence:
#
# PCOD9401423 Si02
#       8
#     8   8   8   8   8   8   8   8
#     4  10  20  35  58  82 102 132 176 220 261 314
#     4   9  18  32  53  83 114 141 175 221 269 314
#     4  10  20  37  59  80 100 130 177 222 261 315
#     4  11  25  40  51  71 106 142 175 217 269 318
#     4  10  19  32  53  79 107 137 172 217 261 307
#     4   9  19  36  56  78 106 146 190 222 256 308
#     4   9  17  33  55  78 106 138 171 211 260 317
#     4  10  20  35  56  80 107 139 173 215 267 318
#
# _framework density 17.390191000000002
#
# number of rings (size 3 to 8) (size 9 to 14) (size 15 to 20)
#    0.000    2.250    1.250    1.500    0.000    6.250 
#    0.000    1.875    0.000    3.750    0.000    0.000 
#    0.000    0.000    0.000    0.000    0.000    0.000 
#
# Total GULP energy -357175.333606 kJ/mol
# GULP energy per Si atom -5580.864588 kJ/mol
# Density = 1.735061 g / cm^3
# Si number density = 17.390191 Si / 1000 Ang^3
#
#
#
# Elastic Constant Matrix: (Units=GPa)
#
#
# Indices 1 2 3 4 5 6 
#
# 1 40.8125 15.3202 21.7449 0.0000 0.0000 0.0000
# 2 15.3202 14.6519 28.0135 0.0000 0.0000 0.0000
# 3 21.7449 28.0135 112.0900 0.0000 0.0000 0.0000
# 4 0.0000 0.0000 0.0000 24.6963 0.0000 0.0000
# 5 0.0000 0.0000 0.0000 0.0000 15.8150 0.0000
# 6 0.0000 0.0000 0.0000 0.0000 0.0000 24.8758
#
#
#
# Elastic Compliance Matrix: (Units=1/GPa)
#
#
# Indices 1 2 3 4 5 6 
#
# 1 0.041980 -0.054243 0.005413 0.000000 0.000000 0.000000
# 2 -0.054243 0.200794 -0.039659 0.000000 0.000000 0.000000
# 3 0.005413 -0.039659 0.017783 0.000000 0.000000 0.000000
# 4 0.000000 0.000000 0.000000 0.040492 0.000000 0.000000
# 5 0.000000 0.000000 0.000000 0.000000 0.063231 0.000000
# 6 0.000000 0.000000 0.000000 0.000000 0.000000 0.040200
#
#
# Mechanical properties :
#
#
# Convention : Reuss Voigt Hill
#
# Bulk Modulus (GPa) = 11.96505 33.07906 22.52206
# Shear Modulus (GPa) = 8.20587 19.90912 14.05750
#
# Velocity S-wave (km/s) = 2.17461 3.38723 2.84625
# Velocity P-wave (km/s) = 3.63325 5.86180 4.87654
#
# Compressibility (1/GPa) = 0.08357677
#
# Stress axis : x y z
#
# Youngs Moduli (GPa) = 23.82064 4.98023 56.23320
#
# Poissons Ratio (x) = 0.27014 -0.30436
# Poissons Ratio (y) = 1.29211 2.23018
# Poissons Ratio (z) = -0.12893 0.19751
#
# Static dielectric constant tensor:
#      x y z
#    x 1.572200 0.000000 0.000000 
#    y 0.000000 1.577530 0.000000 
#    z 0.000000 0.000000 1.584520 
# 
# From -- ./inp_files/35754.got.cif
#   From: 2010.05.17/outbox.cif.g08.bks.cpg/sg51_18_cif.got.tgz:35754.got - 2010.06.03 11:52:47.
