data_PCOD9401658
_publ_section_title
;
Structure prediction by ZEFSAII (Michael W. Deem and Ramdas Pophale) SiO2 
 PCOD9401658
Probable space group: P M M A
;
_chemical_formula_sum "Si O2"
_cell_formula_units_Z 48
_cell_length_a 8.630544
_cell_length_b 32.106468
_cell_length_c 9.353411
_cell_angle_alpha 90.000000
_cell_angle_beta 90.000000
_cell_angle_gamma 90.000000
_cell_volume 2591.795438
_symmetry_space_group_name_H-M "P M M A"
_symmetry_group_IT_number 51
_symmetry_cell_setting 'orthorhombic'
loop_
_space_group_symop_operation_xyz
x,y,z
1/2-x,-y,z
1/2+x,-y,-z
-x,y,-z
-x,-y,-z
1/2+x,y,-z
1/2-x,y,z
x,-y,z
loop_
_atom_site_type_symbol
_atom_site_label
_atom_site_fract_x
_atom_site_fract_y
_atom_site_fract_z
Si Si1 0.563347 0.000000 0.161849
Si Si2 0.936528 0.340407 0.839807
Si Si3 0.563976 0.909463 0.160951
Si Si4 0.935690 0.166929 0.659551
Si Si5 0.563337 0.500000 0.160719
Si Si6 0.436702 0.260408 0.340062
Si Si7 0.563440 0.418121 0.339096
O O1 0.516405 0.955021 0.224162
O O2 0.750000 0.000000 0.156616
O O3 0.500000 0.000000 0.000000
O O4 0.750000 0.342024 0.842788
O O5 0.985986 0.296787 0.766995
O O6 0.999363 0.377749 0.742163
O O7 0.000000 0.344068 0.000000
O O8 0.750000 0.907650 0.158311
O O9 0.499948 0.870296 0.245855
O O10 0.500000 0.907808 0.000000
O O11 0.750000 0.165130 0.658130
O O12 0.982830 0.213713 0.707270
O O13 0.000000 0.162107 0.500000
O O14 0.750000 0.500000 0.152970
O O15 0.515878 0.458942 0.248686
O O16 0.500000 0.500000 0.000000
O O17 0.500000 0.267546 0.500000
O O18 0.250000 0.261328 0.348182
O O19 0.500000 0.420197 0.500000
O O20 0.750000 0.416461 0.343372
#
# Coordination Sequence:
#
# PCOD9401658 Si02
#       7
#     4   8   8   8   4   8   8
#     4   8  16  30  49  72 101 134 172 214 262 316
#     4  11  23  39  58  84 115 148 184 228 276 325
#     4  10  19  33  53  78 105 137 175 219 266 318
#     4  10  20  36  55  78 107 141 178 220 268 321
#     4  10  23  40  60  86 118 152 189 232 281 328
#     4   9  20  37  57  79 106 140 180 221 268 323
#     4  11  23  40  61  87 116 151 191 232 276 329
#
# _framework density 18.519981000000001
#
# number of rings (size 3 to 8) (size 9 to 14) (size 15 to 20)
#    0.000    2.000    0.000    3.250    0.000    7.333 
#    0.000    2.083    0.000    0.000    0.000    0.000 
#    0.000    0.000    0.000    0.000    0.000    0.000 
#
# Total GULP energy -267931.919103 kJ/mol
# GULP energy per Si atom -5581.914981 kJ/mol
# Density = 1.847783 g / cm^3
# Si number density = 18.519981 Si / 1000 Ang^3
#
#
#
# Elastic Constant Matrix: (Units=GPa)
#
#
# Indices 1 2 3 4 5 6 
#
# 1 47.6257 53.4873 35.7545 0.0000 0.0000 0.0000
# 2 53.4873 212.2938 113.5173 0.0000 0.0000 0.0000
# 3 35.7545 113.5173 129.4245 0.0000 0.0000 0.0000
# 4 0.0000 0.0000 0.0000 39.1029 0.0000 0.0000
# 5 0.0000 0.0000 0.0000 0.0000 35.4103 0.0000
# 6 0.0000 0.0000 0.0000 0.0000 0.0000 28.2708
#
#
#
# Elastic Compliance Matrix: (Units=1/GPa)
#
#
# Indices 1 2 3 4 5 6 
#
# 1 0.029936 -0.005876 -0.003116 0.000000 0.000000 0.000000
# 2 -0.005876 0.010024 -0.007169 0.000000 0.000000 0.000000
# 3 -0.003116 -0.007169 0.014875 0.000000 0.000000 0.000000
# 4 0.000000 0.000000 0.000000 0.025574 0.000000 0.000000
# 5 0.000000 0.000000 0.000000 0.000000 0.028240 0.000000
# 6 0.000000 0.000000 0.000000 0.000000 0.000000 0.035372
#
#
# Mechanical properties :
#
#
# Convention : Reuss Voigt Hill
#
# Bulk Modulus (GPa) = 44.41887 88.31804 66.36845
# Shear Modulus (GPa) = 27.19643 32.99580 30.09611
#
# Velocity S-wave (km/s) = 3.83625 4.22552 4.03558
# Velocity P-wave (km/s) = 6.60748 8.46157 7.59134
#
# Compressibility (1/GPa) = 0.02251295
#
# Stress axis : x y z
#
# Youngs Moduli (GPa) = 33.40494 99.75808 67.22612
#
# Poissons Ratio (x) = 0.58618 0.20949
# Poissons Ratio (y) = 0.19629 0.48194
# Poissons Ratio (z) = 0.10410 0.71516
#
# Static dielectric constant tensor:
#      x y z
#    x 1.628920 0.000000 0.000000 
#    y 0.000000 1.668280 0.000000 
#    z 0.000000 0.000000 1.599390 
# 
# From -- ./inp_files/6101.got.cif
#   From: 2010.05.17/outbox.cif.g08.bks.cpg/sg51_4_cif.got.tgz:6101.got - 2010.06.03 11:52:47.
