data_PCOD9401097
_publ_section_title
;
Structure prediction by ZEFSAII (Michael W. Deem and Ramdas Pophale) SiO2 
 PCOD9401097
Probable space group: P M M A
;
_chemical_formula_sum "Si O2"
_cell_formula_units_Z 52
_cell_length_a 9.377121
_cell_length_b 18.090023
_cell_length_c 18.234536
_cell_angle_alpha 90.000000
_cell_angle_beta 90.000000
_cell_angle_gamma 90.000000
_cell_volume 3093.166911
_symmetry_space_group_name_H-M "P M M A"
_symmetry_group_IT_number 51
_symmetry_cell_setting 'orthorhombic'
loop_
_space_group_symop_operation_xyz
x,y,z
1/2-x,-y,z
1/2+x,-y,-z
-x,y,-z
-x,-y,-z
1/2+x,y,-z
1/2-x,y,z
x,-y,z
loop_
_atom_site_type_symbol
_atom_site_label
_atom_site_fract_x
_atom_site_fract_y
_atom_site_fract_z
Si Si1 0.584752 0.139664 0.652634
Si Si2 0.409789 0.634483 0.687776
Si Si3 0.575396 0.500000 0.419255
Si Si4 0.420323 0.000000 0.712833
Si Si5 0.084843 0.260132 0.215664
Si Si6 0.410097 0.753598 0.561213
Si Si7 0.418921 0.000000 0.134661
Si Si8 0.079372 0.164504 0.074913
O O1 0.750000 0.120058 0.639876
O O2 0.488628 0.071145 0.674966
O O3 0.582346 0.197983 0.720157
O O4 0.509937 0.178553 0.583921
O O5 0.250000 0.613777 0.712720
O O6 0.462776 0.569442 0.633697
O O7 0.501096 0.668012 0.754650
O O8 0.398358 0.703305 0.632417
O O9 0.750000 0.500000 0.429900
O O10 0.500000 0.500000 0.500000
O O11 0.479760 0.000000 0.795319
O O12 0.250000 0.000000 0.710312
O O13 0.250000 0.280466 0.204451
O O14 0.033079 0.217354 0.142555
O O15 0.500000 0.710863 0.500000
O O16 0.250000 0.772438 0.537437
O O17 0.444992 0.077354 0.093055
O O18 0.250000 0.000000 0.156693
O O19 0.250000 0.172856 0.067257
O O20 0.000000 0.183217 0.000000
#
# Coordination Sequence:
#
# PCOD9401097 Si02
#       8
#     8   8   4   4   8   8   4   8
#     4  10  19  34  52  67  90 126 164 206 254 301
#     4   9  19  33  51  75 105 136 170 206 243 295
#     4  10  20  34  52  80 115 146 171 204 251 302
#     4  12  22  31  48  73  95 121 164 211 253 301
#     4   9  18  33  52  72  97 132 173 209 248 300
#     4  10  19  32  49  72  97 125 163 204 246 295
#     4  10  19  35  51  67 101 139 172 209 259 313
#     4  10  20  33  50  74 104 137 172 214 260 311
#
# _framework density 16.811249
#
# number of rings (size 3 to 8) (size 9 to 14) (size 15 to 20)
#    0.000    2.154    1.538    2.308    0.000    3.077 
#    0.000    0.385    0.000    0.000    0.000    0.538 
#    0.000    0.000    0.000    0.000    0.000    0.000 
#
# Total GULP energy -289539.543850 kJ/mol
# GULP energy per Si atom -5568.068151 kJ/mol
# Density = 1.677299 g / cm^3
# Si number density = 16.811249 Si / 1000 Ang^3
#
#
#
# Elastic Constant Matrix: (Units=GPa)
#
#
# Indices 1 2 3 4 5 6 
#
# 1 89.8790 41.5741 44.5768 0.0000 0.0000 0.0000
# 2 41.5741 72.4988 38.6682 0.0000 0.0000 0.0000
# 3 44.5768 38.6682 88.2484 0.0000 0.0000 0.0000
# 4 0.0000 0.0000 0.0000 -481.1391 0.0000 0.0000
# 5 0.0000 0.0000 0.0000 0.0000 30.9608 0.0000
# 6 0.0000 0.0000 0.0000 0.0000 0.0000 17.0626
#
#
#
# Elastic Compliance Matrix: (Units=1/GPa)
#
#
# Indices 1 2 3 4 5 6 
#
# 1 0.017060 -0.006769 -0.005652 0.000000 0.000000 0.000000
# 2 -0.006769 0.020685 -0.005645 0.000000 0.000000 0.000000
# 3 -0.005652 -0.005645 0.016660 0.000000 0.000000 0.000000
# 4 0.000000 0.000000 0.000000 -0.002078 0.000000 0.000000
# 5 0.000000 0.000000 0.000000 0.000000 0.032299 0.000000
# 6 0.000000 0.000000 0.000000 0.000000 0.000000 0.058608
#
#
# Mechanical properties :
#
#
# Convention : Reuss Voigt Hill
#
# Bulk Modulus (GPa) = 54.71904 55.58494 55.15199
# Shear Modulus (GPa) = 26.96066 -78.23598 -25.63766
#
# Velocity S-wave (km/s) = 4.00900 -6.82927 -3.90940
# Velocity P-wave (km/s) = 7.35181 5.38974 3.53553
#
# Compressibility (1/GPa) = 0.01827517
#
# Stress axis : x y z
#
# Youngs Moduli (GPa) = 58.61690 48.34306 60.02444
#
# Poissons Ratio (x) = 0.32721 0.33924
# Poissons Ratio (y) = 0.39675 0.33883
# Poissons Ratio (z) = 0.33128 0.27289
#
# Static dielectric constant tensor:
#      x y z
#    x 1.584450 0.000000 0.000000 
#    y 0.000000 1.601870 0.000000 
#    z 0.000000 0.000000 1.581240 
# 
# From -- ./inp_files/28011.got.cif
#   From: 2010.05.17/outbox.cif.g08.bks.cpg/sg51_15_cif.got.tgz:28011.got - 2010.06.03 11:52:47.
