data_PCOD9401073
_publ_section_title
;
Structure prediction by ZEFSAII (Michael W. Deem and Ramdas Pophale) SiO2 
 PCOD9401073
Probable space group: P M M A
;
_chemical_formula_sum "Si O2"
_cell_formula_units_Z 52
_cell_length_a 9.006070
_cell_length_b 15.641803
_cell_length_c 23.665420
_cell_angle_alpha 90.000000
_cell_angle_beta 90.000000
_cell_angle_gamma 90.000000
_cell_volume 3333.775469
_symmetry_space_group_name_H-M "P M M A"
_symmetry_group_IT_number 51
_symmetry_cell_setting 'orthorhombic'
loop_
_space_group_symop_operation_xyz
x,y,z
1/2-x,-y,z
1/2+x,-y,-z
-x,y,-z
-x,-y,-z
1/2+x,y,-z
1/2-x,y,z
x,-y,z
loop_
_atom_site_type_symbol
_atom_site_label
_atom_site_fract_x
_atom_site_fract_y
_atom_site_fract_z
Si Si1 0.571835 0.158378 0.057038
Si Si2 0.431921 0.598770 0.317736
Si Si3 0.580358 0.603836 0.556535
Si Si4 0.422761 0.671344 0.099843
Si Si5 0.428268 0.095040 0.817609
Si Si6 0.572668 0.500000 0.061645
Si Si7 0.922150 0.260855 0.772456
O O1 0.750000 0.161816 0.051550
O O2 0.502654 0.252640 0.065987
O O3 0.534952 0.110680 0.115921
O O4 0.500000 0.121387 0.000000
O O5 0.250000 0.597664 0.318112
O O6 0.476770 0.500000 0.305533
O O7 0.481806 0.623532 0.381200
O O8 0.479836 0.669489 0.272433
O O9 0.500000 0.634174 0.500000
O O10 0.750000 0.633231 0.554681
O O11 0.581386 0.500000 0.554771
O O12 0.250000 0.663123 0.082217
O O13 0.510767 0.584327 0.091447
O O14 0.426028 0.696544 0.165601
O O15 0.250000 0.098710 0.814025
O O16 0.494086 0.171376 0.780276
O O17 0.478510 0.000000 0.801286
O O18 0.750000 0.500000 0.058774
O O19 0.500000 0.500000 0.000000
O O20 0.750000 0.243399 0.758479
#
# Coordination Sequence:
#
# PCOD9401073 Si02
#       7
#     8   8   8   8   8   4   8
#     4  10  19  32  49  67  88 111 138 173 218 271
#     4   8  14  25  43  66  93 125 157 186 220 259
#     4   8  13  22  37  58  86 122 158 188 216 249
#     4  10  20  33  48  66  86 111 144 182 224 264
#     4   9  19  35  51  66  89 119 144 174 226 281
#     4  12  24  36  48  62  82 110 147 186 223 264
#     4   9  18  31  50  71  90 115 150 189 222 259
#
# _framework density 15.597931000000001
#
# number of rings (size 3 to 8) (size 9 to 14) (size 15 to 20)
#    0.000    2.769    0.000    3.000    1.077    1.846 
#    0.000    0.769    0.000    0.923    0.000    0.000 
#    0.000    0.615    0.000    1.385    0.000    2.462 
#
# Total GULP energy -289668.405813 kJ/mol
# GULP energy per Si atom -5570.546266 kJ/mol
# Density = 1.556243 g / cm^3
# Si number density = 15.597931 Si / 1000 Ang^3
#
#
#
# Elastic Constant Matrix: (Units=GPa)
#
#
# Indices 1 2 3 4 5 6 
#
# 1 48.8544 32.7324 24.4382 0.0000 0.0000 0.0000
# 2 32.7324 105.1166 43.3214 0.0000 0.0000 0.0000
# 3 24.4382 43.3214 91.1241 0.0000 0.0000 0.0000
# 4 0.0000 0.0000 0.0000 8.4310 0.0000 0.0000
# 5 0.0000 0.0000 0.0000 0.0000 19.5085 0.0000
# 6 0.0000 0.0000 0.0000 0.0000 0.0000 19.2183
#
#
#
# Elastic Compliance Matrix: (Units=1/GPa)
#
#
# Indices 1 2 3 4 5 6 
#
# 1 0.027008 -0.006747 -0.004036 0.000000 0.000000 0.000000
# 2 -0.006747 0.013517 -0.004617 0.000000 0.000000 0.000000
# 3 -0.004036 -0.004617 0.014251 0.000000 0.000000 0.000000
# 4 0.000000 0.000000 0.000000 0.118610 0.000000 0.000000
# 5 0.000000 0.000000 0.000000 0.000000 0.051260 0.000000
# 6 0.000000 0.000000 0.000000 0.000000 0.000000 0.052034
#
#
# Mechanical properties :
#
#
# Convention : Reuss Voigt Hill
#
# Bulk Modulus (GPa) = 41.70534 49.56434 45.63484
# Shear Modulus (GPa) = 15.84933 19.07176 17.46054
#
# Velocity S-wave (km/s) = 3.19112 3.50052 3.34939
# Velocity P-wave (km/s) = 6.35401 6.94143 6.65420
#
# Compressibility (1/GPa) = 0.02397774
#
# Stress axis : x y z
#
# Youngs Moduli (GPa) = 37.02594 73.98203 70.16983
#
# Poissons Ratio (x) = 0.49915 0.28318
# Poissons Ratio (y) = 0.24981 0.32395
# Poissons Ratio (z) = 0.14942 0.34155
#
# Static dielectric constant tensor:
#      x y z
#    x 1.531020 0.000000 0.000000 
#    y 0.000000 1.511420 0.000000 
#    z 0.000000 0.000000 1.535290 
# 
# From -- ./inp_files/34719.got.cif
#   From: 2010.05.17/outbox.cif.g08.bks.cpg/sg51_18_cif.got.tgz:34719.got - 2010.06.03 11:52:47.
