data_PCOD9401095
_publ_section_title
;
Structure prediction by ZEFSAII (Michael W. Deem and Ramdas Pophale) SiO2 
 PCOD9401095
Probable space group: P M M A
;
_chemical_formula_sum "Si O2"
_cell_formula_units_Z 64
_cell_length_a 8.751862
_cell_length_b 27.891108
_cell_length_c 15.227666
_cell_angle_alpha 90.000000
_cell_angle_beta 90.000000
_cell_angle_gamma 90.000000
_cell_volume 3717.059996
_symmetry_space_group_name_H-M "P M M A"
_symmetry_group_IT_number 51
_symmetry_cell_setting 'orthorhombic'
loop_
_space_group_symop_operation_xyz
x,y,z
1/2-x,-y,z
1/2+x,-y,-z
-x,y,-z
-x,-y,-z
1/2+x,y,-z
1/2-x,y,z
x,-y,z
loop_
_atom_site_type_symbol
_atom_site_label
_atom_site_fract_x
_atom_site_fract_y
_atom_site_fract_z
Si Si1 0.566043 0.555146 0.594334
Si Si2 0.067448 0.056002 0.094399
Si Si3 0.065087 0.134047 0.777666
Si Si4 0.566513 0.171366 0.406532
Si Si5 0.066394 0.283604 0.595211
Si Si6 0.433451 0.669794 0.905079
Si Si7 0.933522 0.361464 0.726198
Si Si8 0.066423 0.219031 0.906006
O O1 0.500000 0.570258 0.500000
O O2 0.750000 0.556112 0.588530
O O3 0.518170 0.500000 0.610235
O O4 0.520317 0.591386 0.671068
O O5 0.250000 0.059922 0.091065
O O6 0.002212 0.089094 0.170953
O O7 0.026490 0.000000 0.107296
O O8 0.000000 0.071150 0.000000
O O9 0.250000 0.131342 0.779550
O O10 0.015668 0.140593 0.677057
O O11 0.019441 0.182028 0.830996
O O12 0.500000 0.156380 0.500000
O O13 0.750000 0.169348 0.410951
O O14 0.526532 0.227493 0.391634
O O15 0.250000 0.288029 0.595050
O O16 0.000000 0.297859 0.500000
O O17 0.996874 0.316495 0.670799
O O18 0.250000 0.667242 0.906755
O O19 0.499073 0.640299 0.823718
O O20 0.478973 0.725788 0.889863
O O21 0.500000 0.655900 0.000000
O O22 0.750000 0.359273 0.729815
O O23 0.250000 0.218168 0.910982
O O24 0.000000 0.204162 0.000000
#
# Coordination Sequence:
#
# PCOD9401095 Si02
#       8
#     8   8   8   8   8   8   8   8
#     4   9  19  35  53  74 101 130 160 199 247 297
#     4  10  21  36  53  75 102 129 158 195 241 292
#     4  10  19  32  51  74  99 128 164 202 242 288
#     4   9  19  34  50  70  99 134 169 206 245 287
#     4  10  19  32  49  72 104 137 168 203 245 292
#     4  10  20  35  52  71 100 135 169 206 247 290
#     4  11  21  32  50  75 100 130 169 207 247 296
#     4   9  18  31  47  70 100 131 161 196 238 286
#
# _framework density 17.217908999999999
#
# number of rings (size 3 to 8) (size 9 to 14) (size 15 to 20)
#    0.000    2.250    0.000    3.000    0.000    7.750 
#    0.000    1.250    0.000    0.750    0.000    0.000 
#    0.000    0.000    0.000    0.000    0.000    0.000 
#
# Total GULP energy -357263.631299 kJ/mol
# GULP energy per Si atom -5582.244239 kJ/mol
# Density = 1.717872 g / cm^3
# Si number density = 17.217909 Si / 1000 Ang^3
#
#
#
# Elastic Constant Matrix: (Units=GPa)
#
#
# Indices 1 2 3 4 5 6 
#
# 1 31.2394 28.4236 44.3324 0.0000 0.0000 0.0000
# 2 28.4236 70.7675 82.5502 0.0000 0.0000 0.0000
# 3 44.3324 82.5502 179.0526 0.0000 0.0000 0.0000
# 4 0.0000 0.0000 0.0000 28.7390 0.0000 0.0000
# 5 0.0000 0.0000 0.0000 0.0000 32.5614 0.0000
# 6 0.0000 0.0000 0.0000 0.0000 0.0000 19.6542
#
#
#
# Elastic Compliance Matrix: (Units=1/GPa)
#
#
# Indices 1 2 3 4 5 6 
#
# 1 0.054604 -0.013329 -0.007374 0.000000 0.000000 0.000000
# 2 -0.013329 0.033827 -0.012295 0.000000 0.000000 0.000000
# 3 -0.007374 -0.012295 0.013079 0.000000 0.000000 0.000000
# 4 0.000000 0.000000 0.000000 0.034796 0.000000 0.000000
# 5 0.000000 0.000000 0.000000 0.000000 0.030711 0.000000
# 6 0.000000 0.000000 0.000000 0.000000 0.000000 0.050880
#
#
# Mechanical properties :
#
#
# Convention : Reuss Voigt Hill
#
# Bulk Modulus (GPa) = 28.15934 65.74131 46.95033
# Shear Modulus (GPa) = 16.90723 24.57448 20.74086
#
# Velocity S-wave (km/s) = 3.13702 3.78201 3.47451
# Velocity P-wave (km/s) = 5.43244 7.57207 6.58968
#
# Compressibility (1/GPa) = 0.03551219
#
# Stress axis : x y z
#
# Youngs Moduli (GPa) = 18.31379 29.56234 76.45669
#
# Poissons Ratio (x) = 0.39405 0.56380
# Poissons Ratio (y) = 0.24411 0.94005
# Poissons Ratio (z) = 0.13505 0.36347
#
# Static dielectric constant tensor:
#      x y z
#    x 1.578500 0.000000 0.000000 
#    y 0.000000 1.583580 0.000000 
#    z 0.000000 0.000000 1.571260 
# 
# From -- ./inp_files/22345.got.cif
#   From: 2010.05.17/outbox.cif.g08.bks.cpg/sg51_12_cif.got.tgz:22345.got - 2010.06.03 11:52:47.
