data_PCOD9401545
_publ_section_title
;
Structure prediction by ZEFSAII (Michael W. Deem and Ramdas Pophale) SiO2 
 PCOD9401545
Probable space group: P M M A
;
_chemical_formula_sum "Si O2"
_cell_formula_units_Z 64
_cell_length_a 8.253853
_cell_length_b 32.392719
_cell_length_c 14.828031
_cell_angle_alpha 90.000000
_cell_angle_beta 90.000000
_cell_angle_gamma 90.000000
_cell_volume 3964.492666
_symmetry_space_group_name_H-M "P M M A"
_symmetry_group_IT_number 51
_symmetry_cell_setting 'orthorhombic'
loop_
_space_group_symop_operation_xyz
x,y,z
1/2-x,-y,z
1/2+x,-y,-z
-x,y,-z
-x,-y,-z
1/2+x,y,-z
1/2-x,y,z
x,-y,z
loop_
_atom_site_type_symbol
_atom_site_label
_atom_site_fract_x
_atom_site_fract_y
_atom_site_fract_z
Si Si1 0.553716 0.865297 0.896022
Si Si2 0.945819 0.546697 0.101839
Si Si3 0.056529 0.755398 0.598308
Si Si4 0.443437 0.214184 0.213326
Si Si5 0.054750 0.660013 0.598138
Si Si6 0.554314 0.044350 0.895591
Si Si7 0.051742 0.374955 0.786470
Si Si8 0.943734 0.705731 0.102976
O O1 0.750000 0.864915 0.895508
O O2 0.494877 0.827208 0.835824
O O3 0.499618 0.910706 0.861292
O O4 0.500000 0.860354 0.000000
O O5 0.750000 0.546612 0.103320
O O6 0.001318 0.500000 0.123131
O O7 0.002883 0.582148 0.169760
O O8 0.000000 0.556425 0.000000
O O9 0.250000 0.754617 0.600041
O O10 0.998267 0.707678 0.608774
O O11 0.000000 0.769985 0.500000
O O12 0.996592 0.781133 0.683385
O O13 0.250000 0.213324 0.210283
O O14 0.500508 0.254380 0.158516
O O15 0.250000 0.660711 0.599368
O O16 0.999300 0.633769 0.684054
O O17 0.000000 0.645177 0.500000
O O18 0.750000 0.044268 0.892253
O O19 0.498356 0.000000 0.856392
O O20 0.500000 0.044190 0.000000
O O21 0.250000 0.375155 0.786737
O O22 0.999383 0.336172 0.847833
O O23 0.750000 0.705201 0.104515
O O24 0.000000 0.707555 0.000000
#
# Coordination Sequence:
#
# PCOD9401545 Si02
#       8
#     8   8   8   8   8   8   8   8
#     4   9  18  29  41  60  87 120 155 188 223 264
#     4   9  17  30  49  70  91 117 147 180 220 265
#     4  10  19  33  51  69  89 116 149 189 229 268
#     4  11  21  32  45  64  91 123 155 186 221 268
#     4   9  17  31  48  67  88 113 142 180 221 261
#     4   8  13  23  39  57  78 107 145 187 226 262
#     4   9  17  31  48  66  91 117 146 183 223 265
#     4  11  21  33  45  62  89 122 155 189 224 262
#
# _framework density 16.143303
#
# number of rings (size 3 to 8) (size 9 to 14) (size 15 to 20)
#    0.000    2.500    1.250    1.875    0.000    2.500 
#    0.000    1.250    0.000    0.375    0.000    0.000 
#    0.000    0.500    0.000    0.875    0.000    1.500 
#
# Total GULP energy -356657.659296 kJ/mol
# GULP energy per Si atom -5572.775926 kJ/mol
# Density = 1.610656 g / cm^3
# Si number density = 16.143303 Si / 1000 Ang^3
#
#
#
# Elastic Constant Matrix: (Units=GPa)
#
#
# Indices 1 2 3 4 5 6 
#
# 1 14.4737 13.6761 12.6338 0.0000 0.0000 0.0000
# 2 13.6761 139.5650 84.2589 0.0000 0.0000 0.0000
# 3 12.6338 84.2589 128.9575 0.0000 0.0000 0.0000
# 4 0.0000 0.0000 0.0000 8.4754 0.0000 0.0000
# 5 0.0000 0.0000 0.0000 0.0000 23.7207 0.0000
# 6 0.0000 0.0000 0.0000 0.0000 0.0000 12.4967
#
#
#
# Elastic Compliance Matrix: (Units=1/GPa)
#
#
# Indices 1 2 3 4 5 6 
#
# 1 0.077590 -0.004977 -0.004349 0.000000 0.000000 0.000000
# 2 -0.004977 0.012152 -0.007452 0.000000 0.000000 0.000000
# 3 -0.004349 -0.007452 0.013050 0.000000 0.000000 0.000000
# 4 0.000000 0.000000 0.000000 0.117989 0.000000 0.000000
# 5 0.000000 0.000000 0.000000 0.000000 0.042157 0.000000
# 6 0.000000 0.000000 0.000000 0.000000 0.000000 0.080021
#
#
# Mechanical properties :
#
#
# Convention : Reuss Voigt Hill
#
# Bulk Modulus (GPa) = 14.44373 56.01488 35.22931
# Shear Modulus (GPa) = 12.51266 20.43372 16.47319
#
# Velocity S-wave (km/s) = 2.78708 3.56163 3.19789
# Velocity P-wave (km/s) = 4.39587 7.18940 5.95866
#
# Compressibility (1/GPa) = 0.06923419
#
# Stress axis : x y z
#
# Youngs Moduli (GPa) = 12.88821 82.29096 76.62944
#
# Poissons Ratio (x) = 0.40959 0.33328
# Poissons Ratio (y) = 0.06415 0.57107
# Poissons Ratio (z) = 0.05605 0.61326
#
# Static dielectric constant tensor:
#      x y z
#    x 1.567060 0.000000 0.000000 
#    y 0.000000 1.575230 0.000000 
#    z 0.000000 0.000000 1.514320 
# 
# From -- ./inp_files/22608.got.cif
#   From: 2010.05.17/outbox.cif.g08.bks.cpg/sg51_12_cif.got.tgz:22608.got - 2010.06.03 11:52:47.
