data_PCOD9401818
_publ_section_title
;
Structure prediction by ZEFSAII (Michael W. Deem and Ramdas Pophale) SiO2 
 PCOD9401818
Probable space group: P M M A
;
_chemical_formula_sum "Si O2"
_cell_formula_units_Z 64
_cell_length_a 20.030592
_cell_length_b 9.092709
_cell_length_c 20.546437
_cell_angle_alpha 90.000000
_cell_angle_beta 90.000000
_cell_angle_gamma 90.000000
_cell_volume 3742.170735
_symmetry_space_group_name_H-M "P M M A"
_symmetry_group_IT_number 51
_symmetry_cell_setting 'orthorhombic'
loop_
_space_group_symop_operation_xyz
x,y,z
1/2-x,-y,z
1/2+x,-y,-z
-x,y,-z
-x,-y,-z
1/2+x,y,-z
1/2-x,y,z
x,-y,z
loop_
_atom_site_type_symbol
_atom_site_label
_atom_site_fract_x
_atom_site_fract_y
_atom_site_fract_z
Si Si1 0.939651 0.174760 0.331421
Si Si2 0.926910 0.176566 0.970670
Si Si3 0.904997 0.175267 0.700989
Si Si4 0.827215 0.823294 0.086515
Si Si5 0.576304 0.176605 0.479830
Si Si6 0.092697 0.326123 0.799285
Si Si7 0.437282 0.325220 0.166536
Si Si8 0.328370 0.675363 0.415303
O O1 0.916168 0.214106 0.403740
O O2 0.904396 0.260213 0.273072
O O3 0.019389 0.202125 0.325358
O O4 0.930222 0.000000 0.322251
O O5 0.917193 0.257850 0.902515
O O6 0.924322 0.000000 0.960374
O O7 0.871998 0.218200 0.024315
O O8 0.000000 0.211333 0.000000
O O9 0.902344 0.245984 0.772530
O O10 0.854697 0.249649 0.650737
O O11 0.895169 0.000000 0.703780
O O12 0.750000 0.784159 0.077395
O O13 0.857530 0.750088 0.150649
O O14 0.832222 0.000000 0.093236
O O15 0.500000 0.210668 0.500000
O O16 0.627744 0.258808 0.526178
O O17 0.584525 0.000000 0.487503
O O18 0.103495 0.500000 0.797975
O O19 0.016854 0.298437 0.824158
O O20 0.426090 0.500000 0.168881
O O21 0.250000 0.705347 0.424811
O O22 0.337998 0.500000 0.411319
#
# Coordination Sequence:
#
# PCOD9401818 Si02
#       8
#     8   8   8   8   8   8   8   8
#     4   9  18  33  56  83 111 139 178 231 278 322
#     4  10  19  33  55  81 107 142 186 230 274 324
#     4  10  19  35  58  82 109 144 187 232 276 327
#     4  10  21  37  56  78 107 143 183 226 274 329
#     4  10  19  36  59  86 113 143 188 237 280 330
#     4  10  20  33  52  80 111 141 178 222 271 329
#     4  10  20  33  53  83 114 141 177 227 280 328
#     4  11  24  39  55  81 118 155 189 229 283 343
#
# _framework density 17.102371999999999
#
# number of rings (size 3 to 8) (size 9 to 14) (size 15 to 20)
#    0.000    2.000    2.500    1.500    0.000    4.250 
#    0.000    1.250    0.000    3.000    0.000    0.000 
#    0.000    0.000    0.000    0.000    0.000    0.000 
#
# Total GULP energy -357303.202830 kJ/mol
# GULP energy per Si atom -5582.862544 kJ/mol
# Density = 1.706345 g / cm^3
# Si number density = 17.102372 Si / 1000 Ang^3
#
#
#
# Elastic Constant Matrix: (Units=GPa)
#
#
# Indices 1 2 3 4 5 6 
#
# 1 108.9113 64.5319 90.3824 0.0000 0.0000 0.0000
# 2 64.5319 55.1054 75.0554 0.0000 0.0000 0.0000
# 3 90.3824 75.0554 179.2646 0.0000 0.0000 0.0000
# 4 0.0000 0.0000 0.0000 4.9113 0.0000 0.0000
# 5 0.0000 0.0000 0.0000 0.0000 23.8541 0.0000
# 6 0.0000 0.0000 0.0000 0.0000 0.0000 20.7057
#
#
#
# Elastic Compliance Matrix: (Units=1/GPa)
#
#
# Indices 1 2 3 4 5 6 
#
# 1 0.030066 -0.033887 -0.000971 0.000000 0.000000 0.000000
# 2 -0.033887 0.080421 -0.016586 0.000000 0.000000 0.000000
# 3 -0.000971 -0.016586 0.013012 0.000000 0.000000 0.000000
# 4 0.000000 0.000000 0.000000 0.203613 0.000000 0.000000
# 5 0.000000 0.000000 0.000000 0.000000 0.041922 0.000000
# 6 0.000000 0.000000 0.000000 0.000000 0.000000 0.048296
#
#
# Mechanical properties :
#
#
# Convention : Reuss Voigt Hill
#
# Bulk Modulus (GPa) = 48.51530 89.24675 68.88102
# Shear Modulus (GPa) = 9.48608 17.44832 13.46720
#
# Velocity S-wave (km/s) = 2.35769 3.19757 2.80919
# Velocity P-wave (km/s) = 5.98671 8.11971 7.13339
#
# Compressibility (1/GPa) = 0.02061205
#
# Stress axis : x y z
#
# Youngs Moduli (GPa) = 33.26001 12.43452 76.85109
#
# Poissons Ratio (x) = 0.42137 0.07462
# Poissons Ratio (y) = 1.12708 1.27465
# Poissons Ratio (z) = 0.03229 0.20624
#
# Static dielectric constant tensor:
#      x y z
#    x 1.561100 0.000000 0.000000 
#    y 0.000000 1.565520 0.000000 
#    z 0.000000 0.000000 1.559190 
# 
# From -- ./inp_files/33934.got.cif
#   From: 2010.05.17/outbox.cif.g08.bks.cpg/sg51_17_cif.got.tgz:33934.got - 2010.06.03 11:52:47.
