data_PCOD9401981
_publ_section_title
;
Structure prediction by ZEFSAII (Michael W. Deem and Ramdas Pophale) SiO2 
 PCOD9401981
Probable space group: P M M A
;
_chemical_formula_sum "Si O2"
_cell_formula_units_Z 64
_cell_length_a 8.589630
_cell_length_b 20.418615
_cell_length_c 20.418670
_cell_angle_alpha 90.000000
_cell_angle_beta 90.000000
_cell_angle_gamma 90.000000
_cell_volume 3581.196799
_symmetry_space_group_name_H-M "P M M A"
_symmetry_group_IT_number 51
_symmetry_cell_setting 'orthorhombic'
loop_
_space_group_symop_operation_xyz
x,y,z
1/2-x,-y,z
1/2+x,-y,-z
-x,y,-z
-x,-y,-z
1/2+x,y,-z
1/2-x,y,z
x,-y,z
loop_
_atom_site_type_symbol
_atom_site_label
_atom_site_fract_x
_atom_site_fract_y
_atom_site_fract_z
Si Si1 0.065966 0.256857 0.794611
Si Si2 0.563097 0.788332 0.431367
Si Si3 0.435455 0.929786 0.102633
Si Si4 0.060808 0.070849 0.612507
Si Si5 0.565058 0.316590 0.669122
Si Si6 0.935679 0.577142 0.428382
Si Si7 0.434751 0.894487 0.760518
Si Si8 0.563265 0.784939 0.931463
O O1 0.250000 0.267230 0.799669
O O2 0.041265 0.183723 0.764855
O O3 0.994500 0.307733 0.743236
O O4 0.993399 0.253172 0.867008
O O5 0.500000 0.762390 0.500000
O O6 0.750000 0.787183 0.430612
O O7 0.506715 0.863316 0.422739
O O8 0.502327 0.744154 0.372556
O O9 0.250000 0.929840 0.092119
O O10 0.471260 0.925301 0.179906
O O11 0.496977 0.860719 0.075064
O O12 0.499171 0.000000 0.078530
O O13 0.250000 0.070927 0.608646
O O14 0.022178 0.079254 0.689289
O O15 0.004310 0.000000 0.588586
O O16 0.750000 0.314282 0.668400
O O17 0.506946 0.380166 0.629864
O O18 0.750000 0.586091 0.428673
O O19 0.970742 0.500000 0.419967
O O20 0.000000 0.596732 0.500000
O O21 0.250000 0.906998 0.770464
O O22 0.750000 0.786105 0.931766
O O23 0.500000 0.758415 0.000000
#
# Coordination Sequence:
#
# PCOD9401981 Si02
#       8
#     8   8   8   8   8   8   8   8
#     4  10  19  34  55  78 102 133 173 220 268 316
#     4  11  22  37  52  71  98 131 173 222 272 326
#     4   9  18  30  43  63  92 123 158 206 262 322
#     4   9  17  30  48  67  89 120 161 214 273 329
#     4  12  23  36  57  83 111 144 181 223 266 314
#     4  10  21  38  60  87 121 158 192 225 264 313
#     4   9  16  29  48  68  89 118 159 208 263 324
#     4  10  20  34  50  71 100 135 172 216 270 329
#
# _framework density 17.871120999999999
#
# number of rings (size 3 to 8) (size 9 to 14) (size 15 to 20)
#    0.000    2.000    1.250    3.375    0.000    3.000 
#    0.000    0.000    0.000    1.875    0.000    0.000 
#    0.000    0.500    0.000    1.875    0.000    2.875 
#
# Total GULP energy -357276.015747 kJ/mol
# GULP energy per Si atom -5582.437746 kJ/mol
# Density = 1.783045 g / cm^3
# Si number density = 17.871121 Si / 1000 Ang^3
#
#
#
# Elastic Constant Matrix: (Units=GPa)
#
#
# Indices 1 2 3 4 5 6 
#
# 1 55.0831 37.2566 37.9544 0.0000 0.0000 0.0000
# 2 37.2566 65.5263 45.6051 0.0000 0.0000 0.0000
# 3 37.9544 45.6051 129.5571 0.0000 0.0000 0.0000
# 4 0.0000 0.0000 0.0000 181.4515 0.0000 0.0000
# 5 0.0000 0.0000 0.0000 0.0000 26.9354 0.0000
# 6 0.0000 0.0000 0.0000 0.0000 0.0000 145.2900
#
#
#
# Elastic Compliance Matrix: (Units=1/GPa)
#
#
# Indices 1 2 3 4 5 6 
#
# 1 0.030843 -0.014898 -0.003792 0.000000 0.000000 0.000000
# 2 -0.014898 0.027409 -0.005284 0.000000 0.000000 0.000000
# 3 -0.003792 -0.005284 0.010689 0.000000 0.000000 0.000000
# 4 0.000000 0.000000 0.000000 0.005511 0.000000 0.000000
# 5 0.000000 0.000000 0.000000 0.000000 0.037126 0.000000
# 6 0.000000 0.000000 0.000000 0.000000 0.000000 0.006883
#
#
# Mechanical properties :
#
#
# Convention : Reuss Voigt Hill
#
# Bulk Modulus (GPa) = 47.62980 54.64427 51.13703
# Shear Modulus (GPa) = 28.83398 79.35875 54.09637
#
# Velocity S-wave (km/s) = 4.02112 6.67102 5.50781
# Velocity P-wave (km/s) = 6.94758 9.48578 8.31411
#
# Compressibility (1/GPa) = 0.02099526
#
# Stress axis : x y z
#
# Youngs Moduli (GPa) = 32.42177 36.48428 93.55170
#
# Poissons Ratio (x) = 0.54354 0.35471
# Poissons Ratio (y) = 0.48302 0.49430
# Poissons Ratio (z) = 0.12293 0.19277
#
# Static dielectric constant tensor:
#      x y z
#    x 1.584980 0.000000 0.000000 
#    y 0.000000 1.632130 0.000000 
#    z 0.000000 0.000000 1.600180 
# 
# From -- ./inp_files/32679.got.cif
#   From: 2010.05.17/outbox.cif.g08.bks.cpg/sg51_17_cif.got.tgz:32679.got - 2010.06.03 11:52:47.
