data_PCOD9401535
_publ_section_title
;
Structure prediction by ZEFSAII (Michael W. Deem and Ramdas Pophale) SiO2 
 PCOD9401535
Probable space group: P M M A
;
_chemical_formula_sum "Si O2"
_cell_formula_units_Z 64
_cell_length_a 28.297135
_cell_length_b 7.944753
_cell_length_c 14.942145
_cell_angle_alpha 90.000000
_cell_angle_beta 90.000000
_cell_angle_gamma 90.000000
_cell_volume 3359.199623
_symmetry_space_group_name_H-M "P M M A"
_symmetry_group_IT_number 51
_symmetry_cell_setting 'orthorhombic'
loop_
_space_group_symop_operation_xyz
x,y,z
1/2-x,-y,z
1/2+x,-y,-z
-x,y,-z
-x,-y,-z
1/2+x,y,-z
1/2-x,y,z
x,-y,z
loop_
_atom_site_type_symbol
_atom_site_label
_atom_site_fract_x
_atom_site_fract_y
_atom_site_fract_z
Si Si1 0.114431 0.693109 0.634267
Si Si2 0.063868 0.295388 0.267332
Si Si3 0.128617 0.308136 0.114812
Si Si4 0.458226 0.800095 0.778997
Si Si5 0.196181 0.800864 0.766539
Si Si6 0.553307 0.293946 0.527288
Si Si7 0.055152 0.196681 0.978500
Si Si8 0.196083 0.297277 0.963680
O O1 0.125819 0.500000 0.615632
O O2 0.070338 0.706433 0.702328
O O3 0.159691 0.763056 0.686943
O O4 0.092849 0.768135 0.542822
O O5 0.063654 0.500000 0.263093
O O6 0.107510 0.233390 0.206276
O O7 0.064792 0.245219 0.371135
O O8 0.013950 0.233607 0.228184
O O9 0.143249 0.500000 0.135272
O O10 0.084015 0.305796 0.047887
O O11 0.168206 0.229542 0.050049
O O12 0.439544 0.748968 0.876239
O O13 0.450017 0.000000 0.769041
O O14 0.250000 0.731611 0.753919
O O15 0.177534 0.743139 0.864120
O O16 0.199859 0.000000 0.772057
O O17 0.500000 0.240245 0.500000
O O18 0.552964 0.500000 0.523345
O O19 0.069847 0.000000 0.987141
O O20 0.000000 0.203477 0.000000
O O21 0.250000 0.237235 0.965184
O O22 0.195441 0.500000 0.970435
#
# Coordination Sequence:
#
# PCOD9401535 Si02
#       8
#     8   8   8   8   8   8   8   8
#     4  11  21  34  55  77 101 135 173 213 258 309
#     4  10  19  33  50  69  98 134 173 212 254 302
#     4  10  20  31  49  74  97 129 170 212 252 292
#     4  11  21  32  47  70 101 135 172 209 251 300
#     4  10  21  37  56  80 108 135 166 208 258 307
#     4   9  17  32  52  73  99 135 174 211 255 302
#     4  10  20  32  43  61  96 136 163 192 242 300
#     4   9  18  34  54  77 105 135 169 207 250 305
#
# _framework density 19.052159
#
# number of rings (size 3 to 8) (size 9 to 14) (size 15 to 20)
#    0.000    2.000    2.500    1.875    0.000    4.500 
#    0.000    1.875    0.000    0.750    0.000    3.500 
#    0.000    2.000    0.000    0.000    0.000    0.000 
#
# Total GULP energy -356940.645552 kJ/mol
# GULP energy per Si atom -5577.197587 kJ/mol
# Density = 1.900880 g / cm^3
# Si number density = 19.052159 Si / 1000 Ang^3
#
#
#
# Elastic Constant Matrix: (Units=GPa)
#
#
# Indices 1 2 3 4 5 6 
#
# 1 89.7186 2.8371 56.5486 0.0000 0.0000 0.0000
# 2 2.8371 19.6397 6.5168 0.0000 0.0000 0.0000
# 3 56.5486 6.5168 147.1076 0.0000 0.0000 0.0000
# 4 0.0000 0.0000 0.0000 -17.2046 0.0000 0.0000
# 5 0.0000 0.0000 0.0000 0.0000 28.7822 0.0000
# 6 0.0000 0.0000 0.0000 0.0000 0.0000 20.1872
#
#
#
# Elastic Compliance Matrix: (Units=1/GPa)
#
#
# Indices 1 2 3 4 5 6 
#
# 1 0.014711 -0.000252 -0.005644 0.000000 0.000000 0.000000
# 2 -0.000252 0.051681 -0.002192 0.000000 0.000000 0.000000
# 3 -0.005644 -0.002192 0.009064 0.000000 0.000000 0.000000
# 4 0.000000 0.000000 0.000000 -0.058124 0.000000 0.000000
# 5 0.000000 0.000000 0.000000 0.000000 0.034744 0.000000
# 6 0.000000 0.000000 0.000000 0.000000 0.000000 0.049536
#
#
# Mechanical properties :
#
#
# Convention : Reuss Voigt Hill
#
# Bulk Modulus (GPa) = 16.86923 43.14121 30.00522
# Shear Modulus (GPa) = 36.35038 19.05718 27.70378
#
# Velocity S-wave (km/s) = 4.37274 3.16613 3.81741
# Velocity P-wave (km/s) = 5.86241 6.00489 5.93408
#
# Compressibility (1/GPa) = 0.05927954
#
# Stress axis : x y z
#
# Youngs Moduli (GPa) = 67.97540 19.34935 110.32193
#
# Poissons Ratio (x) = 0.00488 0.62264
# Poissons Ratio (y) = 0.01716 0.24187
# Poissons Ratio (z) = 0.38364 0.04242
#
# Static dielectric constant tensor:
#      x y z
#    x 1.683250 0.000000 0.000000 
#    y 0.000000 1.686280 0.000000 
#    z 0.000000 0.000000 1.683420 
# 
# From -- ./inp_files/26730.got.cif
#   From: 2010.05.17/outbox.cif.g08.bks.cpg/sg51_14_cif.got.tgz:26730.got - 2010.06.03 11:52:47.
