data_PCOD9401010
_publ_section_title
;
Structure prediction by ZEFSAII (Michael W. Deem and Ramdas Pophale) SiO2 
 PCOD9401010
Probable space group: P M M A
;
_chemical_formula_sum "Si O2"
_cell_formula_units_Z 56
_cell_length_a 8.854113
_cell_length_b 15.063376
_cell_length_c 23.740772
_cell_angle_alpha 90.000000
_cell_angle_beta 90.000000
_cell_angle_gamma 90.000000
_cell_volume 3166.374026
_symmetry_space_group_name_H-M "P M M A"
_symmetry_group_IT_number 51
_symmetry_cell_setting 'orthorhombic'
loop_
_space_group_symop_operation_xyz
x,y,z
1/2-x,-y,z
1/2+x,-y,-z
-x,y,-z
-x,-y,-z
1/2+x,y,-z
1/2-x,y,z
x,-y,z
loop_
_atom_site_type_symbol
_atom_site_label
_atom_site_fract_x
_atom_site_fract_y
_atom_site_fract_z
Si Si1 0.432143 0.000000 0.437120
Si Si2 0.566885 0.399297 0.937576
Si Si3 0.567990 0.500000 0.438929
Si Si4 0.930503 0.102625 0.224428
Si Si5 0.920228 0.400189 0.746650
Si Si6 0.074033 0.257739 0.153983
Si Si7 0.430160 0.850726 0.346860
Si Si8 0.427198 0.338063 0.638528
O O1 0.500000 0.000000 0.500000
O O2 0.475807 0.083535 0.397605
O O3 0.250000 0.000000 0.442653
O O4 0.750000 0.396525 0.938898
O O5 0.526220 0.500000 0.917365
O O6 0.516328 0.316938 0.898494
O O7 0.500000 0.390327 0.000000
O O8 0.750000 0.500000 0.440188
O O9 0.500000 0.500000 0.500000
O O10 0.521282 0.411562 0.405895
O O11 0.750000 0.110687 0.228118
O O12 0.990191 0.170775 0.177098
O O13 0.997983 0.125597 0.286184
O O14 0.969240 0.000000 0.211663
O O15 0.750000 0.392840 0.721741
O O16 0.935057 0.500000 0.769017
O O17 0.930916 0.327817 0.794836
O O18 0.042179 0.381073 0.699309
O O19 0.250000 0.234969 0.143625
O O20 0.250000 0.856889 0.340306
O O21 0.480472 0.752321 0.363069
O O22 0.250000 0.319591 0.631000
#
# Coordination Sequence:
#
# PCOD9401010 Si02
#       8
#     4   8   4   8   8   8   8   8
#     4  10  24  42  62  84 110 140 179 228 283 344
#     4   9  18  34  56  84 121 161 199 237 277 329
#     4  10  24  42  58  76 106 144 187 230 275 330
#     4  11  23  37  56  84 115 148 184 231 289 343
#     4  10  19  31  51  80 111 145 181 219 271 333
#     4  10  20  34  55  84 116 151 192 235 279 332
#     4  11  22  39  60  84 110 143 183 225 278 343
#     4  11  22  37  55  80 110 141 178 228 279 326
#
# _framework density 17.685842999999998
#
# number of rings (size 3 to 8) (size 9 to 14) (size 15 to 20)
#    0.000    1.714    2.857    1.714    0.000    6.000 
#    0.000    2.857    0.000    3.000    0.000    0.000 
#    0.000    0.000    0.000    0.000    0.000    0.000 
#
# Total GULP energy -312439.280567 kJ/mol
# GULP energy per Si atom -5579.272867 kJ/mol
# Density = 1.764559 g / cm^3
# Si number density = 17.685843 Si / 1000 Ang^3
#
#
#
# Elastic Constant Matrix: (Units=GPa)
#
#
# Indices 1 2 3 4 5 6 
#
# 1 31.5547 45.6862 29.4667 0.0000 0.0000 0.0000
# 2 45.6862 165.0887 66.4983 0.0000 0.0000 0.0000
# 3 29.4667 66.4983 101.4887 0.0000 0.0000 0.0000
# 4 0.0000 0.0000 0.0000 -126.7242 0.0000 0.0000
# 5 0.0000 0.0000 0.0000 0.0000 27.6527 0.0000
# 6 0.0000 0.0000 0.0000 0.0000 0.0000 20.0375
#
#
#
# Elastic Compliance Matrix: (Units=1/GPa)
#
#
# Indices 1 2 3 4 5 6 
#
# 1 0.057894 -0.012568 -0.008575 0.000000 0.000000 0.000000
# 2 -0.012568 0.010957 -0.003531 0.000000 0.000000 0.000000
# 3 -0.008575 -0.003531 0.014656 0.000000 0.000000 0.000000
# 4 0.000000 0.000000 0.000000 -0.007891 0.000000 0.000000
# 5 0.000000 0.000000 0.000000 0.000000 0.036163 0.000000
# 6 0.000000 0.000000 0.000000 0.000000 0.000000 0.049907
#
#
# Mechanical properties :
#
#
# Convention : Reuss Voigt Hill
#
# Bulk Modulus (GPa) = 29.27225 64.60382 46.93804
# Shear Modulus (GPa) = 22.48009 -5.37475 8.55267
#
# Velocity S-wave (km/s) = 3.56909 -1.74517 2.20145
# Velocity P-wave (km/s) = 5.79411 5.70500 5.74973
#
# Compressibility (1/GPa) = 0.03416204
#
# Stress axis : x y z
#
# Youngs Moduli (GPa) = 17.27295 91.26229 68.22987
#
# Poissons Ratio (x) = 1.14694 0.58505
# Poissons Ratio (y) = 0.21708 0.24090
# Poissons Ratio (z) = 0.14811 0.32222
#
# Static dielectric constant tensor:
#      x y z
#    x 1.606310 0.000000 0.000000 
#    y 0.000000 1.670320 0.000000 
#    z 0.000000 0.000000 1.586580 
# 
# From -- ./inp_files/32055.got.cif
#   From: 2010.05.17/outbox.cif.g08.bks.cpg/sg51_17_cif.got.tgz:32055.got - 2010.06.03 11:52:47.
