data_PCOD9401487
_publ_section_title
;
Structure prediction by ZEFSAII (Michael W. Deem and Ramdas Pophale) SiO2 
 PCOD9401487
Probable space group: P M M A
;
_chemical_formula_sum "Si O2"
_cell_formula_units_Z 56
_cell_length_a 14.628190
_cell_length_b 21.239928
_cell_length_c 9.929431
_cell_angle_alpha 90.000000
_cell_angle_beta 90.000000
_cell_angle_gamma 90.000000
_cell_volume 3085.091115
_symmetry_space_group_name_H-M "P M M A"
_symmetry_group_IT_number 51
_symmetry_cell_setting 'orthorhombic'
loop_
_space_group_symop_operation_xyz
x,y,z
1/2-x,-y,z
1/2+x,-y,-z
-x,y,-z
-x,-y,-z
1/2+x,y,-z
1/2-x,y,z
x,-y,z
loop_
_atom_site_type_symbol
_atom_site_label
_atom_site_fract_x
_atom_site_fract_y
_atom_site_fract_z
Si Si1 0.642865 0.392475 0.565985
Si Si2 0.549784 0.305173 0.142234
Si Si3 0.457164 0.571322 0.709961
Si Si4 0.074458 0.255906 0.386291
Si Si5 0.645756 0.857274 0.777100
Si Si6 0.854393 0.180025 0.087258
Si Si7 0.520746 0.068887 0.160063
O O1 0.750000 0.408871 0.588606
O O2 0.603238 0.418424 0.424925
O O3 0.564698 0.416629 0.670943
O O4 0.632424 0.316337 0.565080
O O5 0.575631 0.375119 0.187580
O O6 0.481496 0.280220 0.256890
O O7 0.625785 0.251306 0.129607
O O8 0.500000 0.307868 0.000000
O O9 0.447215 0.500000 0.757069
O O10 0.130253 0.196054 0.334797
O O11 0.000000 0.240115 0.500000
O O12 0.750000 0.879007 0.776601
O O13 0.572678 0.912872 0.765438
O O14 0.626909 0.827460 0.926502
O O15 0.750000 0.163680 0.108255
O O16 0.914426 0.129622 0.168706
O O17 0.556216 0.000000 0.201182
O O18 0.500000 0.064783 0.000000
#
# Coordination Sequence:
#
# PCOD9401487 Si02
#       7
#     8   8   8   8   8   8   8
#     4  10  19  34  57  79 106 144 182 229 284 333
#     4  11  19  37  58  76 112 148 182 230 286 340
#     4  10  22  37  53  81 111 140 187 235 279 343
#     4  11  19  35  56  85 113 140 186 241 282 330
#     4  10  19  32  54  82 114 149 190 235 281 333
#     4  10  19  32  54  83 114 151 192 231 278 335
#     4   9  17  31  52  81 118 150 183 232 280 325
#
# _framework density 18.151813000000001
#
# number of rings (size 3 to 8) (size 9 to 14) (size 15 to 20)
#    0.000    1.857    5.714    1.714    0.000    2.571 
#    0.000    2.857    0.000    0.429    0.000    2.000 
#    0.000    0.000    0.000    0.000    0.000    0.000 
#
# Total GULP energy -312027.151583 kJ/mol
# GULP energy per Si atom -5571.913421 kJ/mol
# Density = 1.811050 g / cm^3
# Si number density = 18.151813 Si / 1000 Ang^3
#
#
#
# Elastic Constant Matrix: (Units=GPa)
#
#
# Indices 1 2 3 4 5 6 
#
# 1 75.4954 41.4373 18.9961 0.0000 0.0000 0.0000
# 2 41.4373 124.3766 17.6581 0.0000 0.0000 0.0000
# 3 18.9961 17.6581 46.2360 0.0000 0.0000 0.0000
# 4 0.0000 0.0000 0.0000 10.7550 0.0000 0.0000
# 5 0.0000 0.0000 0.0000 0.0000 16.2711 0.0000
# 6 0.0000 0.0000 0.0000 0.0000 0.0000 -16.3239
#
#
#
# Elastic Compliance Matrix: (Units=1/GPa)
#
#
# Indices 1 2 3 4 5 6 
#
# 1 0.017314 -0.005031 -0.005192 0.000000 0.000000 0.000000
# 2 -0.005031 0.009963 -0.001738 0.000000 0.000000 0.000000
# 3 -0.005192 -0.001738 0.024425 0.000000 0.000000 0.000000
# 4 0.000000 0.000000 0.000000 0.092980 0.000000 0.000000
# 5 0.000000 0.000000 0.000000 0.000000 0.061459 0.000000
# 6 0.000000 0.000000 0.000000 0.000000 0.000000 -0.061260
#
#
# Mechanical properties :
#
#
# Convention : Reuss Voigt Hill
#
# Bulk Modulus (GPa) = 35.99742 44.69899 40.34820
# Shear Modulus (GPa) = 28.08007 13.34154 20.71080
#
# Velocity S-wave (km/s) = 3.93740 2.71403 3.38150
# Velocity P-wave (km/s) = 6.36751 5.87365 6.12556
#
# Compressibility (1/GPa) = 0.02777977
#
# Stress axis : x y z
#
# Youngs Moduli (GPa) = 57.75789 100.37128 40.94161
#
# Poissons Ratio (x) = 0.50498 0.21256
# Poissons Ratio (y) = 0.29059 0.07115
# Poissons Ratio (z) = 0.29987 0.17444
#
# Static dielectric constant tensor:
#      x y z
#    x 1.646030 0.000000 0.000000 
#    y 0.000000 1.656390 0.000000 
#    z 0.000000 0.000000 1.616810 
# 
# From -- ./inp_files/8476.got.cif
#   From: 2010.05.17/outbox.cif.g08.bks.cpg/sg51_5_cif.got.tgz:8476.got - 2010.06.03 11:52:47.
