data_PCOD9401989
_publ_section_title
;
Structure prediction by ZEFSAII (Michael W. Deem and Ramdas Pophale) SiO2 
 PCOD9401989
Probable space group: P M M A
;
_chemical_formula_sum "Si O2"
_cell_formula_units_Z 56
_cell_length_a 7.927490
_cell_length_b 20.248912
_cell_length_c 16.425288
_cell_angle_alpha 90.000000
_cell_angle_beta 90.000000
_cell_angle_gamma 90.000000
_cell_volume 2636.637284
_symmetry_space_group_name_H-M "P M M A"
_symmetry_group_IT_number 51
_symmetry_cell_setting 'orthorhombic'
loop_
_space_group_symop_operation_xyz
x,y,z
1/2-x,-y,z
1/2+x,-y,-z
-x,y,-z
-x,-y,-z
1/2+x,y,-z
1/2-x,y,z
x,-y,z
loop_
_atom_site_type_symbol
_atom_site_label
_atom_site_fract_x
_atom_site_fract_y
_atom_site_fract_z
Si Si1 0.543657 0.287412 0.657656
Si Si2 0.453120 0.288589 0.159062
Si Si3 0.046395 0.428247 0.095013
Si Si4 0.550539 0.153121 0.089351
Si Si5 0.953184 0.075321 0.247823
Si Si6 0.453469 0.571760 0.404970
Si Si7 0.950641 0.152363 0.588772
O O1 0.750000 0.288990 0.654804
O O2 0.492297 0.271018 0.749673
O O3 0.483785 0.360767 0.635261
O O4 0.484562 0.227768 0.600569
O O5 0.250000 0.291561 0.158679
O O6 0.517312 0.361465 0.136428
O O7 0.504283 0.230068 0.099521
O O8 0.250000 0.428182 0.102291
O O9 0.986521 0.500000 0.126387
O O10 0.000000 0.424904 0.000000
O O11 0.750000 0.148009 0.093749
O O12 0.479945 0.114383 0.168231
O O13 0.500000 0.128595 0.000000
O O14 0.750000 0.073710 0.241615
O O15 0.993505 0.110765 0.332957
O O16 0.015313 0.000000 0.248076
O O17 0.500000 0.574635 0.500000
O O18 0.250000 0.571785 0.397374
O O19 0.513440 0.500000 0.373278
O O20 0.750000 0.154841 0.591574
O O21 0.000000 0.126346 0.500000
#
# Coordination Sequence:
#
# PCOD9401989 Si02
#       7
#     8   8   8   8   8   8   8
#     4   9  18  32  52  79 110 145 188 239 287 336
#     4  10  19  34  55  79 111 147 191 242 289 341
#     4   9  18  31  48  71 101 140 185 234 285 336
#     4  11  23  39  62  90 120 154 193 236 288 345
#     4  10  23  44  66  90 121 153 190 237 286 342
#     4   9  17  30  48  71 102 142 187 234 284 337
#     4  11  22  38  62  90 122 158 198 240 289 344
#
# _framework density 21.239176
#
# number of rings (size 3 to 8) (size 9 to 14) (size 15 to 20)
#    0.000    2.143    1.429    1.714    0.000    3.714 
#    0.000    4.286    0.000    0.000    0.000    4.000 
#    0.000    0.000    0.000    0.000    0.000    0.000 
#
# Total GULP energy -312553.388549 kJ/mol
# GULP energy per Si atom -5581.310510 kJ/mol
# Density = 2.119083 g / cm^3
# Si number density = 21.239176 Si / 1000 Ang^3
#
#
#
# Elastic Constant Matrix: (Units=GPa)
#
#
# Indices 1 2 3 4 5 6 
#
# 1 21.7152 12.8737 3.3879 0.0000 0.0000 0.0000
# 2 12.8737 144.0305 69.7129 0.0000 0.0000 0.0000
# 3 3.3879 69.7129 135.6560 0.0000 0.0000 0.0000
# 4 0.0000 0.0000 0.0000 23.0796 0.0000 0.0000
# 5 0.0000 0.0000 0.0000 0.0000 23.0567 0.0000
# 6 0.0000 0.0000 0.0000 0.0000 0.0000 16.7377
#
#
#
# Elastic Compliance Matrix: (Units=1/GPa)
#
#
# Indices 1 2 3 4 5 6 
#
# 1 0.048816 -0.005022 0.001362 0.000000 0.000000 0.000000
# 2 -0.005022 0.009758 -0.004889 0.000000 0.000000 0.000000
# 3 0.001362 -0.004889 0.009850 0.000000 0.000000 0.000000
# 4 0.000000 0.000000 0.000000 0.043328 0.000000 0.000000
# 5 0.000000 0.000000 0.000000 0.000000 0.043371 0.000000
# 6 0.000000 0.000000 0.000000 0.000000 0.000000 0.059745
#
#
# Mechanical properties :
#
#
# Convention : Reuss Voigt Hill
#
# Bulk Modulus (GPa) = 19.48386 52.59451 36.03919
# Shear Modulus (GPa) = 20.07408 26.93660 23.50534
#
# Velocity S-wave (km/s) = 3.07765 3.56511 3.33032
# Velocity P-wave (km/s) = 4.67148 6.46246 5.63854
#
# Compressibility (1/GPa) = 0.05132454
#
# Stress axis : x y z
#
# Youngs Moduli (GPa) = 20.48519 102.47579 101.52082
#
# Poissons Ratio (x) = 0.51467 -0.13825
# Poissons Ratio (y) = 0.10288 0.49637
# Poissons Ratio (z) = -0.02790 0.50104
#
# Static dielectric constant tensor:
#      x y z
#    x 1.770010 0.000000 0.000000 
#    y 0.000000 1.791730 0.000000 
#    z 0.000000 0.000000 1.766020 
# 
# From -- ./inp_files/21790.got.cif
#   From: 2010.05.17/outbox.cif.g08.bks.cpg/sg51_11_cif.got.tgz:21790.got - 2010.06.03 11:52:47.
