data_PCOD9401581
_publ_section_title
;
Structure prediction by ZEFSAII (Michael W. Deem and Ramdas Pophale) SiO2 
 PCOD9401581
Probable space group: P M M A
;
_chemical_formula_sum "Si O2"
_cell_formula_units_Z 56
_cell_length_a 15.984641
_cell_length_b 19.711761
_cell_length_c 9.673152
_cell_angle_alpha 90.000000
_cell_angle_beta 90.000000
_cell_angle_gamma 90.000000
_cell_volume 3047.869190
_symmetry_space_group_name_H-M "P M M A"
_symmetry_group_IT_number 51
_symmetry_cell_setting 'orthorhombic'
loop_
_space_group_symop_operation_xyz
x,y,z
1/2-x,-y,z
1/2+x,-y,-z
-x,y,-z
-x,-y,-z
1/2+x,y,-z
1/2-x,y,z
x,-y,z
loop_
_atom_site_type_symbol
_atom_site_label
_atom_site_fract_x
_atom_site_fract_y
_atom_site_fract_z
Si Si1 0.953536 0.928212 0.355783
Si Si2 0.347755 0.206764 0.208803
Si Si3 0.348618 0.419197 0.353765
Si Si4 0.580154 0.323384 0.412499
Si Si5 0.034655 0.335792 0.154494
Si Si6 0.844141 0.186885 0.465661
Si Si7 0.923379 0.076438 0.897044
O O1 0.898113 0.861881 0.369198
O O2 0.000000 0.931673 0.500000
O O3 0.026753 0.924893 0.245982
O O4 0.906685 0.000000 0.332518
O O5 0.250000 0.228843 0.202035
O O6 0.413678 0.264646 0.163222
O O7 0.366043 0.189696 0.370640
O O8 0.360524 0.138978 0.117346
O O9 0.250000 0.402556 0.342125
O O10 0.358008 0.500000 0.360268
O O11 0.384995 0.384777 0.493879
O O12 0.400418 0.389112 0.224130
O O13 0.500000 0.296810 0.500000
O O14 0.543590 0.337191 0.261336
O O15 0.646389 0.263323 0.412734
O O16 0.000000 0.347737 0.000000
O O17 0.750000 0.162059 0.459770
O O18 0.889619 0.000000 0.924554
O O19 0.000000 0.090269 0.000000
#
# Coordination Sequence:
#
# PCOD9401581 Si02
#       7
#     8   8   8   8   8   8   8
#     4  10  19  33  52  74 102 137 180 230 283 338
#     4  11  21  35  57  82 113 147 188 241 290 340
#     4  10  21  40  65  90 118 152 191 235 282 332
#     4  10  19  35  60  83 110 148 192 232 273 330
#     4  11  23  38  59  88 121 156 192 234 281 341
#     4  11  20  32  54  81 109 139 183 239 288 334
#     4  10  21  37  55  76 106 146 191 235 284 343
#
# _framework density 18.373491999999999
#
# number of rings (size 3 to 8) (size 9 to 14) (size 15 to 20)
#    0.000    1.571    4.286    2.571    0.000    3.429 
#    0.000    6.429    0.000    4.286    0.000    0.000 
#    0.000    0.000    0.000    0.000    0.000    0.000 
#
# Total GULP energy -311993.541671 kJ/mol
# GULP energy per Si atom -5571.313244 kJ/mol
# Density = 1.833167 g / cm^3
# Si number density = 18.373492 Si / 1000 Ang^3
#
#
#
# Elastic Constant Matrix: (Units=GPa)
#
#
# Indices 1 2 3 4 5 6 
#
# 1 62.2507 41.8211 26.2770 0.0000 0.0000 0.0000
# 2 41.8211 104.4744 16.8506 0.0000 0.0000 0.0000
# 3 26.2770 16.8506 90.3718 0.0000 0.0000 0.0000
# 4 0.0000 0.0000 0.0000 15.0245 0.0000 0.0000
# 5 0.0000 0.0000 0.0000 0.0000 17.1132 0.0000
# 6 0.0000 0.0000 0.0000 0.0000 0.0000 -86.5864
#
#
#
# Elastic Compliance Matrix: (Units=1/GPa)
#
#
# Indices 1 2 3 4 5 6 
#
# 1 0.024297 -0.008853 -0.005414 0.000000 0.000000 0.000000
# 2 -0.008853 0.013094 0.000133 0.000000 0.000000 0.000000
# 3 -0.005414 0.000133 0.012615 0.000000 0.000000 0.000000
# 4 0.000000 0.000000 0.000000 0.066558 0.000000 0.000000
# 5 0.000000 0.000000 0.000000 0.000000 0.058434 0.000000
# 6 0.000000 0.000000 0.000000 0.000000 0.000000 -0.011549
#
#
# Mechanical properties :
#
#
# Convention : Reuss Voigt Hill
#
# Bulk Modulus (GPa) = 46.00368 47.44382 46.72375
# Shear Modulus (GPa) = 25.13023 0.58680 12.85852
#
# Velocity S-wave (km/s) = 3.70231 0.56575 2.64832
# Velocity P-wave (km/s) = 6.58548 5.12881 5.90226
#
# Compressibility (1/GPa) = 0.02173739
#
# Stress axis : x y z
#
# Youngs Moduli (GPa) = 41.15758 76.37014 79.27149
#
# Poissons Ratio (x) = 0.67609 0.42918
# Poissons Ratio (y) = 0.36436 -0.01051
# Poissons Ratio (z) = 0.22283 -0.01012
#
# Static dielectric constant tensor:
#      x y z
#    x 1.622110 0.000000 0.000000 
#    y 0.000000 1.687220 0.000000 
#    z 0.000000 0.000000 1.609960 
# 
# From -- ./inp_files/8540.got.cif
#   From: 2010.05.17/outbox.cif.g08.bks.cpg/sg51_5_cif.got.tgz:8540.got - 2010.06.03 11:52:47.
