data_PCOD9401917
_publ_section_title
;
Structure prediction by ZEFSAII (Michael W. Deem and Ramdas Pophale) SiO2 
 PCOD9401917
Probable space group: P M M A
;
_chemical_formula_sum "Si O2"
_cell_formula_units_Z 24
_cell_length_a 8.043944
_cell_length_b 10.801873
_cell_length_c 13.773243
_cell_angle_alpha 90.000000
_cell_angle_beta 90.000000
_cell_angle_gamma 90.000000
_cell_volume 1196.752422
_symmetry_space_group_name_H-M "P M M A"
_symmetry_group_IT_number 51
_symmetry_cell_setting 'orthorhombic'
loop_
_space_group_symop_operation_xyz
x,y,z
1/2-x,-y,z
1/2+x,-y,-z
-x,y,-z
-x,-y,-z
1/2+x,y,-z
1/2-x,y,z
x,-y,z
loop_
_atom_site_type_symbol
_atom_site_label
_atom_site_fract_x
_atom_site_fract_y
_atom_site_fract_z
Si Si1 0.432982 0.277535 0.201374
Si Si2 0.750000 0.633785 0.095045
Si Si3 0.750000 0.138101 0.946838
Si Si4 0.550925 0.144025 0.391673
O O1 0.250000 0.338703 0.200190
O O2 0.585906 0.354645 0.160811
O O3 0.405430 0.163576 0.125411
O O4 0.470830 0.224760 0.307165
O O5 0.750000 0.500000 0.044397
O O6 0.750000 0.749574 0.022415
O O7 0.750000 0.000000 0.986197
O O8 0.500000 0.183312 0.500000
O O9 0.750000 0.149738 0.382378
O O10 0.498963 0.000000 0.380736
#
# Coordination Sequence:
#
# PCOD9401917 Si02
#       4
#     8   4   4   8
#     4  10  23  40  61  95 127 171 211 269 320 384
#     4  12  26  46  67  92 128 174 227 272 323 388
#     4  10  24  42  65  96 134 172 217 272 327 388
#     4  10  19  33  59  95 135 171 208 260 322 387
#
# _framework density 20.054272000000001
#
# number of rings (size 3 to 8) (size 9 to 14) (size 15 to 20)
#    1.000    0.667    1.667    3.000    0.000    8.667 
#    0.000    0.000    0.000    1.000    0.000    0.000 
#    0.000    0.000    0.000    0.000    0.000    0.000 
#
# Total GULP energy -133889.523010 kJ/mol
# GULP energy per Si atom -5578.730125 kJ/mol
# Density = 2.000863 g / cm^3
# Si number density = 20.054272 Si / 1000 Ang^3
#
#
#
# Elastic Constant Matrix: (Units=GPa)
#
#
# Indices 1 2 3 4 5 6 
#
# 1 119.8972 32.1248 40.1698 0.0000 0.0000 0.0000
# 2 32.1248 109.8314 55.4262 0.0000 0.0000 0.0000
# 3 40.1698 55.4262 130.9132 0.0000 0.0000 0.0000
# 4 0.0000 0.0000 0.0000 -3.8140 0.0000 0.0000
# 5 0.0000 0.0000 0.0000 0.0000 24.4399 0.0000
# 6 0.0000 0.0000 0.0000 0.0000 0.0000 -6.4772
#
#
#
# Elastic Compliance Matrix: (Units=1/GPa)
#
#
# Indices 1 2 3 4 5 6 
#
# 1 0.009531 -0.001668 -0.002218 0.000000 0.000000 0.000000
# 2 -0.001668 0.011871 -0.004514 0.000000 0.000000 0.000000
# 3 -0.002218 -0.004514 0.010230 0.000000 0.000000 0.000000
# 4 0.000000 0.000000 0.000000 -0.262194 0.000000 0.000000
# 5 0.000000 0.000000 0.000000 0.000000 0.040917 0.000000
# 6 0.000000 0.000000 0.000000 0.000000 0.000000 -0.154387
#
#
# Mechanical properties :
#
#
# Convention : Reuss Voigt Hill
#
# Bulk Modulus (GPa) = 67.42583 68.45374 67.93978
# Shear Modulus (GPa) = -15.51407 18.35781 1.42187
#
# Velocity S-wave (km/s) = -2.78439 3.02885 0.84294
# Velocity P-wave (km/s) = 4.83297 6.81471 5.90753
#
# Compressibility (1/GPa) = 0.01483111
#
# Stress axis : x y z
#
# Youngs Moduli (GPa) = 104.92511 84.24041 97.74802
#
# Poissons Ratio (x) = 0.14054 0.21681
# Poissons Ratio (y) = 0.17504 0.44123
# Poissons Ratio (z) = 0.23273 0.38026
#
# Static dielectric constant tensor:
#      x y z
#    x 1.756460 0.000000 0.000000 
#    y 0.000000 1.694970 0.000000 
#    z 0.000000 0.000000 1.694710 
# 
# From -- ./inp_files/19882.got.cif
#   From: 2010.05.17/outbox.cif.g08.bks.cpg/sg51_10_cif.got.tgz:19882.got - 2010.06.03 11:52:47.
