data_PCOD9401896
_publ_section_title
;
Structure prediction by ZEFSAII (Michael W. Deem and Ramdas Pophale) SiO2 
 PCOD9401896
Probable space group: P M M A
;
_chemical_formula_sum "Si O2"
_cell_formula_units_Z 64
_cell_length_a 15.769519
_cell_length_b 17.972439
_cell_length_c 11.827178
_cell_angle_alpha 90.000000
_cell_angle_beta 90.000000
_cell_angle_gamma 90.000000
_cell_volume 3352.019975
_symmetry_space_group_name_H-M "P M M A"
_symmetry_group_IT_number 51
_symmetry_cell_setting 'orthorhombic'
loop_
_space_group_symop_operation_xyz
x,y,z
1/2-x,-y,z
1/2+x,-y,-z
-x,y,-z
-x,-y,-z
1/2+x,y,-z
1/2-x,y,z
x,-y,z
loop_
_atom_site_type_symbol
_atom_site_label
_atom_site_fract_x
_atom_site_fract_y
_atom_site_fract_z
Si Si1 0.657756 0.152952 0.744164
Si Si2 0.002293 0.655516 0.869963
Si Si3 0.846614 0.830725 0.309587
Si Si4 0.598612 0.309490 0.469302
Si Si5 0.157430 0.327911 0.275398
Si Si6 0.599462 0.913939 0.515702
Si Si7 0.007513 0.835547 0.870101
Si Si8 0.151611 0.588653 0.725637
O O1 0.750000 0.122085 0.777390
O O2 0.660541 0.241580 0.762513
O O3 0.641259 0.135477 0.612946
O O4 0.573237 0.128320 0.807777
O O5 0.920968 0.635164 0.791582
O O6 0.002692 0.745347 0.869936
O O7 0.088187 0.625918 0.814470
O O8 0.000000 0.630273 0.000000
O O9 0.750000 0.818948 0.273611
O O10 0.875026 0.759497 0.387383
O O11 0.855233 0.897990 0.397941
O O12 0.908628 0.847499 0.205038
O O13 0.500000 0.300861 0.500000
O O14 0.643439 0.320087 0.589985
O O15 0.619484 0.381514 0.394886
O O16 0.250000 0.361838 0.252355
O O17 0.500000 0.894703 0.500000
O O18 0.605275 0.000000 0.548829
O O19 0.000000 0.859346 0.000000
O O20 0.250000 0.610767 0.741323
O O21 0.146171 0.500000 0.732748
#
# Coordination Sequence:
#
# PCOD9401896 Si02
#       8
#     8   8   8   8   8   8   8   8
#     4  10  19  34  56  81 115 151 187 232 288 346
#     4  10  21  38  59  83 112 151 193 239 286 338
#     4  12  22  35  61  91 120 154 191 237 291 347
#     4  12  20  36  61  85 117 152 186 234 289 353
#     4  10  19  33  56  88 115 145 184 234 290 341
#     4  11  22  36  57  87 122 154 188 237 294 346
#     4  10  21  37  57  85 117 148 192 242 286 335
#     4  11  24  40  58  83 116 154 195 240 291 348
#
# _framework density 19.092966000000001
#
# number of rings (size 3 to 8) (size 9 to 14) (size 15 to 20)
#    0.000    1.250    5.000    2.625    0.000    2.500 
#    0.000    2.500    0.000    1.875    0.000    1.750 
#    0.000    0.000    0.000    0.000    0.000    0.000 
#
# Total GULP energy -356965.217410 kJ/mol
# GULP energy per Si atom -5577.581522 kJ/mol
# Density = 1.904951 g / cm^3
# Si number density = 19.092966 Si / 1000 Ang^3
#
#
#
# Elastic Constant Matrix: (Units=GPa)
#
#
# Indices 1 2 3 4 5 6 
#
# 1 185.7209 18.7108 75.3726 0.0000 0.0000 0.0000
# 2 18.7108 24.0938 2.1458 0.0000 0.0000 0.0000
# 3 75.3726 2.1458 118.3208 0.0000 0.0000 0.0000
# 4 0.0000 0.0000 0.0000 5.5902 0.0000 0.0000
# 5 0.0000 0.0000 0.0000 0.0000 -2.0990 0.0000
# 6 0.0000 0.0000 0.0000 0.0000 0.0000 18.5087
#
#
#
# Elastic Compliance Matrix: (Units=1/GPa)
#
#
# Indices 1 2 3 4 5 6 
#
# 1 0.007987 -0.005759 -0.004983 0.000000 0.000000 0.000000
# 2 -0.005759 0.045724 0.002839 0.000000 0.000000 0.000000
# 3 -0.004983 0.002839 0.011575 0.000000 0.000000 0.000000
# 4 0.000000 0.000000 0.000000 0.178885 0.000000 0.000000
# 5 0.000000 0.000000 0.000000 0.000000 -0.476415 0.000000
# 6 0.000000 0.000000 0.000000 0.000000 0.000000 0.054029
#
#
# Mechanical properties :
#
#
# Convention : Reuss Voigt Hill
#
# Bulk Modulus (GPa) = 20.21044 57.84376 39.02710
# Shear Modulus (GPa) = -34.26621 19.86039 -7.20291
#
# Velocity S-wave (km/s) = -4.24099 3.22870 -1.94441
# Velocity P-wave (km/s) = 3.65692 6.65289 3.92988
#
# Compressibility (1/GPa) = 0.04947938
#
# Stress axis : x y z
#
# Youngs Moduli (GPa) = 125.20202 21.87050 86.39542
#
# Poissons Ratio (x) = 0.12595 0.43055
# Poissons Ratio (y) = 0.72101 -0.24530
# Poissons Ratio (z) = 0.62394 -0.06210
#
# Static dielectric constant tensor:
#      x y z
#    x 1.705740 0.000000 0.000000 
#    y 0.000000 1.670920 0.000000 
#    z 0.000000 0.000000 1.665040 
# 
# From -- ./inp_files/16883.got.cif
#   From: 2010.05.17/outbox.cif.g08.bks.cpg/sg51_9_cif.got.tgz:16883.got - 2010.06.03 11:52:47.
