data_PCOD9401214
_publ_section_title
;
Structure prediction by ZEFSAII (Michael W. Deem and Ramdas Pophale) SiO2 
 PCOD9401214
Probable space group: P M M A
;
_chemical_formula_sum "Si O2"
_cell_formula_units_Z 48
_cell_length_a 8.506991
_cell_length_b 32.621251
_cell_length_c 9.371076
_cell_angle_alpha 90.000000
_cell_angle_beta 90.000000
_cell_angle_gamma 90.000000
_cell_volume 2600.555012
_symmetry_space_group_name_H-M "P M M A"
_symmetry_group_IT_number 51
_symmetry_cell_setting 'orthorhombic'
loop_
_space_group_symop_operation_xyz
x,y,z
1/2-x,-y,z
1/2+x,-y,-z
-x,y,-z
-x,-y,-z
1/2+x,y,-z
1/2-x,y,z
x,-y,z
loop_
_atom_site_type_symbol
_atom_site_label
_atom_site_fract_x
_atom_site_fract_y
_atom_site_fract_z
Si Si1 0.560925 0.277932 0.837306
Si Si2 0.559695 0.544125 0.836085
Si Si3 0.438248 0.121757 0.840152
Si Si4 0.938381 0.200971 0.339456
Si Si5 0.560235 0.632222 0.836970
Si Si6 0.938368 0.953092 0.658842
O O1 0.750000 0.276201 0.839747
O O2 0.496444 0.241281 0.742441
O O3 0.511223 0.323188 0.779725
O O4 0.500000 0.273993 0.000000
O O5 0.750000 0.544104 0.837519
O O6 0.508302 0.500000 0.773087
O O7 0.508400 0.588235 0.772724
O O8 0.500000 0.544132 0.000000
O O9 0.250000 0.121747 0.841927
O O10 0.492489 0.160472 0.745696
O O11 0.496685 0.079910 0.768597
O O12 0.500000 0.125827 0.000000
O O13 0.750000 0.200972 0.341142
O O14 0.000000 0.200150 0.500000
O O15 0.750000 0.632146 0.837981
O O16 0.500000 0.632034 0.000000
O O17 0.750000 0.951406 0.657901
O O18 0.000000 0.943545 0.500000
O O19 0.986689 0.000000 0.692363
#
# Coordination Sequence:
#
# PCOD9401214 Si02
#       6
#     8   8   8   8   8   8
#     4  10  19  32  51  74 102 135 171 212 257 307
#     4   8  12  18  29  47  75 112 152 192 234 283
#     4  11  24  40  60  85 113 145 180 220 264 311
#     4  11  24  40  58  80 105 135 172 214 262 315
#     4   8  14  23  36  57  85 119 158 198 242 292
#     4  10  21  38  61  88 118 152 188 225 265 310
#
# _framework density 18.457598999999998
#
# number of rings (size 3 to 8) (size 9 to 14) (size 15 to 20)
#    0.000    2.333    0.000    3.000    0.000    7.333 
#    0.000    0.000    0.000    0.000    0.000    0.000 
#    0.000    0.667    0.000    1.167    0.000    8.333 
#
# Total GULP energy -267533.159651 kJ/mol
# GULP energy per Si atom -5573.607493 kJ/mol
# Density = 1.841559 g / cm^3
# Si number density = 18.457599 Si / 1000 Ang^3
#
#
#
# Elastic Constant Matrix: (Units=GPa)
#
#
# Indices 1 2 3 4 5 6 
#
# 1 32.0213 34.0904 23.0035 0.0000 0.0000 0.0000
# 2 34.0904 182.2539 91.6093 0.0000 0.0000 0.0000
# 3 23.0035 91.6093 92.7126 0.0000 0.0000 0.0000
# 4 0.0000 0.0000 0.0000 -13.8271 0.0000 0.0000
# 5 0.0000 0.0000 0.0000 0.0000 25.8249 0.0000
# 6 0.0000 0.0000 0.0000 0.0000 0.0000 22.2679
#
#
#
# Elastic Compliance Matrix: (Units=1/GPa)
#
#
# Indices 1 2 3 4 5 6 
#
# 1 0.040150 -0.004972 -0.005049 0.000000 0.000000 0.000000
# 2 -0.004972 0.011517 -0.010146 0.000000 0.000000 0.000000
# 3 -0.005049 -0.010146 0.022064 0.000000 0.000000 0.000000
# 4 0.000000 0.000000 0.000000 -0.072322 0.000000 0.000000
# 5 0.000000 0.000000 0.000000 0.000000 0.038722 0.000000
# 6 0.000000 0.000000 0.000000 0.000000 0.000000 0.044908
#
#
# Mechanical properties :
#
#
# Convention : Reuss Voigt Hill
#
# Bulk Modulus (GPa) = 29.94329 67.15493 48.54911
# Shear Modulus (GPa) = 36.62867 17.40542 27.01705
#
# Velocity S-wave (km/s) = 4.45958 3.07415 3.83003
# Velocity P-wave (km/s) = 6.54027 7.00449 6.77636
#
# Compressibility (1/GPa) = 0.03339646
#
# Stress axis : x y z
#
# Youngs Moduli (GPa) = 24.90677 86.82989 45.32268
#
# Poissons Ratio (x) = 0.43174 0.22882
# Poissons Ratio (y) = 0.12384 0.45985
# Poissons Ratio (z) = 0.12575 0.88098
#
# Static dielectric constant tensor:
#      x y z
#    x 1.628790 0.000000 0.000000 
#    y 0.000000 1.706190 0.000000 
#    z 0.000000 0.000000 1.580740 
# 
# From -- ./inp_files/5974.got.cif
#   From: 2010.05.17/outbox.cif.g08.bks.cpg/sg51_3_cif.got.tgz:5974.got - 2010.06.03 11:52:47.
