data_PCOD9401785
_publ_section_title
;
Structure prediction by ZEFSAII (Michael W. Deem and Ramdas Pophale) SiO2 
 PCOD9401785
Probable space group: P M M A
;
_chemical_formula_sum "Si O2"
_cell_formula_units_Z 64
_cell_length_a 20.689853
_cell_length_b 8.645498
_cell_length_c 20.506508
_cell_angle_alpha 90.000000
_cell_angle_beta 90.000000
_cell_angle_gamma 90.000000
_cell_volume 3668.082809
_symmetry_space_group_name_H-M "P M M A"
_symmetry_group_IT_number 51
_symmetry_cell_setting 'orthorhombic'
loop_
_space_group_symop_operation_xyz
x,y,z
1/2-x,-y,z
1/2+x,-y,-z
-x,y,-z
-x,-y,-z
1/2+x,y,-z
1/2-x,y,z
x,-y,z
loop_
_atom_site_type_symbol
_atom_site_label
_atom_site_fract_x
_atom_site_fract_y
_atom_site_fract_z
Si Si1 0.955028 0.184970 0.330593
Si Si2 0.823352 0.188367 0.946588
Si Si3 0.895778 0.185315 0.691191
Si Si4 0.824497 0.813280 0.097036
Si Si5 0.569011 0.312982 0.469474
Si Si6 0.064840 0.316089 0.810226
Si Si7 0.423596 0.187376 0.163004
Si Si8 0.322468 0.686270 0.428765
O O1 0.924608 0.248677 0.396719
O O2 0.927667 0.252946 0.263443
O O3 0.031392 0.227021 0.331107
O O4 0.950492 0.000000 0.328172
O O5 0.750000 0.237415 0.929478
O O6 0.877933 0.240014 0.895997
O O7 0.823275 0.000000 0.944944
O O8 0.836385 0.232568 0.021543
O O9 0.892006 0.229420 0.767188
O O10 0.845922 0.262066 0.642349
O O11 0.889272 0.000000 0.686985
O O12 0.750000 0.772071 0.112787
O O13 0.876687 0.740506 0.144731
O O14 0.829414 0.000000 0.100424
O O15 0.500000 0.264958 0.500000
O O16 0.569453 0.500000 0.466661
O O17 0.625810 0.259742 0.517599
O O18 0.062177 0.500000 0.808735
O O19 0.996209 0.252104 0.836861
O O20 0.428385 0.000000 0.161371
O O21 0.250000 0.741315 0.442122
O O22 0.322724 0.500000 0.430713
#
# Coordination Sequence:
#
# PCOD9401785 Si02
#       8
#     8   8   8   8   8   8   8   8
#     4  10  20  35  56  80 103 130 173 222 264 306
#     4   8  15  30  54  80 104 137 182 226 268 318
#     4   9  18  31  49  74 102 133 170 214 258 302
#     4   9  18  35  58  80 103 136 180 226 271 322
#     4  10  19  33  55  79 101 135 176 211 255 313
#     4  11  22  35  53  78 110 143 176 218 267 321
#     4   9  18  33  53  79 109 140 176 220 265 310
#     4  10  21  35  50  72 105 140 172 208 252 307
#
# _framework density 17.447807000000001
#
# number of rings (size 3 to 8) (size 9 to 14) (size 15 to 20)
#    0.000    2.500    1.250    3.000    0.000    4.250 
#    0.000    5.000    0.000    3.375    0.000    0.000 
#    0.000    0.000    0.000    0.000    0.000    0.000 
#
# Total GULP energy -356966.374505 kJ/mol
# GULP energy per Si atom -5577.599602 kJ/mol
# Density = 1.740810 g / cm^3
# Si number density = 17.447807 Si / 1000 Ang^3
#
#
#
# Elastic Constant Matrix: (Units=GPa)
#
#
# Indices 1 2 3 4 5 6 
#
# 1 138.2383 35.1502 108.7444 0.0000 0.0000 0.0000
# 2 35.1502 20.9789 31.8473 0.0000 0.0000 0.0000
# 3 108.7444 31.8473 142.9073 0.0000 0.0000 0.0000
# 4 0.0000 0.0000 0.0000 -125.4054 0.0000 0.0000
# 5 0.0000 0.0000 0.0000 0.0000 28.7061 0.0000
# 6 0.0000 0.0000 0.0000 0.0000 0.0000 15.0473
#
#
#
# Elastic Compliance Matrix: (Units=1/GPa)
#
#
# Indices 1 2 3 4 5 6 
#
# 1 0.021319 -0.016765 -0.012487 0.000000 0.000000 0.000000
# 2 -0.016765 0.085221 -0.006235 0.000000 0.000000 0.000000
# 3 -0.012487 -0.006235 0.017889 0.000000 0.000000 0.000000
# 4 0.000000 0.000000 0.000000 -0.007974 0.000000 0.000000
# 5 0.000000 0.000000 0.000000 0.000000 0.034836 0.000000
# 6 0.000000 0.000000 0.000000 0.000000 0.000000 0.066457
#
#
# Mechanical properties :
#
#
# Convention : Reuss Voigt Hill
#
# Bulk Modulus (GPa) = 18.70680 72.62314 45.66497
# Shear Modulus (GPa) = 16.31115 -7.90488 4.20314
#
# Velocity S-wave (km/s) = 3.06085 -2.13083 1.55377
# Velocity P-wave (km/s) = 4.82044 5.97156 5.42661
#
# Compressibility (1/GPa) = 0.05345651
#
# Stress axis : x y z
#
# Youngs Moduli (GPa) = 46.90567 11.73420 55.90139
#
# Poissons Ratio (x) = 0.19672 0.69803
# Poissons Ratio (y) = 0.78637 0.34852
# Poissons Ratio (z) = 0.58570 0.07316
#
# Static dielectric constant tensor:
#      x y z
#    x 1.581940 0.000000 0.000000 
#    y 0.000000 1.593170 0.000000 
#    z 0.000000 0.000000 1.581830 
# 
# From -- ./inp_files/33895.got.cif
#   From: 2010.05.17/outbox.cif.g08.bks.cpg/sg51_17_cif.got.tgz:33895.got - 2010.06.03 11:52:47.
