data_PCOD9401586
_publ_section_title
;
Structure prediction by ZEFSAII (Michael W. Deem and Ramdas Pophale) SiO2 
 PCOD9401586
Probable space group: P M M A
;
_chemical_formula_sum "Si O2"
_cell_formula_units_Z 44
_cell_length_a 8.495171
_cell_length_b 30.245310
_cell_length_c 9.446922
_cell_angle_alpha 90.000000
_cell_angle_beta 90.000000
_cell_angle_gamma 90.000000
_cell_volume 2427.283451
_symmetry_space_group_name_H-M "P M M A"
_symmetry_group_IT_number 51
_symmetry_cell_setting 'orthorhombic'
loop_
_space_group_symop_operation_xyz
x,y,z
1/2-x,-y,z
1/2+x,-y,-z
-x,y,-z
-x,-y,-z
1/2+x,y,-z
1/2-x,y,z
x,-y,z
loop_
_atom_site_type_symbol
_atom_site_label
_atom_site_fract_x
_atom_site_fract_y
_atom_site_fract_z
Si Si1 0.063054 0.369100 0.841321
Si Si2 0.440045 0.809781 0.338128
Si Si3 0.561339 0.449464 0.657890
Si Si4 0.440564 0.904814 0.337313
Si Si5 0.440544 0.000000 0.337367
Si Si6 0.060738 0.713013 0.338760
O O1 0.250000 0.368995 0.842181
O O2 0.003783 0.413514 0.765217
O O3 0.003228 0.326921 0.753568
O O4 0.000000 0.367055 0.000000
O O5 0.500000 0.809934 0.500000
O O6 0.250000 0.809861 0.338990
O O7 0.492052 0.857236 0.274601
O O8 0.489201 0.761730 0.280930
O O9 0.500000 0.439635 0.500000
O O10 0.750000 0.447436 0.657091
O O11 0.513497 0.500000 0.692473
O O12 0.500000 0.904803 0.500000
O O13 0.250000 0.904840 0.338490
O O14 0.492118 0.952410 0.274922
O O15 0.500000 0.000000 0.500000
O O16 0.250000 0.000000 0.338464
O O17 0.250000 0.711134 0.340871
O O18 0.000000 0.709102 0.500000
#
# Coordination Sequence:
#
# PCOD9401586 Si02
#       6
#     8   8   8   8   4   8
#     4  12  25  40  57  78 106 138 171 209 253 301
#     4   8  14  23  37  56  80 110 148 193 237 281
#     4  10  21  39  63  89 115 143 175 209 244 285
#     4   8  12  18  27  43  67  99 138 180 225 272
#     4   8  12  16  24  38  62  96 135 176 219 270
#     4  10  19  33  52  74  99 130 169 211 253 298
#
# _framework density 18.127261000000001
#
# number of rings (size 3 to 8) (size 9 to 14) (size 15 to 20)
#    0.000    2.545    0.000    3.273    0.000    2.182 
#    0.000    0.000    0.000    0.000    0.000    0.000 
#    0.000    0.000    0.000    0.818    0.000    6.727 
#
# Total GULP energy -244972.889249 kJ/mol
# GULP energy per Si atom -5567.565665 kJ/mol
# Density = 1.808600 g / cm^3
# Si number density = 18.127261 Si / 1000 Ang^3
#
#
#
# Elastic Constant Matrix: (Units=GPa)
#
#
# Indices 1 2 3 4 5 6 
#
# 1 50.8916 43.5308 21.5562 0.0000 0.0000 0.0000
# 2 43.5308 203.2037 83.1543 0.0000 0.0000 0.0000
# 3 21.5562 83.1543 55.5229 0.0000 0.0000 0.0000
# 4 0.0000 0.0000 0.0000 -5.2648 0.0000 0.0000
# 5 0.0000 0.0000 0.0000 0.0000 20.6697 0.0000
# 6 0.0000 0.0000 0.0000 0.0000 0.0000 10.1447
#
#
#
# Elastic Compliance Matrix: (Units=1/GPa)
#
#
# Indices 1 2 3 4 5 6 
#
# 1 0.024441 -0.003494 -0.004256 0.000000 0.000000 0.000000
# 2 -0.003494 0.013211 -0.018430 0.000000 0.000000 0.000000
# 3 -0.004256 -0.018430 0.047264 0.000000 0.000000 0.000000
# 4 0.000000 0.000000 0.000000 -0.189940 0.000000 0.000000
# 5 0.000000 0.000000 0.000000 0.000000 0.048380 0.000000
# 6 0.000000 0.000000 0.000000 0.000000 0.000000 0.098574
#
#
# Mechanical properties :
#
#
# Convention : Reuss Voigt Hill
#
# Bulk Modulus (GPa) = 30.71500 67.34454 49.02977
# Shear Modulus (GPa) = 47.55497 15.86837 31.71167
#
# Velocity S-wave (km/s) = 5.12747 2.96190 4.18711
# Velocity P-wave (km/s) = 7.21356 6.99491 7.10508
#
# Compressibility (1/GPa) = 0.03255738
#
# Stress axis : x y z
#
# Youngs Moduli (GPa) = 40.91460 75.69219 21.15776
#
# Poissons Ratio (x) = 0.26449 0.09004
# Poissons Ratio (y) = 0.14297 0.38993
# Poissons Ratio (z) = 0.17412 1.39497
#
# Static dielectric constant tensor:
#      x y z
#    x 1.608900 0.000000 0.000000 
#    y 0.000000 1.719850 0.000000 
#    z 0.000000 0.000000 1.555940 
# 
# From -- ./inp_files/5873.got.cif
#   From: 2010.05.17/outbox.cif.g08.bks.cpg/sg51_3_cif.got.tgz:5873.got - 2010.06.03 11:52:47.
