data_PCOD9401821
_publ_section_title
;
Structure prediction by ZEFSAII (Michael W. Deem and Ramdas Pophale) SiO2 
 PCOD9401821
Probable space group: P M M A
;
_chemical_formula_sum "Si O2"
_cell_formula_units_Z 44
_cell_length_a 7.488408
_cell_length_b 14.255247
_cell_length_c 19.079095
_cell_angle_alpha 90.000000
_cell_angle_beta 90.000000
_cell_angle_gamma 90.000000
_cell_volume 2036.676328
_symmetry_space_group_name_H-M "P M M A"
_symmetry_group_IT_number 51
_symmetry_cell_setting 'orthorhombic'
loop_
_space_group_symop_operation_xyz
x,y,z
1/2-x,-y,z
1/2+x,-y,-z
-x,y,-z
-x,-y,-z
1/2+x,y,-z
1/2-x,y,z
x,-y,z
loop_
_atom_site_type_symbol
_atom_site_label
_atom_site_fract_x
_atom_site_fract_y
_atom_site_fract_z
Si Si1 0.537018 0.395830 0.671839
Si Si2 0.533336 0.894870 0.212685
Si Si3 0.965543 0.397153 0.162173
Si Si4 0.463393 0.784346 0.918774
Si Si5 0.043907 0.195015 0.354625
Si Si6 0.463819 0.000000 0.417895
O O1 0.750000 0.396756 0.659762
O O2 0.467591 0.500000 0.651929
O O3 0.510315 0.386390 0.755752
O O4 0.466174 0.299894 0.636241
O O5 0.750000 0.892063 0.216161
O O6 0.475916 0.864158 0.135282
O O7 0.462685 0.825351 0.271569
O O8 0.474833 0.000000 0.229259
O O9 0.750000 0.396425 0.158575
O O10 0.028990 0.500000 0.139661
O O11 0.032485 0.313621 0.113192
O O12 0.250000 0.781755 0.912384
O O13 0.500000 0.798481 0.000000
O O14 0.250000 0.199065 0.378377
O O15 0.964841 0.099164 0.387339
O O16 0.500000 0.000000 0.500000
O O17 0.250000 0.000000 0.403828
#
# Coordination Sequence:
#
# PCOD9401821 Si02
#       6
#     8   8   8   8   8   4
#     4   9  17  29  49  78 106 133 168 210 256 304
#     4  10  20  34  52  74  99 129 170 215 262 315
#     4   9  17  30  47  67  94 127 165 213 263 309
#     4  10  21  34  46  65  94 130 172 216 263 314
#     4  10  19  33  55  81 109 137 170 211 252 299
#     4  10  22  38  56  84 115 142 171 204 247 298
#
# _framework density 21.603826000000002
#
# number of rings (size 3 to 8) (size 9 to 14) (size 15 to 20)
#    0.000    2.364    2.727    0.000    0.000    2.909 
#    0.000    0.000    0.000    0.545    0.000    0.000 
#    0.000    0.000    0.000    0.000    0.000    0.000 
#
# Total GULP energy -245370.873302 kJ/mol
# GULP energy per Si atom -5576.610757 kJ/mol
# Density = 2.155465 g / cm^3
# Si number density = 21.603826 Si / 1000 Ang^3
#
#
#
# Elastic Constant Matrix: (Units=GPa)
#
#
# Indices 1 2 3 4 5 6 
#
# 1 59.4836 -0.1268 -5.0497 0.0000 0.0000 0.0000
# 2 -0.1268 164.7380 49.4751 0.0000 0.0000 0.0000
# 3 -5.0497 49.4751 53.6381 0.0000 0.0000 0.0000
# 4 0.0000 0.0000 0.0000 20.4178 0.0000 0.0000
# 5 0.0000 0.0000 0.0000 0.0000 16.3879 0.0000
# 6 0.0000 0.0000 0.0000 0.0000 0.0000 2.6356
#
#
#
# Elastic Compliance Matrix: (Units=1/GPa)
#
#
# Indices 1 2 3 4 5 6 
#
# 1 0.016996 -0.000647 0.002197 0.000000 0.000000 0.000000
# 2 -0.000647 0.008421 -0.007828 0.000000 0.000000 0.000000
# 3 0.002197 -0.007828 0.026071 0.000000 0.000000 0.000000
# 4 0.000000 0.000000 0.000000 0.048977 0.000000 0.000000
# 5 0.000000 0.000000 0.000000 0.000000 0.061021 0.000000
# 6 0.000000 0.000000 0.000000 0.000000 0.000000 0.379419
#
#
# Mechanical properties :
#
#
# Convention : Reuss Voigt Hill
#
# Bulk Modulus (GPa) = 25.68603 40.71744 33.20173
# Shear Modulus (GPa) = 8.82710 23.45899 16.14304
#
# Velocity S-wave (km/s) = 2.02355 3.29883 2.73652
# Velocity P-wave (km/s) = 4.16834 5.77910 5.03850
#
# Compressibility (1/GPa) = 0.03893167
#
# Stress axis : x y z
#
# Youngs Moduli (GPa) = 58.83582 118.75483 38.35719
#
# Poissons Ratio (x) = 0.07679 -0.08425
# Poissons Ratio (y) = 0.03804 0.30026
# Poissons Ratio (z) = -0.12923 0.92962
#
# Static dielectric constant tensor:
#      x y z
#    x 1.817520 0.000000 0.000000 
#    y 0.000000 1.850460 0.000000 
#    z 0.000000 0.000000 1.732500 
# 
# From -- ./inp_files/27320.got.cif
#   From: 2010.05.17/outbox.cif.g08.bks.cpg/sg51_14_cif.got.tgz:27320.got - 2010.06.03 11:52:47.
