data_PCOD9401965
_publ_section_title
;
Structure prediction by ZEFSAII (Michael W. Deem and Ramdas Pophale) SiO2 
 PCOD9401965
Probable space group: P M M A
;
_chemical_formula_sum "Si O2"
_cell_formula_units_Z 56
_cell_length_a 21.254374
_cell_length_b 7.832508
_cell_length_c 15.739903
_cell_angle_alpha 90.000000
_cell_angle_beta 90.000000
_cell_angle_gamma 90.000000
_cell_volume 2620.301208
_symmetry_space_group_name_H-M "P M M A"
_symmetry_group_IT_number 51
_symmetry_cell_setting 'orthorhombic'
loop_
_space_group_symop_operation_xyz
x,y,z
1/2-x,-y,z
1/2+x,-y,-z
-x,y,-z
-x,-y,-z
1/2+x,y,-z
1/2-x,y,z
x,-y,z
loop_
_atom_site_type_symbol
_atom_site_label
_atom_site_fract_x
_atom_site_fract_y
_atom_site_fract_z
Si Si1 0.552848 0.201073 0.564781
Si Si2 0.678904 0.696533 0.934570
Si Si3 0.958986 0.701454 0.919403
Si Si4 0.635989 0.798296 0.301744
Si Si5 0.175916 0.806480 0.877586
Si Si6 0.318800 0.698747 0.519062
Si Si7 0.006533 0.799742 0.264563
O O1 0.500000 0.273681 0.500000
O O2 0.621261 0.216348 0.524071
O O3 0.551509 0.271094 0.661185
O O4 0.537629 0.000000 0.574149
O O5 0.750000 0.770698 0.918863
O O6 0.681919 0.500000 0.905492
O O7 0.612145 0.774298 0.904825
O O8 0.668663 0.703939 0.036231
O O9 0.950065 0.500000 0.937507
O O10 0.992787 0.718786 0.828576
O O11 0.000000 0.769709 0.000000
O O12 0.650004 0.728343 0.208373
O O13 0.671057 0.714619 0.379788
O O14 0.561276 0.785509 0.309548
O O15 0.653172 0.000000 0.301074
O O16 0.250000 0.822441 0.863880
O O17 0.149576 0.000000 0.889301
O O18 0.250000 0.769980 0.497012
O O19 0.320108 0.500000 0.495951
O O20 0.018987 0.000000 0.248459
#
# Coordination Sequence:
#
# PCOD9401965 Si02
#       7
#     8   8   8   8   8   8   8
#     4  10  20  40  64  85 113 150 193 238 286 345
#     4   9  18  33  51  70  99 143 187 227 277 334
#     4  10  21  36  54  80 114 149 187 231 283 343
#     4  10  19  34  54  78 111 148 184 228 285 348
#     4   9  17  28  46  74 104 137 179 224 276 337
#     4  11  24  38  55  85 120 152 191 238 287 341
#     4  10  21  36  58  86 110 141 189 238 286 341
#
# _framework density 21.371589
#
# number of rings (size 3 to 8) (size 9 to 14) (size 15 to 20)
#    0.000    2.143    1.429    1.714    0.000    4.571 
#    0.000    2.143    0.000    2.571    0.000    0.000 
#    0.000    0.000    0.000    0.000    0.000    0.000 
#
# Total GULP energy -312107.635964 kJ/mol
# GULP energy per Si atom -5573.350642 kJ/mol
# Density = 2.132295 g / cm^3
# Si number density = 21.371589 Si / 1000 Ang^3
#
#
#
# Elastic Constant Matrix: (Units=GPa)
#
#
# Indices 1 2 3 4 5 6 
#
# 1 86.1960 9.9912 37.4532 0.0000 0.0000 0.0000
# 2 9.9912 25.1915 -2.6199 0.0000 0.0000 0.0000
# 3 37.4532 -2.6199 76.1908 0.0000 0.0000 0.0000
# 4 0.0000 0.0000 0.0000 18.6495 0.0000 0.0000
# 5 0.0000 0.0000 0.0000 0.0000 32.3461 0.0000
# 6 0.0000 0.0000 0.0000 0.0000 0.0000 12.1033
#
#
#
# Elastic Compliance Matrix: (Units=1/GPa)
#
#
# Indices 1 2 3 4 5 6 
#
# 1 0.015945 -0.007165 -0.008084 0.000000 0.000000 0.000000
# 2 -0.007165 0.043058 0.005003 0.000000 0.000000 0.000000
# 3 -0.008084 0.005003 0.017271 0.000000 0.000000 0.000000
# 4 0.000000 0.000000 0.000000 0.053621 0.000000 0.000000
# 5 0.000000 0.000000 0.000000 0.000000 0.030916 0.000000
# 6 0.000000 0.000000 0.000000 0.000000 0.000000 0.082622
#
#
# Mechanical properties :
#
#
# Convention : Reuss Voigt Hill
#
# Bulk Modulus (GPa) = 17.92735 30.80303 24.36519
# Shear Modulus (GPa) = 17.69798 22.13671 19.91734
#
# Velocity S-wave (km/s) = 2.88081 3.22188 3.05610
# Velocity P-wave (km/s) = 4.41271 5.31837 4.88657
#
# Compressibility (1/GPa) = 0.05578068
#
# Stress axis : x y z
#
# Youngs Moduli (GPa) = 62.71690 23.22458 57.90065
#
# Poissons Ratio (x) = 0.16639 0.46809
# Poissons Ratio (y) = 0.44934 -0.28965
# Poissons Ratio (z) = 0.50702 -0.11618
#
# Static dielectric constant tensor:
#      x y z
#    x 1.845430 0.000000 0.000000 
#    y 0.000000 1.806030 0.000000 
#    z 0.000000 0.000000 1.794060 
# 
# From -- ./inp_files/25656.got.cif
#   From: 2010.05.17/outbox.cif.g08.bks.cpg/sg51_13_cif.got.tgz:25656.got - 2010.06.03 11:52:47.
