data_PCOD9401424
_publ_section_title
;
Structure prediction by ZEFSAII (Michael W. Deem and Ramdas Pophale) SiO2 
 PCOD9401424
Probable space group: P M M A
;
_chemical_formula_sum "Si O2"
_cell_formula_units_Z 56
_cell_length_a 8.751132
_cell_length_b 19.400050
_cell_length_c 19.112328
_cell_angle_alpha 90.000000
_cell_angle_beta 90.000000
_cell_angle_gamma 90.000000
_cell_volume 3244.745763
_symmetry_space_group_name_H-M "P M M A"
_symmetry_group_IT_number 51
_symmetry_cell_setting 'orthorhombic'
loop_
_space_group_symop_operation_xyz
x,y,z
1/2-x,-y,z
1/2+x,-y,-z
-x,y,-z
-x,-y,-z
1/2+x,y,-z
1/2-x,y,z
x,-y,z
loop_
_atom_site_type_symbol
_atom_site_label
_atom_site_fract_x
_atom_site_fract_y
_atom_site_fract_z
Si Si1 0.933615 0.224839 0.078204
Si Si2 0.566904 0.420768 0.293184
Si Si3 0.433299 0.704860 0.208810
Si Si4 0.433019 0.204832 0.340515
Si Si5 0.567134 0.343800 0.576547
Si Si6 0.565846 0.926781 0.078545
Si Si7 0.432840 0.920529 0.576924
O O1 0.750000 0.228824 0.075114
O O2 0.979447 0.148074 0.106296
O O3 0.000043 0.278299 0.133235
O O4 0.000000 0.232531 0.000000
O O5 0.750000 0.414336 0.292039
O O6 0.525932 0.500000 0.279099
O O7 0.494748 0.366976 0.238922
O O8 0.505044 0.396960 0.368639
O O9 0.250000 0.703465 0.207445
O O10 0.479903 0.764233 0.265098
O O11 0.250000 0.195581 0.339894
O O12 0.468697 0.266949 0.394629
O O13 0.508952 0.134838 0.366998
O O14 0.500000 0.353029 0.500000
O O15 0.750000 0.351112 0.576737
O O16 0.750000 0.926725 0.075180
O O17 0.518397 0.000000 0.112352
O O18 0.500000 0.927854 0.000000
O O19 0.500000 0.904043 0.500000
O O20 0.250000 0.917274 0.572982
O O21 0.476983 0.000000 0.593301
#
# Coordination Sequence:
#
# PCOD9401424 Si02
#       7
#     8   8   8   8   8   8   8
#     4  10  19  32  53  79 107 138 173 215 259 304
#     4  10  21  37  57  80 105 135 170 206 249 303
#     4  10  21  37  56  78 104 134 170 209 253 308
#     4   9  19  34  51  71  97 132 172 214 258 304
#     4  10  20  33  51  77 107 138 173 211 252 299
#     4   8  14  25  42  66  96 129 163 199 241 288
#     4  10  20  32  48  71  98 132 175 221 267 311
#
# _framework density 17.258672000000001
#
# number of rings (size 3 to 8) (size 9 to 14) (size 15 to 20)
#    0.000    2.429    0.000    3.429    0.000    7.429 
#    0.000    0.714    0.000    3.000    0.000    0.000 
#    0.000    0.000    0.000    0.000    0.000    0.000 
#
# Total GULP energy -312200.983764 kJ/mol
# GULP energy per Si atom -5575.017567 kJ/mol
# Density = 1.721939 g / cm^3
# Si number density = 17.258672 Si / 1000 Ang^3
#
#
#
# Elastic Constant Matrix: (Units=GPa)
#
#
# Indices 1 2 3 4 5 6 
#
# 1 49.1045 46.5324 38.9637 0.0000 0.0000 0.0000
# 2 46.5324 116.3975 71.6185 0.0000 0.0000 0.0000
# 3 38.9637 71.6185 104.6955 0.0000 0.0000 0.0000
# 4 0.0000 0.0000 0.0000 12.5155 0.0000 0.0000
# 5 0.0000 0.0000 0.0000 0.0000 24.9800 0.0000
# 6 0.0000 0.0000 0.0000 0.0000 0.0000 25.9703
#
#
#
# Elastic Compliance Matrix: (Units=1/GPa)
#
#
# Indices 1 2 3 4 5 6 
#
# 1 0.034793 -0.010261 -0.005930 0.000000 0.000000 0.000000
# 2 -0.010261 0.017862 -0.008400 0.000000 0.000000 0.000000
# 3 -0.005930 -0.008400 0.017504 0.000000 0.000000 0.000000
# 4 0.000000 0.000000 0.000000 0.079901 0.000000 0.000000
# 5 0.000000 0.000000 0.000000 0.000000 0.040032 0.000000
# 6 0.000000 0.000000 0.000000 0.000000 0.000000 0.038506
#
#
# Mechanical properties :
#
#
# Convention : Reuss Voigt Hill
#
# Bulk Modulus (GPa) = 47.66775 64.93630 56.30202
# Shear Modulus (GPa) = 17.55798 20.23202 18.89500
#
# Velocity S-wave (km/s) = 3.19304 3.42757 3.31238
# Velocity P-wave (km/s) = 6.42445 7.30557 6.87913
#
# Compressibility (1/GPa) = 0.02097854
#
# Stress axis : x y z
#
# Youngs Moduli (GPa) = 28.74127 55.98620 57.12902
#
# Poissons Ratio (x) = 0.57447 0.33875
# Poissons Ratio (y) = 0.29491 0.47987
# Poissons Ratio (z) = 0.17042 0.47027
#
# Static dielectric constant tensor:
#      x y z
#    x 1.577370 0.000000 0.000000 
#    y 0.000000 1.608310 0.000000 
#    z 0.000000 0.000000 1.560720 
# 
# From -- ./inp_files/28236.got.cif
#   From: 2010.05.17/outbox.cif.g08.bks.cpg/sg51_15_cif.got.tgz:28236.got - 2010.06.03 11:52:47.
