data_PCOD9401792
_publ_section_title
;
Structure prediction by ZEFSAII (Michael W. Deem and Ramdas Pophale) SiO2 
 PCOD9401792
Probable space group: P M M A
;
_chemical_formula_sum "Si O2"
_cell_formula_units_Z 64
_cell_length_a 14.196678
_cell_length_b 8.913118
_cell_length_c 26.904209
_cell_angle_alpha 90.000000
_cell_angle_beta 90.000000
_cell_angle_gamma 90.000000
_cell_volume 3404.368914
_symmetry_space_group_name_H-M "P M M A"
_symmetry_group_IT_number 51
_symmetry_cell_setting 'orthorhombic'
loop_
_space_group_symop_operation_xyz
x,y,z
1/2-x,-y,z
1/2+x,-y,-z
-x,y,-z
-x,-y,-z
1/2+x,y,-z
1/2-x,y,z
x,-y,z
loop_
_atom_site_type_symbol
_atom_site_label
_atom_site_fract_x
_atom_site_fract_y
_atom_site_fract_z
Si Si1 0.458218 0.680767 0.374377
Si Si2 0.642467 0.680521 0.425171
Si Si3 0.864616 0.328385 0.025368
Si Si4 0.636007 0.824689 0.922658
Si Si5 0.358738 0.682956 0.273300
Si Si6 0.636578 0.173457 0.530068
Si Si7 0.140084 0.178842 0.870221
Si Si8 0.463413 0.680031 0.172313
O O1 0.451414 0.500000 0.375049
O O2 0.567517 0.721414 0.382921
O O3 0.412032 0.733864 0.323107
O O4 0.404373 0.743320 0.422273
O O5 0.750000 0.727737 0.415021
O O6 0.641770 0.500000 0.430519
O O7 0.610960 0.750644 0.477645
O O8 0.750000 0.330565 0.023417
O O9 0.896964 0.500000 0.030322
O O10 0.887807 0.234451 0.074484
O O11 0.895602 0.254710 0.973705
O O12 0.750000 0.815073 0.920424
O O13 0.593137 0.745220 0.874658
O O14 0.610125 0.000000 0.923469
O O15 0.250000 0.732208 0.273044
O O16 0.358222 0.500000 0.273901
O O17 0.412670 0.727660 0.223236
O O18 0.750000 0.180299 0.532898
O O19 0.607473 0.000000 0.530260
O O20 0.250000 0.218429 0.862427
O O21 0.069070 0.257876 0.832557
O O22 0.131068 0.000000 0.867596
O O23 0.463811 0.500000 0.169795
#
# Coordination Sequence:
#
# PCOD9401792 Si02
#       8
#     8   8   8   8   8   8   8   8
#     4  10  19  33  55  79 103 138 182 222 264 314
#     4   9  18  32  50  75 108 143 178 216 258 308
#     4   9  17  31  53  81 111 141 175 217 264 315
#     4  10  20  34  53  79 112 147 181 218 265 322
#     4   9  19  36  57  81 108 136 169 215 268 315
#     4  10  20  32  48  75 110 144 177 216 265 317
#     4  10  21  38  58  79 107 141 175 215 265 320
#     4  11  22  36  56  80 105 137 180 225 269 318
#
# _framework density 18.799372000000002
#
# number of rings (size 3 to 8) (size 9 to 14) (size 15 to 20)
#    0.000    2.250    0.000    3.000    0.000    7.250 
#    0.000    4.375    0.000    5.250    0.000    1.750 
#    0.000    0.000    0.000    0.000    0.000    0.000 
#
# Total GULP energy -357466.323490 kJ/mol
# GULP energy per Si atom -5585.411305 kJ/mol
# Density = 1.875658 g / cm^3
# Si number density = 18.799372 Si / 1000 Ang^3
#
#
#
# Elastic Constant Matrix: (Units=GPa)
#
#
# Indices 1 2 3 4 5 6 
#
# 1 109.5583 36.7802 88.5783 0.0000 0.0000 0.0000
# 2 36.7802 52.4862 37.7353 0.0000 0.0000 0.0000
# 3 88.5783 37.7353 144.3478 0.0000 0.0000 0.0000
# 4 0.0000 0.0000 0.0000 -18.0974 0.0000 0.0000
# 5 0.0000 0.0000 0.0000 0.0000 33.6822 0.0000
# 6 0.0000 0.0000 0.0000 0.0000 0.0000 23.7063
#
#
#
# Elastic Compliance Matrix: (Units=1/GPa)
#
#
# Indices 1 2 3 4 5 6 
#
# 1 0.019667 -0.006287 -0.010425 0.000000 0.000000 0.000000
# 2 -0.006287 0.025472 -0.002801 0.000000 0.000000 0.000000
# 3 -0.010425 -0.002801 0.014057 0.000000 0.000000 0.000000
# 4 0.000000 0.000000 0.000000 -0.055257 0.000000 0.000000
# 5 0.000000 0.000000 0.000000 0.000000 0.029689 0.000000
# 6 0.000000 0.000000 0.000000 0.000000 0.000000 0.042183
#
#
# Mechanical properties :
#
#
# Convention : Reuss Voigt Hill
#
# Bulk Modulus (GPa) = 49.57730 70.28666 59.93198
# Shear Modulus (GPa) = 41.13198 17.41145 29.27172
#
# Velocity S-wave (km/s) = 4.68262 3.04661 3.95024
# Velocity P-wave (km/s) = 7.46090 7.06008 7.26325
#
# Compressibility (1/GPa) = 0.02017052
#
# Stress axis : x y z
#
# Youngs Moduli (GPa) = 50.84763 39.25896 71.13809
#
# Poissons Ratio (x) = 0.24680 0.74161
# Poissons Ratio (y) = 0.31965 0.19927
# Poissons Ratio (z) = 0.53008 0.10997
#
# Static dielectric constant tensor:
#      x y z
#    x 1.700960 0.000000 0.000000 
#    y 0.000000 1.628320 0.000000 
#    z 0.000000 0.000000 1.605910 
# 
# From -- ./inp_files/35837.got.cif
#   From: 2010.05.17/outbox.cif.g08.bks.cpg/sg51_18_cif.got.tgz:35837.got - 2010.06.03 11:52:47.
