data_PCOD9401137
_publ_section_title
;
Structure prediction by ZEFSAII (Michael W. Deem and Ramdas Pophale) SiO2 
 PCOD9401137
Probable space group: P M M A
;
_chemical_formula_sum "Si O2"
_cell_formula_units_Z 64
_cell_length_a 8.824443
_cell_length_b 20.842811
_cell_length_c 20.197181
_cell_angle_alpha 90.000000
_cell_angle_beta 90.000000
_cell_angle_gamma 90.000000
_cell_volume 3714.790704
_symmetry_space_group_name_H-M "P M M A"
_symmetry_group_IT_number 51
_symmetry_cell_setting 'orthorhombic'
loop_
_space_group_symop_operation_xyz
x,y,z
1/2-x,-y,z
1/2+x,-y,-z
-x,y,-z
-x,-y,-z
1/2+x,y,-z
1/2-x,y,z
x,-y,z
loop_
_atom_site_type_symbol
_atom_site_label
_atom_site_fract_x
_atom_site_fract_y
_atom_site_fract_z
Si Si1 0.430574 0.256686 0.793651
Si Si2 0.576055 0.900576 0.932021
Si Si3 0.932523 0.198019 0.426880
Si Si4 0.068984 0.929508 0.652695
Si Si5 0.932869 0.113699 0.788238
Si Si6 0.067637 0.310326 0.335717
Si Si7 0.067720 0.573611 0.429132
Si Si8 0.425526 0.255798 0.068454
O O1 0.250000 0.253157 0.788975
O O2 0.499854 0.185474 0.782979
O O3 0.498105 0.301621 0.736801
O O4 0.483192 0.276794 0.866861
O O5 0.750000 0.920775 0.934434
O O6 0.514826 0.916525 0.858668
O O7 0.570723 0.822424 0.932410
O O8 0.500000 0.922575 0.000000
O O9 0.750000 0.203841 0.428456
O O10 0.973110 0.129184 0.394826
O O11 0.000000 0.203677 0.500000
O O12 0.002048 0.252843 0.380394
O O13 0.250000 0.924748 0.664157
O O14 0.986928 0.922392 0.723094
O O15 0.036326 0.000000 0.624366
O O16 0.750000 0.117632 0.790606
O O17 0.250000 0.305571 0.332602
O O18 0.025341 0.376601 0.372033
O O19 0.250000 0.574574 0.434611
O O20 0.020003 0.500000 0.416260
O O21 0.000000 0.593524 0.500000
O O22 0.250000 0.274410 0.073142
O O23 0.500000 0.277629 0.000000
#
# Coordination Sequence:
#
# PCOD9401137 Si02
#       8
#     8   8   8   8   8   8   8   8
#     4  11  20  30  47  72 103 138 173 213 260 308
#     4   8  15  25  40  65  93 122 156 197 241 293
#     4  11  23  38  56  78 103 131 165 208 257 312
#     4  10  22  39  56  74  97 128 167 211 260 315
#     4  10  19  32  50  72  98 127 166 210 256 308
#     4  11  21  34  54  79 108 139 174 216 256 304
#     4   9  19  35  54  77 106 141 178 214 255 303
#     4   9  16  27  42  65  98 135 173 212 256 306
#
# _framework density 17.228425999999999
#
# number of rings (size 3 to 8) (size 9 to 14) (size 15 to 20)
#    0.000    2.125    1.250    3.750    0.000    6.500 
#    0.000    0.000    0.000    0.375    0.000    0.000 
#    0.000    0.500    0.000    1.375    0.000    2.125 
#
# Total GULP energy -357152.368505 kJ/mol
# GULP energy per Si atom -5580.505758 kJ/mol
# Density = 1.718921 g / cm^3
# Si number density = 17.228426 Si / 1000 Ang^3
#
#
#
# Elastic Constant Matrix: (Units=GPa)
#
#
# Indices 1 2 3 4 5 6 
#
# 1 53.1298 25.3609 36.3845 0.0000 0.0000 0.0000
# 2 25.3609 64.0040 45.5532 0.0000 0.0000 0.0000
# 3 36.3845 45.5532 130.2779 0.0000 0.0000 0.0000
# 4 0.0000 0.0000 0.0000 -935.5584 0.0000 0.0000
# 5 0.0000 0.0000 0.0000 0.0000 33.2020 0.0000
# 6 0.0000 0.0000 0.0000 0.0000 0.0000 14.2117
#
#
#
# Elastic Compliance Matrix: (Units=1/GPa)
#
#
# Indices 1 2 3 4 5 6 
#
# 1 0.025223 -0.006631 -0.004726 0.000000 0.000000 0.000000
# 2 -0.006631 0.022544 -0.006031 0.000000 0.000000 0.000000
# 3 -0.004726 -0.006031 0.011104 0.000000 0.000000 0.000000
# 4 0.000000 0.000000 0.000000 -0.001069 0.000000 0.000000
# 5 0.000000 0.000000 0.000000 0.000000 0.030119 0.000000
# 6 0.000000 0.000000 0.000000 0.000000 0.000000 0.070364
#
#
# Mechanical properties :
#
#
# Convention : Reuss Voigt Hill
#
# Bulk Modulus (GPa) = 41.49999 51.33434 46.41716
# Shear Modulus (GPa) = 24.86409 -168.28806 -71.71199
#
# Velocity S-wave (km/s) = 3.80307 -9.89406 -6.45868
# Velocity P-wave (km/s) = 6.58975 10.03306 5.34965
#
# Compressibility (1/GPa) = 0.02409639
#
# Stress axis : x y z
#
# Youngs Moduli (GPa) = 39.64563 44.35825 90.05363
#
# Poissons Ratio (x) = 0.29414 0.42558
# Poissons Ratio (y) = 0.26289 0.54309
# Poissons Ratio (z) = 0.18736 0.26751
#
# Static dielectric constant tensor:
#      x y z
#    x 1.580520 0.000000 0.000000 
#    y 0.000000 1.587280 0.000000 
#    z 0.000000 0.000000 1.589340 
# 
# From -- ./inp_files/28322.got.cif
#   From: 2010.05.17/outbox.cif.g08.bks.cpg/sg51_15_cif.got.tgz:28322.got - 2010.06.03 11:52:47.
