data_PCOD9401427
_publ_section_title
;
Structure prediction by ZEFSAII (Michael W. Deem and Ramdas Pophale) SiO2 
 PCOD9401427
Probable space group: P M M A
;
_chemical_formula_sum "Si O2"
_cell_formula_units_Z 64
_cell_length_a 18.197426
_cell_length_b 8.422465
_cell_length_c 22.183242
_cell_angle_alpha 90.000000
_cell_angle_beta 90.000000
_cell_angle_gamma 90.000000
_cell_volume 3399.963024
_symmetry_space_group_name_H-M "P M M A"
_symmetry_group_IT_number 51
_symmetry_cell_setting 'orthorhombic'
loop_
_space_group_symop_operation_xyz
x,y,z
1/2-x,-y,z
1/2+x,-y,-z
-x,y,-z
-x,-y,-z
1/2+x,y,-z
1/2-x,y,z
x,-y,z
loop_
_atom_site_type_symbol
_atom_site_label
_atom_site_fract_x
_atom_site_fract_y
_atom_site_fract_z
Si Si1 0.666453 0.308332 0.218793
Si Si2 0.668501 0.190136 0.625684
Si Si3 0.666822 0.689007 0.001244
Si Si4 0.978532 0.691723 0.566186
Si Si5 0.451988 0.692918 0.688968
Si Si6 0.393710 0.309662 0.251017
Si Si7 0.600111 0.189762 0.880496
Si Si8 0.430489 0.811171 0.892078
O O1 0.750000 0.249061 0.215709
O O2 0.669114 0.500000 0.220936
O O3 0.621297 0.252086 0.277552
O O4 0.619179 0.262191 0.160573
O O5 0.750000 0.237122 0.605328
O O6 0.603360 0.260237 0.585443
O O7 0.655581 0.249989 0.693837
O O8 0.663068 0.000000 0.625261
O O9 0.750000 0.741465 0.016357
O O10 0.663153 0.500000 0.009797
O O11 0.648115 0.731605 0.932623
O O12 0.607261 0.768251 0.044783
O O13 0.982141 0.500000 0.565517
O O14 0.000000 0.750510 0.500000
O O15 0.031192 0.747530 0.621003
O O16 0.450231 0.500000 0.687471
O O17 0.522830 0.736235 0.729597
O O18 0.390205 0.500000 0.247665
O O19 0.375619 0.236660 0.186556
O O20 0.515019 0.243800 0.888229
O O21 0.602928 0.000000 0.887706
O O22 0.431019 0.000000 0.884412
#
# Coordination Sequence:
#
# PCOD9401427 Si02
#       8
#     8   8   8   8   8   8   8   8
#     4  10  19  32  53  79 107 141 182 226 274 329
#     4  10  21  36  55  82 117 153 190 234 283 334
#     4  11  25  42  58  78 105 141 185 229 276 331
#     4   9  18  34  57  84 114 150 194 239 279 326
#     4   8  15  30  51  77 108 140 176 221 269 318
#     4  10  19  34  58  82 108 144 183 228 278 327
#     4  11  23  38  58  84 111 142 181 226 279 337
#     4  11  23  38  57  81 109 140 179 226 276 332
#
# _framework density 18.823733000000001
#
# number of rings (size 3 to 8) (size 9 to 14) (size 15 to 20)
#    0.000    2.000    1.250    3.375    0.000    7.500 
#    0.000    0.625    0.000    2.250    0.000    0.000 
#    0.000    0.000    0.000    0.000    0.000    0.000 
#
# Total GULP energy -357362.124020 kJ/mol
# GULP energy per Si atom -5583.783188 kJ/mol
# Density = 1.878089 g / cm^3
# Si number density = 18.823733 Si / 1000 Ang^3
#
#
#
# Elastic Constant Matrix: (Units=GPa)
#
#
# Indices 1 2 3 4 5 6 
#
# 1 46.5271 2.1756 9.5839 0.0000 0.0000 0.0000
# 2 2.1756 8.8786 -7.3898 0.0000 0.0000 0.0000
# 3 9.5839 -7.3898 88.6163 0.0000 0.0000 0.0000
# 4 0.0000 0.0000 0.0000 8.6543 0.0000 0.0000
# 5 0.0000 0.0000 0.0000 0.0000 16.0319 0.0000
# 6 0.0000 0.0000 0.0000 0.0000 0.0000 17.6939
#
#
#
# Elastic Compliance Matrix: (Units=1/GPa)
#
#
# Indices 1 2 3 4 5 6 
#
# 1 0.022513 -0.008105 -0.003111 0.000000 0.000000 0.000000
# 2 -0.008105 0.123949 0.011213 0.000000 0.000000 0.000000
# 3 -0.003111 0.011213 0.012556 0.000000 0.000000 0.000000
# 4 0.000000 0.000000 0.000000 0.115549 0.000000 0.000000
# 5 0.000000 0.000000 0.000000 0.000000 0.062375 0.000000
# 6 0.000000 0.000000 0.000000 0.000000 0.000000 0.056517
#
#
# Mechanical properties :
#
#
# Convention : Reuss Voigt Hill
#
# Bulk Modulus (GPa) = 6.28888 16.97348 11.63118
# Shear Modulus (GPa) = 11.19898 17.78618 14.49258
#
# Velocity S-wave (km/s) = 2.44178 3.07723 2.77774
# Velocity P-wave (km/s) = 3.36124 4.65429 4.05958
#
# Compressibility (1/GPa) = 0.15901081
#
# Stress axis : x y z
#
# Youngs Moduli (GPa) = 44.41953 8.06786 79.64274
#
# Poissons Ratio (x) = 0.06539 0.24774
# Poissons Ratio (y) = 0.36004 -0.89302
# Poissons Ratio (z) = 0.13817 -0.09046
#
# Static dielectric constant tensor:
#      x y z
#    x 1.655000 0.000000 0.000000 
#    y 0.000000 1.642730 0.000000 
#    z 0.000000 0.000000 1.639470 
# 
# From -- ./inp_files/33896.got.cif
#   From: 2010.05.17/outbox.cif.g08.bks.cpg/sg51_17_cif.got.tgz:33896.got - 2010.06.03 11:52:47.
