data_PCOD9401846
_publ_section_title
;
Structure prediction by ZEFSAII (Michael W. Deem and Ramdas Pophale) SiO2 
 PCOD9401846
Probable space group: P M M A
;
_chemical_formula_sum "Si O2"
_cell_formula_units_Z 64
_cell_length_a 15.607076
_cell_length_b 24.233449
_cell_length_c 9.351550
_cell_angle_alpha 90.000000
_cell_angle_beta 90.000000
_cell_angle_gamma 90.000000
_cell_volume 3536.880401
_symmetry_space_group_name_H-M "P M M A"
_symmetry_group_IT_number 51
_symmetry_cell_setting 'orthorhombic'
loop_
_space_group_symop_operation_xyz
x,y,z
1/2-x,-y,z
1/2+x,-y,-z
-x,y,-z
-x,-y,-z
1/2+x,y,-z
1/2-x,y,z
x,-y,z
loop_
_atom_site_type_symbol
_atom_site_label
_atom_site_fract_x
_atom_site_fract_y
_atom_site_fract_z
Si Si1 0.500000 0.066051 0.166646
Si Si2 0.395550 0.764328 0.163386
Si Si3 0.348705 0.127222 0.330491
Si Si4 0.102514 0.664557 0.655262
Si Si5 0.102515 0.335443 0.344738
Si Si6 0.395550 0.235672 0.836614
Si Si7 0.148644 0.561510 0.500000
Si Si8 0.848705 0.872778 0.330491
O O1 0.416593 0.089809 0.246213
O O2 0.583407 0.089809 0.246213
O O3 0.500000 0.000000 0.171472
O O4 0.500000 0.084008 0.000000
O O5 0.360656 0.811564 0.266574
O O6 0.366787 0.704187 0.219974
O O7 0.500000 0.766853 0.168812
O O8 0.369539 0.773681 1.000000
O O9 0.250000 0.109775 0.309208
O O10 0.366955 0.126821 0.500000
O O11 0.130790 0.688274 0.500000
O O12 0.133212 0.704187 0.780026
O O13 0.125054 0.600150 0.635996
O O14 1.000000 0.666620 0.659708
O O15 0.125054 0.399850 0.364004
O O16 0.360656 0.188436 0.733426
O O17 0.250000 0.557083 0.500000
O O18 0.111283 0.500000 0.500000
O O19 0.750000 0.890225 0.309208
#
# Coordination Sequence:
#
# PCOD9401846 Si02
#       8
#     8   8   8   8   8   8   8   8
#     4  11  25  45  67  91 121 159 199 244 297 350
#     4  10  19  33  55  82 115 150 185 232 295 357
#     4  11  24  40  62  91 121 158 201 246 296 353
#     4   8  16  29  47  72 100 134 175 222 273 334
#     4   8  16  29  47  72 100 134 175 222 273 334
#     4  10  19  33  55  82 115 150 185 232 295 357
#     4   9  17  29  47  71  99 135 183 236 283 334
#     4  11  24  40  62  91 121 158 201 246 296 353
#
# _framework density 18.095043
#
# number of rings (size 3 to 8) (size 9 to 14) (size 15 to 20)
#    0.750    1.500    1.250    1.875    0.000    6.500 
#    0.000    2.500    0.000    0.750    0.000    5.250 
#    0.000    0.000    0.000    0.000    0.000    0.000 
#
# Total GULP energy -356382.601186 kJ/mol
# GULP energy per Si atom -5568.478144 kJ/mol
# Density = 1.805386 g / cm^3
# Si number density = 18.095043 Si / 1000 Ang^3
#
#
#
# Elastic Constant Matrix: (Units=GPa)
#
#
# Indices 1 2 3 4 5 6 
#
# 1 67.4260 35.6154 62.3889 0.0000 0.0000 0.0000
# 2 35.6154 107.6183 59.8779 0.0000 0.0000 0.0000
# 3 62.3889 59.8779 129.5495 0.0000 0.0000 0.0000
# 4 0.0000 0.0000 0.0000 2.3804 0.0000 0.0000
# 5 0.0000 0.0000 0.0000 0.0000 7.8645 0.0000
# 6 0.0000 0.0000 0.0000 0.0000 0.0000 108.7151
#
#
#
# Elastic Compliance Matrix: (Units=1/GPa)
#
#
# Indices 1 2 3 4 5 6 
#
# 1 0.027170 -0.002304 -0.012020 0.000000 0.000000 0.000000
# 2 -0.002304 0.012704 -0.004762 0.000000 0.000000 0.000000
# 3 -0.012020 -0.004762 0.015709 0.000000 0.000000 0.000000
# 4 0.000000 0.000000 0.000000 0.420096 0.000000 0.000000
# 5 0.000000 0.000000 0.000000 0.000000 0.127153 0.000000
# 6 0.000000 0.000000 0.000000 0.000000 0.000000 0.009198
#
#
# Mechanical properties :
#
#
# Convention : Reuss Voigt Hill
#
# Bulk Modulus (GPa) = 57.43563 68.92871 63.18217
# Shear Modulus (GPa) = 7.62188 33.57277 20.59732
#
# Velocity S-wave (km/s) = 2.05458 4.31206 3.37751
# Velocity P-wave (km/s) = 6.11869 7.93518 7.08539
#
# Compressibility (1/GPa) = 0.01741079
#
# Stress axis : x y z
#
# Youngs Moduli (GPa) = 36.80560 78.71322 63.65904
#
# Poissons Ratio (x) = 0.18136 0.76516
# Poissons Ratio (y) = 0.08480 0.30317
# Poissons Ratio (z) = 0.44239 0.37486
#
# Static dielectric constant tensor:
#      x y z
#    x 1.647240 0.000000 0.000000 
#    y 0.000000 1.640880 0.000000 
#    z 0.000000 0.000000 1.613160 
# 
# From -- ./inp_files/8747.got.cif
#   From: 2010.05.17/outbox.cif.g08.bks.cpg/sg51_5_cif.got.tgz:8747.got - 2010.06.03 11:52:47.
