data_PCOD9401130
_publ_section_title
;
Structure prediction by ZEFSAII (Michael W. Deem and Ramdas Pophale) SiO2 
 PCOD9401130
Probable space group: P M M A
;
_chemical_formula_sum "Si O2"
_cell_formula_units_Z 64
_cell_length_a 31.818058
_cell_length_b 7.592140
_cell_length_c 12.639476
_cell_angle_alpha 90.000000
_cell_angle_beta 90.000000
_cell_angle_gamma 90.000000
_cell_volume 3053.282206
_symmetry_space_group_name_H-M "P M M A"
_symmetry_group_IT_number 51
_symmetry_cell_setting 'orthorhombic'
loop_
_space_group_symop_operation_xyz
x,y,z
1/2-x,-y,z
1/2+x,-y,-z
-x,y,-z
-x,-y,-z
1/2+x,y,-z
1/2-x,y,z
x,-y,z
loop_
_atom_site_type_symbol
_atom_site_label
_atom_site_fract_x
_atom_site_fract_y
_atom_site_fract_z
Si Si1 0.434148 0.704544 0.248837
Si Si2 0.201509 0.212509 0.223657
Si Si3 0.392434 0.792913 0.844243
Si Si4 0.871756 0.299225 0.925982
Si Si5 0.986350 0.785961 0.118212
Si Si6 0.371354 0.789294 0.618554
Si Si7 0.201464 0.215225 0.462871
Si Si8 0.451980 0.287368 0.480127
O O1 0.421007 0.500000 0.258755
O O2 0.404838 0.785448 0.157011
O O3 0.481029 0.715596 0.203556
O O4 0.434651 0.780319 0.366825
O O5 0.250000 0.259310 0.208132
O O6 0.171869 0.290406 0.135086
O O7 0.189659 0.267776 0.342947
O O8 0.198039 0.000000 0.218785
O O9 0.439498 0.722149 0.859047
O O10 0.370772 0.720464 0.738890
O O11 0.397745 0.000000 0.823810
O O12 0.370040 0.777944 0.957096
O O13 0.885401 0.500000 0.942611
O O14 0.987661 0.000000 0.121891
O O15 0.000000 0.733522 0.000000
O O16 0.333681 0.720569 0.544571
O O17 0.417365 0.756579 0.568360
O O18 0.365266 0.000000 0.619991
O O19 0.250000 0.269057 0.483798
O O20 0.201826 0.000000 0.463390
O O21 0.500000 0.225299 0.500000
O O22 0.454297 0.500000 0.473329
#
# Coordination Sequence:
#
# PCOD9401130 Si02
#       8
#     8   8   8   8   8   8   8   8
#     4  10  21  34  50  75 103 133 173 216 259 312
#     4   9  18  34  57  81 104 131 162 201 252 310
#     4  10  21  36  51  73 106 139 179 223 260 309
#     4  11  22  34  51  76 104 135 171 211 256 303
#     4  10  19  32  50  71  98 138 180 220 265 303
#     4  10  20  34  55  80 104 136 177 224 268 309
#     4   8  15  31  56  84 108 130 163 208 262 320
#     4  10  21  36  52  73 106 143 174 212 266 324
#
# _framework density 20.961048000000002
#
# number of rings (size 3 to 8) (size 9 to 14) (size 15 to 20)
#    0.000    2.250    1.250    2.625    0.000    2.750 
#    0.000    0.625    0.000    3.375    0.000    0.000 
#    0.000    0.000    0.000    0.000    0.000    0.000 
#
# Total GULP energy -357317.116176 kJ/mol
# GULP energy per Si atom -5583.079940 kJ/mol
# Density = 2.091334 g / cm^3
# Si number density = 20.961048 Si / 1000 Ang^3
#
#
#
# Elastic Constant Matrix: (Units=GPa)
#
#
# Indices 1 2 3 4 5 6 
#
# 1 93.1658 -4.9642 72.1707 0.0000 0.0000 0.0000
# 2 -4.9642 39.2403 -2.2727 0.0000 0.0000 0.0000
# 3 72.1707 -2.2727 169.5580 0.0000 0.0000 0.0000
# 4 0.0000 0.0000 0.0000 -9.9860 0.0000 0.0000
# 5 0.0000 0.0000 0.0000 0.0000 38.7473 0.0000
# 6 0.0000 0.0000 0.0000 0.0000 0.0000 15.9629
#
#
#
# Elastic Compliance Matrix: (Units=1/GPa)
#
#
# Indices 1 2 3 4 5 6 
#
# 1 0.016119 0.001643 -0.006839 0.000000 0.000000 0.000000
# 2 0.001643 0.025671 -0.000355 0.000000 0.000000 0.000000
# 3 -0.006839 -0.000355 0.008804 0.000000 0.000000 0.000000
# 4 0.000000 0.000000 0.000000 -0.100140 0.000000 0.000000
# 5 0.000000 0.000000 0.000000 0.000000 0.025808 0.000000
# 6 0.000000 0.000000 0.000000 0.000000 0.000000 0.062645
#
#
# Mechanical properties :
#
#
# Convention : Reuss Voigt Hill
#
# Bulk Modulus (GPa) = 25.32164 47.98127 36.65146
# Shear Modulus (GPa) = 79.14795 24.74687 51.94741
#
# Velocity S-wave (km/s) = 6.15155 3.43973 4.98364
# Velocity P-wave (km/s) = 7.90961 6.22222 7.11611
#
# Compressibility (1/GPa) = 0.03949191
#
# Stress axis : x y z
#
# Youngs Moduli (GPa) = 62.03963 38.95401 113.58767
#
# Poissons Ratio (x) = -0.06400 0.77680
# Poissons Ratio (y) = -0.10194 0.04035
# Poissons Ratio (z) = 0.42427 0.01384
#
# Static dielectric constant tensor:
#      x y z
#    x 1.740520 0.000000 0.000000 
#    y 0.000000 1.792920 0.000000 
#    z 0.000000 0.000000 1.764620 
# 
# From -- ./inp_files/19569.got.cif
#   From: 2010.05.17/outbox.cif.g08.bks.cpg/sg51_10_cif.got.tgz:19569.got - 2010.06.03 11:52:47.
