data_PCOD9401797
_publ_section_title
;
Structure prediction by ZEFSAII (Michael W. Deem and Ramdas Pophale) SiO2 
 PCOD9401797
Probable space group: P M M A
;
_chemical_formula_sum "Si O2"
_cell_formula_units_Z 40
_cell_length_a 18.662975
_cell_length_b 8.714761
_cell_length_c 13.933080
_cell_angle_alpha 90.000000
_cell_angle_beta 90.000000
_cell_angle_gamma 90.000000
_cell_volume 2266.123039
_symmetry_space_group_name_H-M "P M M A"
_symmetry_group_IT_number 51
_symmetry_cell_setting 'orthorhombic'
loop_
_space_group_symop_operation_xyz
x,y,z
1/2-x,-y,z
1/2+x,-y,-z
-x,y,-z
-x,-y,-z
1/2+x,y,-z
1/2-x,y,z
x,-y,z
loop_
_atom_site_type_symbol
_atom_site_label
_atom_site_fract_x
_atom_site_fract_y
_atom_site_fract_z
Si Si1 0.331840 0.183802 0.692342
Si Si2 0.398177 0.315664 0.884615
Si Si3 0.961736 0.182692 0.795847
Si Si4 0.029374 0.316114 0.604616
Si Si5 0.666748 0.685054 0.908397
O O1 0.250000 0.221596 0.668118
O O2 0.351315 0.248168 0.797623
O O3 0.390182 0.256171 0.621556
O O4 0.340137 0.000000 0.693567
O O5 0.399771 0.500000 0.877176
O O6 0.478071 0.252469 0.867336
O O7 0.364481 0.273510 0.986722
O O8 0.884457 0.238896 0.830141
O O9 0.982901 0.243973 0.690670
O O10 0.966836 0.000000 0.797556
O O11 0.028158 0.500000 0.614777
O O12 0.000000 0.274844 0.500000
O O13 0.750000 0.728842 0.900933
O O14 0.662144 0.500000 0.899879
#
# Coordination Sequence:
#
# PCOD9401797 Si02
#       5
#     8   8   8   8   8
#     4  10  20  33  52  81 113 140 168 211 266 316
#     4  10  19  33  55  79 105 141 181 217 256 304
#     4  11  22  35  54  79 107 139 173 214 265 316
#     4  10  21  38  60  81 101 133 177 220 263 312
#     4  10  21  36  53  75 106 144 183 220 256 299
#
# _framework density 17.651291000000001
#
# number of rings (size 3 to 8) (size 9 to 14) (size 15 to 20)
#    0.000    1.800    0.000    7.200    0.000    8.400 
#    0.000    1.000    0.000    1.200    0.000    0.000 
#    0.000    0.000    0.000    0.000    0.000    0.000 
#
# Total GULP energy -223464.776104 kJ/mol
# GULP energy per Si atom -5586.619403 kJ/mol
# Density = 1.761112 g / cm^3
# Si number density = 17.651291 Si / 1000 Ang^3
#
#
#
# Elastic Constant Matrix: (Units=GPa)
#
#
# Indices 1 2 3 4 5 6 
#
# 1 160.9786 55.2325 90.4303 0.0000 0.0000 0.0000
# 2 55.2325 63.5630 43.7018 0.0000 0.0000 0.0000
# 3 90.4303 43.7018 96.4993 0.0000 0.0000 0.0000
# 4 0.0000 0.0000 0.0000 -87.0534 0.0000 0.0000
# 5 0.0000 0.0000 0.0000 0.0000 17.7084 0.0000
# 6 0.0000 0.0000 0.0000 0.0000 0.0000 26.4119
#
#
#
# Elastic Compliance Matrix: (Units=1/GPa)
#
#
# Indices 1 2 3 4 5 6 
#
# 1 0.013971 -0.004558 -0.011028 0.000000 0.000000 0.000000
# 2 -0.004558 0.024333 -0.006749 0.000000 0.000000 0.000000
# 3 -0.011028 -0.006749 0.023754 0.000000 0.000000 0.000000
# 4 0.000000 0.000000 0.000000 -0.011487 0.000000 0.000000
# 5 0.000000 0.000000 0.000000 0.000000 0.056470 0.000000
# 6 0.000000 0.000000 0.000000 0.000000 0.000000 0.037862
#
#
# Mechanical properties :
#
#
# Convention : Reuss Voigt Hill
#
# Bulk Modulus (GPa) = 57.50986 77.75223 67.63104
# Shear Modulus (GPa) = 25.59286 0.19181 12.89234
#
# Velocity S-wave (km/s) = 3.81191 0.33000 2.70551
# Velocity P-wave (km/s) = 7.21291 6.65506 6.93959
#
# Compressibility (1/GPa) = 0.01738832
#
# Stress axis : x y z
#
# Youngs Moduli (GPa) = 71.57743 41.09712 42.09869
#
# Poissons Ratio (x) = 0.18730 0.46427
# Poissons Ratio (y) = 0.32622 0.28411
# Poissons Ratio (z) = 0.78937 0.27735
#
# Static dielectric constant tensor:
#      x y z
#    x 1.598900 0.000000 0.000000 
#    y 0.000000 1.590030 0.000000 
#    z 0.000000 0.000000 1.578450 
# 
# From -- ./inp_files/24553.got.cif
#   From: 2010.05.17/outbox.cif.g08.bks.cpg/sg51_13_cif.got.tgz:24553.got - 2010.06.03 11:52:47.
