data_PCOD9401208
_publ_section_title
;
Structure prediction by ZEFSAII (Michael W. Deem and Ramdas Pophale) SiO2 
 PCOD9401208
Probable space group: P M M A
;
_chemical_formula_sum "Si O2"
_cell_formula_units_Z 64
_cell_length_a 8.843903
_cell_length_b 28.901548
_cell_length_c 14.427240
_cell_angle_alpha 90.000000
_cell_angle_beta 90.000000
_cell_angle_gamma 90.000000
_cell_volume 3687.638425
_symmetry_space_group_name_H-M "P M M A"
_symmetry_group_IT_number 51
_symmetry_cell_setting 'orthorhombic'
loop_
_space_group_symop_operation_xyz
x,y,z
1/2-x,-y,z
1/2+x,-y,-z
-x,y,-z
-x,-y,-z
1/2+x,y,-z
1/2-x,y,z
x,-y,z
loop_
_atom_site_type_symbol
_atom_site_label
_atom_site_fract_x
_atom_site_fract_y
_atom_site_fract_z
Si Si1 0.932285 0.552128 0.601691
Si Si2 0.569159 0.275816 0.238690
Si Si3 0.929622 0.551894 0.101681
Si Si4 0.067703 0.054120 0.400914
Si Si5 0.568546 0.191977 0.103115
Si Si6 0.069196 0.376949 0.241659
Si Si7 0.572798 0.782400 0.600626
Si Si8 0.571990 0.868797 0.738641
O O1 0.750000 0.553049 0.597446
O O2 0.975439 0.500000 0.634493
O O3 0.980958 0.594159 0.667403
O O4 0.000000 0.557755 0.500000
O O5 0.750000 0.277468 0.239026
O O6 0.523169 0.239475 0.157462
O O7 0.502533 0.326769 0.229176
O O8 0.509664 0.255117 0.335394
O O9 0.750000 0.560641 0.098915
O O10 0.952722 0.500000 0.140288
O O11 0.015799 0.590068 0.159558
O O12 0.000000 0.552020 0.000000
O O13 0.250000 0.058298 0.406656
O O14 0.017729 0.084728 0.313059
O O15 0.000000 0.069612 0.500000
O O16 0.029042 0.000000 0.389129
O O17 0.750000 0.190959 0.097158
O O18 0.512788 0.150665 0.171040
O O19 0.500000 0.189803 0.000000
O O20 0.250000 0.372573 0.243792
O O21 0.500000 0.786333 0.500000
O O22 0.750000 0.771273 0.592398
O O23 0.558878 0.829827 0.658666
O O24 0.750000 0.873604 0.761811
#
# Coordination Sequence:
#
# PCOD9401208 Si02
#       8
#     8   8   8   8   8   8   8   8
#     4   9  19  35  54  76 101 131 168 207 246 290
#     4  10  22  38  53  74 103 133 169 210 254 309
#     4  10  21  37  57  80 104 131 164 202 246 298
#     4   9  17  29  47  75 112 151 185 218 260 308
#     4  10  21  37  58  79 100 130 169 217 268 316
#     4  11  22  36  55  78 106 137 167 205 254 306
#     4  10  19  32  51  74 101 135 173 213 258 304
#     4   9  18  32  51  76 106 139 177 219 260 307
#
# _framework density 17.355281000000002
#
# number of rings (size 3 to 8) (size 9 to 14) (size 15 to 20)
#    0.000    2.250    0.000    2.625    0.000    5.750 
#    0.000    3.750    0.000    0.375    0.000    0.000 
#    0.000    0.000    0.000    0.000    0.000    0.000 
#
# Total GULP energy -356997.581634 kJ/mol
# GULP energy per Si atom -5578.087213 kJ/mol
# Density = 1.731578 g / cm^3
# Si number density = 17.355281 Si / 1000 Ang^3
#
#
#
# Elastic Constant Matrix: (Units=GPa)
#
#
# Indices 1 2 3 4 5 6 
#
# 1 46.5655 35.7106 43.9433 0.0000 0.0000 0.0000
# 2 35.7106 96.0441 55.7052 0.0000 0.0000 0.0000
# 3 43.9433 55.7052 134.6077 0.0000 0.0000 0.0000
# 4 0.0000 0.0000 0.0000 27.3660 0.0000 0.0000
# 5 0.0000 0.0000 0.0000 0.0000 32.3927 0.0000
# 6 0.0000 0.0000 0.0000 0.0000 0.0000 26.2244
#
#
#
# Elastic Compliance Matrix: (Units=1/GPa)
#
#
# Indices 1 2 3 4 5 6 
#
# 1 0.035699 -0.008571 -0.008107 0.000000 0.000000 0.000000
# 2 -0.008571 0.015758 -0.003723 0.000000 0.000000 0.000000
# 3 -0.008107 -0.003723 0.011616 0.000000 0.000000 0.000000
# 4 0.000000 0.000000 0.000000 0.036542 0.000000 0.000000
# 5 0.000000 0.000000 0.000000 0.000000 0.030871 0.000000
# 6 0.000000 0.000000 0.000000 0.000000 0.000000 0.038132
#
#
# Mechanical properties :
#
#
# Convention : Reuss Voigt Hill
#
# Bulk Modulus (GPa) = 44.90243 60.88174 52.89209
# Shear Modulus (GPa) = 23.05795 26.65383 24.85589
#
# Velocity S-wave (km/s) = 3.64893 3.92315 3.78852
# Velocity P-wave (km/s) = 6.60920 7.46172 7.04836
#
# Compressibility (1/GPa) = 0.02227051
#
# Stress axis : x y z
#
# Youngs Moduli (GPa) = 28.01214 63.45889 86.08600
#
# Poissons Ratio (x) = 0.54393 0.69789
# Poissons Ratio (y) = 0.24010 0.32051
# Poissons Ratio (z) = 0.22709 0.23627
#
# Static dielectric constant tensor:
#      x y z
#    x 1.582350 0.000000 0.000000 
#    y 0.000000 1.599130 0.000000 
#    z 0.000000 0.000000 1.563550 
# 
# From -- ./inp_files/14827.got.cif
#   From: 2010.05.17/outbox.cif.g08.bks.cpg/sg51_8_cif.got.tgz:14827.got - 2010.06.03 11:52:47.
