data_PCOD9401483
_publ_section_title
;
Structure prediction by ZEFSAII (Michael W. Deem and Ramdas Pophale) SiO2 
 PCOD9401483
Probable space group: P M M A
;
_chemical_formula_sum "Si O2"
_cell_formula_units_Z 52
_cell_length_a 14.614203
_cell_length_b 20.953575
_cell_length_c 8.631634
_cell_angle_alpha 90.000000
_cell_angle_beta 90.000000
_cell_angle_gamma 90.000000
_cell_volume 2643.177225
_symmetry_space_group_name_H-M "P M M A"
_symmetry_group_IT_number 51
_symmetry_cell_setting 'orthorhombic'
loop_
_space_group_symop_operation_xyz
x,y,z
1/2-x,-y,z
1/2+x,-y,-z
-x,y,-z
-x,-y,-z
1/2+x,y,-z
1/2-x,y,z
x,-y,z
loop_
_atom_site_type_symbol
_atom_site_label
_atom_site_fract_x
_atom_site_fract_y
_atom_site_fract_z
Si Si1 0.389319 0.325241 0.138601
Si Si2 0.858108 0.196852 0.424707
Si Si3 0.855645 0.813515 0.769019
Si Si4 0.500000 0.880489 0.000000
Si Si5 0.145964 0.069563 0.775208
Si Si6 0.750000 0.425562 0.249004
Si Si7 0.402021 0.322001 0.774465
Si Si8 0.250000 0.429711 0.126231
O O1 0.351400 0.262514 0.217090
O O2 0.491770 0.336028 0.197433
O O3 0.336295 0.389091 0.175596
O O4 0.374097 0.310619 0.954778
O O5 0.750000 0.210175 0.445823
O O6 0.893311 0.178509 0.594986
O O7 0.866307 0.132475 0.326678
O O8 0.894238 0.258861 0.332278
O O9 0.750000 0.838440 0.788284
O O10 0.930861 0.838841 0.891853
O O11 0.431895 0.923681 0.901736
O O12 0.250000 0.072965 0.838910
O O13 0.138397 0.000000 0.696087
O O14 0.750000 0.500000 0.306513
O O15 0.661410 0.380513 0.285538
O O16 0.750000 0.431790 0.061394
O O17 0.250000 0.500000 0.189335
#
# Coordination Sequence:
#
# PCOD9401483 Si02
#       8
#     8   8   8   4   8   4   8   4
#     4  10  19  32  54  81 112 150 200 251 296 349
#     4  10  21  38  61  87 117 155 197 244 295 353
#     4  11  23  39  61  91 121 151 196 248 297 348
#     4  12  23  38  62  92 121 156 196 244 299 354
#     4  10  22  41  63  88 122 162 202 246 298 353
#     4   9  18  32  53  85 122 153 190 241 299 360
#     4  10  19  33  57  86 114 154 198 245 299 354
#     4   9  18  32  49  75 115 157 194 243 298 350
#
# _framework density 19.673293000000001
#
# number of rings (size 3 to 8) (size 9 to 14) (size 15 to 20)
#    0.000    1.846    1.538    3.462    0.000    4.308 
#    0.000    5.385    0.000    5.538    0.000    2.154 
#    0.000    0.000    0.000    0.000    0.000    0.000 
#
# Total GULP energy -289711.401194 kJ/mol
# GULP energy per Si atom -5571.373100 kJ/mol
# Density = 1.962852 g / cm^3
# Si number density = 19.673293 Si / 1000 Ang^3
#
#
#
# Elastic Constant Matrix: (Units=GPa)
#
#
# Indices 1 2 3 4 5 6 
#
# 1 97.4099 47.1917 47.7456 0.0000 0.0000 0.0000
# 2 47.1917 134.4581 37.6075 0.0000 0.0000 0.0000
# 3 47.7456 37.6075 61.2909 0.0000 0.0000 0.0000
# 4 0.0000 0.0000 0.0000 -5.4941 0.0000 0.0000
# 5 0.0000 0.0000 0.0000 0.0000 11.3796 0.0000
# 6 0.0000 0.0000 0.0000 0.0000 0.0000 11.6960
#
#
#
# Elastic Compliance Matrix: (Units=1/GPa)
#
#
# Indices 1 2 3 4 5 6 
#
# 1 0.017440 -0.002802 -0.011866 0.000000 0.000000 0.000000
# 2 -0.002802 0.009428 -0.003602 0.000000 0.000000 0.000000
# 3 -0.011866 -0.003602 0.027770 0.000000 0.000000 0.000000
# 4 0.000000 0.000000 0.000000 -0.182014 0.000000 0.000000
# 5 0.000000 0.000000 0.000000 0.000000 0.087877 0.000000
# 6 0.000000 0.000000 0.000000 0.000000 0.000000 0.085499
#
#
# Mechanical properties :
#
#
# Convention : Reuss Voigt Hill
#
# Bulk Modulus (GPa) = 55.25900 62.02761 58.64331
# Shear Modulus (GPa) = 56.45071 14.22391 35.33731
#
# Velocity S-wave (km/s) = 5.36250 2.69179 4.24277
# Velocity P-wave (km/s) = 8.15421 6.42326 7.33994
#
# Compressibility (1/GPa) = 0.01809660
#
# Stress axis : x y z
#
# Youngs Moduli (GPa) = 57.34087 106.06423 36.01040
#
# Poissons Ratio (x) = 0.29719 0.42731
# Poissons Ratio (y) = 0.16067 0.12972
# Poissons Ratio (z) = 0.68042 0.38208
#
# Static dielectric constant tensor:
#      x y z
#    x 1.734560 0.000000 0.000000 
#    y 0.000000 1.667480 0.000000 
#    z 0.000000 0.000000 1.742760 
# 
# From -- ./inp_files/8469.got.cif
#   From: 2010.05.17/outbox.cif.g08.bks.cpg/sg51_5_cif.got.tgz:8469.got - 2010.06.03 11:52:47.
