data_PCOD9401661
_publ_section_title
;
Structure prediction by ZEFSAII (Michael W. Deem and Ramdas Pophale) SiO2 
 PCOD9401661
Probable space group: P M M A
;
_chemical_formula_sum "Si O2"
_cell_formula_units_Z 64
_cell_length_a 8.789393
_cell_length_b 21.098755
_cell_length_c 20.206707
_cell_angle_alpha 90.000000
_cell_angle_beta 90.000000
_cell_angle_gamma 90.000000
_cell_volume 3747.237821
_symmetry_space_group_name_H-M "P M M A"
_symmetry_group_IT_number 51
_symmetry_cell_setting 'orthorhombic'
loop_
_space_group_symop_operation_xyz
x,y,z
1/2-x,-y,z
1/2+x,-y,-z
-x,y,-z
-x,-y,-z
1/2+x,y,-z
1/2-x,y,z
x,-y,z
loop_
_atom_site_type_symbol
_atom_site_label
_atom_site_fract_x
_atom_site_fract_y
_atom_site_fract_z
Si Si1 0.568472 0.622068 0.929598
Si Si2 0.431764 0.227937 0.070660
Si Si3 0.067290 0.815291 0.793971
Si Si4 0.066275 0.570966 0.795371
Si Si5 0.568487 0.071612 0.707899
Si Si6 0.568001 0.736582 0.430536
Si Si7 0.431822 0.887145 0.570297
Si Si8 0.935367 0.690717 0.289578
O O1 0.750000 0.615462 0.930877
O O2 0.531110 0.697019 0.920957
O O3 0.499084 0.585315 0.867807
O O4 0.500000 0.601758 0.000000
O O5 0.250000 0.221692 0.069905
O O6 0.501830 0.190974 0.132421
O O7 0.500000 0.208226 0.000000
O O8 0.250000 0.816733 0.795790
O O9 0.020077 0.751883 0.753708
O O10 0.006543 0.875888 0.754622
O O11 0.250000 0.574290 0.799003
O O12 0.023878 0.500000 0.774193
O O13 0.013968 0.626326 0.745772
O O14 0.750000 0.080602 0.706928
O O15 0.504769 0.080037 0.633722
O O16 0.535378 0.000000 0.730517
O O17 0.500000 0.714656 0.500000
O O18 0.750000 0.730909 0.433776
O O19 0.534338 0.811677 0.423038
O O20 0.512657 0.700867 0.364894
O O21 0.500000 0.908336 0.500000
O O22 0.250000 0.895348 0.570506
O O23 0.750000 0.690294 0.290810
#
# Coordination Sequence:
#
# PCOD9401661 Si02
#       8
#     8   8   8   8   8   8   8   8
#     4  10  20  33  51  75 106 143 179 218 261 313
#     4  10  20  34  54  83 112 141 178 221 270 321
#     4  11  20  35  59  82 107 141 179 226 272 318
#     4  10  20  34  53  76 104 141 181 222 269 320
#     4  11  24  39  54  77 111 147 183 225 269 320
#     4   9  17  31  50  76 104 133 169 216 266 313
#     4  10  19  33  53  78 107 143 183 222 269 323
#     4   9  17  32  53  77 105 135 174 220 267 315
#
# _framework density 17.079246999999999
#
# number of rings (size 3 to 8) (size 9 to 14) (size 15 to 20)
#    0.000    2.000    2.500    1.875    0.000    3.250 
#    0.000    0.625    0.000    0.750    0.000    0.000 
#    0.000    0.000    0.000    0.000    0.000    0.000 
#
# Total GULP energy -357276.599002 kJ/mol
# GULP energy per Si atom -5582.446859 kJ/mol
# Density = 1.704037 g / cm^3
# Si number density = 17.079247 Si / 1000 Ang^3
#
#
#
# Elastic Constant Matrix: (Units=GPa)
#
#
# Indices 1 2 3 4 5 6 
#
# 1 30.9033 40.6836 35.4755 0.0000 0.0000 0.0000
# 2 40.6836 104.4982 72.4861 0.0000 0.0000 0.0000
# 3 35.4755 72.4861 142.4876 0.0000 0.0000 0.0000
# 4 0.0000 0.0000 0.0000 19.4838 0.0000 0.0000
# 5 0.0000 0.0000 0.0000 0.0000 32.1491 0.0000
# 6 0.0000 0.0000 0.0000 0.0000 0.0000 17.6563
#
#
#
# Elastic Compliance Matrix: (Units=1/GPa)
#
#
# Indices 1 2 3 4 5 6 
#
# 1 0.068997 -0.023097 -0.005429 0.000000 0.000000 0.000000
# 2 -0.023097 0.022519 -0.005706 0.000000 0.000000 0.000000
# 3 -0.005429 -0.005706 0.011272 0.000000 0.000000 0.000000
# 4 0.000000 0.000000 0.000000 0.051325 0.000000 0.000000
# 5 0.000000 0.000000 0.000000 0.000000 0.031105 0.000000
# 6 0.000000 0.000000 0.000000 0.000000 0.000000 0.056637
#
#
# Mechanical properties :
#
#
# Convention : Reuss Voigt Hill
#
# Bulk Modulus (GPa) = 29.13158 63.90883 46.52020
# Shear Modulus (GPa) = 15.53955 22.47410 19.00683
#
# Velocity S-wave (km/s) = 3.01964 3.63143 3.33958
# Velocity P-wave (km/s) = 5.40846 7.42181 6.49364
#
# Compressibility (1/GPa) = 0.03432701
#
# Stress axis : x y z
#
# Youngs Moduli (GPa) = 14.49336 44.40630 88.71295
#
# Poissons Ratio (x) = 1.02563 0.48160
# Poissons Ratio (y) = 0.33475 0.50616
# Poissons Ratio (z) = 0.07868 0.25336
#
# Static dielectric constant tensor:
#      x y z
#    x 1.571070 0.000000 0.000000 
#    y 0.000000 1.580130 0.000000 
#    z 0.000000 0.000000 1.561090 
# 
# From -- ./inp_files/28345.got.cif
#   From: 2010.05.17/outbox.cif.g08.bks.cpg/sg51_15_cif.got.tgz:28345.got - 2010.06.03 11:52:47.
