data_PCOD9401485
_publ_section_title
;
Structure prediction by ZEFSAII (Michael W. Deem and Ramdas Pophale) SiO2 
 PCOD9401485
Probable space group: P M M A
;
_chemical_formula_sum "Si O2"
_cell_formula_units_Z 64
_cell_length_a 20.547580
_cell_length_b 7.620398
_cell_length_c 19.162757
_cell_angle_alpha 90.000000
_cell_angle_beta 90.000000
_cell_angle_gamma 90.000000
_cell_volume 3000.518624
_symmetry_space_group_name_H-M "P M M A"
_symmetry_group_IT_number 51
_symmetry_cell_setting 'orthorhombic'
loop_
_space_group_symop_operation_xyz
x,y,z
1/2-x,-y,z
1/2+x,-y,-z
-x,y,-z
-x,-y,-z
1/2+x,y,-z
1/2-x,y,z
x,-y,z
loop_
_atom_site_type_symbol
_atom_site_label
_atom_site_fract_x
_atom_site_fract_y
_atom_site_fract_z
Si Si1 0.820625 0.793641 0.479386
Si Si2 0.680501 0.288273 0.176869
Si Si3 0.864462 0.288095 0.325247
Si Si4 0.945627 0.212864 0.556524
Si Si5 0.325841 0.785453 0.048368
Si Si6 0.425462 0.797780 0.928802
Si Si7 0.442796 0.207444 0.138640
Si Si8 0.507900 0.705214 0.709162
O O1 0.750000 0.713904 0.490174
O O2 0.839773 0.780531 0.398469
O O3 0.877784 0.719894 0.526368
O O4 0.817320 0.000000 0.496078
O O5 0.750000 0.231029 0.145817
O O6 0.676041 0.500000 0.170288
O O7 0.678741 0.245915 0.258469
O O8 0.617468 0.209302 0.141121
O O9 0.866466 0.500000 0.331846
O O10 0.936281 0.220028 0.306435
O O11 0.955782 0.269737 0.635899
O O12 0.000000 0.270196 0.500000
O O13 0.947284 0.000000 0.556270
O O14 0.250000 0.725441 0.046848
O O15 0.370936 0.732869 0.114696
O O16 0.322255 0.000000 0.045214
O O17 0.373673 0.724585 0.985187
O O18 0.496478 0.720903 0.908735
O O19 0.436074 0.000000 0.949696
O O20 0.458626 0.229177 0.220262
O O21 0.443668 0.000000 0.125336
O O22 0.498569 0.500000 0.722329
#
# Coordination Sequence:
#
# PCOD9401485 Si02
#       8
#     8   8   8   8   8   8   8   8
#     4  10  21  36  55  81 110 139 175 221 270 319
#     4  10  20  33  48  71 109 151 183 212 258 321
#     4  10  20  34  52  74 107 146 181 217 262 319
#     4  10  20  36  58  81 108 141 177 219 267 317
#     4   9  18  34  56  82 110 141 181 228 276 325
#     4  10  19  32  54  82 110 138 176 225 272 320
#     4  10  20  35  57  82 109 143 182 225 274 324
#     4  11  22  36  57  83 109 141 184 227 267 317
#
# _framework density 21.329644999999999
#
# number of rings (size 3 to 8) (size 9 to 14) (size 15 to 20)
#    0.000    2.000    2.500    1.500    0.000    4.750 
#    0.000    1.250    0.000    6.375    0.000    0.000 
#    0.000    0.000    0.000    0.000    0.000    0.000 
#
# Total GULP energy -357073.987953 kJ/mol
# GULP energy per Si atom -5579.281062 kJ/mol
# Density = 2.128110 g / cm^3
# Si number density = 21.329645 Si / 1000 Ang^3
#
#
#
# Elastic Constant Matrix: (Units=GPa)
#
#
# Indices 1 2 3 4 5 6 
#
# 1 192.1509 6.9615 82.8604 0.0000 0.0000 0.0000
# 2 6.9615 41.2589 -5.4057 0.0000 0.0000 0.0000
# 3 82.8604 -5.4057 101.9708 0.0000 0.0000 0.0000
# 4 0.0000 0.0000 0.0000 32.1705 0.0000 0.0000
# 5 0.0000 0.0000 0.0000 0.0000 26.4595 0.0000
# 6 0.0000 0.0000 0.0000 0.0000 0.0000 -7.4078
#
#
#
# Elastic Compliance Matrix: (Units=1/GPa)
#
#
# Indices 1 2 3 4 5 6 
#
# 1 0.008219 -0.002278 -0.006799 0.000000 0.000000 0.000000
# 2 -0.002278 0.025038 0.003178 0.000000 0.000000 0.000000
# 3 -0.006799 0.003178 0.015500 0.000000 0.000000 0.000000
# 4 0.000000 0.000000 0.000000 0.031084 0.000000 0.000000
# 5 0.000000 0.000000 0.000000 0.000000 0.037794 0.000000
# 6 0.000000 0.000000 0.000000 0.000000 0.000000 -0.134992
#
#
# Mechanical properties :
#
#
# Convention : Reuss Voigt Hill
#
# Bulk Modulus (GPa) = 27.05678 56.02367 41.54023
# Shear Modulus (GPa) = 739.67968 26.97541 383.32754
#
# Velocity S-wave (km/s) = 18.64236 3.56011 13.42036
# Velocity P-wave (km/s) = 21.81963 6.57433 16.11394
#
# Compressibility (1/GPa) = 0.03695931
#
# Stress axis : x y z
#
# Youngs Moduli (GPa) = 121.67294 39.93951 64.51543
#
# Poissons Ratio (x) = 0.09096 0.43865
# Poissons Ratio (y) = 0.27712 -0.20503
# Poissons Ratio (z) = 0.82728 -0.12693
#
# Static dielectric constant tensor:
#      x y z
#    x 1.819070 0.000000 0.000000 
#    y 0.000000 1.811280 0.000000 
#    z 0.000000 0.000000 1.762330 
# 
# From -- ./inp_files/30671.got.cif
#   From: 2010.05.17/outbox.cif.g08.bks.cpg/sg51_16_cif.got.tgz:30671.got - 2010.06.03 11:52:47.
