data_PCOD9401641
_publ_section_title
;
Structure prediction by ZEFSAII (Michael W. Deem and Ramdas Pophale) SiO2 
 PCOD9401641
Probable space group: P M M A
;
_chemical_formula_sum "Si O2"
_cell_formula_units_Z 40
_cell_length_a 10.617680
_cell_length_b 23.495610
_cell_length_c 7.262497
_cell_angle_alpha 90.000000
_cell_angle_beta 90.000000
_cell_angle_gamma 90.000000
_cell_volume 1811.766908
_symmetry_space_group_name_H-M "P M M A"
_symmetry_group_IT_number 51
_symmetry_cell_setting 'orthorhombic'
loop_
_space_group_symop_operation_xyz
x,y,z
1/2-x,-y,z
1/2+x,-y,-z
-x,y,-z
-x,-y,-z
1/2+x,y,-z
1/2-x,y,z
x,-y,z
loop_
_atom_site_type_symbol
_atom_site_label
_atom_site_fract_x
_atom_site_fract_y
_atom_site_fract_z
Si Si1 0.750000 0.746513 0.237526
Si Si2 0.008891 0.934873 0.224190
Si Si3 0.750000 0.877219 0.226840
Si Si4 0.750000 0.729641 0.787655
Si Si5 0.750000 0.137571 0.779887
Si Si6 0.011479 0.318404 0.789595
Si Si7 0.101644 0.436573 0.665541
O O1 0.750000 0.812178 0.288122
O O2 0.621910 0.717439 0.303500
O O3 0.750000 0.735107 0.013776
O O4 0.874834 0.910397 0.284746
O O5 0.123613 0.894486 0.281157
O O6 0.029759 0.000000 0.280735
O O7 0.000000 0.934732 0.000000
O O8 0.750000 0.870357 0.003215
O O9 0.750000 0.795873 0.731366
O O10 0.627614 0.695318 0.720197
O O11 0.057985 0.383368 0.786347
O O12 0.000000 0.299109 0.000000
O O13 0.250000 0.429269 0.612318
O O14 0.092904 0.500000 0.750229
O O15 0.000000 0.435556 0.500000
#
# Coordination Sequence:
#
# PCOD9401641 Si02
#       7
#     4   8   4   4   4   8   8
#     4   9  16  29  44  65  93 128 164 211 260 302
#     4   9  15  21  30  46  71 109 159 207 243 282
#     4   9  15  22  35  50  76 111 156 205 250 290
#     4   9  18  27  44  69  95 124 166 209 254 304
#     4   9  15  24  33  50  78 115 154 201 246 290
#     4  10  19  33  53  77 104 133 171 216 256 299
#     4  10  22  40  59  79 105 137 172 208 251 307
#
# _framework density 22.077895000000002
#
# number of rings (size 3 to 8) (size 9 to 14) (size 15 to 20)
#    0.000    2.600    1.000    1.800    1.400    7.600 
#    0.000    0.000    0.000    0.000    0.000    0.000 
#    0.000    0.000    0.000    0.000    0.000   70.000 
#
# Total GULP energy -223215.968355 kJ/mol
# GULP energy per Si atom -5580.399209 kJ/mol
# Density = 2.202764 g / cm^3
# Si number density = 22.077895 Si / 1000 Ang^3
#
#
#
# Elastic Constant Matrix: (Units=GPa)
#
#
# Indices 1 2 3 4 5 6 
#
# 1 241.6549 89.5736 -1.7872 0.0000 0.0000 0.0000
# 2 89.5736 100.5994 -31.8117 0.0000 0.0000 0.0000
# 3 -1.7872 -31.8117 57.7872 0.0000 0.0000 0.0000
# 4 0.0000 0.0000 0.0000 -113.9270 0.0000 0.0000
# 5 0.0000 0.0000 0.0000 0.0000 -6.3909 0.0000
# 6 0.0000 0.0000 0.0000 0.0000 0.0000 31.6994
#
#
#
# Elastic Compliance Matrix: (Units=1/GPa)
#
#
# Indices 1 2 3 4 5 6 
#
# 1 0.006796 -0.007246 -0.003779 0.000000 0.000000 0.000000
# 2 -0.007246 0.019762 0.010655 0.000000 0.000000 0.000000
# 3 -0.003779 0.010655 0.023053 0.000000 0.000000 0.000000
# 4 0.000000 0.000000 0.000000 -0.008778 0.000000 0.000000
# 5 0.000000 0.000000 0.000000 0.000000 -0.156473 0.000000
# 6 0.000000 0.000000 0.000000 0.000000 0.000000 0.031546
#
#
# Mechanical properties :
#
#
# Convention : Reuss Voigt Hill
#
# Bulk Modulus (GPa) = 20.46232 56.88789 38.67510
# Shear Modulus (GPa) = -74.55808 5.21410 -34.67199
#
# Velocity S-wave (km/s) = -5.81754 1.53844 -3.96718
# Velocity P-wave (km/s) = 5.98637 5.38318 1.85177
#
# Compressibility (1/GPa) = 0.04887032
#
# Stress axis : x y z
#
# Youngs Moduli (GPa) = 147.14281 50.60303 43.37764
#
# Poissons Ratio (x) = 0.36668 0.16392
# Poissons Ratio (y) = 1.06623 -0.46217
# Poissons Ratio (z) = 0.55603 -0.53916
#
# Static dielectric constant tensor:
#      x y z
#    x 1.626540 0.000000 0.000000 
#    y 0.000000 1.764200 0.000000 
#    z 0.000000 0.000000 1.886200 
# 
# From -- ./inp_files/7000.got.cif
#   From: 2010.05.17/outbox.cif.g08.bks.cpg/sg51_4_cif.got.tgz:7000.got - 2010.06.03 11:52:47.
