data_PCOD9401300
_publ_section_title
;
Structure prediction by ZEFSAII (Michael W. Deem and Ramdas Pophale) SiO2 
 PCOD9401300
Probable space group: P M M A
;
_chemical_formula_sum "Si O2"
_cell_formula_units_Z 64
_cell_length_a 32.579564
_cell_length_b 7.592533
_cell_length_c 12.336555
_cell_angle_alpha 90.000000
_cell_angle_beta 90.000000
_cell_angle_gamma 90.000000
_cell_volume 3051.587699
_symmetry_space_group_name_H-M "P M M A"
_symmetry_group_IT_number 51
_symmetry_cell_setting 'orthorhombic'
loop_
_space_group_symop_operation_xyz
x,y,z
1/2-x,-y,z
1/2+x,-y,-z
-x,y,-z
-x,-y,-z
1/2+x,y,-z
1/2-x,y,z
x,-y,z
loop_
_atom_site_type_symbol
_atom_site_label
_atom_site_fract_x
_atom_site_fract_y
_atom_site_fract_z
Si Si1 0.203659 0.711971 0.049641
Si Si2 0.359145 0.297328 0.886739
Si Si3 0.796892 0.209258 0.716861
Si Si4 0.936493 0.787253 0.986896
Si Si5 0.467053 0.295080 0.584498
Si Si6 0.702692 0.294763 0.477707
Si Si7 0.000479 0.787548 0.819978
Si Si8 0.122277 0.283167 0.648275
O O1 0.250000 0.780842 0.051545
O O2 0.204898 0.500000 0.040952
O O3 0.183642 0.750513 0.166851
O O4 0.179961 0.784082 0.945651
O O5 0.349081 0.500000 0.861435
O O6 0.376024 0.224176 0.774001
O O7 0.393474 0.290796 0.979414
O O8 0.750000 0.278468 0.724613
O O9 0.811941 0.282108 0.602751
O O10 0.795954 0.000000 0.705179
O O11 0.957352 0.732297 0.874141
O O12 0.933327 0.000000 0.985383
O O13 0.966590 0.741023 0.086979
O O14 0.500000 0.216424 0.500000
O O15 0.462021 0.500000 0.553507
O O16 0.486637 0.285933 0.704540
O O17 0.420551 0.221991 0.594258
O O18 0.750000 0.221937 0.469832
O O19 0.706194 0.500000 0.448784
O O20 0.664996 0.223439 0.406469
O O21 0.000267 0.000000 0.810867
O O22 0.120924 0.500000 0.644375
#
# Coordination Sequence:
#
# PCOD9401300 Si02
#       8
#     8   8   8   8   8   8   8   8
#     4   9  18  32  50  74 103 134 168 205 249 302
#     4  10  19  32  52  76 102 134 169 209 254 301
#     4   9  17  31  51  72  97 130 168 211 255 298
#     4   9  18  33  53  76 102 130 163 207 255 300
#     4  10  20  35  54  75 103 138 170 209 260 306
#     4   9  17  31  53  76 100 136 175 211 255 302
#     4   9  18  34  55  76  99 131 168 206 250 302
#     4   9  18  33  51  74 104 132 167 212 254 303
#
# _framework density 20.97269
#
# number of rings (size 3 to 8) (size 9 to 14) (size 15 to 20)
#    0.000    2.750    1.250    1.125    0.000    3.250 
#    2.250    5.000    0.000    0.000    0.000    3.500 
#    0.000    0.000    0.000    0.000    0.000    0.000 
#
# Total GULP energy -356492.458439 kJ/mol
# GULP energy per Si atom -5570.194663 kJ/mol
# Density = 2.092496 g / cm^3
# Si number density = 20.972690 Si / 1000 Ang^3
#
#
#
# Elastic Constant Matrix: (Units=GPa)
#
#
# Indices 1 2 3 4 5 6 
#
# 1 116.6098 2.2640 71.6025 0.0000 0.0000 0.0000
# 2 2.2640 43.4043 -2.7694 0.0000 0.0000 0.0000
# 3 71.6025 -2.7694 80.3777 0.0000 0.0000 0.0000
# 4 0.0000 0.0000 0.0000 -50.4225 0.0000 0.0000
# 5 0.0000 0.0000 0.0000 0.0000 36.5609 0.0000
# 6 0.0000 0.0000 0.0000 0.0000 0.0000 -8.2239
#
#
#
# Elastic Compliance Matrix: (Units=1/GPa)
#
#
# Indices 1 2 3 4 5 6 
#
# 1 0.019118 -0.002088 -0.017102 0.000000 0.000000 0.000000
# 2 -0.002088 0.023318 0.002664 0.000000 0.000000 0.000000
# 3 -0.017102 0.002664 0.027768 0.000000 0.000000 0.000000
# 4 0.000000 0.000000 0.000000 -0.019832 0.000000 0.000000
# 5 0.000000 0.000000 0.000000 0.000000 0.027352 0.000000
# 6 0.000000 0.000000 0.000000 0.000000 0.000000 -0.121596
#
#
# Mechanical properties :
#
#
# Convention : Reuss Voigt Hill
#
# Bulk Modulus (GPa) = 26.91790 42.50956 34.71373
# Shear Modulus (GPa) = 3196.04013 6.86921 1601.45467
#
# Velocity S-wave (km/s) = 39.07958 1.81175 27.66312
# Velocity P-wave (km/s) = 45.26751 4.96886 32.20122
#
# Compressibility (1/GPa) = 0.03715000
#
# Stress axis : x y z
#
# Youngs Moduli (GPa) = 52.30757 42.88519 36.01220
#
# Poissons Ratio (x) = 0.08956 0.61590
# Poissons Ratio (y) = 0.10924 -0.09593
# Poissons Ratio (z) = 0.89459 -0.11424
#
# Static dielectric constant tensor:
#      x y z
#    x 1.800040 0.000000 0.000000 
#    y 0.000000 1.785420 0.000000 
#    z 0.000000 0.000000 1.759550 
# 
# From -- ./inp_files/19629.got.cif
#   From: 2010.05.17/outbox.cif.g08.bks.cpg/sg51_10_cif.got.tgz:19629.got - 2010.06.03 11:52:47.
