data_PCOD9401260
_publ_section_title
;
Structure prediction by ZEFSAII (Michael W. Deem and Ramdas Pophale) SiO2 
 PCOD9401260
Probable space group: P M M A
;
_chemical_formula_sum "Si O2"
_cell_formula_units_Z 64
_cell_length_a 17.435540
_cell_length_b 14.942304
_cell_length_c 14.494673
_cell_angle_alpha 90.000000
_cell_angle_beta 90.000000
_cell_angle_gamma 90.000000
_cell_volume 3776.255689
_symmetry_space_group_name_H-M "P M M A"
_symmetry_group_IT_number 51
_symmetry_cell_setting 'orthorhombic'
loop_
_space_group_symop_operation_xyz
x,y,z
1/2-x,-y,z
1/2+x,-y,-z
-x,y,-z
-x,-y,-z
1/2+x,y,-z
1/2-x,y,z
x,-y,z
loop_
_atom_site_type_symbol
_atom_site_label
_atom_site_fract_x
_atom_site_fract_y
_atom_site_fract_z
Si Si1 0.554452 0.596895 0.635790
Si Si2 0.499217 0.103076 0.391130
Si Si3 0.334432 0.675896 0.495802
Si Si4 0.164637 0.168701 0.340699
Si Si5 0.587569 0.394736 0.976860
Si Si6 0.839377 0.329625 0.792818
Si Si7 0.917420 0.271187 0.325626
Si Si8 0.841262 0.603711 0.177152
O O1 0.517948 0.500000 0.641737
O O2 0.601458 0.609250 0.541814
O O3 0.614632 0.610310 0.719206
O O4 0.492989 0.674366 0.644883
O O5 0.500000 0.130992 0.500000
O O6 0.411421 0.111324 0.356041
O O7 0.553826 0.168912 0.332204
O O8 0.524251 0.000000 0.386940
O O9 0.250000 0.635171 0.492896
O O10 0.335731 0.758458 0.423826
O O11 0.354460 0.712029 0.595862
O O12 0.250000 0.126299 0.340876
O O13 0.156650 0.229495 0.249042
O O14 0.587345 0.500000 0.950126
O O15 0.622157 0.340538 0.891879
O O16 0.500000 0.369717 0.000000
O O17 0.636977 0.386281 0.069772
O O18 0.750000 0.355401 0.796153
O O19 0.886239 0.320595 0.234617
O O20 0.750000 0.612820 0.190455
O O21 0.862364 0.500000 0.203102
#
# Coordination Sequence:
#
# PCOD9401260 Si02
#       8
#     8   8   8   8   8   8   8   8
#     4  11  21  31  48  74 103 137 176 216 260 313
#     4  11  21  36  58  82 107 140 178 220 277 332
#     4  10  20  33  49  68 100 139 175 213 260 311
#     4   9  18  34  53  78 105 134 171 215 267 326
#     4  10  20  33  50  77 109 141 182 227 264 306
#     4  10  19  32  52  74 104 140 172 211 264 313
#     4  12  20  36  53  73 104 142 177 225 267 310
#     4  10  22  37  53  76 109 151 193 224 259 311
#
# _framework density 16.948005999999999
#
# number of rings (size 3 to 8) (size 9 to 14) (size 15 to 20)
#    0.000    1.625    3.750    3.750    0.000    5.000 
#    0.000    0.000    0.000    1.500    0.000    1.750 
#    0.000    2.000    0.000    0.000    0.000    0.000 
#
# Total GULP energy -356996.601960 kJ/mol
# GULP energy per Si atom -5578.071906 kJ/mol
# Density = 1.690943 g / cm^3
# Si number density = 16.948006 Si / 1000 Ang^3
#
#
#
# Elastic Constant Matrix: (Units=GPa)
#
#
# Indices 1 2 3 4 5 6 
#
# 1 66.8351 13.3900 22.3446 0.0000 0.0000 0.0000
# 2 13.3900 59.5125 19.2119 0.0000 0.0000 0.0000
# 3 22.3446 19.2119 75.3389 0.0000 0.0000 0.0000
# 4 0.0000 0.0000 0.0000 10.1265 0.0000 0.0000
# 5 0.0000 0.0000 0.0000 0.0000 28.3339 0.0000
# 6 0.0000 0.0000 0.0000 0.0000 0.0000 12.7143
#
#
#
# Elastic Compliance Matrix: (Units=1/GPa)
#
#
# Indices 1 2 3 4 5 6 
#
# 1 0.016913 -0.002382 -0.004409 0.000000 0.000000 0.000000
# 2 -0.002382 0.018646 -0.004048 0.000000 0.000000 0.000000
# 3 -0.004409 -0.004048 0.015613 0.000000 0.000000 0.000000
# 4 0.000000 0.000000 0.000000 0.098751 0.000000 0.000000
# 5 0.000000 0.000000 0.000000 0.000000 0.035293 0.000000
# 6 0.000000 0.000000 0.000000 0.000000 0.000000 0.078651
#
#
# Mechanical properties :
#
#
# Convention : Reuss Voigt Hill
#
# Bulk Modulus (GPa) = 33.90506 34.61992 34.26249
# Shear Modulus (GPa) = 16.92742 20.01762 18.47252
#
# Velocity S-wave (km/s) = 3.16379 3.44047 3.30502
# Velocity P-wave (km/s) = 5.77883 6.02112 5.90122
#
# Compressibility (1/GPa) = 0.02949412
#
# Stress axis : x y z
#
# Youngs Moduli (GPa) = 59.12458 53.63062 64.04795
#
# Poissons Ratio (x) = 0.12776 0.28238
# Poissons Ratio (y) = 0.14084 0.25929
# Poissons Ratio (z) = 0.26067 0.21711
#
# Static dielectric constant tensor:
#      x y z
#    x 1.601880 0.000000 0.000000 
#    y 0.000000 1.566850 0.000000 
#    z 0.000000 0.000000 1.570500 
# 
# From -- ./inp_files/17538.got.cif
#   From: 2010.05.17/outbox.cif.g08.bks.cpg/sg51_9_cif.got.tgz:17538.got - 2010.06.03 11:52:47.
