data_PCOD9401147
_publ_section_title
;
Structure prediction by ZEFSAII (Michael W. Deem and Ramdas Pophale) SiO2 
 PCOD9401147
Probable space group: P M M A
;
_chemical_formula_sum "Si O2"
_cell_formula_units_Z 64
_cell_length_a 8.718617
_cell_length_b 22.597644
_cell_length_c 17.044261
_cell_angle_alpha 90.000000
_cell_angle_beta 90.000000
_cell_angle_gamma 90.000000
_cell_volume 3358.063765
_symmetry_space_group_name_H-M "P M M A"
_symmetry_group_IT_number 51
_symmetry_cell_setting 'orthorhombic'
loop_
_space_group_symop_operation_xyz
x,y,z
1/2-x,-y,z
1/2+x,-y,-z
-x,y,-z
-x,-y,-z
1/2+x,y,-z
1/2-x,y,z
x,-y,z
loop_
_atom_site_type_symbol
_atom_site_label
_atom_site_fract_x
_atom_site_fract_y
_atom_site_fract_z
Si Si1 0.928615 0.094749 0.085187
Si Si2 0.933042 0.564740 0.254388
Si Si3 0.930958 0.313895 0.785875
Si Si4 0.066451 0.400832 0.420943
Si Si5 0.068874 0.069436 0.736418
Si Si6 0.064650 0.863410 0.416383
Si Si7 0.064531 0.269022 0.381664
Si Si8 0.428175 0.236944 0.917977
O O1 0.750000 0.076572 0.082620
O O2 0.988842 0.076334 0.172414
O O3 0.938696 0.166008 0.087789
O O4 0.000000 0.076407 0.000000
O O5 0.750000 0.567498 0.259197
O O6 0.977401 0.500000 0.222656
O O7 0.992268 0.621970 0.208387
O O8 0.001580 0.571321 0.341738
O O9 0.750000 0.323563 0.778446
O O10 0.983538 0.279759 0.707758
O O11 0.973308 0.270412 0.854470
O O12 0.250000 0.404078 0.419910
O O13 0.018106 0.331323 0.419454
O O14 0.000000 0.427800 0.500000
O O15 0.250000 0.086302 0.737999
O O16 0.990209 0.105112 0.664650
O O17 0.056972 0.000000 0.717657
O O18 0.250000 0.865685 0.418710
O O19 0.010303 0.794510 0.411192
O O20 0.000000 0.887341 0.500000
O O21 0.250000 0.266807 0.385961
O O22 0.250000 0.253106 0.911035
O O23 0.500000 0.254460 0.000000
#
# Coordination Sequence:
#
# PCOD9401147 Si02
#       8
#     8   8   8   8   8   8   8   8
#     4   9  19  35  57  86 117 148 179 217 268 325
#     4  10  21  36  52  71  97 133 177 218 256 302
#     4  10  19  33  54  79 107 137 171 213 262 313
#     4  10  19  32  50  73 102 133 167 209 260 314
#     4  10  22  40  58  78 108 145 186 230 273 320
#     4  11  22  37  57  80 107 140 182 230 280 331
#     4   8  17  32  51  77 105 133 166 210 264 320
#     4  10  19  32  52  80 112 141 171 206 252 310
#
# _framework density 19.058600999999999
#
# number of rings (size 3 to 8) (size 9 to 14) (size 15 to 20)
#    0.000    2.250    0.000    3.750    0.000    3.000 
#    0.000    6.250    0.000    0.375    0.000    0.000 
#    0.000    0.000    0.000    0.000    0.000    0.000 
#
# Total GULP energy -356691.447496 kJ/mol
# GULP energy per Si atom -5573.303867 kJ/mol
# Density = 1.901522 g / cm^3
# Si number density = 19.058601 Si / 1000 Ang^3
#
#
#
# Elastic Constant Matrix: (Units=GPa)
#
#
# Indices 1 2 3 4 5 6 
#
# 1 44.7295 19.7184 21.6165 0.0000 0.0000 0.0000
# 2 19.7184 57.9514 36.0669 0.0000 0.0000 0.0000
# 3 21.6165 36.0669 115.5837 0.0000 0.0000 0.0000
# 4 0.0000 0.0000 0.0000 -172.1735 0.0000 0.0000
# 5 0.0000 0.0000 0.0000 0.0000 32.7419 0.0000
# 6 0.0000 0.0000 0.0000 0.0000 0.0000 16.7942
#
#
#
# Elastic Compliance Matrix: (Units=1/GPa)
#
#
# Indices 1 2 3 4 5 6 
#
# 1 0.026967 -0.007492 -0.002706 0.000000 0.000000 0.000000
# 2 -0.007492 0.023496 -0.005931 0.000000 0.000000 0.000000
# 3 -0.002706 -0.005931 0.011008 0.000000 0.000000 0.000000
# 4 0.000000 0.000000 0.000000 -0.005808 0.000000 0.000000
# 5 0.000000 0.000000 0.000000 0.000000 0.030542 0.000000
# 6 0.000000 0.000000 0.000000 0.000000 0.000000 0.059544
#
#
# Mechanical properties :
#
#
# Convention : Reuss Voigt Hill
#
# Bulk Modulus (GPa) = 34.22882 41.45200 37.84041
# Shear Modulus (GPa) = 26.63208 -15.13661 5.74774
#
# Velocity S-wave (km/s) = 3.74221 -2.82124 1.73850
# Velocity P-wave (km/s) = 6.05565 3.34432 4.89159
#
# Compressibility (1/GPa) = 0.02921515
#
# Stress axis : x y z
#
# Youngs Moduli (GPa) = 37.08271 42.56056 90.84030
#
# Poissons Ratio (x) = 0.31885 0.24578
# Poissons Ratio (y) = 0.27781 0.53874
# Poissons Ratio (z) = 0.10033 0.25241
#
# Static dielectric constant tensor:
#      x y z
#    x 1.712020 0.000000 0.000000 
#    y 0.000000 1.679200 0.000000 
#    z 0.000000 0.000000 1.690640 
# 
# From -- ./inp_files/22276.got.cif
#   From: 2010.05.17/outbox.cif.g08.bks.cpg/sg51_12_cif.got.tgz:22276.got - 2010.06.03 11:52:47.
