data_PCOD9401234
_publ_section_title
;
Structure prediction by ZEFSAII (Michael W. Deem and Ramdas Pophale) SiO2 
 PCOD9401234
Probable space group: P M M A
;
_chemical_formula_sum "Si O2"
_cell_formula_units_Z 64
_cell_length_a 25.715005
_cell_length_b 8.401760
_cell_length_c 15.296932
_cell_angle_alpha 90.000000
_cell_angle_beta 90.000000
_cell_angle_gamma 90.000000
_cell_volume 3304.922051
_symmetry_space_group_name_H-M "P M M A"
_symmetry_group_IT_number 51
_symmetry_cell_setting 'orthorhombic'
loop_
_space_group_symop_operation_xyz
x,y,z
1/2-x,-y,z
1/2+x,-y,-z
-x,y,-z
-x,-y,-z
1/2+x,y,-z
1/2-x,y,z
x,-y,z
loop_
_atom_site_type_symbol
_atom_site_label
_atom_site_fract_x
_atom_site_fract_y
_atom_site_fract_z
Si Si1 0.190298 0.308015 0.141387
Si Si2 0.649921 0.316554 0.527772
Si Si3 0.306649 0.809611 0.643243
Si Si4 0.504814 0.182458 0.256501
Si Si5 0.888244 0.189232 0.713777
Si Si6 0.457589 0.323313 0.575183
Si Si7 0.690836 0.307906 0.061519
Si Si8 0.113978 0.807958 0.790880
O O1 0.250000 0.264272 0.163247
O O2 0.186445 0.500000 0.148253
O O3 0.149561 0.230555 0.206568
O O4 0.181275 0.265208 0.039905
O O5 0.666045 0.500000 0.535046
O O6 0.687352 0.229386 0.459322
O O7 0.637309 0.253588 0.624270
O O8 0.596078 0.305445 0.474552
O O9 0.250000 0.749745 0.673722
O O10 0.353471 0.748702 0.705450
O O11 0.307269 0.000000 0.652204
O O12 0.446771 0.253800 0.265463
O O13 0.528634 0.192353 0.353955
O O14 0.554247 0.252680 0.203804
O O15 0.497697 0.000000 0.227465
O O16 0.893182 0.000000 0.702738
O O17 0.500000 0.318656 0.500000
O O18 0.459531 0.500000 0.617159
O O19 0.750000 0.257162 0.083898
O O20 0.689283 0.500000 0.067182
O O21 0.648690 0.236693 0.126359
O O22 0.110468 0.000000 0.784393
#
# Coordination Sequence:
#
# PCOD9401234 Si02
#       8
#     8   8   8   8   8   8   8   8
#     4   9  20  41  65  85 108 140 179 227 280 330
#     4  11  22  35  53  77 107 145 186 228 275 324
#     4  10  21  36  53  76 109 148 189 232 276 325
#     4  10  21  35  53  79 113 149 184 222 270 325
#     4  11  23  37  57  85 113 145 185 229 276 326
#     4  10  19  32  51  76 104 137 183 232 270 309
#     4   9  19  37  61  87 111 138 179 229 278 329
#     4  10  20  35  56  82 113 148 183 222 272 328
#
# _framework density 19.365057
#
# number of rings (size 3 to 8) (size 9 to 14) (size 15 to 20)
#    0.000    2.000    2.500    1.875    0.000    4.500 
#    0.000    1.875    0.000    3.750    0.000    0.000 
#    0.000    0.000    0.000    0.000    0.000    0.000 
#
# Total GULP energy -356731.635042 kJ/mol
# GULP energy per Si atom -5573.931798 kJ/mol
# Density = 1.932098 g / cm^3
# Si number density = 19.365057 Si / 1000 Ang^3
#
#
#
# Elastic Constant Matrix: (Units=GPa)
#
#
# Indices 1 2 3 4 5 6 
#
# 1 80.3943 7.7154 41.6720 0.0000 0.0000 0.0000
# 2 7.7154 7.9530 6.5117 0.0000 0.0000 0.0000
# 3 41.6720 6.5117 77.5033 0.0000 0.0000 0.0000
# 4 0.0000 0.0000 0.0000 32.5619 0.0000 0.0000
# 5 0.0000 0.0000 0.0000 0.0000 19.5909 0.0000
# 6 0.0000 0.0000 0.0000 0.0000 0.0000 -5.9763
#
#
#
# Elastic Compliance Matrix: (Units=1/GPa)
#
#
# Indices 1 2 3 4 5 6 
#
# 1 0.017989 -0.010236 -0.008812 0.000000 0.000000 0.000000
# 2 -0.010236 0.140852 -0.006330 0.000000 0.000000 0.000000
# 3 -0.008812 -0.006330 0.018173 0.000000 0.000000 0.000000
# 4 0.000000 0.000000 0.000000 0.030711 0.000000 0.000000
# 5 0.000000 0.000000 0.000000 0.000000 0.051044 0.000000
# 6 0.000000 0.000000 0.000000 0.000000 0.000000 -0.167328
#
#
# Mechanical properties :
#
#
# Convention : Reuss Voigt Hill
#
# Bulk Modulus (GPa) = 7.92042 30.84987 19.38515
# Shear Modulus (GPa) = 27.13221 16.56540 21.84881
#
# Velocity S-wave (km/s) = 3.74718 2.92794 3.36260
# Velocity P-wave (km/s) = 4.77710 5.23409 5.01081
#
# Compressibility (1/GPa) = 0.12625591
#
# Stress axis : x y z
#
# Youngs Moduli (GPa) = 55.59005 7.09966 55.02762
#
# Poissons Ratio (x) = 0.07267 0.48492
# Poissons Ratio (y) = 0.56903 0.34834
# Poissons Ratio (z) = 0.48987 0.04494
#
# Static dielectric constant tensor:
#      x y z
#    x -8.859380 0.000000 0.000000 
#    y 0.000000 1.702710 0.000000 
#    z 0.000000 0.000000 1.653870 
# 
# From -- ./inp_files/26319.got.cif
#   From: 2010.05.17/outbox.cif.g08.bks.cpg/sg51_14_cif.got.tgz:26319.got - 2010.06.03 11:52:47.
