data_PCOD9401247
_publ_section_title
;
Structure prediction by ZEFSAII (Michael W. Deem and Ramdas Pophale) SiO2 
 PCOD9401247
Probable space group: P M M A
;
_chemical_formula_sum "Si O2"
_cell_formula_units_Z 48
_cell_length_a 8.643521
_cell_length_b 31.768191
_cell_length_c 9.712531
_cell_angle_alpha 90.000000
_cell_angle_beta 90.000000
_cell_angle_gamma 90.000000
_cell_volume 2666.954428
_symmetry_space_group_name_H-M "P M M A"
_symmetry_group_IT_number 51
_symmetry_cell_setting 'orthorhombic'
loop_
_space_group_symop_operation_xyz
x,y,z
1/2-x,-y,z
1/2+x,-y,-z
-x,y,-z
-x,-y,-z
1/2+x,y,-z
1/2-x,y,z
x,-y,z
loop_
_atom_site_type_symbol
_atom_site_label
_atom_site_fract_x
_atom_site_fract_y
_atom_site_fract_z
Si Si1 0.434822 0.289001 0.653320
Si Si2 0.064693 0.880174 0.153515
Si Si3 0.064773 0.048975 0.649967
Si Si4 0.063424 0.545175 0.155935
Si Si5 0.436512 0.637551 0.155792
Si Si6 0.564077 0.802214 0.652904
O O1 0.500000 0.296452 0.500000
O O2 0.250000 0.288204 0.649424
O O3 0.494455 0.325315 0.753413
O O4 0.497363 0.243051 0.696282
O O5 0.250000 0.881934 0.149193
O O6 0.019611 0.839056 0.242245
O O7 0.002072 0.920776 0.234044
O O8 0.000000 0.878053 0.000000
O O9 0.250000 0.051971 0.647594
O O10 0.000000 0.061396 0.500000
O O11 0.021823 0.000000 0.672974
O O12 0.250000 0.545124 0.151165
O O13 0.014211 0.500000 0.219292
O O14 0.018037 0.590942 0.213170
O O15 0.000000 0.544993 0.000000
O O16 0.250000 0.640395 0.153559
O O17 0.500000 0.640461 0.000000
O O18 0.500000 0.811315 0.500000
O O19 0.750000 0.799603 0.645754
#
# Coordination Sequence:
#
# PCOD9401247 Si02
#       6
#     8   8   8   8   8   8
#     4  11  22  37  57  79 105 139 178 220 267 319
#     4  11  24  39  58  84 115 149 183 224 273 323
#     4  10  21  38  61  87 115 149 189 230 270 317
#     4   8  14  25  43  68  98 132 169 210 256 306
#     4  10  19  32  51  77 108 139 174 217 264 315
#     4  10  21  38  59  82 106 137 179 222 267 320
#
# _framework density 17.998056999999999
#
# number of rings (size 3 to 8) (size 9 to 14) (size 15 to 20)
#    0.000    2.000    0.000    5.000    0.000    6.667 
#    0.000    1.667    0.000    0.500    0.000    0.000 
#    0.000    0.000    0.000    0.000    0.000    0.000 
#
# Total GULP energy -267855.977824 kJ/mol
# GULP energy per Si atom -5580.332871 kJ/mol
# Density = 1.795709 g / cm^3
# Si number density = 17.998057 Si / 1000 Ang^3
#
#
#
# Elastic Constant Matrix: (Units=GPa)
#
#
# Indices 1 2 3 4 5 6 
#
# 1 68.9561 54.6530 38.2193 0.0000 0.0000 0.0000
# 2 54.6530 164.0132 101.6161 0.0000 0.0000 0.0000
# 3 38.2193 101.6161 93.9512 0.0000 0.0000 0.0000
# 4 0.0000 0.0000 0.0000 15.6850 0.0000 0.0000
# 5 0.0000 0.0000 0.0000 0.0000 31.4482 0.0000
# 6 0.0000 0.0000 0.0000 0.0000 0.0000 91.2141
#
#
#
# Elastic Compliance Matrix: (Units=1/GPa)
#
#
# Indices 1 2 3 4 5 6 
#
# 1 0.019948 -0.004909 -0.002805 0.000000 0.000000 0.000000
# 2 -0.004909 0.019690 -0.019299 0.000000 0.000000 0.000000
# 3 -0.002805 -0.019299 0.032659 0.000000 0.000000 0.000000
# 4 0.000000 0.000000 0.000000 0.063755 0.000000 0.000000
# 5 0.000000 0.000000 0.000000 0.000000 0.031798 0.000000
# 6 0.000000 0.000000 0.000000 0.000000 0.000000 0.010963
#
#
# Mechanical properties :
#
#
# Convention : Reuss Voigt Hill
#
# Bulk Modulus (GPa) = 54.73661 79.54416 67.14038
# Shear Modulus (GPa) = 20.92661 36.49827 28.71244
#
# Velocity S-wave (km/s) = 3.41356 4.50811 3.99846
# Velocity P-wave (km/s) = 6.78344 8.44922 7.66173
#
# Compressibility (1/GPa) = 0.01826931
#
# Stress axis : x y z
#
# Youngs Moduli (GPa) = 50.13151 50.78699 30.61952
#
# Poissons Ratio (x) = 0.24932 0.08589
# Poissons Ratio (y) = 0.24610 0.59094
# Poissons Ratio (z) = 0.14062 0.98016
#
# Static dielectric constant tensor:
#      x y z
#    x 1.602980 0.000000 0.000000 
#    y 0.000000 1.648530 0.000000 
#    z 0.000000 0.000000 1.518040 
# 
# From -- ./inp_files/6047.got.cif
#   From: 2010.05.17/outbox.cif.g08.bks.cpg/sg51_4_cif.got.tgz:6047.got - 2010.06.03 11:52:47.
