data_PCOD9401127
_publ_section_title
;
Structure prediction by ZEFSAII (Michael W. Deem and Ramdas Pophale) SiO2 
 PCOD9401127
Probable space group: P M M A
;
_chemical_formula_sum "Si O2"
_cell_formula_units_Z 48
_cell_length_a 8.924576
_cell_length_b 15.550610
_cell_length_c 16.856253
_cell_angle_alpha 90.000000
_cell_angle_beta 90.000000
_cell_angle_gamma 90.000000
_cell_volume 2339.354631
_symmetry_space_group_name_H-M "P M M A"
_symmetry_group_IT_number 51
_symmetry_cell_setting 'orthorhombic'
loop_
_space_group_symop_operation_xyz
x,y,z
1/2-x,-y,z
1/2+x,-y,-z
-x,y,-z
-x,-y,-z
1/2+x,y,-z
1/2-x,y,z
x,-y,z
loop_
_atom_site_type_symbol
_atom_site_label
_atom_site_fract_x
_atom_site_fract_y
_atom_site_fract_z
Si Si1 0.925540 0.827649 0.243566
Si Si2 0.921677 0.103674 0.917188
Si Si3 0.584136 0.600075 0.072466
Si Si4 0.430121 0.217528 0.581651
Si Si5 0.576662 0.595246 0.604864
Si Si6 0.418526 0.347244 0.220955
O O1 0.750000 0.848350 0.241037
O O2 0.975673 0.833520 0.337078
O O3 0.003668 0.871788 0.167528
O O4 0.960614 0.727746 0.229563
O O5 0.750000 0.134393 0.917274
O O6 0.921920 0.000000 0.920044
O O7 0.000000 0.132713 0.000000
O O8 0.750000 0.636145 0.088423
O O9 0.605568 0.500000 0.053187
O O10 0.471142 0.602672 0.144968
O O11 0.500000 0.644941 0.000000
O O12 0.500000 0.181996 0.500000
O O13 0.250000 0.217386 0.578419
O O14 0.486870 0.317437 0.585557
O O15 0.750000 0.604133 0.576713
O O16 0.519620 0.500000 0.582138
O O17 0.580424 0.597343 0.700055
O O18 0.250000 0.311538 0.212608
#
# Coordination Sequence:
#
# PCOD9401127 Si02
#       6
#     8   8   8   8   8   8
#     4  10  21  37  57  83 113 145 183 224 270 324
#     4  10  21  38  62  92 123 153 183 217 262 318
#     4  10  20  32  45  62  87 122 166 216 268 321
#     4  10  21  36  55  79 108 145 188 235 284 333
#     4   9  18  32  50  72  99 134 177 226 280 335
#     4  10  19  32  50  71  97 130 171 219 270 324
#
# _framework density 20.51848
#
# number of rings (size 3 to 8) (size 9 to 14) (size 15 to 20)
#    0.000    2.167    0.000    3.000    0.000    6.667 
#    0.000    3.333    0.000    0.500    0.000    0.000 
#    0.000    0.000    0.000    0.000    0.000    0.000 
#
# Total GULP energy -267257.654536 kJ/mol
# GULP energy per Si atom -5567.867803 kJ/mol
# Density = 2.047178 g / cm^3
# Si number density = 20.518480 Si / 1000 Ang^3
#
#
#
# Elastic Constant Matrix: (Units=GPa)
#
#
# Indices 1 2 3 4 5 6 
#
# 1 64.8663 -0.0524 77.7589 0.0000 0.0000 0.0000
# 2 -0.0524 20.6161 21.6850 0.0000 0.0000 0.0000
# 3 77.7589 21.6850 191.5639 0.0000 0.0000 0.0000
# 4 0.0000 0.0000 0.0000 -19.8044 0.0000 0.0000
# 5 0.0000 0.0000 0.0000 0.0000 30.2122 0.0000
# 6 0.0000 0.0000 0.0000 0.0000 0.0000 19.3076
#
#
#
# Elastic Compliance Matrix: (Units=1/GPa)
#
#
# Indices 1 2 3 4 5 6 
#
# 1 0.034500 0.016821 -0.015908 0.000000 0.000000 0.000000
# 2 0.016821 0.063263 -0.013989 0.000000 0.000000 0.000000
# 3 -0.015908 -0.013989 0.013261 0.000000 0.000000 0.000000
# 4 0.000000 0.000000 0.000000 -0.050494 0.000000 0.000000
# 5 0.000000 0.000000 0.000000 0.000000 0.033099 0.000000
# 6 0.000000 0.000000 0.000000 0.000000 0.000000 0.051793
#
#
# Mechanical properties :
#
#
# Convention : Reuss Voigt Hill
#
# Bulk Modulus (GPa) = 11.78260 52.86991 32.32626
# Shear Modulus (GPa) = 25.01673 17.78674 21.40173
#
# Velocity S-wave (km/s) = 3.49553 2.94745 3.23313
# Velocity P-wave (km/s) = 4.69538 6.11606 5.45219
#
# Compressibility (1/GPa) = 0.08487093
#
# Stress axis : x y z
#
# Youngs Moduli (GPa) = 28.98549 15.80701 75.40810
#
# Poissons Ratio (x) = -0.26589 1.19961
# Poissons Ratio (y) = -0.48756 1.05490
# Poissons Ratio (z) = 0.46111 0.22113
#
# Static dielectric constant tensor:
#      x y z
#    x 1.778640 0.000000 0.000000 
#    y 0.000000 1.735690 0.000000 
#    z 0.000000 0.000000 1.805530 
# 
# From -- ./inp_files/21053.got.cif
#   From: 2010.05.17/outbox.cif.g08.bks.cpg/sg51_11_cif.got.tgz:21053.got - 2010.06.03 11:52:47.
