data_PCOD9401302
_publ_section_title
;
Structure prediction by ZEFSAII (Michael W. Deem and Ramdas Pophale) SiO2 
 PCOD9401302
Probable space group: P M M A
;
_chemical_formula_sum "Si O2"
_cell_formula_units_Z 64
_cell_length_a 9.174442
_cell_length_b 17.298178
_cell_length_c 21.127911
_cell_angle_alpha 90.000000
_cell_angle_beta 90.000000
_cell_angle_gamma 90.000000
_cell_volume 3353.023366
_symmetry_space_group_name_H-M "P M M A"
_symmetry_group_IT_number 51
_symmetry_cell_setting 'orthorhombic'
loop_
_space_group_symop_operation_xyz
x,y,z
1/2-x,-y,z
1/2+x,-y,-z
-x,y,-z
-x,-y,-z
1/2+x,y,-z
1/2-x,y,z
x,-y,z
loop_
_atom_site_type_symbol
_atom_site_label
_atom_site_fract_x
_atom_site_fract_y
_atom_site_fract_z
Si Si1 0.920836 0.130118 0.810371
Si Si2 0.921854 0.619820 0.565421
Si Si3 0.427141 0.914612 0.326908
Si Si4 0.579123 0.805391 0.563519
Si Si5 0.918676 0.684620 0.064004
Si Si6 0.578849 0.411639 0.303110
Si Si7 0.416768 0.873386 0.937098
Si Si8 0.578776 0.683283 0.806331
O O1 0.750000 0.110965 0.817959
O O2 0.978226 0.095854 0.744804
O O3 0.931163 0.223324 0.803399
O O4 0.005403 0.103532 0.872337
O O5 0.750000 0.599749 0.564737
O O6 0.934182 0.713166 0.569012
O O7 0.000000 0.595450 0.500000
O O8 0.001798 0.591026 0.628384
O O9 0.250000 0.908513 0.323378
O O10 0.478615 0.848726 0.374552
O O11 0.463376 0.000000 0.350757
O O12 0.500000 0.830995 0.500000
O O13 0.750000 0.823196 0.557685
O O14 0.750000 0.660333 0.064795
O O15 0.919796 0.778874 0.063013
O O16 0.001766 0.660056 0.127775
O O17 0.000000 0.659204 0.000000
O O18 0.750000 0.391694 0.309541
O O19 0.568738 0.500000 0.279508
O O20 0.499755 0.355459 0.253486
O O21 0.250000 0.898013 0.938719
O O22 0.500000 0.898984 0.000000
O O23 0.750000 0.663224 0.806587
#
# Coordination Sequence:
#
# PCOD9401302 Si02
#       8
#     8   8   8   8   8   8   8   8
#     4   9  17  30  49  73  99 129 168 211 252 297
#     4  10  20  36  58  81 105 133 167 208 252 300
#     4   9  17  30  49  72 100 135 171 206 247 296
#     4   9  18  33  53  78 104 131 166 206 247 293
#     4   9  16  27  45  72 104 134 167 209 257 306
#     4  11  24  39  54  75 104 136 170 209 252 300
#     4   9  16  26  43  69  99 129 161 203 254 302
#     4  10  19  32  52  76 102 134 172 213 256 303
#
# _framework density 19.087250000000001
#
# number of rings (size 3 to 8) (size 9 to 14) (size 15 to 20)
#    0.000    2.500    0.000    2.625    0.000    7.500 
#    0.000    0.625    0.000    1.875    0.000    0.000 
#    0.000    0.000    0.000    0.000    0.000    0.000 
#
# Total GULP energy -357180.147667 kJ/mol
# GULP energy per Si atom -5580.939807 kJ/mol
# Density = 1.904381 g / cm^3
# Si number density = 19.087250 Si / 1000 Ang^3
#
#
#
# Elastic Constant Matrix: (Units=GPa)
#
#
# Indices 1 2 3 4 5 6 
#
# 1 107.2276 30.9079 57.3912 0.0000 0.0000 0.0000
# 2 30.9079 30.3499 36.5489 0.0000 0.0000 0.0000
# 3 57.3912 36.5489 134.5859 0.0000 0.0000 0.0000
# 4 0.0000 0.0000 0.0000 -21.9011 0.0000 0.0000
# 5 0.0000 0.0000 0.0000 0.0000 40.7260 0.0000
# 6 0.0000 0.0000 0.0000 0.0000 0.0000 -3.1164
#
#
#
# Elastic Compliance Matrix: (Units=1/GPa)
#
#
# Indices 1 2 3 4 5 6 
#
# 1 0.014033 -0.010528 -0.003125 0.000000 0.000000 0.000000
# 2 -0.010528 0.056859 -0.010952 0.000000 0.000000 0.000000
# 3 -0.003125 -0.010952 0.011737 0.000000 0.000000 0.000000
# 4 0.000000 0.000000 0.000000 -0.045660 0.000000 0.000000
# 5 0.000000 0.000000 0.000000 0.000000 0.024554 0.000000
# 6 0.000000 0.000000 0.000000 0.000000 0.000000 -0.320880
#
#
# Mechanical properties :
#
#
# Convention : Reuss Voigt Hill
#
# Bulk Modulus (GPa) = 29.92224 57.98436 43.95330
# Shear Modulus (GPa) = -25.12463 12.96272 -6.08096
#
# Velocity S-wave (km/s) = -3.63203 2.60884 -1.78684
# Velocity P-wave (km/s) = 1.37049 6.28643 4.33826
#
# Compressibility (1/GPa) = 0.03341996
#
# Stress axis : x y z
#
# Youngs Moduli (GPa) = 71.25961 17.58745 85.20105
#
# Poissons Ratio (x) = 0.18515 0.26627
# Poissons Ratio (y) = 0.75020 0.93309
# Poissons Ratio (z) = 0.22270 0.19261
#
# Static dielectric constant tensor:
#      x y z
#    x 1.641930 0.000000 0.000000 
#    y 0.000000 1.663000 0.000000 
#    z 0.000000 0.000000 1.640150 
# 
# From -- ./inp_files/32372.got.cif
#   From: 2010.05.17/outbox.cif.g08.bks.cpg/sg51_17_cif.got.tgz:32372.got - 2010.06.03 11:52:47.
