data_PCOD9401309
_publ_section_title
;
Structure prediction by ZEFSAII (Michael W. Deem and Ramdas Pophale) SiO2 
 PCOD9401309
Probable space group: P M M A
;
_chemical_formula_sum "Si O2"
_cell_formula_units_Z 64
_cell_length_a 28.955339
_cell_length_b 7.755965
_cell_length_c 12.634000
_cell_angle_alpha 90.000000
_cell_angle_beta 90.000000
_cell_angle_gamma 90.000000
_cell_volume 2837.300712
_symmetry_space_group_name_H-M "P M M A"
_symmetry_group_IT_number 51
_symmetry_cell_setting 'orthorhombic'
loop_
_space_group_symop_operation_xyz
x,y,z
1/2-x,-y,z
1/2+x,-y,-z
-x,y,-z
-x,-y,-z
1/2+x,y,-z
1/2-x,y,z
x,-y,z
loop_
_atom_site_type_symbol
_atom_site_label
_atom_site_fract_x
_atom_site_fract_y
_atom_site_fract_z
Si Si1 0.337418 0.790522 0.727028
Si Si2 0.123521 0.288400 0.119781
Si Si3 0.934007 0.799334 0.545735
Si Si4 0.966630 0.301427 0.775207
Si Si5 0.675981 0.199907 0.503526
Si Si6 0.059510 0.797389 0.684289
Si Si7 0.798578 0.300436 0.727852
Si Si8 0.698792 0.704022 0.046333
O O1 0.315938 0.734672 0.614851
O O2 0.391165 0.730757 0.725168
O O3 0.311292 0.729736 0.830316
O O4 0.336888 0.000000 0.727357
O O5 0.120067 0.500000 0.118053
O O6 0.071666 0.226876 0.144439
O O7 0.155661 0.229947 0.218063
O O8 0.154280 0.231319 0.019671
O O9 0.945384 0.709882 0.656232
O O10 0.879157 0.794239 0.523649
O O11 0.953427 0.728711 0.433518
O O12 0.948414 0.000000 0.560298
O O13 0.973790 0.500000 0.802703
O O14 0.017299 0.222517 0.763941
O O15 0.698039 0.293160 0.602177
O O16 0.690296 0.000000 0.508565
O O17 0.066904 0.000000 0.665218
O O18 0.750000 0.219415 0.761521
O O19 0.797388 0.500000 0.760630
O O20 0.750000 0.774777 0.020109
O O21 0.700644 0.500000 0.024181
#
# Coordination Sequence:
#
# PCOD9401309 Si02
#       8
#     8   8   8   8   8   8   8   8
#     4   9  20  39  59  79 108 144 181 225 275 322
#     4   9  19  36  54  77 110 143 177 221 274 326
#     4   9  17  31  50  72 104 147 184 213 253 313
#     4  11  20  30  50  80 111 143 180 222 268 315
#     4   9  18  33  52  75 106 142 175 212 265 323
#     4   9  19  35  53  75 108 149 185 216 262 324
#     4  10  19  32  52  76 105 141 177 217 269 329
#     4  10  21  39  63  84 102 135 184 231 275 326
#
# _framework density 22.556650000000001
#
# number of rings (size 3 to 8) (size 9 to 14) (size 15 to 20)
#    0.000    2.500    1.250    2.625    0.000    5.500 
#    0.000    7.500    0.000    5.250    0.000    0.000 
#    0.000    0.000    0.000    0.000    0.000    0.000 
#
# Total GULP energy -357047.729340 kJ/mol
# GULP energy per Si atom -5578.870771 kJ/mol
# Density = 2.250531 g / cm^3
# Si number density = 22.556650 Si / 1000 Ang^3
#
#
#
# Elastic Constant Matrix: (Units=GPa)
#
#
# Indices 1 2 3 4 5 6 
#
# 1 53.5547 -0.5814 5.5686 0.0000 0.0000 0.0000
# 2 -0.5814 28.6017 -4.0953 0.0000 0.0000 0.0000
# 3 5.5686 -4.0953 89.7869 0.0000 0.0000 0.0000
# 4 0.0000 0.0000 0.0000 19.6822 0.0000 0.0000
# 5 0.0000 0.0000 0.0000 0.0000 46.8366 0.0000
# 6 0.0000 0.0000 0.0000 0.0000 0.0000 24.5306
#
#
#
# Elastic Compliance Matrix: (Units=1/GPa)
#
#
# Indices 1 2 3 4 5 6 
#
# 1 0.018795 0.000217 -0.001156 0.000000 0.000000 0.000000
# 2 0.000217 0.035195 0.001592 0.000000 0.000000 0.000000
# 3 -0.001156 0.001592 0.011282 0.000000 0.000000 0.000000
# 4 0.000000 0.000000 0.000000 0.050807 0.000000 0.000000
# 5 0.000000 0.000000 0.000000 0.000000 0.021351 0.000000
# 6 0.000000 0.000000 0.000000 0.000000 0.000000 0.040765
#
#
# Mechanical properties :
#
#
# Convention : Reuss Voigt Hill
#
# Bulk Modulus (GPa) = 15.02014 19.30303 17.16159
# Shear Modulus (GPa) = 25.11518 29.61331 27.36424
#
# Velocity S-wave (km/s) = 3.34043 3.62725 3.48679
# Velocity P-wave (km/s) = 4.64233 5.11065 4.88211
#
# Compressibility (1/GPa) = 0.06657728
#
# Stress axis : x y z
#
# Youngs Moduli (GPa) = 53.20560 28.41294 88.63859
#
# Poissons Ratio (x) = -0.00615 0.10245
# Poissons Ratio (y) = -0.01152 -0.14110
# Poissons Ratio (z) = 0.06149 -0.04523
#
# Static dielectric constant tensor:
#      x y z
#    x 1.885470 0.000000 0.000000 
#    y 0.000000 1.624100 0.000000 
#    z 0.000000 0.000000 1.831450 
# 
# From -- ./inp_files/19463.got.cif
#   From: 2010.05.17/outbox.cif.g08.bks.cpg/sg51_10_cif.got.tgz:19463.got - 2010.06.03 11:52:47.
