data_PCOD9401464
_publ_section_title
;
Structure prediction by ZEFSAII (Michael W. Deem and Ramdas Pophale) SiO2 
 PCOD9401464
Probable space group: P M M A
;
_chemical_formula_sum "Si O2"
_cell_formula_units_Z 64
_cell_length_a 16.718865
_cell_length_b 23.276347
_cell_length_c 9.202304
_cell_angle_alpha 90.000000
_cell_angle_beta 90.000000
_cell_angle_gamma 90.000000
_cell_volume 3581.114360
_symmetry_space_group_name_H-M "P M M A"
_symmetry_group_IT_number 51
_symmetry_cell_setting 'orthorhombic'
loop_
_space_group_symop_operation_xyz
x,y,z
1/2-x,-y,z
1/2+x,-y,-z
-x,y,-z
-x,-y,-z
1/2+x,y,-z
1/2-x,y,z
x,-y,z
loop_
_atom_site_type_symbol
_atom_site_label
_atom_site_fract_x
_atom_site_fract_y
_atom_site_fract_z
Si Si1 0.557306 0.743429 0.788403
Si Si2 0.657220 0.343977 0.952095
Si Si3 0.914399 0.065069 0.582766
Si Si4 0.343487 0.730431 0.507165
Si Si5 0.500396 0.127278 0.834374
Si Si6 0.462221 0.565421 0.163278
Si Si7 0.658226 0.145802 0.347565
Si Si8 0.417401 0.347515 0.739724
O O1 0.615386 0.715526 0.907430
O O2 0.602040 0.739577 0.633800
O O3 0.532117 0.807575 0.823824
O O4 0.480045 0.702754 0.780668
O O5 0.750000 0.342352 0.921835
O O6 0.613620 0.392975 0.856243
O O7 0.640610 0.354818 0.122260
O O8 0.939067 0.089419 0.738804
O O9 0.858202 0.107708 0.491783
O O10 0.000000 0.064718 0.500000
O O11 0.883617 0.000000 0.586811
O O12 0.250000 0.725541 0.468291
O O13 0.352378 0.787418 0.607276
O O14 0.372549 0.675077 0.597753
O O15 0.411240 0.127993 0.764842
O O16 0.500000 0.108250 0.000000
O O17 0.444133 0.500000 0.202972
O O18 0.527358 0.595787 0.266999
O O19 0.500000 0.565552 0.000000
O O20 0.750000 0.137839 0.298255
#
# Coordination Sequence:
#
# PCOD9401464 Si02
#       8
#     8   8   8   8   8   8   8   8
#     4  11  20  34  51  75 107 150 182 220 280 348
#     4  10  20  33  50  78 112 142 180 228 280 332
#     4   9  19  37  61  84 110 149 194 235 276 336
#     4  11  21  33  52  79 107 138 184 237 288 336
#     4  11  21  36  57  84 118 154 192 238 291 351
#     4   8  16  32  53  77 105 141 184 223 268 334
#     4  10  21  37  57  83 112 149 195 243 289 339
#     4  10  19  32  54  77 105 142 182 227 277 330
#
# _framework density 17.871531000000001
#
# number of rings (size 3 to 8) (size 9 to 14) (size 15 to 20)
#    0.000    2.000    2.500    3.000    0.000    0.750 
#    0.000    1.250    0.000    7.125    0.000    0.000 
#    0.000    0.000    0.000    0.000    0.000    0.000 
#
# Total GULP energy -357063.646563 kJ/mol
# GULP energy per Si atom -5579.119478 kJ/mol
# Density = 1.783086 g / cm^3
# Si number density = 17.871531 Si / 1000 Ang^3
#
#
#
# Elastic Constant Matrix: (Units=GPa)
#
#
# Indices 1 2 3 4 5 6 
#
# 1 90.0686 21.1887 21.4057 0.0000 0.0000 0.0000
# 2 21.1887 71.9814 13.2436 0.0000 0.0000 0.0000
# 3 21.4057 13.2436 78.5336 0.0000 0.0000 0.0000
# 4 0.0000 0.0000 0.0000 35.0166 0.0000 0.0000
# 5 0.0000 0.0000 0.0000 0.0000 22.7992 0.0000
# 6 0.0000 0.0000 0.0000 0.0000 0.0000 12.6920
#
#
#
# Elastic Compliance Matrix: (Units=1/GPa)
#
#
# Indices 1 2 3 4 5 6 
#
# 1 0.012531 -0.003158 -0.002883 0.000000 0.000000 0.000000
# 2 -0.003158 0.015133 -0.001691 0.000000 0.000000 0.000000
# 3 -0.002883 -0.001691 0.013804 0.000000 0.000000 0.000000
# 4 0.000000 0.000000 0.000000 0.028558 0.000000 0.000000
# 5 0.000000 0.000000 0.000000 0.000000 0.043861 0.000000
# 6 0.000000 0.000000 0.000000 0.000000 0.000000 0.078790
#
#
# Mechanical properties :
#
#
# Convention : Reuss Voigt Hill
#
# Bulk Modulus (GPa) = 38.45583 39.13998 38.79790
# Shear Modulus (GPa) = 23.06169 26.41794 24.73981
#
# Velocity S-wave (km/s) = 3.59613 3.84893 3.72467
# Velocity P-wave (km/s) = 6.22957 6.45760 6.34461
#
# Compressibility (1/GPa) = 0.02600386
#
# Stress axis : x y z
#
# Youngs Moduli (GPa) = 79.80356 66.07950 72.44077
#
# Poissons Ratio (x) = 0.20869 0.20884
# Poissons Ratio (y) = 0.25203 0.12251
# Poissons Ratio (z) = 0.23007 0.11175
#
# Static dielectric constant tensor:
#      x y z
#    x 1.599150 0.000000 0.000000 
#    y 0.000000 1.606150 0.000000 
#    z 0.000000 0.000000 1.624890 
# 
# From -- ./inp_files/8669.got.cif
#   From: 2010.05.17/outbox.cif.g08.bks.cpg/sg51_5_cif.got.tgz:8669.got - 2010.06.03 11:52:47.
