data_PCOD9401860
_publ_section_title
;
Structure prediction by ZEFSAII (Michael W. Deem and Ramdas Pophale) SiO2 
 PCOD9401860
Probable space group: P M M A
;
_chemical_formula_sum "Si O2"
_cell_formula_units_Z 48
_cell_length_a 15.309983
_cell_length_b 14.690567
_cell_length_c 10.328795
_cell_angle_alpha 90.000000
_cell_angle_beta 90.000000
_cell_angle_gamma 90.000000
_cell_volume 2323.073360
_symmetry_space_group_name_H-M "P M M A"
_symmetry_group_IT_number 51
_symmetry_cell_setting 'orthorhombic'
loop_
_space_group_symop_operation_xyz
x,y,z
1/2-x,-y,z
1/2+x,-y,-z
-x,y,-z
-x,-y,-z
1/2+x,y,-z
1/2-x,y,z
x,-y,z
loop_
_atom_site_type_symbol
_atom_site_label
_atom_site_fract_x
_atom_site_fract_y
_atom_site_fract_z
Si Si1 0.144518 0.892841 0.672366
Si Si2 0.143417 0.600829 0.514654
Si Si3 0.356790 0.211326 0.409055
Si Si4 0.350780 0.101620 0.164803
Si Si5 0.408701 0.208921 0.927911
Si Si6 0.644591 0.602000 0.183103
O O1 0.250000 0.881455 0.687669
O O2 0.120573 0.846713 0.536176
O O3 0.125542 0.000000 0.671277
O O4 0.099931 0.842478 0.791972
O O5 0.250000 0.600343 0.510819
O O6 0.113912 0.500000 0.474216
O O7 0.112146 0.685261 0.429507
O O8 0.120220 0.615400 0.665601
O O9 0.250000 0.215731 0.404754
O O10 0.390174 0.162195 0.280144
O O11 0.250000 0.089865 0.203444
O O12 0.349493 0.155504 0.030718
O O13 0.389781 0.000000 0.152186
O O14 0.500000 0.201505 0.000000
O O15 0.387345 0.314170 0.901921
O O16 0.750000 0.603499 0.179330
O O17 0.616163 0.500000 0.144023
#
# Coordination Sequence:
#
# PCOD9401860 Si02
#       6
#     8   8   8   8   8   8
#     4  10  19  33  56  80 100 132 187 241 275 318
#     4   8  13  24  49  83 109 128 160 216 275 321
#     4   9  16  30  54  82 107 132 173 229 283 328
#     4  10  21  37  56  79 110 145 180 227 284 327
#     4  12  24  36  52  77 112 153 184 220 266 324
#     4   9  17  33  59  85 106 134 179 230 273 314
#
# _framework density 20.662284
#
# number of rings (size 3 to 8) (size 9 to 14) (size 15 to 20)
#    0.000    2.333    1.667    3.500    0.000    5.000 
#    0.000    1.667    0.000    5.000    0.000    2.333 
#    0.000    0.000    0.000    0.000    0.000    0.000 
#
# Total GULP energy -267905.801258 kJ/mol
# GULP energy per Si atom -5581.370860 kJ/mol
# Density = 2.061526 g / cm^3
# Si number density = 20.662284 Si / 1000 Ang^3
#
#
#
# Elastic Constant Matrix: (Units=GPa)
#
#
# Indices 1 2 3 4 5 6 
#
# 1 24.9242 12.5818 -1.7751 0.0000 0.0000 0.0000
# 2 12.5818 170.7877 51.6432 0.0000 0.0000 0.0000
# 3 -1.7751 51.6432 85.9812 0.0000 0.0000 0.0000
# 4 0.0000 0.0000 0.0000 29.1371 0.0000 0.0000
# 5 0.0000 0.0000 0.0000 0.0000 16.4317 0.0000
# 6 0.0000 0.0000 0.0000 0.0000 0.0000 -3.0477
#
#
#
# Elastic Compliance Matrix: (Units=1/GPa)
#
#
# Indices 1 2 3 4 5 6 
#
# 1 0.042454 -0.004146 0.003366 0.000000 0.000000 0.000000
# 2 -0.004146 0.007559 -0.004626 0.000000 0.000000 0.000000
# 3 0.003366 -0.004626 0.014479 0.000000 0.000000 0.000000
# 4 0.000000 0.000000 0.000000 0.034320 0.000000 0.000000
# 5 0.000000 0.000000 0.000000 0.000000 0.060858 0.000000
# 6 0.000000 0.000000 0.000000 0.000000 0.000000 -0.328113
#
#
# Mechanical properties :
#
#
# Convention : Reuss Voigt Hill
#
# Bulk Modulus (GPa) = 18.62829 45.17699 31.90264
# Shear Modulus (GPa) = -35.78121 23.12042 -6.33039
#
# Velocity S-wave (km/s) = -4.16590 3.34873 -1.75225
# Velocity P-wave (km/s) = 3.75560 6.07156 3.37338
#
# Compressibility (1/GPa) = 0.05368180
#
# Stress axis : x y z
#
# Youngs Moduli (GPa) = 23.55482 132.28471 69.06788
#
# Poissons Ratio (x) = 0.54839 -0.23251
# Poissons Ratio (y) = 0.09765 0.31951
# Poissons Ratio (z) = -0.07929 0.61195
#
# Static dielectric constant tensor:
#      x y z
#    x 1.869740 0.000000 0.000000 
#    y 0.000000 1.758650 0.000000 
#    z 0.000000 0.000000 1.696050 
# 
# From -- ./inp_files/9613.got.cif
#   From: 2010.05.17/outbox.cif.g08.bks.cpg/sg51_5_cif.got.tgz:9613.got - 2010.06.03 11:52:47.
