data_PCOD9401978
_publ_section_title
;
Structure prediction by ZEFSAII (Michael W. Deem and Ramdas Pophale) SiO2 
 PCOD9401978
Probable space group: P M M A
;
_chemical_formula_sum "Si O2"
_cell_formula_units_Z 56
_cell_length_a 14.667065
_cell_length_b 19.034185
_cell_length_c 10.085024
_cell_angle_alpha 90.000000
_cell_angle_beta 90.000000
_cell_angle_gamma 90.000000
_cell_volume 2815.492915
_symmetry_space_group_name_H-M "P M M A"
_symmetry_group_IT_number 51
_symmetry_cell_setting 'orthorhombic'
loop_
_space_group_symop_operation_xyz
x,y,z
1/2-x,-y,z
1/2+x,-y,-z
-x,y,-z
-x,-y,-z
1/2+x,y,-z
1/2-x,y,z
x,-y,z
loop_
_atom_site_type_symbol
_atom_site_label
_atom_site_fract_x
_atom_site_fract_y
_atom_site_fract_z
Si Si1 0.357999 0.794837 0.398873
Si Si2 0.361943 0.577405 0.609158
Si Si3 0.855553 0.686480 0.179065
Si Si4 0.482883 0.077979 0.341633
Si Si5 0.395888 0.421471 0.043814
Si Si6 0.360566 0.361701 0.329997
Si Si7 0.142416 0.171846 0.711368
O O1 0.250000 0.800365 0.375015
O O2 0.409714 0.859526 0.330817
O O3 0.390757 0.719138 0.347083
O O4 0.369897 0.799632 0.559303
O O5 0.250000 0.577749 0.613949
O O6 0.391846 0.500000 0.650262
O O7 0.397470 0.636043 0.709342
O O8 0.388804 0.595475 0.460081
O O9 0.750000 0.695729 0.218067
O O10 0.890034 0.765813 0.190268
O O11 0.857012 0.642133 0.044652
O O12 0.500000 0.073488 0.500000
O O13 0.576892 0.105125 0.277921
O O14 0.455782 0.000000 0.296217
O O15 0.356183 0.500000 0.021678
O O16 0.388561 0.399474 0.195875
O O17 0.500000 0.425047 0.000000
O O18 0.250000 0.359998 0.330970
O O19 0.250000 0.155550 0.728472
#
# Coordination Sequence:
#
# PCOD9401978 Si02
#       7
#     8   8   8   8   8   8   8
#     4   9  17  31  52  79 109 141 180 225 268 321
#     4   9  16  28  51  79 101 126 172 227 274 324
#     4  10  19  34  55  77 101 138 182 224 275 326
#     4   9  18  30  48  79 114 147 177 209 265 331
#     4  11  25  39  49  71 109 146 183 230 278 324
#     4  10  19  34  55  77 101 138 182 224 275 326
#     4   9  17  31  52  79 109 141 180 225 268 321
#
# _framework density 19.889945999999998
#
# number of rings (size 3 to 8) (size 9 to 14) (size 15 to 20)
#    0.000    2.429    1.429    1.286    2.000    2.857 
#    0.000    3.571    0.000    2.571    0.000    2.000 
#    0.000    4.571    0.000    0.000    0.000    0.000 
#
# Total GULP energy -312449.190511 kJ/mol
# GULP energy per Si atom -5579.449831 kJ/mol
# Density = 1.984468 g / cm^3
# Si number density = 19.889946 Si / 1000 Ang^3
#
#
#
# Elastic Constant Matrix: (Units=GPa)
#
#
# Indices 1 2 3 4 5 6 
#
# 1 43.7718 18.8341 -9.1812 0.0000 0.0000 0.0000
# 2 18.8341 92.5965 -14.9154 0.0000 0.0000 0.0000
# 3 -9.1812 -14.9154 38.0727 0.0000 0.0000 0.0000
# 4 0.0000 0.0000 0.0000 3.5165 0.0000 0.0000
# 5 0.0000 0.0000 0.0000 0.0000 17.6269 0.0000
# 6 0.0000 0.0000 0.0000 0.0000 0.0000 -9.1722
#
#
#
# Elastic Compliance Matrix: (Units=1/GPa)
#
#
# Indices 1 2 3 4 5 6 
#
# 1 0.025719 -0.004517 0.004432 0.000000 0.000000 0.000000
# 2 -0.004517 0.012320 0.003737 0.000000 0.000000 0.000000
# 3 0.004432 0.003737 0.028799 0.000000 0.000000 0.000000
# 4 0.000000 0.000000 0.000000 0.284373 0.000000 0.000000
# 5 0.000000 0.000000 0.000000 0.000000 0.056731 0.000000
# 6 0.000000 0.000000 0.000000 0.000000 0.000000 -0.109026
#
#
# Mechanical properties :
#
#
# Convention : Reuss Voigt Hill
#
# Bulk Modulus (GPa) = 13.48747 18.21290 15.85018
# Shear Modulus (GPa) = 15.80644 14.37449 15.09047
#
# Velocity S-wave (km/s) = 2.82209 2.69123 2.75744
# Velocity P-wave (km/s) = 4.17309 4.33978 4.25725
#
# Compressibility (1/GPa) = 0.07414291
#
# Stress axis : x y z
#
# Youngs Moduli (GPa) = 38.88152 81.16648 34.72400
#
# Poissons Ratio (x) = 0.36665 -0.15391
# Poissons Ratio (y) = 0.17564 -0.12977
# Poissons Ratio (z) = -0.17234 -0.30334
#
# Static dielectric constant tensor:
#      x y z
#    x 1.782860 0.000000 0.000000 
#    y 0.000000 1.711490 0.000000 
#    z 0.000000 0.000000 1.678640 
# 
# From -- ./inp_files/8583.got.cif
#   From: 2010.05.17/outbox.cif.g08.bks.cpg/sg51_5_cif.got.tgz:8583.got - 2010.06.03 11:52:47.
