data_PCOD9401216
_publ_section_title
;
Structure prediction by ZEFSAII (Michael W. Deem and Ramdas Pophale) SiO2 
 PCOD9401216
Probable space group: P M M A
;
_chemical_formula_sum "Si O2"
_cell_formula_units_Z 56
_cell_length_a 8.833773
_cell_length_b 14.755981
_cell_length_c 26.289906
_cell_angle_alpha 90.000000
_cell_angle_beta 90.000000
_cell_angle_gamma 90.000000
_cell_volume 3426.915183
_symmetry_space_group_name_H-M "P M M A"
_symmetry_group_IT_number 51
_symmetry_cell_setting 'orthorhombic'
loop_
_space_group_symop_operation_xyz
x,y,z
1/2-x,-y,z
1/2+x,-y,-z
-x,y,-z
-x,-y,-z
1/2+x,y,-z
1/2-x,y,z
x,-y,z
loop_
_atom_site_type_symbol
_atom_site_label
_atom_site_fract_x
_atom_site_fract_y
_atom_site_fract_z
Si Si1 0.569024 0.894013 0.945216
Si Si2 0.431437 0.790221 0.850193
Si Si3 0.067683 0.398718 0.806274
Si Si4 0.068215 0.106766 0.246395
Si Si5 0.930943 0.105620 0.445548
Si Si6 0.432443 0.601388 0.306160
Si Si7 0.932387 0.789589 0.649134
O O1 0.750000 0.886519 0.947014
O O2 0.503647 0.833682 0.900093
O O3 0.530673 0.000000 0.935358
O O4 0.500000 0.869865 0.000000
O O5 0.250000 0.795147 0.853599
O O6 0.477288 0.685422 0.841345
O O7 0.486759 0.845326 0.800679
O O8 0.250000 0.396713 0.801886
O O9 0.023426 0.500000 0.823740
O O10 0.999119 0.385205 0.750170
O O11 0.250000 0.116378 0.239626
O O12 0.028040 0.154835 0.299601
O O13 0.033052 0.000000 0.248203
O O14 0.750000 0.111012 0.447965
O O15 0.000000 0.132179 0.500000
O O16 0.992944 0.165767 0.399767
O O17 0.973603 0.000000 0.436491
O O18 0.250000 0.604260 0.302131
O O19 0.476130 0.500000 0.323478
O O20 0.478318 0.685296 0.341299
O O21 0.750000 0.793633 0.643748
#
# Coordination Sequence:
#
# PCOD9401216 Si02
#       7
#     8   8   8   8   8   8   8
#     4  10  21  37  56  76 100 132 170 210 251 298
#     4  11  21  32  50  75 103 134 169 209 251 297
#     4   9  18  32  49  71 101 135 169 207 251 297
#     4  10  20  32  46  69 103 139 169 200 246 301
#     4  10  21  36  54  75  99 130 170 212 252 298
#     4   9  17  30  50  75 101 131 168 208 249 296
#     4  10  19  32  51  74 103 135 167 206 252 301
#
# _framework density 16.341227
#
# number of rings (size 3 to 8) (size 9 to 14) (size 15 to 20)
#    0.000    2.143    1.429    2.143    0.000    6.000 
#    0.000    0.000    0.000    0.857    0.000    0.000 
#    0.000    0.000    0.000    0.000    0.000    0.000 
#
# Total GULP energy -312474.023158 kJ/mol
# GULP energy per Si atom -5579.893271 kJ/mol
# Density = 1.630403 g / cm^3
# Si number density = 16.341227 Si / 1000 Ang^3
#
#
#
# Elastic Constant Matrix: (Units=GPa)
#
#
# Indices 1 2 3 4 5 6 
#
# 1 27.3360 45.7615 45.8720 0.0000 0.0000 0.0000
# 2 45.7615 144.3434 100.3129 0.0000 0.0000 0.0000
# 3 45.8720 100.3129 142.5299 0.0000 0.0000 0.0000
# 4 0.0000 0.0000 0.0000 20.1829 0.0000 0.0000
# 5 0.0000 0.0000 0.0000 0.0000 32.4857 0.0000
# 6 0.0000 0.0000 0.0000 0.0000 0.0000 21.3174
#
#
#
# Elastic Compliance Matrix: (Units=1/GPa)
#
#
# Indices 1 2 3 4 5 6 
#
# 1 0.098916 -0.018077 -0.019113 0.000000 0.000000 0.000000
# 2 -0.018077 0.016864 -0.006051 0.000000 0.000000 0.000000
# 3 -0.019113 -0.006051 0.017426 0.000000 0.000000 0.000000
# 4 0.000000 0.000000 0.000000 0.049547 0.000000 0.000000
# 5 0.000000 0.000000 0.000000 0.000000 0.030783 0.000000
# 6 0.000000 0.000000 0.000000 0.000000 0.000000 0.046910
#
#
# Mechanical properties :
#
#
# Convention : Reuss Voigt Hill
#
# Bulk Modulus (GPa) = 21.40197 77.56690 49.48443
# Shear Modulus (GPa) = 13.79302 22.94805 18.37053
#
# Velocity S-wave (km/s) = 2.90843 3.75147 3.35652
# Velocity P-wave (km/s) = 4.94003 8.14461 6.73568
#
# Compressibility (1/GPa) = 0.04672468
#
# Stress axis : x y z
#
# Youngs Moduli (GPa) = 10.10960 59.29716 57.38516
#
# Poissons Ratio (x) = 1.07191 1.09678
# Poissons Ratio (y) = 0.18275 0.34725
# Poissons Ratio (z) = 0.19322 0.35882
#
# Static dielectric constant tensor:
#      x y z
#    x 1.548860 0.000000 0.000000 
#    y 0.000000 1.570020 0.000000 
#    z 0.000000 0.000000 1.502050 
# 
# From -- ./inp_files/31985.got.cif
#   From: 2010.05.17/outbox.cif.g08.bks.cpg/sg51_16_cif.got.tgz:31985.got - 2010.06.03 11:52:47.
