data_PCOD9401745
_publ_section_title
;
Structure prediction by ZEFSAII (Michael W. Deem and Ramdas Pophale) SiO2 
 PCOD9401745
Probable space group: P M M A
;
_chemical_formula_sum "Si O2"
_cell_formula_units_Z 56
_cell_length_a 20.094431
_cell_length_b 7.406320
_cell_length_c 16.869261
_cell_angle_alpha 90.000000
_cell_angle_beta 90.000000
_cell_angle_gamma 90.000000
_cell_volume 2510.581031
_symmetry_space_group_name_H-M "P M M A"
_symmetry_group_IT_number 51
_symmetry_cell_setting 'orthorhombic'
loop_
_space_group_symop_operation_xyz
x,y,z
1/2-x,-y,z
1/2+x,-y,-z
-x,y,-z
-x,-y,-z
1/2+x,y,-z
1/2-x,y,z
x,-y,z
loop_
_atom_site_type_symbol
_atom_site_label
_atom_site_fract_x
_atom_site_fract_y
_atom_site_fract_z
Si Si1 0.995389 0.782043 0.590073
Si Si2 0.750000 0.717958 0.563864
Si Si3 0.750000 0.214609 0.375408
Si Si4 0.592540 0.279470 0.850918
Si Si5 0.826655 0.280057 0.006803
Si Si6 0.058961 0.292999 0.874641
Si Si7 0.363725 0.704487 0.319820
Si Si8 0.115168 0.218355 0.703226
O O1 0.061336 0.735520 0.637133
O O2 0.000000 0.722763 0.500000
O O3 0.933609 0.701784 0.635883
O O4 0.987700 0.000000 0.591066
O O5 0.750000 0.500000 0.562797
O O6 0.750000 0.764151 0.470737
O O7 0.687318 0.783426 0.615967
O O8 0.814891 0.284490 0.330405
O O9 0.750000 0.000000 0.363358
O O10 0.588453 0.500000 0.845906
O O11 0.643606 0.233978 0.920732
O O12 0.516524 0.217186 0.869383
O O13 0.620924 0.214102 0.766407
O O14 0.750000 0.219290 0.019086
O O15 0.824569 0.500000 0.012257
O O16 0.883424 0.215407 0.068505
O O17 0.049820 0.500000 0.901932
O O18 0.090073 0.289666 0.787041
O O19 0.339682 0.500000 0.304248
O O20 0.117004 0.000000 0.710714
#
# Coordination Sequence:
#
# PCOD9401745 Si02
#       8
#     8   4   4   8   8   8   8   8
#     4  10  20  35  55  78 104 137 179 224 262 310
#     4  10  22  36  52  79 112 140 178 227 272 318
#     4  10  22  40  58  75 102 146 190 219 266 328
#     4   9  17  31  51  75 108 143 172 209 261 317
#     4   9  18  30  50  81 110 138 175 218 259 309
#     4  10  19  33  54  81 109 138 175 217 265 317
#     4  10  20  34  53  80 109 141 177 218 271 319
#     4  10  21  36  55  79 106 139 180 222 267 320
#
# _framework density 22.305593999999999
#
# number of rings (size 3 to 8) (size 9 to 14) (size 15 to 20)
#    0.000    2.286    1.429    1.286    2.000    4.286 
#    0.000    0.000    0.000    2.571    0.000    0.000 
#    0.000    0.000    0.000    0.000    0.000    0.000 
#
# Total GULP energy -312665.973577 kJ/mol
# GULP energy per Si atom -5583.320957 kJ/mol
# Density = 2.225483 g / cm^3
# Si number density = 22.305594 Si / 1000 Ang^3
#
#
#
# Elastic Constant Matrix: (Units=GPa)
#
#
# Indices 1 2 3 4 5 6 
#
# 1 88.6762 3.4691 -22.2325 0.0000 0.0000 0.0000
# 2 3.4691 67.3733 -5.5501 0.0000 0.0000 0.0000
# 3 -22.2325 -5.5501 67.2757 0.0000 0.0000 0.0000
# 4 0.0000 0.0000 0.0000 -537.5420 0.0000 0.0000
# 5 0.0000 0.0000 0.0000 0.0000 43.8138 0.0000
# 6 0.0000 0.0000 0.0000 0.0000 0.0000 54.1116
#
#
#
# Elastic Compliance Matrix: (Units=1/GPa)
#
#
# Indices 1 2 3 4 5 6 
#
# 1 0.012302 -0.000301 0.004041 0.000000 0.000000 0.000000
# 2 -0.000301 0.014952 0.001134 0.000000 0.000000 0.000000
# 3 0.004041 0.001134 0.016293 0.000000 0.000000 0.000000
# 4 0.000000 0.000000 0.000000 -0.001860 0.000000 0.000000
# 5 0.000000 0.000000 0.000000 0.000000 0.022824 0.000000
# 6 0.000000 0.000000 0.000000 0.000000 0.000000 0.018480
#
#
# Mechanical properties :
#
#
# Convention : Reuss Voigt Hill
#
# Bulk Modulus (GPa) = 18.76362 19.41092 19.08727
# Shear Modulus (GPa) = 54.94087 -71.41408 -8.23660
#
# Velocity S-wave (km/s) = 4.96835 -5.66443 -1.92370
# Velocity P-wave (km/s) = 6.42985 5.83608 1.90829
#
# Compressibility (1/GPa) = 0.05329462
#
# Stress axis : x y z
#
# Youngs Moduli (GPa) = 81.28910 66.88258 61.37585
#
# Poissons Ratio (x) = 0.02010 -0.24799
# Poissons Ratio (y) = 0.02443 -0.06961
# Poissons Ratio (z) = -0.32845 -0.07585
#
# Static dielectric constant tensor:
#      x y z
#    x 1.725680 0.000000 0.000000 
#    y 0.000000 1.923710 0.000000 
#    z 0.000000 0.000000 1.773770 
# 
# From -- ./inp_files/25864.got.cif
#   From: 2010.05.17/outbox.cif.g08.bks.cpg/sg51_13_cif.got.tgz:25864.got - 2010.06.03 11:52:47.
