data_PCOD9401561
_publ_section_title
;
Structure prediction by ZEFSAII (Michael W. Deem and Ramdas Pophale) SiO2 
 PCOD9401561
Probable space group: P M M A
;
_chemical_formula_sum "Si O2"
_cell_formula_units_Z 52
_cell_length_a 7.794594
_cell_length_b 24.416387
_cell_length_c 14.688928
_cell_angle_alpha 90.000000
_cell_angle_beta 90.000000
_cell_angle_gamma 90.000000
_cell_volume 2795.535430
_symmetry_space_group_name_H-M "P M M A"
_symmetry_group_IT_number 51
_symmetry_cell_setting 'orthorhombic'
loop_
_space_group_symop_operation_xyz
x,y,z
1/2-x,-y,z
1/2+x,-y,-z
-x,y,-z
-x,-y,-z
1/2+x,y,-z
1/2-x,y,z
x,-y,z
loop_
_atom_site_type_symbol
_atom_site_label
_atom_site_fract_x
_atom_site_fract_y
_atom_site_fract_z
Si Si1 0.047520 0.559173 0.795124
Si Si2 0.043712 0.724802 0.399528
Si Si3 0.544586 0.331909 0.106018
Si Si4 0.042545 0.119547 0.106839
Si Si5 0.043977 0.000000 0.107052
Si Si6 0.545138 0.401463 0.600872
Si Si7 0.953175 0.223905 0.783963
O O1 0.250000 0.558140 0.816108
O O2 0.973794 0.500000 0.822349
O O3 0.976468 0.613188 0.844459
O O4 0.027490 0.566652 0.686863
O O5 0.250000 0.722227 0.392337
O O6 0.981188 0.661745 0.392857
O O7 0.976332 0.760290 0.315439
O O8 0.000000 0.745526 0.500000
O O9 0.750000 0.330169 0.116418
O O10 0.474414 0.277452 0.153566
O O11 0.500000 0.333010 0.000000
O O12 0.250000 0.119331 0.111976
O O13 0.980642 0.059439 0.139807
O O14 0.975450 0.170375 0.165702
O O15 0.000000 0.126472 0.000000
O O16 0.250000 0.000000 0.117667
O O17 0.000000 0.000000 0.000000
O O18 0.500000 0.422074 0.500000
O O19 0.750000 0.401616 0.609403
O O20 0.750000 0.214183 0.772623
#
# Coordination Sequence:
#
# PCOD9401561 Si02
#       7
#     8   8   8   8   4   8   8
#     4  10  22  39  55  72  95 124 161 201 241 289
#     4   9  18  31  49  72  98 124 154 192 237 286
#     4  11  23  37  54  73  96 126 159 199 243 287
#     4   9  17  28  45  68  99 132 165 199 235 277
#     4   8  14  26  42  64  93 130 166 198 233 274
#     4  10  19  33  54  77 100 126 155 193 241 293
#     4  10  19  33  51  74 101 128 159 200 242 285
#
# _framework density 18.601087
#
# number of rings (size 3 to 8) (size 9 to 14) (size 15 to 20)
#    0.000    2.308    1.538    1.385    0.000    4.615 
#    0.000    0.000    0.000    0.000    0.000    0.538 
#    0.000    0.000    0.000    0.000    0.000    0.000 
#
# Total GULP energy -290061.591729 kJ/mol
# GULP energy per Si atom -5578.107533 kJ/mol
# Density = 1.855875 g / cm^3
# Si number density = 18.601087 Si / 1000 Ang^3
#
#
#
# Elastic Constant Matrix: (Units=GPa)
#
#
# Indices 1 2 3 4 5 6 
#
# 1 23.5609 -3.1017 -13.9536 0.0000 0.0000 0.0000
# 2 -3.1017 155.8870 63.5605 0.0000 0.0000 0.0000
# 3 -13.9536 63.5605 99.2911 0.0000 0.0000 0.0000
# 4 0.0000 0.0000 0.0000 33.0472 0.0000 0.0000
# 5 0.0000 0.0000 0.0000 0.0000 20.4330 0.0000
# 6 0.0000 0.0000 0.0000 0.0000 0.0000 12.2039
#
#
#
# Elastic Compliance Matrix: (Units=1/GPa)
#
#
# Indices 1 2 3 4 5 6 
#
# 1 0.046938 -0.002376 0.008117 0.000000 0.000000 0.000000
# 2 -0.002376 0.008801 -0.005968 0.000000 0.000000 0.000000
# 3 0.008117 -0.005968 0.015032 0.000000 0.000000 0.000000
# 4 0.000000 0.000000 0.000000 0.030260 0.000000 0.000000
# 5 0.000000 0.000000 0.000000 0.000000 0.048940 0.000000
# 6 0.000000 0.000000 0.000000 0.000000 0.000000 0.081941
#
#
# Mechanical properties :
#
#
# Convention : Reuss Voigt Hill
#
# Bulk Modulus (GPa) = 14.22110 41.30549 27.76329
# Shear Modulus (GPa) = 19.54624 28.61908 24.08266
#
# Velocity S-wave (km/s) = 3.24514 3.92672 3.60209
# Velocity P-wave (km/s) = 4.65866 6.54316 5.67962
#
# Compressibility (1/GPa) = 0.07031807
#
# Stress axis : x y z
#
# Youngs Moduli (GPa) = 21.30489 113.62529 66.52360
#
# Poissons Ratio (x) = 0.26994 -0.53997
# Poissons Ratio (y) = 0.05061 0.39699
# Poissons Ratio (z) = -0.17293 0.67808
#
# Static dielectric constant tensor:
#      x y z
#    x 1.684440 0.000000 0.000000 
#    y 0.000000 1.685700 0.000000 
#    z 0.000000 0.000000 1.624160 
# 
# From -- ./inp_files/21575.got.cif
#   From: 2010.05.17/outbox.cif.g08.bks.cpg/sg51_11_cif.got.tgz:21575.got - 2010.06.03 11:52:47.
