data_PCOD9401047
_publ_section_title
;
Structure prediction by ZEFSAII (Michael W. Deem and Ramdas Pophale) SiO2 
 PCOD9401047
Probable space group: P M M A
;
_chemical_formula_sum "Si O2"
_cell_formula_units_Z 48
_cell_length_a 17.404757
_cell_length_b 13.499365
_cell_length_c 9.685668
_cell_angle_alpha 90.000000
_cell_angle_beta 90.000000
_cell_angle_gamma 90.000000
_cell_volume 2275.678376
_symmetry_space_group_name_H-M "P M M A"
_symmetry_group_IT_number 51
_symmetry_cell_setting 'orthorhombic'
loop_
_space_group_symop_operation_xyz
x,y,z
1/2-x,-y,z
1/2+x,-y,-z
-x,y,-z
-x,-y,-z
1/2+x,y,-z
1/2-x,y,z
x,-y,z
loop_
_atom_site_type_symbol
_atom_site_label
_atom_site_fract_x
_atom_site_fract_y
_atom_site_fract_z
Si Si1 0.834448 0.821761 0.169023
Si Si2 0.925056 0.177408 0.916374
Si Si3 0.944788 0.387210 0.815619
Si Si4 0.985877 0.118198 0.343455
Si Si5 0.125741 0.386779 0.752458
Si Si6 0.665283 0.618612 0.562716
O O1 0.750000 0.857281 0.212214
O O2 0.905779 0.847545 0.271109
O O3 0.834301 0.701964 0.167703
O O4 0.855533 0.856465 0.013394
O O5 0.925951 0.297294 0.915975
O O6 0.943963 0.145801 0.760218
O O7 0.000000 0.142523 0.000000
O O8 0.925751 0.500000 0.862096
O O9 0.897343 0.361239 0.678209
O O10 0.034909 0.385363 0.782258
O O11 0.000000 0.156289 0.500000
O O12 0.981958 0.000000 0.350340
O O13 0.152771 0.500000 0.776388
O O14 0.139171 0.360315 0.591912
O O15 0.750000 0.661989 0.590548
O O16 0.672309 0.500000 0.567140
#
# Coordination Sequence:
#
# PCOD9401047 Si02
#       6
#     8   8   8   8   8   8
#     4  11  24  40  61  95 130 166 207 250 309 369
#     4  10  21  39  59  88 123 162 199 244 296 371
#     4  10  19  31  54  82 115 161 211 254 293 352
#     4  10  23  45  72  96 119 154 202 257 318 379
#     4  10  19  33  53  81 122 168 212 252 293 351
#     4   9  18  30  45  74 114 156 204 255 307 352
#
# _framework density 21.092611000000002
#
# number of rings (size 3 to 8) (size 9 to 14) (size 15 to 20)
#    0.000    2.000    3.333    1.000    2.333    8.000 
#    0.000    0.833    0.000    1.000    0.000    0.000 
#    0.000    0.000    0.000    0.000    0.000    0.000 
#
# Total GULP energy -267617.499066 kJ/mol
# GULP energy per Si atom -5575.364564 kJ/mol
# Density = 2.104460 g / cm^3
# Si number density = 21.092611 Si / 1000 Ang^3
#
#
#
# Elastic Constant Matrix: (Units=GPa)
#
#
# Indices 1 2 3 4 5 6 
#
# 1 88.9644 19.4945 47.5673 0.0000 0.0000 0.0000
# 2 19.4945 57.0439 11.1065 0.0000 0.0000 0.0000
# 3 47.5673 11.1065 125.1289 0.0000 0.0000 0.0000
# 4 0.0000 0.0000 0.0000 6.7799 0.0000 0.0000
# 5 0.0000 0.0000 0.0000 0.0000 -5.7591 0.0000
# 6 0.0000 0.0000 0.0000 0.0000 0.0000 5.3175
#
#
#
# Elastic Compliance Matrix: (Units=1/GPa)
#
#
# Indices 1 2 3 4 5 6 
#
# 1 0.014988 -0.004083 -0.005335 0.000000 0.000000 0.000000
# 2 -0.004083 0.018951 -0.000130 0.000000 0.000000 0.000000
# 3 -0.005335 -0.000130 0.010031 0.000000 0.000000 0.000000
# 4 0.000000 0.000000 0.000000 0.147496 0.000000 0.000000
# 5 0.000000 0.000000 0.000000 0.000000 -0.173639 0.000000
# 6 0.000000 0.000000 0.000000 0.000000 0.000000 0.188057
#
#
# Mechanical properties :
#
#
# Convention : Reuss Voigt Hill
#
# Bulk Modulus (GPa) = 40.20299 47.49709 43.85004
# Shear Modulus (GPa) = 21.43427 14.13226 17.78327
#
# Velocity S-wave (km/s) = 3.19124 2.59126 2.90678
# Velocity P-wave (km/s) = 5.71667 5.61428 5.66570
#
# Compressibility (1/GPa) = 0.02487377
#
# Stress axis : x y z
#
# Youngs Moduli (GPa) = 66.72104 52.76748 99.68686
#
# Poissons Ratio (x) = 0.21546 0.53184
# Poissons Ratio (y) = 0.27244 0.01295
# Poissons Ratio (z) = 0.35596 0.00685
#
# Static dielectric constant tensor:
#      x y z
#    x 1.806840 0.000000 0.000000 
#    y 0.000000 1.795570 0.000000 
#    z 0.000000 0.000000 1.796420 
# 
# From -- ./inp_files/9647.got.cif
#   From: 2010.05.17/outbox.cif.g08.bks.cpg/sg51_5_cif.got.tgz:9647.got - 2010.06.03 11:52:47.
