data_PCOD9401039
_publ_section_title
;
Structure prediction by ZEFSAII (Michael W. Deem and Ramdas Pophale) SiO2 
 PCOD9401039
Probable space group: P M M A
;
_chemical_formula_sum "Si O2"
_cell_formula_units_Z 64
_cell_length_a 21.863966
_cell_length_b 7.640352
_cell_length_c 17.870090
_cell_angle_alpha 90.000000
_cell_angle_beta 90.000000
_cell_angle_gamma 90.000000
_cell_volume 2985.169877
_symmetry_space_group_name_H-M "P M M A"
_symmetry_group_IT_number 51
_symmetry_cell_setting 'orthorhombic'
loop_
_space_group_symop_operation_xyz
x,y,z
1/2-x,-y,z
1/2+x,-y,-z
-x,y,-z
-x,-y,-z
1/2+x,y,-z
1/2-x,y,z
x,-y,z
loop_
_atom_site_type_symbol
_atom_site_label
_atom_site_fract_x
_atom_site_fract_y
_atom_site_fract_z
Si Si1 0.530442 0.698367 0.187281
Si Si2 0.612062 0.788990 0.781877
Si Si3 0.819560 0.206151 0.462482
Si Si4 0.679252 0.786333 0.935875
Si Si5 0.349710 0.198388 0.376927
Si Si6 0.900283 0.803403 0.329819
Si Si7 0.016623 0.296300 0.413310
Si Si8 0.063679 0.800516 0.971981
O O1 0.527205 0.500000 0.161714
O O2 0.460656 0.744868 0.212617
O O3 0.580652 0.714340 0.252779
O O4 0.555196 0.804573 0.116757
O O5 0.648574 0.735454 0.856336
O O6 0.646698 0.723163 0.706615
O O7 0.614074 0.000000 0.777367
O O8 0.750000 0.210044 0.438582
O O9 0.822733 0.281101 0.546926
O O10 0.858620 0.283004 0.394303
O O11 0.838928 0.000000 0.469665
O O12 0.750000 0.726042 0.944286
O O13 0.682476 0.000000 0.937278
O O14 0.628404 0.729161 0.997604
O O15 0.420539 0.201095 0.399078
O O16 0.324785 0.000000 0.370819
O O17 0.965118 0.806484 0.370552
O O18 0.877247 0.000000 0.314445
O O19 0.019895 0.500000 0.387486
O O20 0.000000 0.299232 0.500000
O O21 0.062930 0.000000 0.002423
O O22 0.000000 0.716087 0.000000
#
# Coordination Sequence:
#
# PCOD9401039 Si02
#       8
#     8   8   8   8   8   8   8   8
#     4  12  24  36  55  86 119 148 186 239 293 345
#     4  10  19  33  55  86 120 153 185 225 279 340
#     4   9  19  35  54  79 109 145 194 244 284 330
#     4   9  18  34  58  88 119 150 188 231 278 336
#     4  10  19  31  53  81 111 147 185 226 274 332
#     4  11  21  35  57  80 108 146 189 238 289 334
#     4  11  21  31  48  77 111 142 177 227 280 330
#     4  10  19  36  62  88 116 151 190 235 281 334
#
# _framework density 21.439315000000001
#
# number of rings (size 3 to 8) (size 9 to 14) (size 15 to 20)
#    0.000    1.750    3.750    1.875    0.000    1.250 
#    0.000    3.125    0.000    8.625    0.000    1.750 
#    0.000    0.000    0.000    0.000    0.000    0.000 
#
# Total GULP energy -356585.420829 kJ/mol
# GULP energy per Si atom -5571.647200 kJ/mol
# Density = 2.139052 g / cm^3
# Si number density = 21.439315 Si / 1000 Ang^3
#
#
#
# Elastic Constant Matrix: (Units=GPa)
#
#
# Indices 1 2 3 4 5 6 
#
# 1 127.9743 1.9954 64.1497 0.0000 0.0000 0.0000
# 2 1.9954 62.6061 3.7282 0.0000 0.0000 0.0000
# 3 64.1497 3.7282 131.2457 0.0000 0.0000 0.0000
# 4 0.0000 0.0000 0.0000 -14.6547 0.0000 0.0000
# 5 0.0000 0.0000 0.0000 0.0000 -12.1527 0.0000
# 6 0.0000 0.0000 0.0000 0.0000 0.0000 -32.3365
#
#
#
# Elastic Compliance Matrix: (Units=1/GPa)
#
#
# Indices 1 2 3 4 5 6 
#
# 1 0.010350 -0.000029 -0.005058 0.000000 0.000000 0.000000
# 2 -0.000029 0.016000 -0.000440 0.000000 0.000000 0.000000
# 3 -0.005058 -0.000440 0.010104 0.000000 0.000000 0.000000
# 4 0.000000 0.000000 0.000000 -0.068238 0.000000 0.000000
# 5 0.000000 0.000000 0.000000 0.000000 -0.082286 0.000000
# 6 0.000000 0.000000 0.000000 0.000000 0.000000 -0.030925
#
#
# Mechanical properties :
#
#
# Convention : Reuss Voigt Hill
#
# Bulk Modulus (GPa) = 39.37056 51.28588 45.32822
# Shear Modulus (GPa) = -39.84903 4.96806 -17.44049
#
# Velocity S-wave (km/s) = -4.31593 1.52391 -2.85525
# Velocity P-wave (km/s) = 2.53629 5.20286 3.21224
#
# Compressibility (1/GPa) = 0.02539969
#
# Stress axis : x y z
#
# Youngs Moduli (GPa) = 96.61895 62.49992 98.97044
#
# Poissons Ratio (x) = 0.00179 0.50059
# Poissons Ratio (y) = 0.00277 0.04360
# Poissons Ratio (z) = 0.48870 0.02753
#
# Static dielectric constant tensor:
#      x y z
#    x 1.750730 0.000000 0.000000 
#    y 0.000000 1.818320 0.000000 
#    z 0.000000 0.000000 1.821800 
# 
# From -- ./inp_files/30653.got.cif
#   From: 2010.05.17/outbox.cif.g08.bks.cpg/sg51_16_cif.got.tgz:30653.got - 2010.06.03 11:52:47.
