data_PCOD9401721
_publ_section_title
;
Structure prediction by ZEFSAII (Michael W. Deem and Ramdas Pophale) SiO2 
 PCOD9401721
Probable space group: P M M A
;
_chemical_formula_sum "Si O2"
_cell_formula_units_Z 56
_cell_length_a 20.444274
_cell_length_b 7.702420
_cell_length_c 16.338395
_cell_angle_alpha 90.000000
_cell_angle_beta 90.000000
_cell_angle_gamma 90.000000
_cell_volume 2572.813350
_symmetry_space_group_name_H-M "P M M A"
_symmetry_group_IT_number 51
_symmetry_cell_setting 'orthorhombic'
loop_
_space_group_symop_operation_xyz
x,y,z
1/2-x,-y,z
1/2+x,-y,-z
-x,y,-z
-x,-y,-z
1/2+x,y,-z
1/2-x,y,z
x,-y,z
loop_
_atom_site_type_symbol
_atom_site_label
_atom_site_fract_x
_atom_site_fract_y
_atom_site_fract_z
Si Si1 0.586824 0.291110 0.330968
Si Si2 0.822989 0.205616 0.482011
Si Si3 0.324481 0.796264 0.007603
Si Si4 0.039554 0.298737 0.076187
Si Si5 0.322128 0.703179 0.331957
Si Si6 0.044930 0.286103 0.257772
Si Si7 0.824879 0.290067 0.180327
O O1 0.586957 0.500000 0.326966
O O2 0.623464 0.243562 0.413846
O O3 0.512205 0.233367 0.319870
O O4 0.627842 0.228359 0.252092
O O5 0.750000 0.263691 0.454364
O O6 0.835318 0.286103 0.570875
O O7 0.820928 0.000000 0.494408
O O8 0.250000 0.729906 0.021047
O O9 0.339367 0.774561 0.910946
O O10 0.324966 0.000000 0.027294
O O11 0.383262 0.709294 0.056766
O O12 0.018293 0.500000 0.081019
O O13 0.027653 0.226143 0.166281
O O14 0.000000 0.219072 0.000000
O O15 0.250000 0.780308 0.316880
O O16 0.318556 0.500000 0.310134
O O17 0.383826 0.777584 0.284262
O O18 0.046712 0.500000 0.257061
O O19 0.750000 0.241158 0.199627
O O20 0.828459 0.500000 0.176864
#
# Coordination Sequence:
#
# PCOD9401721 Si02
#       7
#     8   8   8   8   8   8   8
#     4  10  19  33  54  79 108 138 172 215 261 313
#     4  10  21  36  54  78 108 140 173 210 255 308
#     4  10  21  35  51  75 107 141 178 221 269 320
#     4  10  20  36  58  81 107 140 179 223 270 321
#     4   9  18  35  57  77 100 134 177 220 260 306
#     4   9  19  34  54  81 106 133 174 222 268 310
#     4   9  17  30  50  75 102 136 177 217 260 312
#
# _framework density 21.766055000000001
#
# number of rings (size 3 to 8) (size 9 to 14) (size 15 to 20)
#    0.000    2.429    0.000    2.143    0.000    6.571 
#    0.000    7.857    0.000    1.714    0.000    0.000 
#    0.000    0.000    0.000    0.000    0.000    0.000 
#
# Total GULP energy -312716.134787 kJ/mol
# GULP energy per Si atom -5584.216693 kJ/mol
# Density = 2.171651 g / cm^3
# Si number density = 21.766055 Si / 1000 Ang^3
#
#
#
# Elastic Constant Matrix: (Units=GPa)
#
#
# Indices 1 2 3 4 5 6 
#
# 1 101.0840 5.0147 52.8660 0.0000 0.0000 0.0000
# 2 5.0147 35.9011 -2.2068 0.0000 0.0000 0.0000
# 3 52.8660 -2.2068 61.7606 0.0000 0.0000 0.0000
# 4 0.0000 0.0000 0.0000 192.9107 0.0000 0.0000
# 5 0.0000 0.0000 0.0000 0.0000 39.8980 0.0000
# 6 0.0000 0.0000 0.0000 0.0000 0.0000 2.1946
#
#
#
# Elastic Compliance Matrix: (Units=1/GPa)
#
#
# Indices 1 2 3 4 5 6 
#
# 1 0.018348 -0.003536 -0.015832 0.000000 0.000000 0.000000
# 2 -0.003536 0.028597 0.004049 0.000000 0.000000 0.000000
# 3 -0.015832 0.004049 0.029888 0.000000 0.000000 0.000000
# 4 0.000000 0.000000 0.000000 0.005184 0.000000 0.000000
# 5 0.000000 0.000000 0.000000 0.000000 0.025064 0.000000
# 6 0.000000 0.000000 0.000000 0.000000 0.000000 0.455663
#
#
# Mechanical properties :
#
#
# Convention : Reuss Voigt Hill
#
# Bulk Modulus (GPa) = 21.64759 34.45483 28.05121
# Shear Modulus (GPa) = 8.21312 56.53878 32.37595
#
# Velocity S-wave (km/s) = 1.94462 5.10216 3.86093
# Velocity P-wave (km/s) = 3.87418 7.11150 5.72637
#
# Compressibility (1/GPa) = 0.04619452
#
# Stress axis : x y z
#
# Youngs Moduli (GPa) = 54.50105 34.96854 33.45789
#
# Poissons Ratio (x) = 0.12365 0.52971
# Poissons Ratio (y) = 0.19272 -0.13546
# Poissons Ratio (z) = 0.86287 -0.14158
#
# Static dielectric constant tensor:
#      x y z
#    x 1.808260 0.000000 0.000000 
#    y 0.000000 1.811800 0.000000 
#    z 0.000000 0.000000 1.756710 
# 
# From -- ./inp_files/25622.got.cif
#   From: 2010.05.17/outbox.cif.g08.bks.cpg/sg51_13_cif.got.tgz:25622.got - 2010.06.03 11:52:47.
