data_PCOD9401887
_publ_section_title
;
Structure prediction by ZEFSAII (Michael W. Deem and Ramdas Pophale) SiO2 
 PCOD9401887
Probable space group: P M M A
;
_chemical_formula_sum "Si O2"
_cell_formula_units_Z 64
_cell_length_a 8.294376
_cell_length_b 15.108344
_cell_length_c 24.342162
_cell_angle_alpha 90.000000
_cell_angle_beta 90.000000
_cell_angle_gamma 90.000000
_cell_volume 3050.420648
_symmetry_space_group_name_H-M "P M M A"
_symmetry_group_IT_number 51
_symmetry_cell_setting 'orthorhombic'
loop_
_space_group_symop_operation_xyz
x,y,z
1/2-x,-y,z
1/2+x,-y,-z
-x,y,-z
-x,-y,-z
1/2+x,y,-z
1/2-x,y,z
x,-y,z
loop_
_atom_site_type_symbol
_atom_site_label
_atom_site_fract_x
_atom_site_fract_y
_atom_site_fract_z
Si Si1 0.555123 0.710863 0.937310
Si Si2 0.443899 0.901857 0.319650
Si Si3 0.056287 0.400538 0.163127
Si Si4 0.938580 0.364188 0.441388
Si Si5 0.568619 0.736115 0.252768
Si Si6 0.944977 0.837463 0.558393
Si Si7 0.555237 0.094974 0.936442
Si Si8 0.567489 0.401247 0.672476
O O1 0.750000 0.710768 0.937302
O O2 0.499415 0.634562 0.896223
O O3 0.501635 0.808612 0.915598
O O4 0.500000 0.700183 0.000000
O O5 0.250000 0.901610 0.319205
O O6 0.497305 0.826626 0.276935
O O7 0.489324 0.882520 0.383508
O O8 0.501994 0.000000 0.304549
O O9 0.250000 0.406333 0.162196
O O10 0.994393 0.500000 0.175331
O O11 0.015719 0.322576 0.205887
O O12 0.750000 0.382510 0.434226
O O13 0.000000 0.395895 0.500000
O O14 0.972026 0.258754 0.440068
O O15 0.041749 0.403160 0.392157
O O16 0.750000 0.752437 0.235343
O O17 0.556803 0.668259 0.303800
O O18 0.750000 0.827810 0.557135
O O19 0.000000 0.879291 0.500000
O O20 0.750000 0.094676 0.934484
O O21 0.499900 0.000000 0.912240
O O22 0.500000 0.094470 0.000000
O O23 0.750000 0.371404 0.685335
O O24 0.546834 0.500000 0.695046
#
# Coordination Sequence:
#
# PCOD9401887 Si02
#       8
#     8   8   8   8   8   8   8   8
#     4   9  18  33  55  85 120 157 198 244 297 357
#     4  10  22  41  65  90 119 160 204 244 295 362
#     4  10  22  41  63  86 117 160 204 246 299 366
#     4  11  21  34  54  80 114 153 193 239 294 352
#     4  12  25  41  63  89 117 149 191 249 305 353
#     4  10  19  33  56  84 119 158 199 244 294 355
#     4   8  13  23  42  70 105 144 185 227 270 321
#     4  11  23  39  60  84 111 148 193 242 297 358
#
# _framework density 20.980713000000002
#
# number of rings (size 3 to 8) (size 9 to 14) (size 15 to 20)
#    0.000    1.875    1.250    4.125    0.000    4.750 
#    0.000    0.625    0.000    2.250    0.000    1.750 
#    0.000    0.000    0.000    0.000    0.000    0.000 
#
# Total GULP energy -356988.916823 kJ/mol
# GULP energy per Si atom -5577.951825 kJ/mol
# Density = 2.093296 g / cm^3
# Si number density = 20.980713 Si / 1000 Ang^3
#
#
#
# Elastic Constant Matrix: (Units=GPa)
#
#
# Indices 1 2 3 4 5 6 
#
# 1 39.9161 25.8536 5.8587 0.0000 0.0000 0.0000
# 2 25.8536 142.9475 62.6207 0.0000 0.0000 0.0000
# 3 5.8587 62.6207 95.8231 0.0000 0.0000 0.0000
# 4 0.0000 0.0000 0.0000 34.4101 0.0000 0.0000
# 5 0.0000 0.0000 0.0000 0.0000 23.2490 0.0000
# 6 0.0000 0.0000 0.0000 0.0000 0.0000 -5.0196
#
#
#
# Elastic Compliance Matrix: (Units=1/GPa)
#
#
# Indices 1 2 3 4 5 6 
#
# 1 0.028733 -0.006203 0.002297 0.000000 0.000000 0.000000
# 2 -0.006203 0.011141 -0.006901 0.000000 0.000000 0.000000
# 3 0.002297 -0.006901 0.014805 0.000000 0.000000 0.000000
# 4 0.000000 0.000000 0.000000 0.029061 0.000000 0.000000
# 5 0.000000 0.000000 0.000000 0.000000 0.043013 0.000000
# 6 0.000000 0.000000 0.000000 0.000000 0.000000 -0.199219
#
#
# Mechanical properties :
#
#
# Convention : Reuss Voigt Hill
#
# Bulk Modulus (GPa) = 30.24383 51.92808 41.08595
# Shear Modulus (GPa) = -125.53348 22.81815 -51.35766
#
# Velocity S-wave (km/s) = -7.74356 3.30142 -4.95294
# Velocity P-wave (km/s) = 8.09345 6.27189 3.61713
#
# Compressibility (1/GPa) = 0.03306460
#
# Stress axis : x y z
#
# Youngs Moduli (GPa) = 34.80323 89.76178 67.54294
#
# Poissons Ratio (x) = 0.55678 -0.15513
# Poissons Ratio (y) = 0.21588 0.46613
# Poissons Ratio (z) = -0.07994 0.61946
#
# Static dielectric constant tensor:
#      x y z
#    x 1.720150 0.000000 0.000000 
#    y 0.000000 1.807060 0.000000 
#    z 0.000000 0.000000 1.786770 
# 
# From -- ./inp_files/35026.got.cif
#   From: 2010.05.17/outbox.cif.g08.bks.cpg/sg51_18_cif.got.tgz:35026.got - 2010.06.03 11:52:47.
