data_PCOD9401229
_publ_section_title
;
Structure prediction by ZEFSAII (Michael W. Deem and Ramdas Pophale) SiO2 
 PCOD9401229
Probable space group: P M M A
;
_chemical_formula_sum "Si O2"
_cell_formula_units_Z 64
_cell_length_a 9.540502
_cell_length_b 14.654588
_cell_length_c 23.726313
_cell_angle_alpha 90.000000
_cell_angle_beta 90.000000
_cell_angle_gamma 90.000000
_cell_volume 3317.226266
_symmetry_space_group_name_H-M "P M M A"
_symmetry_group_IT_number 51
_symmetry_cell_setting 'orthorhombic'
loop_
_space_group_symop_operation_xyz
x,y,z
1/2-x,-y,z
1/2+x,-y,-z
-x,y,-z
-x,-y,-z
1/2+x,y,-z
1/2-x,y,z
x,-y,z
loop_
_atom_site_type_symbol
_atom_site_label
_atom_site_fract_x
_atom_site_fract_y
_atom_site_fract_z
Si Si1 0.588025 0.745093 0.749470
Si Si2 0.082490 0.902052 0.559049
Si Si3 0.598774 0.598821 0.847444
Si Si4 0.916290 0.299874 0.441977
Si Si5 0.907561 0.361696 0.051677
Si Si6 0.411434 0.141273 0.945325
Si Si7 0.418027 0.605509 0.671554
Si Si8 0.085051 0.106630 0.815896
O O1 0.750000 0.764323 0.732393
O O2 0.593437 0.679563 0.803803
O O3 0.503709 0.682620 0.705111
O O4 0.504358 0.833167 0.772332
O O5 0.250000 0.902751 0.549264
O O6 0.051008 0.801834 0.583482
O O7 0.000000 0.902892 0.500000
O O8 0.048717 0.000000 0.587960
O O9 0.750000 0.605071 0.877927
O O10 0.593889 0.500000 0.818646
O O11 0.474525 0.605807 0.890795
O O12 0.750000 0.301875 0.454230
O O13 0.945180 0.374363 0.394418
O O14 0.000000 0.311352 0.500000
O O15 0.750000 0.391565 0.045268
O O16 0.911306 0.251354 0.052881
O O17 0.000000 0.393179 0.000000
O O18 0.250000 0.110004 0.950425
O O19 0.461229 0.116451 0.881920
O O20 0.500000 0.110356 0.000000
O O21 0.250000 0.617327 0.681208
O O22 0.453303 0.500000 0.685397
O O23 0.250000 0.134977 0.814382
O O24 0.076844 0.000000 0.801480
#
# Coordination Sequence:
#
# PCOD9401229 Si02
#       8
#     8   8   8   8   8   8   8   8
#     4  11  23  40  62  85 113 145 186 242 295 343
#     4   8  13  23  42  69 102 140 180 220 261 310
#     4  10  21  36  54  77 104 137 180 230 285 341
#     4   9  18  33  54  83 118 154 193 238 288 345
#     4  10  19  32  51  75 106 142 181 226 277 335
#     4   9  18  32  52  80 113 148 188 232 282 343
#     4  10  22  40  61  85 116 155 197 240 291 355
#     4  10  21  39  62  87 117 154 195 238 289 351
#
# _framework density 19.293227999999999
#
# number of rings (size 3 to 8) (size 9 to 14) (size 15 to 20)
#    0.000    2.375    1.250    1.125    0.000    4.000 
#    0.000    0.625    0.000    2.250    0.000    1.750 
#    0.000    0.000    0.000    0.000    0.000    0.000 
#
# Total GULP energy -356580.564812 kJ/mol
# GULP energy per Si atom -5571.571325 kJ/mol
# Density = 1.924932 g / cm^3
# Si number density = 19.293228 Si / 1000 Ang^3
#
#
#
# Elastic Constant Matrix: (Units=GPa)
#
#
# Indices 1 2 3 4 5 6 
#
# 1 90.9658 41.0285 52.6742 0.0000 0.0000 0.0000
# 2 41.0285 96.6135 33.4703 0.0000 0.0000 0.0000
# 3 52.6742 33.4703 74.1779 0.0000 0.0000 0.0000
# 4 0.0000 0.0000 0.0000 12.4150 0.0000 0.0000
# 5 0.0000 0.0000 0.0000 0.0000 27.7110 0.0000
# 6 0.0000 0.0000 0.0000 0.0000 0.0000 16.5809
#
#
#
# Elastic Compliance Matrix: (Units=1/GPa)
#
#
# Indices 1 2 3 4 5 6 
#
# 1 0.020038 -0.004243 -0.012314 0.000000 0.000000 0.000000
# 2 -0.004243 0.013167 -0.002928 0.000000 0.000000 0.000000
# 3 -0.012314 -0.002928 0.023547 0.000000 0.000000 0.000000
# 4 0.000000 0.000000 0.000000 0.080548 0.000000 0.000000
# 5 0.000000 0.000000 0.000000 0.000000 0.036087 0.000000
# 6 0.000000 0.000000 0.000000 0.000000 0.000000 0.060310
#
#
# Mechanical properties :
#
#
# Convention : Reuss Voigt Hill
#
# Bulk Modulus (GPa) = 56.24204 57.34480 56.79342
# Shear Modulus (GPa) = 17.94731 20.31367 19.13049
#
# Velocity S-wave (km/s) = 3.05329 3.24835 3.15233
# Velocity P-wave (km/s) = 6.45326 6.62241 6.53838
#
# Compressibility (1/GPa) = 0.01778029
#
# Stress axis : x y z
#
# Youngs Moduli (GPa) = 49.90627 75.94860 42.46885
#
# Poissons Ratio (x) = 0.32226 0.52297
# Poissons Ratio (y) = 0.21176 0.12435
# Poissons Ratio (z) = 0.61456 0.22237
#
# Static dielectric constant tensor:
#      x y z
#    x 1.667010 0.000000 0.000000 
#    y 0.000000 1.720060 0.000000 
#    z 0.000000 0.000000 1.645080 
# 
# From -- ./inp_files/34960.got.cif
#   From: 2010.05.17/outbox.cif.g08.bks.cpg/sg51_18_cif.got.tgz:34960.got - 2010.06.03 11:52:47.
