data_PCOD9401985
_publ_section_title
;
Structure prediction by ZEFSAII (Michael W. Deem and Ramdas Pophale) SiO2 
 PCOD9401985
Probable space group: P M M A
;
_chemical_formula_sum "Si O2"
_cell_formula_units_Z 56
_cell_length_a 19.957023
_cell_length_b 7.615092
_cell_length_c 16.954028
_cell_angle_alpha 90.000000
_cell_angle_beta 90.000000
_cell_angle_gamma 90.000000
_cell_volume 2576.581050
_symmetry_space_group_name_H-M "P M M A"
_symmetry_group_IT_number 51
_symmetry_cell_setting 'orthorhombic'
loop_
_space_group_symop_operation_xyz
x,y,z
1/2-x,-y,z
1/2+x,-y,-z
-x,y,-z
-x,-y,-z
1/2+x,y,-z
1/2-x,y,z
x,-y,z
loop_
_atom_site_type_symbol
_atom_site_label
_atom_site_fract_x
_atom_site_fract_y
_atom_site_fract_z
Si Si1 0.046962 0.214679 0.927894
Si Si2 0.827094 0.784913 0.356192
Si Si3 0.422271 0.699998 0.340056
Si Si4 0.925459 0.800321 0.492727
Si Si5 0.174160 0.786013 0.019614
Si Si6 0.172672 0.211974 0.196065
Si Si7 0.054598 0.789169 0.751717
O O1 0.034719 0.276334 0.838844
O O2 0.041871 0.000000 0.926831
O O3 0.121647 0.265774 0.953892
O O4 0.000000 0.273454 0.000000
O O5 0.750000 0.724868 0.355078
O O6 0.870170 0.726824 0.432949
O O7 0.873450 0.731450 0.281915
O O8 0.824525 0.000000 0.356880
O O9 0.420156 0.500000 0.364981
O O10 0.400545 0.804617 0.417345
O O11 0.374475 0.725654 0.265375
O O12 0.496745 0.745293 0.310567
O O13 0.000000 0.718083 0.500000
O O14 0.936930 0.000000 0.463760
O O15 0.250000 0.726692 0.006675
O O16 0.152088 0.731813 0.107786
O O17 0.175083 0.000000 0.020452
O O18 0.250000 0.265283 0.207446
O O19 0.170450 0.000000 0.196642
O O20 0.057200 0.000000 0.757106
#
# Coordination Sequence:
#
# PCOD9401985 Si02
#       7
#     8   8   8   8   8   8   8
#     4   9  16  25  44  75 106 135 172 219 265 311
#     4   9  18  33  55  83 108 133 174 225 269 315
#     4  12  24  35  53  80 111 142 180 225 271 324
#     4  10  19  36  59  79 103 137 176 218 268 330
#     4   8  14  26  46  75 107 135 169 219 276 325
#     4   9  18  34  56  79 106 143 184 224 271 328
#     4  10  19  34  55  78 108 146 184 221 268 327
#
# _framework density 21.734228000000002
#
# number of rings (size 3 to 8) (size 9 to 14) (size 15 to 20)
#    0.000    2.429    1.429    3.000    0.000    4.000 
#    0.000    4.286    0.000    5.143    0.000    0.000 
#    0.000    0.000    0.000    0.000    0.000    0.000 
#
# Total GULP energy -312542.517428 kJ/mol
# GULP energy per Si atom -5581.116383 kJ/mol
# Density = 2.168476 g / cm^3
# Si number density = 21.734228 Si / 1000 Ang^3
#
#
#
# Elastic Constant Matrix: (Units=GPa)
#
#
# Indices 1 2 3 4 5 6 
#
# 1 82.8235 9.3428 32.5245 0.0000 0.0000 0.0000
# 2 9.3428 46.1136 9.1329 0.0000 0.0000 0.0000
# 3 32.5245 9.1329 95.3328 0.0000 0.0000 0.0000
# 4 0.0000 0.0000 0.0000 -26.5929 0.0000 0.0000
# 5 0.0000 0.0000 0.0000 0.0000 38.0647 0.0000
# 6 0.0000 0.0000 0.0000 0.0000 0.0000 -140.6687
#
#
#
# Elastic Compliance Matrix: (Units=1/GPa)
#
#
# Indices 1 2 3 4 5 6 
#
# 1 0.014110 -0.001942 -0.004628 0.000000 0.000000 0.000000
# 2 -0.001942 0.022372 -0.001481 0.000000 0.000000 0.000000
# 3 -0.004628 -0.001481 0.012210 0.000000 0.000000 0.000000
# 4 0.000000 0.000000 0.000000 -0.037604 0.000000 0.000000
# 5 0.000000 0.000000 0.000000 0.000000 0.026271 0.000000
# 6 0.000000 0.000000 0.000000 0.000000 0.000000 -0.007109
#
#
# Mechanical properties :
#
#
# Convention : Reuss Voigt Hill
#
# Bulk Modulus (GPa) = 30.68298 36.25225 33.46762
# Shear Modulus (GPa) = 87.38736 -14.28807 36.54965
#
# Velocity S-wave (km/s) = 6.34780 -2.56676 4.10526
# Velocity P-wave (km/s) = 8.23857 2.81632 6.15653
#
# Compressibility (1/GPa) = 0.03259136
#
# Stress axis : x y z
#
# Youngs Moduli (GPa) = 70.87012 44.69810 81.89798
#
# Poissons Ratio (x) = 0.08681 0.37902
# Poissons Ratio (y) = 0.13765 0.12126
# Poissons Ratio (z) = 0.32798 0.06618
#
# Static dielectric constant tensor:
#      x y z
#    x 1.782830 0.000000 0.000000 
#    y 0.000000 1.830280 0.000000 
#    z 0.000000 0.000000 1.803420 
# 
# From -- ./inp_files/25649.got.cif
#   From: 2010.05.17/outbox.cif.g08.bks.cpg/sg51_13_cif.got.tgz:25649.got - 2010.06.03 11:52:47.
