data_PCOD9401174
_publ_section_title
;
Structure prediction by ZEFSAII (Michael W. Deem and Ramdas Pophale) SiO2 
 PCOD9401174
Probable space group: P M M A
;
_chemical_formula_sum "Si O2"
_cell_formula_units_Z 64
_cell_length_a 9.475695
_cell_length_b 19.476128
_cell_length_c 20.251670
_cell_angle_alpha 90.000000
_cell_angle_beta 90.000000
_cell_angle_gamma 90.000000
_cell_volume 3737.442635
_symmetry_space_group_name_H-M "P M M A"
_symmetry_group_IT_number 51
_symmetry_cell_setting 'orthorhombic'
loop_
_space_group_symop_operation_xyz
x,y,z
1/2-x,-y,z
1/2+x,-y,-z
-x,y,-z
-x,-y,-z
1/2+x,y,-z
1/2-x,y,z
x,-y,z
loop_
_atom_site_type_symbol
_atom_site_label
_atom_site_fract_x
_atom_site_fract_y
_atom_site_fract_z
Si Si1 0.084561 0.423013 0.110767
Si Si2 0.410263 0.265886 0.561633
Si Si3 0.085139 0.193253 0.201404
Si Si4 0.586900 0.309671 0.686761
Si Si5 0.918726 0.920423 0.284805
Si Si6 0.581922 0.731418 0.934916
Si Si7 0.589129 0.101155 0.436684
Si Si8 0.089926 0.421351 0.755384
O O1 0.250000 0.419607 0.132435
O O2 0.068189 0.500000 0.079510
O O3 0.058870 0.351173 0.073486
O O4 0.978205 0.420741 0.171987
O O5 0.500000 0.292521 0.500000
O O6 0.250000 0.291934 0.562692
O O7 0.494776 0.281758 0.627315
O O8 0.404357 0.183460 0.557079
O O9 0.250000 0.172356 0.195538
O O10 0.079342 0.256446 0.252646
O O11 0.039490 0.225482 0.130726
O O12 0.996586 0.132011 0.235385
O O13 0.750000 0.317702 0.668249
O O14 0.514781 0.378995 0.710339
O O15 0.750000 0.905801 0.284401
O O16 0.965304 0.913477 0.362169
O O17 0.939942 0.000000 0.265636
O O18 0.750000 0.740461 0.942524
O O19 0.500000 0.754405 0.000000
O O20 0.500000 0.076916 0.500000
O O21 0.750000 0.075630 0.440270
O O22 0.250000 0.393390 0.755841
O O23 0.095675 0.500000 0.733819
#
# Coordination Sequence:
#
# PCOD9401174 Si02
#       8
#     8   8   8   8   8   8   8   8
#     4   9  17  32  52  74 108 149 182 215 259 312
#     4  10  19  32  50  76 108 142 179 223 270 319
#     4  10  21  37  56  80 109 137 178 224 266 318
#     4  11  20  33  55  79 104 141 182 227 273 318
#     4  10  21  37  56  80 110 143 180 222 271 321
#     4  10  21  37  54  80 110 143 180 221 268 320
#     4   9  18  31  48  74 109 146 179 214 255 306
#     4  10  20  32  49  77 109 140 179 225 270 318
#
# _framework density 17.124009000000001
#
# number of rings (size 3 to 8) (size 9 to 14) (size 15 to 20)
#    0.000    2.125    2.500    1.125    0.000    4.000 
#    0.000    0.000    0.000    0.750    0.000    0.000 
#    0.000    0.000    0.000    0.000    0.000    0.000 
#
# Total GULP energy -356585.910589 kJ/mol
# GULP energy per Si atom -5571.654853 kJ/mol
# Density = 1.708503 g / cm^3
# Si number density = 17.124009 Si / 1000 Ang^3
#
#
#
# Elastic Constant Matrix: (Units=GPa)
#
#
# Indices 1 2 3 4 5 6 
#
# 1 98.4416 44.8635 62.8985 0.0000 0.0000 0.0000
# 2 44.8635 66.5641 43.9469 0.0000 0.0000 0.0000
# 3 62.8985 43.9469 123.0811 0.0000 0.0000 0.0000
# 4 0.0000 0.0000 0.0000 15.4334 0.0000 0.0000
# 5 0.0000 0.0000 0.0000 0.0000 24.8607 0.0000
# 6 0.0000 0.0000 0.0000 0.0000 0.0000 385.3940
#
#
#
# Elastic Compliance Matrix: (Units=1/GPa)
#
#
# Indices 1 2 3 4 5 6 
#
# 1 0.017721 -0.007805 -0.006269 0.000000 0.000000 0.000000
# 2 -0.007805 0.023094 -0.004258 0.000000 0.000000 0.000000
# 3 -0.006269 -0.004258 0.012849 0.000000 0.000000 0.000000
# 4 0.000000 0.000000 0.000000 0.064795 0.000000 0.000000
# 5 0.000000 0.000000 0.000000 0.000000 0.040224 0.000000
# 6 0.000000 0.000000 0.000000 0.000000 0.000000 0.002595
#
#
# Mechanical properties :
#
#
# Convention : Reuss Voigt Hill
#
# Bulk Modulus (GPa) = 58.82004 65.72273 62.27138
# Shear Modulus (GPa) = 24.55711 94.22947 59.39329
#
# Velocity S-wave (km/s) = 3.79103 7.42611 5.89572
# Velocity P-wave (km/s) = 7.32028 10.58269 9.09890
#
# Compressibility (1/GPa) = 0.01700101
#
# Stress axis : x y z
#
# Youngs Moduli (GPa) = 56.43085 43.30091 77.82884
#
# Poissons Ratio (x) = 0.33794 0.48793
# Poissons Ratio (y) = 0.44042 0.33136
# Poissons Ratio (z) = 0.35378 0.18436
#
# Static dielectric constant tensor:
#      x y z
#    x 1.596090 0.000000 0.000000 
#    y 0.000000 1.596240 0.000000 
#    z 0.000000 0.000000 1.587860 
# 
# From -- ./inp_files/32297.got.cif
#   From: 2010.05.17/outbox.cif.g08.bks.cpg/sg51_17_cif.got.tgz:32297.got - 2010.06.03 11:52:47.
