data_PCOD9401123
_publ_section_title
;
Structure prediction by ZEFSAII (Michael W. Deem and Ramdas Pophale) SiO2 
 PCOD9401123
Probable space group: P M M A
;
_chemical_formula_sum "Si O2"
_cell_formula_units_Z 52
_cell_length_a 9.782404
_cell_length_b 10.494963
_cell_length_c 29.750133
_cell_angle_alpha 90.000000
_cell_angle_beta 90.000000
_cell_angle_gamma 90.000000
_cell_volume 3054.326203
_symmetry_space_group_name_H-M "P M M A"
_symmetry_group_IT_number 51
_symmetry_cell_setting 'orthorhombic'
loop_
_space_group_symop_operation_xyz
x,y,z
1/2-x,-y,z
1/2+x,-y,-z
-x,y,-z
-x,-y,-z
1/2+x,y,-z
1/2-x,y,z
x,-y,z
loop_
_atom_site_type_symbol
_atom_site_label
_atom_site_fract_x
_atom_site_fract_y
_atom_site_fract_z
Si Si1 0.092684 0.346879 0.292422
Si Si2 0.094103 0.500000 0.456319
Si Si3 0.098408 0.149178 0.538813
Si Si4 0.587809 0.349765 0.877148
Si Si5 0.588085 0.853221 0.955233
Si Si6 0.093176 0.654609 0.790262
Si Si7 0.093112 0.747358 0.393168
O O1 0.250000 0.323379 0.278064
O O2 0.079253 0.500000 0.298050
O O3 0.072587 0.284199 0.341022
O O4 0.987061 0.303339 0.254454
O O5 0.250000 0.500000 0.472405
O O6 0.077025 0.620113 0.423114
O O7 0.000000 0.500000 0.500000
O O8 0.250000 0.207288 0.538679
O O9 0.000000 0.202971 0.500000
O O10 0.020348 0.162342 0.585730
O O11 0.113197 0.000000 0.528954
O O12 0.750000 0.338666 0.866420
O O13 0.563336 0.500000 0.888262
O O14 0.557478 0.253154 0.917785
O O15 0.495403 0.314790 0.834341
O O16 0.750000 0.843721 0.965523
O O17 0.562906 0.000000 0.939849
O O18 0.500000 0.832499 0.000000
O O19 0.250000 0.699206 0.792420
O O20 0.096214 0.500000 0.788380
O O21 0.250000 0.793203 0.399450
#
# Coordination Sequence:
#
# PCOD9401123 Si02
#       7
#     8   4   8   8   8   8   8
#     4   9  16  29  48  69  96 129 158 187 229 284
#     4  10  20  32  44  66  98 126 150 182 225 276
#     4  10  21  36  52  69  89 116 153 195 236 278
#     4   9  17  30  48  70  96 128 166 205 247 293
#     4   9  18  32  49  70  98 132 168 204 243 291
#     4   9  17  28  44  69  98 125 156 198 241 281
#     4  10  19  32  50  71  96 123 154 189 229 279
#
# _framework density 17.025030000000001
#
# number of rings (size 3 to 8) (size 9 to 14) (size 15 to 20)
#    0.000    2.615    0.769    1.385    0.000    6.154 
#    0.000    0.000    0.000    0.923    0.000    2.154 
#    0.000    0.000    0.000    0.000    0.000    0.000 
#
# Total GULP energy -289729.177633 kJ/mol
# GULP energy per Si atom -5571.714954 kJ/mol
# Density = 1.698628 g / cm^3
# Si number density = 17.025030 Si / 1000 Ang^3
#
#
#
# Elastic Constant Matrix: (Units=GPa)
#
#
# Indices 1 2 3 4 5 6 
#
# 1 120.3189 37.9872 91.7303 0.0000 0.0000 0.0000
# 2 37.9872 36.1219 37.0162 0.0000 0.0000 0.0000
# 3 91.7303 37.0162 125.7941 0.0000 0.0000 0.0000
# 4 0.0000 0.0000 0.0000 16.0946 0.0000 0.0000
# 5 0.0000 0.0000 0.0000 0.0000 29.6972 0.0000
# 6 0.0000 0.0000 0.0000 0.0000 0.0000 16.4281
#
#
#
# Elastic Compliance Matrix: (Units=1/GPa)
#
#
# Indices 1 2 3 4 5 6 
#
# 1 0.020560 -0.008960 -0.012356 0.000000 0.000000 0.000000
# 2 -0.008960 0.043541 -0.006279 0.000000 0.000000 0.000000
# 3 -0.012356 -0.006279 0.018807 0.000000 0.000000 0.000000
# 4 0.000000 0.000000 0.000000 0.062133 0.000000 0.000000
# 5 0.000000 0.000000 0.000000 0.000000 0.033673 0.000000
# 6 0.000000 0.000000 0.000000 0.000000 0.000000 0.060871
#
#
# Mechanical properties :
#
#
# Convention : Reuss Voigt Hill
#
# Bulk Modulus (GPa) = 36.07662 68.41136 52.24399
# Shear Modulus (GPa) = 16.44656 20.14407 18.29531
#
# Velocity S-wave (km/s) = 3.11146 3.44350 3.28168
# Velocity P-wave (km/s) = 5.84334 7.48868 6.71658
#
# Compressibility (1/GPa) = 0.02771878
#
# Stress axis : x y z
#
# Youngs Moduli (GPa) = 48.63698 22.96703 53.17043
#
# Poissons Ratio (x) = 0.20578 0.65699
# Poissons Ratio (y) = 0.43578 0.33384
# Poissons Ratio (z) = 0.60098 0.14420
#
# Static dielectric constant tensor:
#      x y z
#    x 1.595290 0.000000 0.000000 
#    y 0.000000 1.611560 0.000000 
#    z 0.000000 0.000000 1.549850 
# 
# From -- ./inp_files/36203.got.cif
#   From: 2010.05.17/outbox.cif.g08.bks.cpg/sg51_19_cif.got.tgz:36203.got - 2010.06.03 11:52:47.
