data_PCOD9401873
_publ_section_title
;
Structure prediction by ZEFSAII (Michael W. Deem and Ramdas Pophale) SiO2 
 PCOD9401873
Probable space group: P M M A
;
_chemical_formula_sum "Si O2"
_cell_formula_units_Z 48
_cell_length_a 8.747716
_cell_length_b 14.641739
_cell_length_c 21.234067
_cell_angle_alpha 90.000000
_cell_angle_beta 90.000000
_cell_angle_gamma 90.000000
_cell_volume 2719.696982
_symmetry_space_group_name_H-M "P M M A"
_symmetry_group_IT_number 51
_symmetry_cell_setting 'orthorhombic'
loop_
_space_group_symop_operation_xyz
x,y,z
1/2-x,-y,z
1/2+x,-y,-z
-x,y,-z
-x,-y,-z
1/2+x,y,-z
1/2-x,y,z
x,-y,z
loop_
_atom_site_type_symbol
_atom_site_label
_atom_site_fract_x
_atom_site_fract_y
_atom_site_fract_z
Si Si1 0.567942 0.896177 0.609830
Si Si2 0.568755 0.711088 0.434507
Si Si3 0.565797 0.606169 0.067554
Si Si4 0.567433 0.102521 0.250965
Si Si5 0.065588 0.291072 0.807280
Si Si6 0.067333 0.607403 0.314182
O O1 0.750000 0.884449 0.603024
O O2 0.481391 0.816517 0.573672
O O3 0.521406 0.886702 0.683295
O O4 0.527342 0.000000 0.590782
O O5 0.500000 0.675902 0.500000
O O6 0.750000 0.704362 0.435383
O O7 0.503222 0.657299 0.374643
O O8 0.750000 0.609612 0.064515
O O9 0.521734 0.500000 0.078602
O O10 0.514307 0.667662 0.126157
O O11 0.500000 0.634199 0.000000
O O12 0.750000 0.109239 0.264600
O O13 0.527413 0.184900 0.204540
O O14 0.538001 0.000000 0.226822
O O15 0.250000 0.299695 0.804715
O O16 0.997063 0.347326 0.749179
O O17 0.250000 0.618331 0.315799
O O18 0.030550 0.500000 0.315201
#
# Coordination Sequence:
#
# PCOD9401873 Si02
#       6
#     8   8   8   8   8   8
#     4  10  20  35  56  82 112 143 177 222 274 326
#     4  12  25  41  60  80 107 144 183 227 276 329
#     4   9  18  32  50  75 108 144 184 226 272 326
#     4   9  17  30  51  80 110 141 178 219 267 323
#     4  10  19  33  56  83 110 144 181 224 273 322
#     4  11  24  40  58  82 110 140 179 226 275 330
#
# _framework density 17.649025000000002
#
# number of rings (size 3 to 8) (size 9 to 14) (size 15 to 20)
#    0.000    1.833    1.667    3.000    0.000    4.333 
#    0.000    1.667    0.000    0.500    0.000    0.000 
#    0.000    0.000    0.000    0.000    0.000    0.000 
#
# Total GULP energy -268063.675374 kJ/mol
# GULP energy per Si atom -5584.659904 kJ/mol
# Density = 1.760886 g / cm^3
# Si number density = 17.649025 Si / 1000 Ang^3
#
#
#
# Elastic Constant Matrix: (Units=GPa)
#
#
# Indices 1 2 3 4 5 6 
#
# 1 34.8412 44.3642 34.2027 0.0000 0.0000 0.0000
# 2 44.3642 109.4430 74.7999 0.0000 0.0000 0.0000
# 3 34.2027 74.7999 142.1516 0.0000 0.0000 0.0000
# 4 0.0000 0.0000 0.0000 4.4531 0.0000 0.0000
# 5 0.0000 0.0000 0.0000 0.0000 29.1477 0.0000
# 6 0.0000 0.0000 0.0000 0.0000 0.0000 17.4380
#
#
#
# Elastic Compliance Matrix: (Units=1/GPa)
#
#
# Indices 1 2 3 4 5 6 
#
# 1 0.059909 -0.022539 -0.002555 0.000000 0.000000 0.000000
# 2 -0.022539 0.022748 -0.006547 0.000000 0.000000 0.000000
# 3 -0.002555 -0.006547 0.011094 0.000000 0.000000 0.000000
# 4 0.000000 0.000000 0.000000 0.224562 0.000000 0.000000
# 5 0.000000 0.000000 0.000000 0.000000 0.034308 0.000000
# 6 0.000000 0.000000 0.000000 0.000000 0.000000 0.057346
#
#
# Mechanical properties :
#
#
# Convention : Reuss Voigt Hill
#
# Bulk Modulus (GPa) = 32.81866 65.90769 49.36317
# Shear Modulus (GPa) = 10.34329 19.07903 14.71116
#
# Velocity S-wave (km/s) = 2.42348 3.29146 2.89024
# Velocity P-wave (km/s) = 5.14457 7.20205 6.25844
#
# Compressibility (1/GPa) = 0.03047047
#
# Stress axis : x y z
#
# Youngs Moduli (GPa) = 16.69203 43.95937 90.13516
#
# Poissons Ratio (x) = 0.99080 0.23026
# Poissons Ratio (y) = 0.37622 0.59012
# Poissons Ratio (z) = 0.04264 0.28781
#
# Static dielectric constant tensor:
#      x y z
#    x 1.592480 0.000000 0.000000 
#    y 0.000000 1.616040 0.000000 
#    z 0.000000 0.000000 1.573520 
# 
# From -- ./inp_files/27553.got.cif
#   From: 2010.05.17/outbox.cif.g08.bks.cpg/sg51_14_cif.got.tgz:27553.got - 2010.06.03 11:52:47.
