data_PCOD9401337
_publ_section_title
;
Structure prediction by ZEFSAII (Michael W. Deem and Ramdas Pophale) SiO2 
 PCOD9401337
Probable space group: P M M A
;
_chemical_formula_sum "Si O2"
_cell_formula_units_Z 48
_cell_length_a 9.782723
_cell_length_b 7.682649
_cell_length_c 29.434214
_cell_angle_alpha 90.000000
_cell_angle_beta 90.000000
_cell_angle_gamma 90.000000
_cell_volume 2212.193905
_symmetry_space_group_name_H-M "P M M A"
_symmetry_group_IT_number 51
_symmetry_cell_setting 'orthorhombic'
loop_
_space_group_symop_operation_xyz
x,y,z
1/2-x,-y,z
1/2+x,-y,-z
-x,y,-z
-x,-y,-z
1/2+x,y,-z
1/2-x,y,z
x,-y,z
loop_
_atom_site_type_symbol
_atom_site_label
_atom_site_fract_x
_atom_site_fract_y
_atom_site_fract_z
Si Si1 0.965072 0.210136 0.392750
Si Si2 0.907460 0.707344 0.958682
Si Si3 0.750000 0.212532 0.466979
Si Si4 0.404749 0.290629 0.214213
Si Si5 0.750000 0.213331 0.571119
Si Si6 0.907500 0.792584 0.128085
Si Si7 0.398000 0.706949 0.709895
O O1 0.877340 0.267219 0.436165
O O2 0.913558 0.266598 0.343780
O O3 0.117312 0.270025 0.402071
O O4 0.959868 0.000000 0.392666
O O5 0.750000 0.774652 0.956253
O O6 0.895027 0.500000 0.965811
O O7 0.996183 0.732366 0.913265
O O8 0.000000 0.779147 0.000000
O O9 0.750000 0.271891 0.518751
O O10 0.750000 0.000000 0.468917
O O11 0.250000 0.223697 0.206979
O O12 0.393628 0.500000 0.216735
O O13 0.510560 0.252051 0.173874
O O14 0.476010 0.224415 0.260512
O O15 0.750000 0.000000 0.569941
O O16 0.750000 0.724641 0.126862
O O17 0.898716 0.000000 0.124991
O O18 0.250000 0.779249 0.724403
O O19 0.394624 0.500000 0.717763
#
# Coordination Sequence:
#
# PCOD9401337 Si02
#       7
#     8   8   4   8   4   8   8
#     4  10  19  32  52  78 104 135 176 219 265 320
#     4  10  21  38  62  91 122 160 206 250 291 339
#     4   9  16  30  51  75 103 137 175 217 262 315
#     4  10  22  40  62  86 110 143 189 236 285 343
#     4   9  18  30  49  77 107 135 171 219 268 315
#     4  11  24  40  59  87 122 158 195 238 291 345
#     4  10  21  37  56  78 107 142 178 220 273 331
#
# _framework density 21.697917
#
# number of rings (size 3 to 8) (size 9 to 14) (size 15 to 20)
#    0.000    2.000    0.833    2.500    1.167    8.333 
#    0.000    0.000    0.000    3.000    0.000    0.000 
#    0.000    0.000    0.000    0.000    0.000    0.000 
#
# Total GULP energy -268005.726236 kJ/mol
# GULP energy per Si atom -5583.452630 kJ/mol
# Density = 2.164853 g / cm^3
# Si number density = 21.697917 Si / 1000 Ang^3
#
#
#
# Elastic Constant Matrix: (Units=GPa)
#
#
# Indices 1 2 3 4 5 6 
#
# 1 217.6330 11.8171 63.1374 0.0000 0.0000 0.0000
# 2 11.8171 38.8000 -7.0946 0.0000 0.0000 0.0000
# 3 63.1374 -7.0946 106.3541 0.0000 0.0000 0.0000
# 4 0.0000 0.0000 0.0000 19.2250 0.0000 0.0000
# 5 0.0000 0.0000 0.0000 0.0000 41.2383 0.0000
# 6 0.0000 0.0000 0.0000 0.0000 0.0000 70.3231
#
#
#
# Elastic Compliance Matrix: (Units=1/GPa)
#
#
# Indices 1 2 3 4 5 6 
#
# 1 0.005765 -0.002411 -0.003583 0.000000 0.000000 0.000000
# 2 -0.002411 0.027100 0.003239 0.000000 0.000000 0.000000
# 3 -0.003583 0.003239 0.011746 0.000000 0.000000 0.000000
# 4 0.000000 0.000000 0.000000 0.052016 0.000000 0.000000
# 5 0.000000 0.000000 0.000000 0.000000 0.024249 0.000000
# 6 0.000000 0.000000 0.000000 0.000000 0.000000 0.014220
#
#
# Mechanical properties :
#
#
# Convention : Reuss Voigt Hill
#
# Bulk Modulus (GPa) = 25.57533 55.38966 40.48249
# Shear Modulus (GPa) = 32.54348 45.81910 39.18129
#
# Velocity S-wave (km/s) = 3.87698 4.60029 4.25404
# Velocity P-wave (km/s) = 5.64393 7.33484 6.54423
#
# Compressibility (1/GPa) = 0.03910018
#
# Stress axis : x y z
#
# Youngs Moduli (GPa) = 173.44790 36.90061 85.13554
#
# Poissons Ratio (x) = 0.08897 0.30508
# Poissons Ratio (y) = 0.41822 -0.27577
# Poissons Ratio (z) = 0.62155 -0.11953
#
# Static dielectric constant tensor:
#      x y z
#    x 1.854870 0.000000 0.000000 
#    y 0.000000 1.816920 0.000000 
#    z 0.000000 0.000000 1.741930 
# 
# From -- ./inp_files/37121.got.cif
#   From: 2010.05.17/outbox.cif.g08.bks.cpg/sg51_19_cif.got.tgz:37121.got - 2010.06.03 11:52:47.
