data_PCOD9401044
_publ_section_title
;
Structure prediction by ZEFSAII (Michael W. Deem and Ramdas Pophale) SiO2 
 PCOD9401044
Probable space group: P M M A
;
_chemical_formula_sum "Si O2"
_cell_formula_units_Z 56
_cell_length_a 19.588184
_cell_length_b 15.860502
_cell_length_c 9.548023
_cell_angle_alpha 90.000000
_cell_angle_beta 90.000000
_cell_angle_gamma 90.000000
_cell_volume 2966.364810
_symmetry_space_group_name_H-M "P M M A"
_symmetry_group_IT_number 51
_symmetry_cell_setting 'orthorhombic'
loop_
_space_group_symop_operation_xyz
x,y,z
1/2-x,-y,z
1/2+x,-y,-z
-x,y,-z
-x,-y,-z
1/2+x,y,-z
1/2-x,y,z
x,-y,z
loop_
_atom_site_type_symbol
_atom_site_label
_atom_site_fract_x
_atom_site_fract_y
_atom_site_fract_z
Si Si1 0.675643 0.378984 0.506090
Si Si2 0.960022 0.593028 0.357671
Si Si3 0.829987 0.186958 0.424348
Si Si4 0.094646 0.769784 0.119469
Si Si5 0.668326 0.093536 0.702855
Si Si6 0.329869 0.405695 0.166643
Si Si7 0.054935 0.763501 0.798550
O O1 0.750000 0.402040 0.452565
O O2 0.616939 0.413407 0.410255
O O3 0.670684 0.277661 0.501772
O O4 0.668658 0.407975 0.664726
O O5 0.986382 0.500000 0.316629
O O6 0.956106 0.664647 0.241043
O O7 0.000000 0.620618 0.500000
O O8 0.750000 0.172871 0.377214
O O9 0.849711 0.120410 0.543852
O O10 0.888788 0.197154 0.306752
O O11 0.146572 0.835468 0.187160
O O12 0.122359 0.673677 0.131962
O O13 0.024135 0.790975 0.201432
O O14 0.081249 0.779446 0.954812
O O15 0.750000 0.091041 0.703871
O O16 0.641679 0.000000 0.736345
O O17 0.250000 0.390175 0.126386
O O18 0.349104 0.500000 0.114794
#
# Coordination Sequence:
#
# PCOD9401044 Si02
#       7
#     8   8   8   8   8   8   8
#     4   9  16  29  50  76 106 140 184 240 291 334
#     4  10  20  33  51  78 111 153 204 251 291 335
#     4   9  18  36  59  85 113 145 191 247 297 348
#     4  11  22  40  56  83 125 160 198 240 288 355
#     4  10  21  40  69  96 115 146 192 241 297 358
#     4  10  19  31  53  83 114 156 204 245 288 340
#     4  10  24  37  56  84 118 165 198 236 299 355
#
# _framework density 18.878326999999999
#
# number of rings (size 3 to 8) (size 9 to 14) (size 15 to 20)
#    0.000    2.143    1.429    1.714    2.000    4.286 
#    0.000    5.000    0.000    1.714    0.000    0.000 
#    0.000    0.000    0.000    0.000    0.000    0.000 
#
# Total GULP energy -311887.260569 kJ/mol
# GULP energy per Si atom -5569.415367 kJ/mol
# Density = 1.883536 g / cm^3
# Si number density = 18.878327 Si / 1000 Ang^3
#
#
#
# Elastic Constant Matrix: (Units=GPa)
#
#
# Indices 1 2 3 4 5 6 
#
# 1 66.9472 30.4075 28.3718 0.0000 0.0000 0.0000
# 2 30.4075 85.8967 33.5005 0.0000 0.0000 0.0000
# 3 28.3718 33.5005 47.8975 0.0000 0.0000 0.0000
# 4 0.0000 0.0000 0.0000 7.0244 0.0000 0.0000
# 5 0.0000 0.0000 0.0000 0.0000 25.8356 0.0000
# 6 0.0000 0.0000 0.0000 0.0000 0.0000 10.1146
#
#
#
# Elastic Compliance Matrix: (Units=1/GPa)
#
#
# Indices 1 2 3 4 5 6 
#
# 1 0.020680 -0.003497 -0.009804 0.000000 0.000000 0.000000
# 2 -0.003497 0.016600 -0.009539 0.000000 0.000000 0.000000
# 3 -0.009804 -0.009539 0.033357 0.000000 0.000000 0.000000
# 4 0.000000 0.000000 0.000000 0.142360 0.000000 0.000000
# 5 0.000000 0.000000 0.000000 0.000000 0.038706 0.000000
# 6 0.000000 0.000000 0.000000 0.000000 0.000000 0.098867
#
#
# Mechanical properties :
#
#
# Convention : Reuss Voigt Hill
#
# Bulk Modulus (GPa) = 40.06830 42.81122 41.43976
# Shear Modulus (GPa) = 12.35879 15.82570 14.09225
#
# Velocity S-wave (km/s) = 2.56140 2.89848 2.73514
# Velocity P-wave (km/s) = 5.47889 5.82480 5.65449
#
# Compressibility (1/GPa) = 0.02495739
#
# Stress axis : x y z
#
# Youngs Moduli (GPa) = 48.35486 60.24022 29.97883
#
# Poissons Ratio (x) = 0.21068 0.29391
# Poissons Ratio (y) = 0.16911 0.28597
# Poissons Ratio (z) = 0.47406 0.57463
#
# Static dielectric constant tensor:
#      x y z
#    x 1.687070 0.000000 0.000000 
#    y 0.000000 1.755960 0.000000 
#    z 0.000000 0.000000 1.621160 
# 
# From -- ./inp_files/11012.got.cif
#   From: 2010.05.17/outbox.cif.g08.bks.cpg/sg51_6_cif.got.tgz:11012.got - 2010.06.03 11:52:47.
