data_PCOD9401503
_publ_section_title
;
Structure prediction by ZEFSAII (Michael W. Deem and Ramdas Pophale) SiO2 
 PCOD9401503
Probable space group: P M M A
;
_chemical_formula_sum "Si O2"
_cell_formula_units_Z 64
_cell_length_a 17.515200
_cell_length_b 14.084376
_cell_length_c 14.950228
_cell_angle_alpha 90.000000
_cell_angle_beta 90.000000
_cell_angle_gamma 90.000000
_cell_volume 3688.081650
_symmetry_space_group_name_H-M "P M M A"
_symmetry_group_IT_number 51
_symmetry_cell_setting 'orthorhombic'
loop_
_space_group_symop_operation_xyz
x,y,z
1/2-x,-y,z
1/2+x,-y,-z
-x,y,-z
-x,-y,-z
1/2+x,y,-z
1/2-x,y,z
x,-y,z
loop_
_atom_site_type_symbol
_atom_site_label
_atom_site_fract_x
_atom_site_fract_y
_atom_site_fract_z
Si Si1 0.590169 0.790747 0.300773
Si Si2 0.909046 0.272679 0.014625
Si Si3 0.840451 0.111400 0.128486
Si Si4 0.072321 0.390430 0.808986
Si Si5 0.390825 0.392187 0.154753
Si Si6 0.161224 0.890179 0.530827
Si Si7 0.053497 0.226192 0.415292
Si Si8 0.663296 0.389993 0.649175
O O1 0.613065 0.854073 0.215750
O O2 0.599231 0.681979 0.267929
O O3 0.640759 0.824286 0.384440
O O4 0.502914 0.800842 0.334514
O O5 0.869271 0.176799 0.047344
O O6 0.900161 0.347845 0.096120
O O7 0.877376 0.317953 0.923905
O O8 0.000000 0.258232 0.000000
O O9 0.750000 0.127344 0.144047
O O10 0.852246 0.000000 0.112830
O O11 0.094184 0.500000 0.796335
O O12 0.979843 0.385896 0.815167
O O13 0.379233 0.500000 0.121259
O O14 0.342031 0.378138 0.243627
O O15 0.250000 0.880568 0.508364
O O16 0.108058 0.857883 0.449179
O O17 0.146000 0.000000 0.554854
O O18 0.105044 0.316176 0.392587
O O19 0.000000 0.249274 0.500000
O O20 0.750000 0.373180 0.619085
O O21 0.643085 0.500000 0.630611
#
# Coordination Sequence:
#
# PCOD9401503 Si02
#       8
#     8   8   8   8   8   8   8   8
#     4  10  19  32  55  81 103 133 176 219 261 310
#     4   9  18  31  52  79 107 138 181 222 259 298
#     4  10  21  36  54  76 106 144 180 219 271 323
#     4   9  16  29  50  78 110 139 171 210 252 305
#     4   9  16  29  51  77 106 139 176 212 251 301
#     4  10  21  37  56  76 102 136 173 217 269 323
#     4  10  21  35  55  80 104 132 171 219 270 316
#     4  10  20  34  53  78 109 142 174 211 256 311
#
# _framework density 17.353193999999998
#
# number of rings (size 3 to 8) (size 9 to 14) (size 15 to 20)
#    0.000    2.375    1.250    1.500    0.000    6.250 
#    0.000    1.875    0.000   13.125    0.000    1.750 
#    0.000    0.000    0.000    0.000    0.000    0.000 
#
# Total GULP energy -356838.117857 kJ/mol
# GULP energy per Si atom -5575.595592 kJ/mol
# Density = 1.731370 g / cm^3
# Si number density = 17.353194 Si / 1000 Ang^3
#
#
#
# Elastic Constant Matrix: (Units=GPa)
#
#
# Indices 1 2 3 4 5 6 
#
# 1 72.3393 60.6784 33.2742 0.0000 0.0000 0.0000
# 2 60.6784 132.6351 57.3758 0.0000 0.0000 0.0000
# 3 33.2742 57.3758 57.1778 0.0000 0.0000 0.0000
# 4 0.0000 0.0000 0.0000 24.4462 0.0000 0.0000
# 5 0.0000 0.0000 0.0000 0.0000 3.9886 0.0000
# 6 0.0000 0.0000 0.0000 0.0000 0.0000 24.9728
#
#
#
# Elastic Compliance Matrix: (Units=1/GPa)
#
#
# Indices 1 2 3 4 5 6 
#
# 1 0.023226 -0.008444 -0.005043 0.000000 0.000000 0.000000
# 2 -0.008444 0.016393 -0.011535 0.000000 0.000000 0.000000
# 3 -0.005043 -0.011535 0.031999 0.000000 0.000000 0.000000
# 4 0.000000 0.000000 0.000000 0.040906 0.000000 0.000000
# 5 0.000000 0.000000 0.000000 0.000000 0.250712 0.000000
# 6 0.000000 0.000000 0.000000 0.000000 0.000000 0.040043
#
#
# Mechanical properties :
#
#
# Convention : Reuss Voigt Hill
#
# Bulk Modulus (GPa) = 46.35366 62.75655 54.55510
# Shear Modulus (GPa) = 10.85739 18.06978 14.46358
#
# Velocity S-wave (km/s) = 2.50405 3.23041 2.89014
# Velocity P-wave (km/s) = 5.92708 7.08215 6.53020
#
# Compressibility (1/GPa) = 0.02157327
#
# Stress axis : x y z
#
# Youngs Moduli (GPa) = 43.05446 61.00346 31.25069
#
# Poissons Ratio (x) = 0.51512 0.15760
# Poissons Ratio (y) = 0.36356 0.36049
# Poissons Ratio (z) = 0.21713 0.70369
#
# Static dielectric constant tensor:
#      x y z
#    x 1.597330 0.000000 0.000000 
#    y 0.000000 1.576360 0.000000 
#    z 0.000000 0.000000 1.584160 
# 
# From -- ./inp_files/25223.got.cif
#   From: 2010.05.17/outbox.cif.g08.bks.cpg/sg51_13_cif.got.tgz:25223.got - 2010.06.03 11:52:47.
