data_PCOD9401183
_publ_section_title
;
Structure prediction by ZEFSAII (Michael W. Deem and Ramdas Pophale) SiO2 
 PCOD9401183
Probable space group: P M M A
;
_chemical_formula_sum "Si O2"
_cell_formula_units_Z 64
_cell_length_a 9.153390
_cell_length_b 14.612000
_cell_length_c 31.793327
_cell_angle_alpha 90.000000
_cell_angle_beta 90.000000
_cell_angle_gamma 90.000000
_cell_volume 4252.336334
_symmetry_space_group_name_H-M "P M M A"
_symmetry_group_IT_number 51
_symmetry_cell_setting 'orthorhombic'
loop_
_space_group_symop_operation_xyz
x,y,z
1/2-x,-y,z
1/2+x,-y,-z
-x,y,-z
-x,-y,-z
1/2+x,y,-z
1/2-x,y,z
x,-y,z
loop_
_atom_site_type_symbol
_atom_site_label
_atom_site_fract_x
_atom_site_fract_y
_atom_site_fract_z
Si Si1 0.081736 0.611299 0.627387
Si Si2 0.075193 0.294700 0.042787
Si Si3 0.577571 0.391192 0.120738
Si Si4 0.076033 0.608683 0.286179
Si Si5 0.424700 0.897140 0.830225
Si Si6 0.918738 0.611559 0.542581
Si Si7 0.074937 0.291518 0.791206
Si Si8 0.925542 0.898132 0.920854
O O1 0.250000 0.641070 0.628310
O O2 0.081366 0.500000 0.626477
O O3 0.997332 0.637454 0.669783
O O4 0.001256 0.641624 0.584833
O O5 0.250000 0.301964 0.039852
O O6 0.033985 0.188070 0.050676
O O7 0.016126 0.349501 0.083004
O O8 0.000000 0.327266 0.000000
O O9 0.750000 0.372932 0.112676
O O10 0.557232 0.500000 0.123688
O O11 0.541053 0.344347 0.165253
O O12 0.250000 0.620270 0.288383
O O13 0.046032 0.500000 0.280257
O O14 0.008238 0.663652 0.247493
O O15 0.250000 0.890936 0.837363
O O16 0.463934 0.814523 0.799389
O O17 0.503260 0.885190 0.875015
O O18 0.457688 0.000000 0.814905
O O19 0.750000 0.639920 0.542695
O O20 0.920374 0.500000 0.542690
O O21 0.000000 0.640691 0.500000
O O22 0.250000 0.298812 0.784430
O O23 0.750000 0.896596 0.916358
O O24 0.968121 0.000000 0.936193
#
# Coordination Sequence:
#
# PCOD9401183 Si02
#       8
#     8   8   8   8   8   8   8   8
#     4   9  16  26  39  54  76 108 146 189 236 279
#     4  11  23  37  54  73  95 120 147 177 212 256
#     4  10  21  37  55  73  93 117 147 183 220 257
#     4  10  20  31  43  62  88 118 153 191 228 266
#     4   9  17  30  51  76  97 117 141 171 209 255
#     4   9  15  22  33  50  73 103 143 190 236 279
#     4  10  19  32  51  72  94 117 144 177 216 262
#     4   9  18  33  52  74  98 120 141 169 208 253
#
# _framework density 15.050549999999999
#
# number of rings (size 3 to 8) (size 9 to 14) (size 15 to 20)
#    0.000    2.375    1.250    1.875    0.000    6.500 
#    0.000    0.000    0.000    0.000    0.000    0.000 
#    0.000    0.000    0.000    0.000    0.000    0.625 
#
# Total GULP energy -356862.362220 kJ/mol
# GULP energy per Si atom -5575.974410 kJ/mol
# Density = 1.501629 g / cm^3
# Si number density = 15.050550 Si / 1000 Ang^3
#
#
#
# Elastic Constant Matrix: (Units=GPa)
#
#
# Indices 1 2 3 4 5 6 
#
# 1 64.6129 34.4159 64.0458 0.0000 0.0000 0.0000
# 2 34.4159 53.7659 44.5501 0.0000 0.0000 0.0000
# 3 64.0458 44.5501 131.6126 0.0000 0.0000 0.0000
# 4 0.0000 0.0000 0.0000 3.6242 0.0000 0.0000
# 5 0.0000 0.0000 0.0000 0.0000 29.3978 0.0000
# 6 0.0000 0.0000 0.0000 0.0000 0.0000 16.4084
#
#
#
# Elastic Compliance Matrix: (Units=1/GPa)
#
#
# Indices 1 2 3 4 5 6 
#
# 1 0.034184 -0.011255 -0.012825 0.000000 0.000000 0.000000
# 2 -0.011255 0.029555 -0.004527 0.000000 0.000000 0.000000
# 3 -0.012825 -0.004527 0.015372 0.000000 0.000000 0.000000
# 4 0.000000 0.000000 0.000000 0.275926 0.000000 0.000000
# 5 0.000000 0.000000 0.000000 0.000000 0.034016 0.000000
# 6 0.000000 0.000000 0.000000 0.000000 0.000000 0.060944
#
#
# Mechanical properties :
#
#
# Convention : Reuss Voigt Hill
#
# Bulk Modulus (GPa) = 45.67026 59.55723 52.61374
# Shear Modulus (GPa) = 9.71799 17.01805 13.36802
#
# Velocity S-wave (km/s) = 2.54380 3.36628 2.98352
# Velocity P-wave (km/s) = 6.24807 7.40044 6.84853
#
# Compressibility (1/GPa) = 0.02189609
#
# Stress axis : x y z
#
# Youngs Moduli (GPa) = 29.25331 33.83569 65.05520
#
# Poissons Ratio (x) = 0.38081 0.83435
# Poissons Ratio (y) = 0.32924 0.29452
# Poissons Ratio (z) = 0.37518 0.15318
#
# Static dielectric constant tensor:
#      x y z
#    x 1.490930 0.000000 0.000000 
#    y 0.000000 1.500550 0.000000 
#    z 0.000000 0.000000 1.473810 
# 
# From -- ./inp_files/37583.got.cif
#   From: 2010.05.17/outbox.cif.g08.bks.cpg/sg51_19_cif.got.tgz:37583.got - 2010.06.03 11:52:47.
