data_PCOD9401676
_publ_section_title
;
Structure prediction by ZEFSAII (Michael W. Deem and Ramdas Pophale) SiO2 
 PCOD9401676
Probable space group: P M M A
;
_chemical_formula_sum "Si O2"
_cell_formula_units_Z 64
_cell_length_a 14.522158
_cell_length_b 8.694221
_cell_length_c 29.336917
_cell_angle_alpha 90.000000
_cell_angle_beta 90.000000
_cell_angle_gamma 90.000000
_cell_volume 3704.045434
_symmetry_space_group_name_H-M "P M M A"
_symmetry_group_IT_number 51
_symmetry_cell_setting 'orthorhombic'
loop_
_space_group_symop_operation_xyz
x,y,z
1/2-x,-y,z
1/2+x,-y,-z
-x,y,-z
-x,-y,-z
1/2+x,y,-z
1/2-x,y,z
x,-y,z
loop_
_atom_site_type_symbol
_atom_site_label
_atom_site_fract_x
_atom_site_fract_y
_atom_site_fract_z
Si Si1 0.349462 0.817873 0.865527
Si Si2 0.145041 0.187077 0.521449
Si Si3 0.599500 0.677182 0.940920
Si Si4 0.047083 0.684467 0.155622
Si Si5 0.038561 0.814119 0.429255
Si Si6 0.880631 0.679498 0.038996
Si Si7 0.357011 0.315924 0.342985
Si Si8 0.359333 0.182065 0.244961
O O1 0.250000 0.768888 0.845846
O O2 0.440694 0.735666 0.847313
O O3 0.345871 0.778701 0.919214
O O4 0.359493 0.000000 0.859131
O O5 0.250000 0.241134 0.528551
O O6 0.104940 0.229725 0.471696
O O7 0.065621 0.234172 0.557279
O O8 0.147035 0.000000 0.522461
O O9 0.631791 0.500000 0.938335
O O10 0.601707 0.744233 0.889881
O O11 0.490583 0.675264 0.952281
O O12 0.640554 0.740692 0.988162
O O13 0.050539 0.500000 0.153318
O O14 0.090726 0.743775 0.201970
O O15 0.078975 0.746045 0.383163
O O16 0.039459 0.000000 0.426527
O O17 0.851841 0.500000 0.042189
O O18 0.250000 0.266545 0.350631
O O19 0.358836 0.500000 0.342370
O O20 0.386406 0.253101 0.293615
O O21 0.250000 0.208909 0.240042
O O22 0.376065 0.000000 0.245589
#
# Coordination Sequence:
#
# PCOD9401676 Si02
#       8
#     8   8   8   8   8   8   8   8
#     4  10  20  32  46  68  99 131 163 200 241 286
#     4   8  14  25  43  70 104 139 174 210 247 290
#     4   7  12  24  43  66  89 116 150 187 230 280
#     4  10  19  33  54  75  97 126 160 200 244 292
#     4   9  16  27  47  73  99 133 175 213 248 288
#     4   8  13  25  44  63  86 117 155 194 229 273
#     4  10  20  33  50  73 100 128 159 200 249 296
#     4  10  21  37  56  77 100 125 155 195 246 303
#
# _framework density 17.278406
#
# number of rings (size 3 to 8) (size 9 to 14) (size 15 to 20)
#    0.000    3.000    0.000    4.125    0.000    3.000 
#    0.000    7.500    0.000    5.625    0.000    1.750 
#    0.000    0.000    0.000    0.000    0.000    0.000 
#
# Total GULP energy -356345.652918 kJ/mol
# GULP energy per Si atom -5567.900827 kJ/mol
# Density = 1.723908 g / cm^3
# Si number density = 17.278406 Si / 1000 Ang^3
#
#
#
# Elastic Constant Matrix: (Units=GPa)
#
#
# Indices 1 2 3 4 5 6 
#
# 1 84.2130 32.0677 58.0944 0.0000 0.0000 0.0000
# 2 32.0677 23.9268 42.1266 0.0000 0.0000 0.0000
# 3 58.0944 42.1266 148.1443 0.0000 0.0000 0.0000
# 4 0.0000 0.0000 0.0000 27.5164 0.0000 0.0000
# 5 0.0000 0.0000 0.0000 0.0000 -131.3520 0.0000
# 6 0.0000 0.0000 0.0000 0.0000 0.0000 21.8126
#
#
#
# Elastic Compliance Matrix: (Units=1/GPa)
#
#
# Indices 1 2 3 4 5 6 
#
# 1 0.024273 -0.031587 -0.000536 0.000000 0.000000 0.000000
# 2 -0.031587 0.124805 -0.023103 0.000000 0.000000 0.000000
# 3 -0.000536 -0.023103 0.013530 0.000000 0.000000 0.000000
# 4 0.000000 0.000000 0.000000 0.036342 0.000000 0.000000
# 5 0.000000 0.000000 0.000000 0.000000 -0.007613 0.000000
# 6 0.000000 0.000000 0.000000 0.000000 0.000000 0.045845
#
#
# Mechanical properties :
#
#
# Convention : Reuss Voigt Hill
#
# Bulk Modulus (GPa) = 19.17362 57.87352 38.52357
# Shear Modulus (GPa) = 13.69785 -8.13825 2.77980
#
# Velocity S-wave (km/s) = 2.81868 -2.17262 1.26977
# Velocity P-wave (km/s) = 4.65985 5.22242 4.94914
#
# Compressibility (1/GPa) = 0.05215499
#
# Stress axis : x y z
#
# Youngs Moduli (GPa) = 41.19822 8.01247 73.90932
#
# Poissons Ratio (x) = 0.25309 0.03964
# Poissons Ratio (y) = 1.30135 1.70753
# Poissons Ratio (z) = 0.02209 0.18511
#
# Static dielectric constant tensor:
#      x y z
#    x 1.606970 0.000000 0.000000 
#    y 0.000000 1.580350 0.000000 
#    z 0.000000 0.000000 1.583540 
# 
# From -- ./inp_files/37815.got.cif
#   From: 2010.05.17/outbox.cif.g08.bks.cpg/sg51_19_cif.got.tgz:37815.got - 2010.06.03 11:52:47.
