data_PCOD9401484
_publ_section_title
;
Structure prediction by ZEFSAII (Michael W. Deem and Ramdas Pophale) SiO2 
 PCOD9401484
Probable space group: P M M A
;
_chemical_formula_sum "Si O2"
_cell_formula_units_Z 36
_cell_length_a 7.422713
_cell_length_b 8.490572
_cell_length_c 25.024427
_cell_angle_alpha 90.000000
_cell_angle_beta 90.000000
_cell_angle_gamma 90.000000
_cell_volume 1577.116444
_symmetry_space_group_name_H-M "P M M A"
_symmetry_group_IT_number 51
_symmetry_cell_setting 'orthorhombic'
loop_
_space_group_symop_operation_xyz
x,y,z
1/2-x,-y,z
1/2+x,-y,-z
-x,y,-z
-x,-y,-z
1/2+x,y,-z
1/2-x,y,z
x,-y,z
loop_
_atom_site_type_symbol
_atom_site_label
_atom_site_fract_x
_atom_site_fract_y
_atom_site_fract_z
Si Si1 0.030073 0.320870 0.669502
Si Si2 0.532092 0.176157 0.220068
Si Si3 0.534597 0.000000 0.937162
Si Si4 0.459853 0.326829 0.111850
Si Si5 0.465344 0.820586 0.558227
O O1 0.250000 0.316075 0.668715
O O2 0.976254 0.500000 0.678782
O O3 0.973260 0.217378 0.719988
O O4 0.967527 0.264159 0.611384
O O5 0.750000 0.178359 0.219710
O O6 0.470430 0.298378 0.175467
O O7 0.472196 0.000000 0.205300
O O8 0.462554 0.165340 0.913192
O O9 0.750000 0.000000 0.926800
O O10 0.500000 0.000000 0.000000
O O11 0.250000 0.331396 0.096000
O O12 0.536721 0.500000 0.098484
O O13 0.500000 0.747161 0.500000
O O14 0.250000 0.828368 0.563272
O O15 0.535647 0.000000 0.557201
#
# Coordination Sequence:
#
# PCOD9401484 Si02
#       5
#     8   8   4   8   8
#     4   9  17  29  46  70  99 130 166 211 262 313
#     4  10  19  32  54  82 109 139 179 224 269 320
#     4  10  22  40  60  84 116 150 187 226 265 314
#     4  10  21  38  59  83 114 151 185 221 272 325
#     4   9  17  30  47  65  88 121 162 207 257 313
#
# _framework density 22.826467999999998
#
# number of rings (size 3 to 8) (size 9 to 14) (size 15 to 20)
#    0.000    2.444    1.111    1.333    0.000    5.778 
#    0.000    1.111    0.000    4.000    0.000    0.000 
#    0.000    0.000    0.000    0.000    0.000    0.000 
#
# Total GULP energy -201006.394518 kJ/mol
# GULP energy per Si atom -5583.510959 kJ/mol
# Density = 2.277451 g / cm^3
# Si number density = 22.826468 Si / 1000 Ang^3
#
#
#
# Elastic Constant Matrix: (Units=GPa)
#
#
# Indices 1 2 3 4 5 6 
#
# 1 75.5870 9.0566 -8.7055 0.0000 0.0000 0.0000
# 2 9.0566 165.3949 58.3962 0.0000 0.0000 0.0000
# 3 -8.7055 58.3962 121.0839 0.0000 0.0000 0.0000
# 4 0.0000 0.0000 0.0000 10.9086 0.0000 0.0000
# 5 0.0000 0.0000 0.0000 0.0000 21.2946 0.0000
# 6 0.0000 0.0000 0.0000 0.0000 0.0000 -0.7734
#
#
#
# Elastic Compliance Matrix: (Units=1/GPa)
#
#
# Indices 1 2 3 4 5 6 
#
# 1 0.013572 -0.001311 0.001608 0.000000 0.000000 0.000000
# 2 -0.001311 0.007414 -0.003670 0.000000 0.000000 0.000000
# 3 0.001608 -0.003670 0.010144 0.000000 0.000000 0.000000
# 4 0.000000 0.000000 0.000000 0.091671 0.000000 0.000000
# 5 0.000000 0.000000 0.000000 0.000000 0.046960 0.000000
# 6 0.000000 0.000000 0.000000 0.000000 0.000000 -1.293030
#
#
# Mechanical properties :
#
#
# Convention : Reuss Voigt Hill
#
# Bulk Modulus (GPa) = 41.00942 53.28448 47.14695
# Shear Modulus (GPa) = -4.51102 26.50720 10.99809
#
# Velocity S-wave (km/s) = -1.40731 3.41141 2.19741
# Velocity P-wave (km/s) = 3.91970 6.23786 5.20936
#
# Compressibility (1/GPa) = 0.02438464
#
# Stress axis : x y z
#
# Youngs Moduli (GPa) = 73.68083 134.88788 98.57905
#
# Poissons Ratio (x) = 0.17683 -0.15852
# Poissons Ratio (y) = 0.09659 0.36175
# Poissons Ratio (z) = -0.11848 0.49499
#
# Static dielectric constant tensor:
#      x y z
#    x 1.881240 0.000000 0.000000 
#    y 0.000000 1.848810 0.000000 
#    z 0.000000 0.000000 1.818740 
# 
# From -- ./inp_files/32748.got.cif
#   From: 2010.05.17/outbox.cif.g08.bks.cpg/sg51_17_cif.got.tgz:32748.got - 2010.06.03 11:52:47.
