data_PCOD9401506
_publ_section_title
;
Structure prediction by ZEFSAII (Michael W. Deem and Ramdas Pophale) SiO2 
 PCOD9401506
Probable space group: P M M A
;
_chemical_formula_sum "Si O2"
_cell_formula_units_Z 48
_cell_length_a 18.155957
_cell_length_b 17.258514
_cell_length_c 8.973044
_cell_angle_alpha 90.000000
_cell_angle_beta 90.000000
_cell_angle_gamma 90.000000
_cell_volume 2811.657019
_symmetry_space_group_name_H-M "P M M A"
_symmetry_group_IT_number 51
_symmetry_cell_setting 'orthorhombic'
loop_
_space_group_symop_operation_xyz
x,y,z
1/2-x,-y,z
1/2+x,-y,-z
-x,y,-z
-x,-y,-z
1/2+x,y,-z
1/2-x,y,z
x,-y,z
loop_
_atom_site_type_symbol
_atom_site_label
_atom_site_fract_x
_atom_site_fract_y
_atom_site_fract_z
Si Si1 0.982492 0.813906 0.173716
Si Si2 0.163483 0.178589 0.645490
Si Si3 0.026155 0.657206 0.327348
Si Si4 0.836119 0.500000 0.333833
Si Si5 0.522476 0.500000 0.170820
Si Si6 0.574152 0.911927 0.599884
Si Si7 0.165920 0.342359 0.486146
O O1 0.899324 0.836796 0.228355
O O2 0.992641 0.726357 0.232173
O O3 0.044695 0.864008 0.259507
O O4 0.000000 0.819376 0.000000
O O5 0.250000 0.162381 0.681107
O O6 0.135561 0.130568 0.500491
O O7 0.158619 0.268936 0.596299
O O8 0.113166 0.667830 0.346224
O O9 0.000000 0.662316 0.500000
O O10 0.007370 0.575623 0.255029
O O11 0.750000 0.500000 0.296169
O O12 0.889646 0.500000 0.193568
O O13 0.852056 0.422756 0.429726
O O14 0.500000 0.500000 0.000000
O O15 0.500000 0.914374 0.500000
O O16 0.595727 0.000000 0.635676
O O17 0.250000 0.346748 0.438820
#
# Coordination Sequence:
#
# PCOD9401506 Si02
#       7
#     8   8   8   4   4   8   8
#     4  11  21  35  55  84 118 153 183 227 288 349
#     4  10  19  35  57  82 110 144 191 238 279 328
#     4  12  19  36  57  77 107 144 195 238 272 325
#     4  10  19  33  52  76 105 141 180 227 281 328
#     4  12  24  34  51  83 110 148 188 233 289 341
#     4   9  18  35  58  81 105 140 188 231 268 326
#     4  10  19  32  55  82 103 135 186 236 277 315
#
# _framework density 17.071783
#
# number of rings (size 3 to 8) (size 9 to 14) (size 15 to 20)
#    0.000    1.500    5.000    1.750    0.000    0.667 
#    0.000    2.500    0.000    0.000    0.000    0.000 
#    0.000    0.000    0.000    0.000    0.000    0.000 
#
# Total GULP energy -267546.110514 kJ/mol
# GULP energy per Si atom -5573.877302 kJ/mol
# Density = 1.703293 g / cm^3
# Si number density = 17.071783 Si / 1000 Ang^3
#
#
#
# Elastic Constant Matrix: (Units=GPa)
#
#
# Indices 1 2 3 4 5 6 
#
# 1 125.5305 18.2336 46.4570 0.0000 0.0000 0.0000
# 2 18.2336 103.7365 40.2055 0.0000 0.0000 0.0000
# 3 46.4570 40.2055 117.0478 0.0000 0.0000 0.0000
# 4 0.0000 0.0000 0.0000 -5.7329 0.0000 0.0000
# 5 0.0000 0.0000 0.0000 0.0000 20.3471 0.0000
# 6 0.0000 0.0000 0.0000 0.0000 0.0000 15.9950
#
#
#
# Elastic Compliance Matrix: (Units=1/GPa)
#
#
# Indices 1 2 3 4 5 6 
#
# 1 0.009343 -0.000236 -0.003627 0.000000 0.000000 0.000000
# 2 -0.000236 0.011126 -0.003728 0.000000 0.000000 0.000000
# 3 -0.003627 -0.003728 0.011264 0.000000 0.000000 0.000000
# 4 0.000000 0.000000 0.000000 -0.174432 0.000000 0.000000
# 5 0.000000 0.000000 0.000000 0.000000 0.049147 0.000000
# 6 0.000000 0.000000 0.000000 0.000000 0.000000 0.062520
#
#
# Mechanical properties :
#
#
# Convention : Reuss Voigt Hill
#
# Bulk Modulus (GPa) = 60.42349 61.78966 61.10658
# Shear Modulus (GPa) = -483.90271 22.21642 -230.84315
#
# Velocity S-wave (km/s) = -16.85429 3.61134 -11.64099
# Velocity P-wave (km/s) = 18.52797 7.32541 12.03378
#
# Compressibility (1/GPa) = 0.01654986
#
# Stress axis : x y z
#
# Youngs Moduli (GPa) = 107.03384 89.87773 88.78120
#
# Poissons Ratio (x) = 0.02125 0.32201
# Poissons Ratio (y) = 0.02531 0.33097
# Poissons Ratio (z) = 0.38821 0.33506
#
# Static dielectric constant tensor:
#      x y z
#    x 1.630970 0.000000 0.000000 
#    y 0.000000 1.600290 0.000000 
#    z 0.000000 0.000000 1.543550 
# 
# From -- ./inp_files/9674.got.cif
#   From: 2010.05.17/outbox.cif.g08.bks.cpg/sg51_5_cif.got.tgz:9674.got - 2010.06.03 11:52:47.
