data_PCOD9401652
_publ_section_title
;
Structure prediction by ZEFSAII (Michael W. Deem and Ramdas Pophale) SiO2 
 PCOD9401652
Probable space group: P M M A
;
_chemical_formula_sum "Si O2"
_cell_formula_units_Z 64
_cell_length_a 14.868100
_cell_length_b 9.050258
_cell_length_c 25.058876
_cell_angle_alpha 90.000000
_cell_angle_beta 90.000000
_cell_angle_gamma 90.000000
_cell_volume 3371.925887
_symmetry_space_group_name_H-M "P M M A"
_symmetry_group_IT_number 51
_symmetry_cell_setting 'orthorhombic'
loop_
_space_group_symop_operation_xyz
x,y,z
1/2-x,-y,z
1/2+x,-y,-z
-x,y,-z
-x,-y,-z
1/2+x,y,-z
1/2-x,y,z
x,-y,z
loop_
_atom_site_type_symbol
_atom_site_label
_atom_site_fract_x
_atom_site_fract_y
_atom_site_fract_z
Si Si1 0.853611 0.822479 0.637277
Si Si2 0.395336 0.829706 0.483806
Si Si3 0.466485 0.176810 0.876759
Si Si4 0.653240 0.676639 0.410123
Si Si5 0.852702 0.676459 0.904451
Si Si6 0.144888 0.321851 0.782176
Si Si7 0.853692 0.826913 0.018587
Si Si8 0.478519 0.321924 0.680646
O O1 0.750000 0.785625 0.648134
O O2 0.876867 0.775965 0.576152
O O3 0.923477 0.748628 0.677544
O O4 0.863867 0.000000 0.639228
O O5 0.500000 0.826166 0.500000
O O6 0.350184 0.737500 0.530462
O O7 0.364666 0.000000 0.486083
O O8 0.565951 0.245973 0.873374
O O9 0.400531 0.244287 0.832661
O O10 0.422737 0.211112 0.934656
O O11 0.470697 0.000000 0.871865
O O12 0.750000 0.713981 0.385426
O O13 0.646130 0.500000 0.412154
O O14 0.573950 0.731762 0.372407
O O15 0.750000 0.716977 0.888183
O O16 0.861283 0.500000 0.900834
O O17 0.862689 0.729337 0.965839
O O18 0.250000 0.281520 0.775651
O O19 0.141334 0.500000 0.788602
O O20 0.083916 0.284071 0.730842
O O21 0.750000 0.812936 0.037909
O O22 0.867469 0.000000 0.003954
O O23 0.485816 0.500000 0.678953
#
# Coordination Sequence:
#
# PCOD9401652 Si02
#       8
#     8   8   8   8   8   8   8   8
#     4  10  21  37  56  79 110 146 183 225 272 324
#     4  10  19  33  53  77 108 145 181 218 264 321
#     4  11  22  36  57  85 116 151 191 235 283 336
#     4  10  20  33  52  79 109 140 175 217 266 321
#     4  10  21  36  55  82 116 154 196 238 279 328
#     4  10  22  41  63  85 111 144 181 226 282 337
#     4   9  18  33  53  80 117 156 190 228 279 337
#     4  10  21  38  59  81 107 139 180 227 275 327
#
# _framework density 18.980250999999999
#
# number of rings (size 3 to 8) (size 9 to 14) (size 15 to 20)
#    0.000    2.000    1.250    2.250    0.000    7.750 
#    0.000    1.875    0.000    3.000    0.000    0.000 
#    0.000    0.000    0.000    0.000    0.000    0.000 
#
# Total GULP energy -357233.741318 kJ/mol
# GULP energy per Si atom -5581.777208 kJ/mol
# Density = 1.893705 g / cm^3
# Si number density = 18.980251 Si / 1000 Ang^3
#
#
#
# Elastic Constant Matrix: (Units=GPa)
#
#
# Indices 1 2 3 4 5 6 
#
# 1 159.1010 46.3241 52.1454 0.0000 0.0000 0.0000
# 2 46.3241 22.3030 22.4204 0.0000 0.0000 0.0000
# 3 52.1454 22.4204 54.8335 0.0000 0.0000 0.0000
# 4 0.0000 0.0000 0.0000 179.4495 0.0000 0.0000
# 5 0.0000 0.0000 0.0000 0.0000 31.1041 0.0000
# 6 0.0000 0.0000 0.0000 0.0000 0.0000 19.9073
#
#
#
# Elastic Compliance Matrix: (Units=1/GPa)
#
#
# Indices 1 2 3 4 5 6 
#
# 1 0.016150 -0.030740 -0.002789 0.000000 0.000000 0.000000
# 2 -0.030740 0.134638 -0.025819 0.000000 0.000000 0.000000
# 3 -0.002789 -0.025819 0.031446 0.000000 0.000000 0.000000
# 4 0.000000 0.000000 0.000000 0.005573 0.000000 0.000000
# 5 0.000000 0.000000 0.000000 0.000000 0.032150 0.000000
# 6 0.000000 0.000000 0.000000 0.000000 0.000000 0.050233
#
#
# Mechanical properties :
#
#
# Convention : Reuss Voigt Hill
#
# Bulk Modulus (GPa) = 15.73816 53.11303 34.42559
# Shear Modulus (GPa) = 12.19322 53.78203 32.98762
#
# Velocity S-wave (km/s) = 2.53734 5.32891 4.17345
# Velocity P-wave (km/s) = 4.11023 8.11832 6.43433
#
# Compressibility (1/GPa) = 0.06353983
#
# Stress axis : x y z
#
# Youngs Moduli (GPa) = 61.92099 7.42730 31.80040
#
# Poissons Ratio (x) = 0.22831 0.08869
# Poissons Ratio (y) = 1.90342 0.82104
# Poissons Ratio (z) = 0.17270 0.19176
#
# Static dielectric constant tensor:
#      x y z
#    x 1.699880 0.000000 0.000000 
#    y 0.000000 1.635420 0.000000 
#    z 0.000000 0.000000 1.638520 
# 
# From -- ./inp_files/35829.got.cif
#   From: 2010.05.17/outbox.cif.g08.bks.cpg/sg51_18_cif.got.tgz:35829.got - 2010.06.03 11:52:47.
