data_PCOD9401513
_publ_section_title
;
Structure prediction by ZEFSAII (Michael W. Deem and Ramdas Pophale) SiO2 
 PCOD9401513
Probable space group: P M M A
;
_chemical_formula_sum "Si O2"
_cell_formula_units_Z 64
_cell_length_a 8.472055
_cell_length_b 25.646814
_cell_length_c 15.264450
_cell_angle_alpha 90.000000
_cell_angle_beta 90.000000
_cell_angle_gamma 90.000000
_cell_volume 3316.678300
_symmetry_space_group_name_H-M "P M M A"
_symmetry_group_IT_number 51
_symmetry_cell_setting 'orthorhombic'
loop_
_space_group_symop_operation_xyz
x,y,z
1/2-x,-y,z
1/2+x,-y,-z
-x,y,-z
-x,-y,-z
1/2+x,y,-z
1/2-x,y,z
x,-y,z
loop_
_atom_site_type_symbol
_atom_site_label
_atom_site_fract_x
_atom_site_fract_y
_atom_site_fract_z
Si Si1 0.441121 0.057603 0.210156
Si Si2 0.938976 0.803669 0.410799
Si Si3 0.440256 0.559508 0.093723
Si Si4 0.939682 0.156785 0.099769
Si Si5 0.063707 0.079114 0.406929
Si Si6 0.060484 0.249581 0.772883
Si Si7 0.559340 0.365806 0.751331
Si Si8 0.559330 0.440983 0.598680
O O1 0.250000 0.061733 0.210439
O O2 0.506502 0.105657 0.154073
O O3 0.495356 0.059855 0.312153
O O4 0.483222 0.000000 0.175122
O O5 0.750000 0.810948 0.415425
O O6 0.978795 0.773818 0.322376
O O7 0.000000 0.777331 0.500000
O O8 0.022523 0.859645 0.406473
O O9 0.250000 0.559002 0.093748
O O10 0.494936 0.500000 0.106196
O O11 0.494232 0.596441 0.170874
O O12 0.500000 0.578054 0.000000
O O13 0.750000 0.157228 0.098767
O O14 0.994858 0.208650 0.152775
O O15 0.000000 0.155799 0.000000
O O16 0.250000 0.070561 0.408158
O O17 0.000000 0.058705 0.500000
O O18 0.250000 0.251796 0.779684
O O19 0.996062 0.307846 0.772491
O O20 0.750000 0.365296 0.749066
O O21 0.504816 0.394440 0.662169
O O22 0.500000 0.434096 0.500000
O O23 0.750000 0.440453 0.598769
O O24 0.512161 0.500000 0.628160
#
# Coordination Sequence:
#
# PCOD9401513 Si02
#       8
#     8   8   8   8   8   8   8   8
#     4  10  22  40  62  90 122 154 191 236 284 338
#     4  10  19  34  55  80 109 144 185 226 271 323
#     4   9  18  34  55  79 107 139 176 221 272 327
#     4  11  24  44  66  87 112 147 191 238 292 349
#     4  10  19  32  55  85 118 154 189 226 270 324
#     4  10  23  40  57  80 114 148 184 233 283 334
#     4  10  21  35  55  81 110 146 187 228 276 336
#     4   9  18  34  55  80 112 151 194 238 283 333
#
# _framework density 19.296413999999999
#
# number of rings (size 3 to 8) (size 9 to 14) (size 15 to 20)
#    0.000    2.125    1.250    2.250    0.000    6.750 
#    0.000    5.000    0.000    3.750    0.000    0.000 
#    0.000    0.000    0.000    0.000    0.000    0.000 
#
# Total GULP energy -357059.363352 kJ/mol
# GULP energy per Si atom -5579.052552 kJ/mol
# Density = 1.925249 g / cm^3
# Si number density = 19.296414 Si / 1000 Ang^3
#
#
#
# Elastic Constant Matrix: (Units=GPa)
#
#
# Indices 1 2 3 4 5 6 
#
# 1 15.8017 22.9476 30.5008 0.0000 0.0000 0.0000
# 2 22.9476 132.6731 93.2562 0.0000 0.0000 0.0000
# 3 30.5008 93.2562 158.9699 0.0000 0.0000 0.0000
# 4 0.0000 0.0000 0.0000 -25.4947 0.0000 0.0000
# 5 0.0000 0.0000 0.0000 0.0000 29.4167 0.0000
# 6 0.0000 0.0000 0.0000 0.0000 0.0000 8.7638
#
#
#
# Elastic Compliance Matrix: (Units=1/GPa)
#
#
# Indices 1 2 3 4 5 6 
#
# 1 0.103930 -0.006738 -0.015988 0.000000 0.000000 0.000000
# 2 -0.006738 0.013263 -0.006488 0.000000 0.000000 0.000000
# 3 -0.015988 -0.006488 0.013164 0.000000 0.000000 0.000000
# 4 0.000000 0.000000 0.000000 -0.039224 0.000000 0.000000
# 5 0.000000 0.000000 0.000000 0.000000 0.033994 0.000000
# 6 0.000000 0.000000 0.000000 0.000000 0.000000 0.114105
#
#
# Mechanical properties :
#
#
# Convention : Reuss Voigt Hill
#
# Bulk Modulus (GPa) = 13.90251 66.76156 40.33203
# Shear Modulus (GPa) = 15.54554 13.25317 14.39935
#
# Velocity S-wave (km/s) = 2.84142 2.62357 2.73466
# Velocity P-wave (km/s) = 4.24090 6.62197 5.56038
#
# Compressibility (1/GPa) = 0.07192948
#
# Stress axis : x y z
#
# Youngs Moduli (GPa) = 9.62188 75.39817 75.96619
#
# Poissons Ratio (x) = 0.50806 1.21452
# Poissons Ratio (y) = 0.06484 0.49283
# Poissons Ratio (z) = 0.15383 0.48915
#
# Static dielectric constant tensor:
#      x y z
#    x 1.667670 0.000000 0.000000 
#    y 0.000000 1.672080 0.000000 
#    z 0.000000 0.000000 1.700500 
# 
# From -- ./inp_files/22334.got.cif
#   From: 2010.05.17/outbox.cif.g08.bks.cpg/sg51_12_cif.got.tgz:22334.got - 2010.06.03 11:52:47.
