data_PCOD9401998
_publ_section_title
;
Structure prediction by ZEFSAII (Michael W. Deem and Ramdas Pophale) SiO2 
 PCOD9401998
Probable space group: P M M A
;
_chemical_formula_sum "Si O2"
_cell_formula_units_Z 36
_cell_length_a 8.626577
_cell_length_b 23.710138
_cell_length_c 9.933803
_cell_angle_alpha 90.000000
_cell_angle_beta 90.000000
_cell_angle_gamma 90.000000
_cell_volume 2031.833554
_symmetry_space_group_name_H-M "P M M A"
_symmetry_group_IT_number 51
_symmetry_cell_setting 'orthorhombic'
loop_
_space_group_symop_operation_xyz
x,y,z
1/2-x,-y,z
1/2+x,-y,-z
-x,y,-z
-x,-y,-z
1/2+x,y,-z
1/2-x,y,z
x,-y,z
loop_
_atom_site_type_symbol
_atom_site_label
_atom_site_fract_x
_atom_site_fract_y
_atom_site_fract_z
Si Si1 0.063014 0.123932 0.847127
Si Si2 0.564332 0.435032 0.849881
Si Si3 0.435012 0.341881 0.649301
Si Si4 0.935328 0.780730 0.650250
Si Si5 0.436211 0.000000 0.848529
O O1 0.250000 0.127733 0.849932
O O2 0.994633 0.172185 0.752984
O O3 0.017501 0.061228 0.792383
O O4 0.000000 0.128944 0.000000
O O5 0.750000 0.428692 0.849995
O O6 0.527816 0.500000 0.812159
O O7 0.489513 0.390638 0.749048
O O8 0.500000 0.425957 0.000000
O O9 0.500000 0.353206 0.500000
O O10 0.250000 0.338467 0.644376
O O11 0.502587 0.281036 0.691312
O O12 0.750000 0.779808 0.645886
O O13 0.000000 0.791616 0.500000
O O14 0.250000 0.000000 0.852767
O O15 0.500000 0.000000 0.000000
#
# Coordination Sequence:
#
# PCOD9401998 Si02
#       5
#     8   8   8   8   4
#     4  10  19  34  55  82 110 141 180 222 268 319
#     4  10  21  38  59  84 114 146 180 221 269 319
#     4  11  22  38  59  82 109 143 182 224 269 320
#     4  11  22  38  57  79 108 143 180 223 273 323
#     4   8  16  30  51  76 107 140 174 218 266 316
#
# _framework density 17.717987000000001
#
# number of rings (size 3 to 8) (size 9 to 14) (size 15 to 20)
#    0.000    1.778    0.000    6.667    0.000    3.556 
#    0.000    5.000    0.000    0.000    0.000    0.000 
#    0.000    0.000    0.000    0.000    0.000    0.000 
#
# Total GULP energy -200971.091326 kJ/mol
# GULP energy per Si atom -5582.530315 kJ/mol
# Density = 1.767766 g / cm^3
# Si number density = 17.717987 Si / 1000 Ang^3
#
#
#
# Elastic Constant Matrix: (Units=GPa)
#
#
# Indices 1 2 3 4 5 6 
#
# 1 141.0747 89.3883 55.9422 0.0000 0.0000 0.0000
# 2 89.3883 193.9983 111.8354 0.0000 0.0000 0.0000
# 3 55.9422 111.8354 80.1955 0.0000 0.0000 0.0000
# 4 0.0000 0.0000 0.0000 5.7428 0.0000 0.0000
# 5 0.0000 0.0000 0.0000 0.0000 32.5154 0.0000
# 6 0.0000 0.0000 0.0000 0.0000 0.0000 36.8162
#
#
#
# Elastic Compliance Matrix: (Units=1/GPa)
#
#
# Indices 1 2 3 4 5 6 
#
# 1 0.010137 -0.003031 -0.002844 0.000000 0.000000 0.000000
# 2 -0.003031 0.027195 -0.035809 0.000000 0.000000 0.000000
# 3 -0.002844 -0.035809 0.064391 0.000000 0.000000 0.000000
# 4 0.000000 0.000000 0.000000 0.174130 0.000000 0.000000
# 5 0.000000 0.000000 0.000000 0.000000 0.030755 0.000000
# 6 0.000000 0.000000 0.000000 0.000000 0.000000 0.027162
#
#
# Mechanical properties :
#
#
# Convention : Reuss Voigt Hill
#
# Bulk Modulus (GPa) = 54.48671 103.28892 78.88781
# Shear Modulus (GPa) = 11.81317 25.55506 18.68412
#
# Velocity S-wave (km/s) = 2.58492 3.80191 3.25087
# Velocity P-wave (km/s) = 6.30302 8.81450 7.66236
#
# Compressibility (1/GPa) = 0.01835310
#
# Stress axis : x y z
#
# Youngs Moduli (GPa) = 98.64956 36.77192 15.53013
#
# Poissons Ratio (x) = 0.11146 0.04417
# Poissons Ratio (y) = 0.29903 0.55612
# Poissons Ratio (z) = 0.28057 1.31678
#
# Static dielectric constant tensor:
#      x y z
#    x 1.590970 0.000000 0.000000 
#    y 0.000000 1.617720 0.000000 
#    z 0.000000 0.000000 1.561740 
# 
# From -- ./inp_files/5041.got.cif
#   From: 2010.05.17/outbox.cif.g08.bks.cpg/sg51_3_cif.got.tgz:5041.got - 2010.06.03 11:52:47.
