data_PCOD9401447
_publ_section_title
;
Structure prediction by ZEFSAII (Michael W. Deem and Ramdas Pophale) SiO2 
 PCOD9401447
Probable space group: P M M A
;
_chemical_formula_sum "Si O2"
_cell_formula_units_Z 56
_cell_length_a 8.700037
_cell_length_b 14.995515
_cell_length_c 23.745400
_cell_angle_alpha 90.000000
_cell_angle_beta 90.000000
_cell_angle_gamma 90.000000
_cell_volume 3097.861341
_symmetry_space_group_name_H-M "P M M A"
_symmetry_group_IT_number 51
_symmetry_cell_setting 'orthorhombic'
loop_
_space_group_symop_operation_xyz
x,y,z
1/2-x,-y,z
1/2+x,-y,-z
-x,y,-z
-x,-y,-z
1/2+x,y,-z
1/2-x,y,z
x,-y,z
loop_
_atom_site_type_symbol
_atom_site_label
_atom_site_fract_x
_atom_site_fract_y
_atom_site_fract_z
Si Si1 0.068672 0.356024 0.850940
Si Si2 0.436079 0.100875 0.562895
Si Si3 0.570600 0.238922 0.343325
Si Si4 0.566444 0.500000 0.936377
Si Si5 0.425474 0.103397 0.263660
Si Si6 0.571079 0.834544 0.864365
Si Si7 0.433132 0.602811 0.273264
Si Si8 0.935733 0.000000 0.938211
O O1 0.250000 0.372653 0.851440
O O2 0.989982 0.416573 0.898671
O O3 0.028705 0.253909 0.863930
O O4 0.005796 0.376519 0.788023
O O5 0.500000 0.110865 0.500000
O O6 0.250000 0.102574 0.562130
O O7 0.487934 0.182615 0.602574
O O8 0.481154 0.000000 0.582663
O O9 0.750000 0.258236 0.351471
O O10 0.544532 0.167361 0.293781
O O11 0.489492 0.328054 0.320751
O O12 0.750000 0.500000 0.939805
O O13 0.500000 0.500000 0.000000
O O14 0.250000 0.124606 0.282698
O O15 0.430116 0.122083 0.197476
O O16 0.455320 0.000000 0.274767
O O17 0.750000 0.811315 0.876807
O O18 0.515024 0.910436 0.906464
O O19 0.250000 0.612371 0.267114
O O20 0.468768 0.500000 0.287654
O O21 0.750000 0.000000 0.936923
O O22 0.000000 0.000000 0.000000
#
# Coordination Sequence:
#
# PCOD9401447 Si02
#       8
#     8   8   8   4   8   8   8   4
#     4  12  24  39  62  91 118 149 190 238 295 357
#     4   9  19  36  57  84 122 164 203 242 289 344
#     4  11  22  35  55  87 122 153 191 246 300 347
#     4  12  26  46  68  90 116 150 189 240 297 358
#     4  10  19  32  53  80 111 150 192 231 282 346
#     4  10  20  37  58  80 111 150 190 236 287 341
#     4  11  23  39  60  85 116 155 196 241 295 356
#     4  10  22  40  60  80 108 150 195 240 283 338
#
# _framework density 18.076988
#
# number of rings (size 3 to 8) (size 9 to 14) (size 15 to 20)
#    0.000    1.429    2.857    3.214    0.000    4.000 
#    0.000    2.857    0.000    0.429    0.000    0.000 
#    0.000    0.000    0.000    0.000    0.000    0.000 
#
# Total GULP energy -312668.224252 kJ/mol
# GULP energy per Si atom -5583.361147 kJ/mol
# Density = 1.803584 g / cm^3
# Si number density = 18.076988 Si / 1000 Ang^3
#
#
#
# Elastic Constant Matrix: (Units=GPa)
#
#
# Indices 1 2 3 4 5 6 
#
# 1 63.3906 51.5242 34.7501 0.0000 0.0000 0.0000
# 2 51.5242 146.4445 68.6491 0.0000 0.0000 0.0000
# 3 34.7501 68.6491 109.3590 0.0000 0.0000 0.0000
# 4 0.0000 0.0000 0.0000 87.1406 0.0000 0.0000
# 5 0.0000 0.0000 0.0000 0.0000 28.7786 0.0000
# 6 0.0000 0.0000 0.0000 0.0000 0.0000 -18.1401
#
#
#
# Elastic Compliance Matrix: (Units=1/GPa)
#
#
# Indices 1 2 3 4 5 6 
#
# 1 0.022827 -0.006562 -0.003134 0.000000 0.000000 0.000000
# 2 -0.006562 0.011562 -0.005173 0.000000 0.000000 0.000000
# 3 -0.003134 -0.005173 0.013387 0.000000 0.000000 0.000000
# 4 0.000000 0.000000 0.000000 0.011476 0.000000 0.000000
# 5 0.000000 0.000000 0.000000 0.000000 0.034748 0.000000
# 6 0.000000 0.000000 0.000000 0.000000 0.000000 -0.055127
#
#
# Mechanical properties :
#
#
# Convention : Reuss Voigt Hill
#
# Bulk Modulus (GPa) = 55.43804 69.89344 62.66574
# Shear Modulus (GPa) = 67.00171 30.50723 48.75447
#
# Velocity S-wave (km/s) = 6.09468 4.11253 5.19894
# Velocity P-wave (km/s) = 8.95886 7.82936 8.41308
#
# Compressibility (1/GPa) = 0.01803816
#
# Stress axis : x y z
#
# Youngs Moduli (GPa) = 43.80759 86.48882 74.69719
#
# Poissons Ratio (x) = 0.56755 0.23412
# Poissons Ratio (y) = 0.28747 0.38640
# Poissons Ratio (z) = 0.13731 0.44740
#
# Static dielectric constant tensor:
#      x y z
#    x 1.629500 0.000000 0.000000 
#    y 0.000000 1.627030 0.000000 
#    z 0.000000 0.000000 1.597450 
# 
# From -- ./inp_files/32049.got.cif
#   From: 2010.05.17/outbox.cif.g08.bks.cpg/sg51_17_cif.got.tgz:32049.got - 2010.06.03 11:52:47.
