data_PCOD9401842
_publ_section_title
;
Structure prediction by ZEFSAII (Michael W. Deem and Ramdas Pophale) SiO2 
 PCOD9401842
Probable space group: P M M A
;
_chemical_formula_sum "Si O2"
_cell_formula_units_Z 48
_cell_length_a 22.430820
_cell_length_b 7.691256
_cell_length_c 12.719843
_cell_angle_alpha 90.000000
_cell_angle_beta 90.000000
_cell_angle_gamma 90.000000
_cell_volume 2194.442310
_symmetry_space_group_name_H-M "P M M A"
_symmetry_group_IT_number 51
_symmetry_cell_setting 'orthorhombic'
loop_
_space_group_symop_operation_xyz
x,y,z
1/2-x,-y,z
1/2+x,-y,-z
-x,y,-z
-x,-y,-z
1/2+x,y,-z
1/2-x,y,z
x,-y,z
loop_
_atom_site_type_symbol
_atom_site_label
_atom_site_fract_x
_atom_site_fract_y
_atom_site_fract_z
Si Si1 0.474676 0.211040 0.384943
Si Si2 0.839613 0.700739 0.636662
Si Si3 0.315678 0.290572 0.131408
Si Si4 0.930475 0.209358 0.011706
Si Si5 0.918778 0.206579 0.243973
Si Si6 0.814731 0.290252 0.404615
O O1 0.500000 0.255067 0.500000
O O2 0.410772 0.290944 0.366310
O O3 0.520917 0.272981 0.297352
O O4 0.469353 0.000000 0.380905
O O5 0.819458 0.500000 0.636106
O O6 0.819775 0.776552 0.748136
O O7 0.820817 0.777638 0.524114
O O8 0.250000 0.234704 0.087977
O O9 0.314434 0.500000 0.135430
O O10 0.377168 0.249528 0.070149
O O11 0.909374 0.273590 0.126723
O O12 0.934120 0.000000 0.009889
O O13 0.000000 0.269900 0.000000
O O14 0.866305 0.234752 0.326593
O O15 0.926596 0.000000 0.233959
O O16 0.750000 0.239298 0.363184
O O17 0.817756 0.500000 0.410491
#
# Coordination Sequence:
#
# PCOD9401842 Si02
#       6
#     8   8   8   8   8   8
#     4  10  19  33  55  82 113 146 181 224 277 336
#     4  10  20  35  57  83 113 148 186 230 280 336
#     4  10  22  40  61  86 117 154 198 248 298 347
#     4  10  22  41  63  85 114 152 195 243 294 349
#     4  10  21  37  56  81 111 143 179 224 278 332
#     4  10  21  36  54  78 110 147 183 220 268 329
#
# _framework density 21.873439000000001
#
# number of rings (size 3 to 8) (size 9 to 14) (size 15 to 20)
#    0.000    2.000    1.667    1.500    0.000    7.333 
#    0.000    3.333    0.000    3.000    0.000    0.000 
#    0.000    0.000    0.000    0.000    0.000    0.000 
#
# Total GULP energy -267865.795173 kJ/mol
# GULP energy per Si atom -5580.537399 kJ/mol
# Density = 2.182365 g / cm^3
# Si number density = 21.873439 Si / 1000 Ang^3
#
#
#
# Elastic Constant Matrix: (Units=GPa)
#
#
# Indices 1 2 3 4 5 6 
#
# 1 181.1761 6.3342 62.0902 0.0000 0.0000 0.0000
# 2 6.3342 36.4506 8.6314 0.0000 0.0000 0.0000
# 3 62.0902 8.6314 131.7320 0.0000 0.0000 0.0000
# 4 0.0000 0.0000 0.0000 3.3552 0.0000 0.0000
# 5 0.0000 0.0000 0.0000 0.0000 2.7426 0.0000
# 6 0.0000 0.0000 0.0000 0.0000 0.0000 20.3820
#
#
#
# Elastic Compliance Matrix: (Units=1/GPa)
#
#
# Indices 1 2 3 4 5 6 
#
# 1 0.006589 -0.000416 -0.003078 0.000000 0.000000 0.000000
# 2 -0.000416 0.027893 -0.001632 0.000000 0.000000 0.000000
# 3 -0.003078 -0.001632 0.009149 0.000000 0.000000 0.000000
# 4 0.000000 0.000000 0.000000 0.298042 0.000000 0.000000
# 5 0.000000 0.000000 0.000000 0.000000 0.364620 0.000000
# 6 0.000000 0.000000 0.000000 0.000000 0.000000 0.049063
#
#
# Mechanical properties :
#
#
# Convention : Reuss Voigt Hill
#
# Bulk Modulus (GPa) = 29.95883 55.94116 42.95000
# Shear Modulus (GPa) = 6.43721 23.44949 14.94335
#
# Velocity S-wave (km/s) = 1.71736 3.27777 2.61659
# Velocity P-wave (km/s) = 4.20222 6.32104 5.36722
#
# Compressibility (1/GPa) = 0.03337914
#
# Stress axis : x y z
#
# Youngs Moduli (GPa) = 151.76758 35.85130 109.30122
#
# Poissons Ratio (x) = 0.01492 0.33647
# Poissons Ratio (y) = 0.06314 0.17833
# Poissons Ratio (z) = 0.46720 0.05849
#
# Static dielectric constant tensor:
#      x y z
#    x 1.784270 0.000000 0.000000 
#    y 0.000000 1.823240 0.000000 
#    z 0.000000 0.000000 1.813270 
# 
# From -- ./inp_files/18563.got.cif
#   From: 2010.05.17/outbox.cif.g08.bks.cpg/sg51_10_cif.got.tgz:18563.got - 2010.06.03 11:52:47.
