data_PCOD9401291
_publ_section_title
;
Structure prediction by ZEFSAII (Michael W. Deem and Ramdas Pophale) SiO2 
 PCOD9401291
Probable space group: P M M A
;
_chemical_formula_sum "Si O2"
_cell_formula_units_Z 48
_cell_length_a 8.737420
_cell_length_b 31.963138
_cell_length_c 9.650738
_cell_angle_alpha 90.000000
_cell_angle_beta 90.000000
_cell_angle_gamma 90.000000
_cell_volume 2695.213341
_symmetry_space_group_name_H-M "P M M A"
_symmetry_group_IT_number 51
_symmetry_cell_setting 'orthorhombic'
loop_
_space_group_symop_operation_xyz
x,y,z
1/2-x,-y,z
1/2+x,-y,-z
-x,y,-z
-x,-y,-z
1/2+x,y,-z
1/2-x,y,z
x,-y,z
loop_
_atom_site_type_symbol
_atom_site_label
_atom_site_fract_x
_atom_site_fract_y
_atom_site_fract_z
Si Si1 0.933312 0.880342 0.655012
Si Si2 0.566789 0.047464 0.153829
Si Si3 0.933314 0.787895 0.655799
Si Si4 0.565304 0.452065 0.348876
Si Si5 0.565327 0.623279 0.153700
Si Si6 0.433573 0.701793 0.655557
O O1 0.750000 0.883299 0.647818
O O2 0.971130 0.833868 0.714404
O O3 0.000000 0.883042 0.500000
O O4 0.999670 0.917372 0.746814
O O5 0.750000 0.050768 0.149100
O O6 0.527344 0.000000 0.199873
O O7 0.500000 0.052791 0.000000
O O8 0.750000 0.783612 0.651157
O O9 0.000000 0.789019 0.500000
O O10 0.005501 0.745803 0.716671
O O11 0.500000 0.441063 0.500000
O O12 0.750000 0.450781 0.356624
O O13 0.519408 0.500000 0.317491
O O14 0.515447 0.418737 0.234213
O O15 0.750000 0.622860 0.146106
O O16 0.521154 0.663109 0.247583
O O17 0.500000 0.625625 0.000000
O O18 0.500000 0.696656 0.500000
O O19 0.250000 0.703402 0.645356
#
# Coordination Sequence:
#
# PCOD9401291 Si02
#       6
#     8   8   8   8   8   8
#     4  10  20  34  54  80 108 137 171 213 259 307
#     4  10  21  37  56  77 103 137 175 214 257 307
#     4   9  17  30  50  76 103 132 167 207 253 302
#     4   9  18  34  55  78 103 131 167 210 252 298
#     4  10  22  36  50  73 104 136 170 208 252 301
#     4  10  19  32  52  76 100 130 169 210 251 298
#
# _framework density 17.809349999999998
#
# number of rings (size 3 to 8) (size 9 to 14) (size 15 to 20)
#    0.000    2.333    0.000    3.500    0.000    5.667 
#    0.000    0.833    0.000    2.000    0.000    0.000 
#    0.000    0.000    0.000    0.000    0.000    0.000 
#
# Total GULP energy -267715.602901 kJ/mol
# GULP energy per Si atom -5577.408394 kJ/mol
# Density = 1.776882 g / cm^3
# Si number density = 17.809350 Si / 1000 Ang^3
#
#
#
# Elastic Constant Matrix: (Units=GPa)
#
#
# Indices 1 2 3 4 5 6 
#
# 1 47.0755 54.0692 33.6627 0.0000 0.0000 0.0000
# 2 54.0692 180.2221 100.3947 0.0000 0.0000 0.0000
# 3 33.6627 100.3947 94.7779 0.0000 0.0000 0.0000
# 4 0.0000 0.0000 0.0000 -10.6742 0.0000 0.0000
# 5 0.0000 0.0000 0.0000 0.0000 31.5116 0.0000
# 6 0.0000 0.0000 0.0000 0.0000 0.0000 32.2795
#
#
#
# Elastic Compliance Matrix: (Units=1/GPa)
#
#
# Indices 1 2 3 4 5 6 
#
# 1 0.032754 -0.008163 -0.002987 0.000000 0.000000 0.000000
# 2 -0.008163 0.015570 -0.013594 0.000000 0.000000 0.000000
# 3 -0.002987 -0.013594 0.026011 0.000000 0.000000 0.000000
# 4 0.000000 0.000000 0.000000 -0.093683 0.000000 0.000000
# 5 0.000000 0.000000 0.000000 0.000000 0.031734 0.000000
# 6 0.000000 0.000000 0.000000 0.000000 0.000000 0.030979
#
#
# Mechanical properties :
#
#
# Convention : Reuss Voigt Hill
#
# Bulk Modulus (GPa) = 40.24389 77.59207 58.91798
# Shear Modulus (GPa) = 49.43914 19.55330 34.49622
#
# Velocity S-wave (km/s) = 5.27451 3.31709 4.40588
# Velocity P-wave (km/s) = 7.72917 7.63764 7.68354
#
# Compressibility (1/GPa) = 0.02484849
#
# Stress axis : x y z
#
# Youngs Moduli (GPa) = 30.53093 64.22547 38.44517
#
# Poissons Ratio (x) = 0.52426 0.11483
# Poissons Ratio (y) = 0.24922 0.52261
# Poissons Ratio (z) = 0.09119 0.87306
#
# Static dielectric constant tensor:
#      x y z
#    x 1.599370 0.000000 0.000000 
#    y 0.000000 1.647690 0.000000 
#    z 0.000000 0.000000 1.561200 
# 
# From -- ./inp_files/5994.got.cif
#   From: 2010.05.17/outbox.cif.g08.bks.cpg/sg51_3_cif.got.tgz:5994.got - 2010.06.03 11:52:47.
