data_PCOD9401235
_publ_section_title
;
Structure prediction by ZEFSAII (Michael W. Deem and Ramdas Pophale) SiO2 
 PCOD9401235
Probable space group: P M M A
;
_chemical_formula_sum "Si O2"
_cell_formula_units_Z 48
_cell_length_a 31.777659
_cell_length_b 7.959594
_cell_length_c 9.971974
_cell_angle_alpha 90.000000
_cell_angle_beta 90.000000
_cell_angle_gamma 90.000000
_cell_volume 2522.283819
_symmetry_space_group_name_H-M "P M M A"
_symmetry_group_IT_number 51
_symmetry_cell_setting 'orthorhombic'
loop_
_space_group_symop_operation_xyz
x,y,z
1/2-x,-y,z
1/2+x,-y,-z
-x,y,-z
-x,-y,-z
1/2+x,y,-z
1/2-x,y,z
x,-y,z
loop_
_atom_site_type_symbol
_atom_site_label
_atom_site_fract_x
_atom_site_fract_y
_atom_site_fract_z
Si Si1 0.890253 0.701824 0.687882
Si Si2 0.014408 0.705466 0.349926
Si Si3 0.858659 0.296921 0.405125
Si Si4 0.067396 0.702122 0.796937
Si Si5 0.370006 0.800302 0.016735
Si Si6 0.702662 0.201596 0.180980
O O1 0.892225 0.500000 0.677055
O O2 0.938481 0.764277 0.680082
O O3 0.864978 0.762349 0.557065
O O4 0.870597 0.743487 0.830601
O O5 0.015063 0.500000 0.347469
O O6 0.000000 0.247309 0.500000
O O7 0.978863 0.761939 0.244641
O O8 0.858610 0.500000 0.404313
O O9 0.899003 0.241537 0.316311
O O10 0.817643 0.238658 0.325558
O O11 0.066442 0.500000 0.792572
O O12 0.087258 0.751350 0.938718
O O13 0.367288 0.000000 0.014326
O O14 0.330827 0.731962 0.928775
O O15 0.750000 0.267510 0.166888
O O16 0.704292 0.000000 0.165976
#
# Coordination Sequence:
#
# PCOD9401235 Si02
#       6
#     8   8   8   8   8   8
#     4  10  19  32  51  76 105 134 166 205 248 293
#     4   9  15  27  50  76  99 130 175 215 242 281
#     4   9  17  30  52  79 103 125 156 205 256 296
#     4   9  16  30  52  74  97 131 174 212 245 285
#     4  10  21  35  50  71 103 137 168 206 252 299
#     4   9  19  37  58  75  93 125 168 206 243 299
#
# _framework density 19.030373000000001
#
# number of rings (size 3 to 8) (size 9 to 14) (size 15 to 20)
#    0.000    2.667    1.667    0.500    0.000    2.333 
#    0.000    5.000    0.000    4.000    0.000    0.000 
#    0.000    0.000    0.000    0.000    0.000    0.000 
#
# Total GULP energy -267685.757614 kJ/mol
# GULP energy per Si atom -5576.786617 kJ/mol
# Density = 1.898706 g / cm^3
# Si number density = 19.030373 Si / 1000 Ang^3
#
#
#
# Elastic Constant Matrix: (Units=GPa)
#
#
# Indices 1 2 3 4 5 6 
#
# 1 113.6022 5.4312 52.5223 0.0000 0.0000 0.0000
# 2 5.4312 10.6209 -0.2673 0.0000 0.0000 0.0000
# 3 52.5223 -0.2673 136.7619 0.0000 0.0000 0.0000
# 4 0.0000 0.0000 0.0000 -41.1578 0.0000 0.0000
# 5 0.0000 0.0000 0.0000 0.0000 16.7458 0.0000
# 6 0.0000 0.0000 0.0000 0.0000 0.0000 21.7809
#
#
#
# Elastic Compliance Matrix: (Units=1/GPa)
#
#
# Indices 1 2 3 4 5 6 
#
# 1 0.011044 -0.005755 -0.004253 0.000000 0.000000 0.000000
# 2 -0.005755 0.097157 0.002400 0.000000 0.000000 0.000000
# 3 -0.004253 0.002400 0.008950 0.000000 0.000000 0.000000
# 4 0.000000 0.000000 0.000000 -0.024297 0.000000 0.000000
# 5 0.000000 0.000000 0.000000 0.000000 0.059716 0.000000
# 6 0.000000 0.000000 0.000000 0.000000 0.000000 0.045912
#
#
# Mechanical properties :
#
#
# Convention : Reuss Voigt Hill
#
# Bulk Modulus (GPa) = 9.81001 41.81749 25.81375
# Shear Modulus (GPa) = 20.18767 13.02703 16.60735
#
# Velocity S-wave (km/s) = 3.26055 2.61921 2.95731
# Velocity P-wave (km/s) = 4.39784 5.58290 5.02542
#
# Compressibility (1/GPa) = 0.10193673
#
# Stress axis : x y z
#
# Youngs Moduli (GPa) = 90.54792 10.29257 111.73398
#
# Poissons Ratio (x) = 0.05923 0.47516
# Poissons Ratio (y) = 0.52106 -0.26815
# Poissons Ratio (z) = 0.38506 -0.02470
#
# Static dielectric constant tensor:
#      x y z
#    x 1.666630 0.000000 0.000000 
#    y 0.000000 1.691500 0.000000 
#    z 0.000000 0.000000 1.657800 
# 
# From -- ./inp_files/12839.got.cif
#   From: 2010.05.17/outbox.cif.g08.bks.cpg/sg51_7_cif.got.tgz:12839.got - 2010.06.03 11:52:47.
