data_PCOD9401711
_publ_section_title
;
Structure prediction by ZEFSAII (Michael W. Deem and Ramdas Pophale) SiO2 
 PCOD9401711
Probable space group: P M M A
;
_chemical_formula_sum "Si O2"
_cell_formula_units_Z 44
_cell_length_a 7.455753
_cell_length_b 8.607625
_cell_length_c 30.570604
_cell_angle_alpha 90.000000
_cell_angle_beta 90.000000
_cell_angle_gamma 90.000000
_cell_volume 1961.909046
_symmetry_space_group_name_H-M "P M M A"
_symmetry_group_IT_number 51
_symmetry_cell_setting 'orthorhombic'
loop_
_space_group_symop_operation_xyz
x,y,z
1/2-x,-y,z
1/2+x,-y,-z
-x,y,-z
-x,-y,-z
1/2+x,y,-z
1/2-x,y,z
x,-y,z
loop_
_atom_site_type_symbol
_atom_site_label
_atom_site_fract_x
_atom_site_fract_y
_atom_site_fract_z
Si Si1 0.464520 0.323180 0.452402
Si Si2 0.534816 0.327825 0.727844
Si Si3 0.536597 0.172130 0.181537
Si Si4 0.531113 0.326315 0.095068
Si Si5 0.036358 0.000000 0.948599
Si Si6 0.469318 0.177564 0.361872
O O1 0.500000 0.250450 0.500000
O O2 0.250000 0.330704 0.448424
O O3 0.534741 0.500000 0.453265
O O4 0.531150 0.239860 0.408844
O O5 0.750000 0.333912 0.724458
O O6 0.466915 0.500000 0.737751
O O7 0.495455 0.217960 0.768555
O O8 0.469372 0.271855 0.680547
O O9 0.750000 0.164410 0.175741
O O10 0.475440 0.296045 0.145543
O O11 0.463772 0.000000 0.172329
O O12 0.750000 0.329093 0.092226
O O13 0.471776 0.500000 0.080680
O O14 0.471690 0.166958 0.070638
O O15 0.250000 0.000000 0.940016
O O16 0.000000 0.000000 0.000000
O O17 0.250000 0.183528 0.362284
O O18 0.521831 0.000000 0.356380
#
# Coordination Sequence:
#
# PCOD9401711 Si02
#       6
#     8   8   8   8   4   8
#     4   9  17  30  48  68  89 116 152 194 240 292
#     4  10  20  33  50  74 103 135 171 210 254 307
#     4  10  19  33  54  79 105 135 175 218 258 307
#     4   9  17  32  55  79 105 140 179 217 259 312
#     4  10  20  36  56  80 108 140 180 220 263 312
#     4   9  17  30  48  68  92 125 163 199 241 297
#
# _framework density 22.427136999999998
#
# number of rings (size 3 to 8) (size 9 to 14) (size 15 to 20)
#    0.000    2.545    0.909    1.636    0.000    5.091 
#    0.000    1.818    0.000    4.364    0.000    0.000 
#    0.000    0.000    0.000    0.000    0.000    0.000 
#
# Total GULP energy -245531.306509 kJ/mol
# GULP energy per Si atom -5580.256966 kJ/mol
# Density = 2.237609 g / cm^3
# Si number density = 22.427137 Si / 1000 Ang^3
#
#
#
# Elastic Constant Matrix: (Units=GPa)
#
#
# Indices 1 2 3 4 5 6 
#
# 1 65.2289 5.8258 -4.4533 0.0000 0.0000 0.0000
# 2 5.8258 151.5619 59.3337 0.0000 0.0000 0.0000
# 3 -4.4533 59.3337 131.3857 0.0000 0.0000 0.0000
# 4 0.0000 0.0000 0.0000 30.1214 0.0000 0.0000
# 5 0.0000 0.0000 0.0000 0.0000 19.4221 0.0000
# 6 0.0000 0.0000 0.0000 0.0000 0.0000 1.3264
#
#
#
# Elastic Compliance Matrix: (Units=1/GPa)
#
#
# Indices 1 2 3 4 5 6 
#
# 1 0.015483 -0.000973 0.000964 0.000000 0.000000 0.000000
# 2 -0.000973 0.008076 -0.003680 0.000000 0.000000 0.000000
# 3 0.000964 -0.003680 0.009306 0.000000 0.000000 0.000000
# 4 0.000000 0.000000 0.000000 0.033199 0.000000 0.000000
# 5 0.000000 0.000000 0.000000 0.000000 0.051488 0.000000
# 6 0.000000 0.000000 0.000000 0.000000 0.000000 0.753938
#
#
# Mechanical properties :
#
#
# Convention : Reuss Voigt Hill
#
# Bulk Modulus (GPa) = 39.23438 52.17655 45.70547
# Shear Modulus (GPa) = 5.63467 29.33867 17.48667
#
# Velocity S-wave (km/s) = 1.58679 3.62080 2.79536
# Velocity P-wave (km/s) = 4.57048 6.38715 5.55360
#
# Compressibility (1/GPa) = 0.02548785
#
# Stress axis : x y z
#
# Youngs Moduli (GPa) = 64.58568 123.82314 107.46010
#
# Poissons Ratio (x) = 0.12042 -0.10359
# Poissons Ratio (y) = 0.06281 0.39546
# Poissons Ratio (z) = -0.06226 0.45568
#
# Static dielectric constant tensor:
#      x y z
#    x 1.868030 0.000000 0.000000 
#    y 0.000000 1.827080 0.000000 
#    z 0.000000 0.000000 1.804000 
# 
# From -- ./inp_files/36787.got.cif
#   From: 2010.05.17/outbox.cif.g08.bks.cpg/sg51_19_cif.got.tgz:36787.got - 2010.06.03 11:52:47.
