data_PCOD9401239
_publ_section_title
;
Structure prediction by ZEFSAII (Michael W. Deem and Ramdas Pophale) SiO2 
 PCOD9401239
Probable space group: P M M A
;
_chemical_formula_sum "Si O2"
_cell_formula_units_Z 56
_cell_length_a 21.977058
_cell_length_b 13.112727
_cell_length_c 11.193663
_cell_angle_alpha 90.000000
_cell_angle_beta 90.000000
_cell_angle_gamma 90.000000
_cell_volume 3225.780421
_symmetry_space_group_name_H-M "P M M A"
_symmetry_group_IT_number 51
_symmetry_cell_setting 'orthorhombic'
loop_
_space_group_symop_operation_xyz
x,y,z
1/2-x,-y,z
1/2+x,-y,-z
-x,y,-z
-x,-y,-z
1/2+x,y,-z
1/2-x,y,z
x,-y,z
loop_
_atom_site_type_symbol
_atom_site_label
_atom_site_fract_x
_atom_site_fract_y
_atom_site_fract_z
Si Si1 0.642811 0.236421 0.621272
Si Si2 0.053878 0.381535 0.232728
Si Si3 0.183046 0.616225 0.578964
Si Si4 0.429816 0.764921 0.010990
Si Si5 0.819296 0.121848 0.858319
Si Si6 0.934910 0.114841 0.435639
Si Si7 0.422571 0.700755 0.742919
O O1 0.591643 0.311438 0.676206
O O2 0.680735 0.308796 0.533989
O O3 0.674699 0.180555 0.731745
O O4 0.612445 0.152958 0.535007
O O5 0.071262 0.500000 0.235386
O O6 0.064207 0.329356 0.103515
O O7 0.982958 0.367732 0.263096
O O8 0.250000 0.622511 0.634121
O O9 0.172486 0.500000 0.539480
O O10 0.132390 0.648273 0.673643
O O11 0.376544 0.837615 0.063034
O O12 0.500000 0.807357 0.000000
O O13 0.411034 0.726164 0.880675
O O14 0.750000 0.141171 0.905203
O O15 0.825342 0.000000 0.842379
O O16 0.935242 0.193970 0.327240
O O17 0.000000 0.116773 0.500000
O O18 0.921664 0.000000 0.395923
#
# Coordination Sequence:
#
# PCOD9401239 Si02
#       7
#     8   8   8   8   8   8   8
#     4  10  19  35  53  78 108 137 172 220 262 315
#     4  10  19  33  55  80 104 136 174 217 266 316
#     4  10  21  34  51  75 104 141 178 214 261 314
#     4   9  21  37  54  80 109 139 177 220 269 319
#     4  10  21  37  58  81 106 141 182 223 267 315
#     4  10  19  32  51  76 107 138 168 208 260 318
#     4  10  20  35  52  77 105 136 173 217 264 315
#
# _framework density 17.360140000000001
#
# number of rings (size 3 to 8) (size 9 to 14) (size 15 to 20)
#    0.000    2.143    1.429    1.714    0.000    4.571 
#    0.000    2.143    0.000    7.714    0.000    0.000 
#    0.000    0.000    0.000    0.000    0.000    0.000 
#
# Total GULP energy -312159.029008 kJ/mol
# GULP energy per Si atom -5574.268375 kJ/mol
# Density = 1.732063 g / cm^3
# Si number density = 17.360140 Si / 1000 Ang^3
#
#
#
# Elastic Constant Matrix: (Units=GPa)
#
#
# Indices 1 2 3 4 5 6 
#
# 1 95.6185 33.2505 21.9940 0.0000 0.0000 0.0000
# 2 33.2505 86.7450 -1.9469 0.0000 0.0000 0.0000
# 3 21.9940 -1.9469 48.2965 0.0000 0.0000 0.0000
# 4 0.0000 0.0000 0.0000 15.2076 0.0000 0.0000
# 5 0.0000 0.0000 0.0000 0.0000 12.6951 0.0000
# 6 0.0000 0.0000 0.0000 0.0000 0.0000 23.3337
#
#
#
# Elastic Compliance Matrix: (Units=1/GPa)
#
#
# Indices 1 2 3 4 5 6 
#
# 1 0.013859 -0.005459 -0.006531 0.000000 0.000000 0.000000
# 2 -0.005459 0.013689 0.003038 0.000000 0.000000 0.000000
# 3 -0.006531 0.003038 0.023802 0.000000 0.000000 0.000000
# 4 0.000000 0.000000 0.000000 0.065756 0.000000 0.000000
# 5 0.000000 0.000000 0.000000 0.000000 0.078771 0.000000
# 6 0.000000 0.000000 0.000000 0.000000 0.000000 0.042857
#
#
# Mechanical properties :
#
#
# Convention : Reuss Voigt Hill
#
# Bulk Modulus (GPa) = 29.89997 37.47281 33.68639
# Shear Modulus (GPa) = 18.67159 22.07143 20.37151
#
# Velocity S-wave (km/s) = 3.28311 3.56952 3.42930
# Velocity P-wave (km/s) = 5.62427 6.21458 5.92678
#
# Compressibility (1/GPa) = 0.03344485
#
# Stress axis : x y z
#
# Youngs Moduli (GPa) = 72.15631 73.05318 42.01298
#
# Poissons Ratio (x) = 0.39879 0.27440
# Poissons Ratio (y) = 0.39389 -0.12762
# Poissons Ratio (z) = 0.47127 -0.22192
#
# Static dielectric constant tensor:
#      x y z
#    x 1.611650 0.000000 0.000000 
#    y 0.000000 1.567410 0.000000 
#    z 0.000000 0.000000 1.567860 
# 
# From -- ./inp_files/18228.got.cif
#   From: 2010.05.17/outbox.cif.g08.bks.cpg/sg51_10_cif.got.tgz:18228.got - 2010.06.03 11:52:47.
