data_PCOD9401927
_publ_section_title
;
Structure prediction by ZEFSAII (Michael W. Deem and Ramdas Pophale) SiO2 
 PCOD9401927
Probable space group: P M M A
;
_chemical_formula_sum "Si O2"
_cell_formula_units_Z 48
_cell_length_a 13.664481
_cell_length_b 17.631199
_cell_length_c 10.011819
_cell_angle_alpha 90.000000
_cell_angle_beta 90.000000
_cell_angle_gamma 90.000000
_cell_volume 2412.059285
_symmetry_space_group_name_H-M "P M M A"
_symmetry_group_IT_number 51
_symmetry_cell_setting 'orthorhombic'
loop_
_space_group_symop_operation_xyz
x,y,z
1/2-x,-y,z
1/2+x,-y,-z
-x,y,-z
-x,-y,-z
1/2+x,y,-z
1/2-x,y,z
x,-y,z
loop_
_atom_site_type_symbol
_atom_site_label
_atom_site_fract_x
_atom_site_fract_y
_atom_site_fract_z
Si Si1 0.132449 0.257676 0.697905
Si Si2 0.634858 0.334679 0.785339
Si Si3 0.632031 0.195396 0.580398
Si Si4 0.032012 0.583746 0.655079
Si Si5 0.631819 0.782888 0.010326
Si Si6 0.869718 0.913977 0.808611
O O1 0.250000 0.254264 0.697815
O O2 0.095689 0.211419 0.568906
O O3 0.096403 0.224693 0.838603
O O4 0.101350 0.345050 0.683766
O O5 0.750000 0.354014 0.785071
O O6 0.618240 0.270601 0.670722
O O7 0.563609 0.402244 0.746228
O O8 0.609942 0.292026 0.923191
O O9 0.750000 0.186584 0.569209
O O10 0.598429 0.124370 0.668942
O O11 0.074027 0.500000 0.679328
O O12 0.000000 0.587460 0.500000
O O13 0.750000 0.786137 0.014612
O O14 0.601506 0.857024 0.927596
O O15 0.750000 0.914789 0.807946
O O16 0.903809 0.000000 0.824491
#
# Coordination Sequence:
#
# PCOD9401927 Si02
#       6
#     8   8   8   8   8   8
#     4  10  19  34  52  74 106 140 176 217 256 307
#     4   9  17  34  54  74 101 134 173 215 255 310
#     4   8  14  26  47  70  96 134 173 206 248 300
#     4  11  23  35  52  80 104 129 175 223 269 317
#     4   8  16  30  51  75 102 140 179 210 254 314
#     4   8  13  24  45  76 109 137 172 217 256 298
#
# _framework density 19.900009000000001
#
# number of rings (size 3 to 8) (size 9 to 14) (size 15 to 20)
#    0.000    3.000    1.667    2.000    0.000    1.333 
#    0.000    4.167    0.000    8.000    0.000   18.667 
#    0.000    0.000    0.000    0.000    0.000    0.167 
#
# Total GULP energy -267839.211340 kJ/mol
# GULP energy per Si atom -5579.983570 kJ/mol
# Density = 1.985472 g / cm^3
# Si number density = 19.900009 Si / 1000 Ang^3
#
#
#
# Elastic Constant Matrix: (Units=GPa)
#
#
# Indices 1 2 3 4 5 6 
#
# 1 57.9377 8.1504 17.8887 0.0000 0.0000 0.0000
# 2 8.1504 125.0010 71.9153 0.0000 0.0000 0.0000
# 3 17.8887 71.9153 176.3316 0.0000 0.0000 0.0000
# 4 0.0000 0.0000 0.0000 14.8771 0.0000 0.0000
# 5 0.0000 0.0000 0.0000 0.0000 17.5787 0.0000
# 6 0.0000 0.0000 0.0000 0.0000 0.0000 19.9950
#
#
#
# Elastic Compliance Matrix: (Units=1/GPa)
#
#
# Indices 1 2 3 4 5 6 
#
# 1 0.017820 -0.000159 -0.001743 0.000000 0.000000 0.000000
# 2 -0.000159 0.010454 -0.004247 0.000000 0.000000 0.000000
# 3 -0.001743 -0.004247 0.007580 0.000000 0.000000 0.000000
# 4 0.000000 0.000000 0.000000 0.067217 0.000000 0.000000
# 5 0.000000 0.000000 0.000000 0.000000 0.056887 0.000000
# 6 0.000000 0.000000 0.000000 0.000000 0.000000 0.050013
#
#
# Mechanical properties :
#
#
# Convention : Reuss Voigt Hill
#
# Bulk Modulus (GPa) = 42.45286 61.68655 52.06970
# Shear Modulus (GPa) = 21.72758 27.91123 24.81940
#
# Velocity S-wave (km/s) = 3.30788 3.74916 3.53541
# Velocity P-wave (km/s) = 5.99740 7.05742 6.54889
#
# Compressibility (1/GPa) = 0.02355554
#
# Stress axis : x y z
#
# Youngs Moduli (GPa) = 56.11527 95.65798 131.92239
#
# Poissons Ratio (x) = 0.01523 0.22993
# Poissons Ratio (y) = 0.00893 0.56033
# Poissons Ratio (z) = 0.09781 0.40630
#
# Static dielectric constant tensor:
#      x y z
#    x 1.757780 0.000000 0.000000 
#    y 0.000000 1.659950 0.000000 
#    z 0.000000 0.000000 1.709900 
# 
# From -- ./inp_files/8217.got.cif
#   From: 2010.05.17/outbox.cif.g08.bks.cpg/sg51_5_cif.got.tgz:8217.got - 2010.06.03 11:52:47.
