data_PCOD9401977
_publ_section_title
;
Structure prediction by ZEFSAII (Michael W. Deem and Ramdas Pophale) SiO2 
 PCOD9401977
Probable space group: P M M A
;
_chemical_formula_sum "Si O2"
_cell_formula_units_Z 56
_cell_length_a 19.721184
_cell_length_b 7.480770
_cell_length_c 16.952574
_cell_angle_alpha 90.000000
_cell_angle_beta 90.000000
_cell_angle_gamma 90.000000
_cell_volume 2501.007167
_symmetry_space_group_name_H-M "P M M A"
_symmetry_group_IT_number 51
_symmetry_cell_setting 'orthorhombic'
loop_
_space_group_symop_operation_xyz
x,y,z
1/2-x,-y,z
1/2+x,-y,-z
-x,y,-z
-x,-y,-z
1/2+x,y,-z
1/2-x,y,z
x,-y,z
loop_
_atom_site_type_symbol
_atom_site_label
_atom_site_fract_x
_atom_site_fract_y
_atom_site_fract_z
Si Si1 0.174357 0.211362 0.488486
Si Si2 0.413491 0.291028 0.164785
Si Si3 0.828044 0.715321 0.687277
Si Si4 0.545284 0.781168 0.426032
Si Si5 0.575249 0.204733 0.008072
Si Si6 0.827879 0.781511 0.147500
Si Si7 0.450961 0.215371 0.749733
O O1 0.250000 0.289008 0.491001
O O2 0.146603 0.232731 0.399499
O O3 0.121141 0.278262 0.551698
O O4 0.179861 0.000000 0.501904
O O5 0.397704 0.500000 0.156766
O O6 0.372020 0.218337 0.239666
O O7 0.397495 0.205429 0.081005
O O8 0.492268 0.271045 0.187624
O O9 0.750000 0.776362 0.693266
O O10 0.828411 0.500000 0.689570
O O11 0.500000 0.722726 0.500000
O O12 0.528975 0.720550 0.337673
O O13 0.542577 0.000000 0.425565
O O14 0.563615 0.000000 0.035008
O O15 0.500000 0.289102 0.000000
O O16 0.629936 0.277902 0.069775
O O17 0.750000 0.719905 0.150260
O O18 0.876528 0.729567 0.220453
O O19 0.825052 0.000000 0.146423
O O20 0.451240 0.000000 0.747869
#
# Coordination Sequence:
#
# PCOD9401977 Si02
#       7
#     8   8   8   8   8   8   8
#     4   9  17  30  49  74 102 131 169 217 263 308
#     4  11  22  34  53  79 105 134 173 216 259 310
#     4   9  19  35  51  70 101 139 175 212 259 315
#     4   9  17  28  46  74 104 132 167 210 256 303
#     4  10  19  35  56  77 102 133 168 208 256 313
#     4   9  18  33  54  80 105 132 172 216 254 302
#     4  10  19  34  55  76 104 143 177 212 261 314
#
# _framework density 22.390981
#
# number of rings (size 3 to 8) (size 9 to 14) (size 15 to 20)
#    0.000    2.429    1.429    1.286    0.000    3.714 
#    0.000    3.571    0.000    3.857    0.000    0.000 
#    0.000    0.000    0.000    0.000    0.000    0.000 
#
# Total GULP energy -312650.366718 kJ/mol
# GULP energy per Si atom -5583.042263 kJ/mol
# Density = 2.234002 g / cm^3
# Si number density = 22.390981 Si / 1000 Ang^3
#
#
#
# Elastic Constant Matrix: (Units=GPa)
#
#
# Indices 1 2 3 4 5 6 
#
# 1 77.4950 -0.4560 28.7030 0.0000 0.0000 0.0000
# 2 -0.4560 64.8963 -3.6493 0.0000 0.0000 0.0000
# 3 28.7030 -3.6493 115.8560 0.0000 0.0000 0.0000
# 4 0.0000 0.0000 0.0000 72.4766 0.0000 0.0000
# 5 0.0000 0.0000 0.0000 0.0000 36.6059 0.0000
# 6 0.0000 0.0000 0.0000 0.0000 0.0000 4.6866
#
#
#
# Elastic Compliance Matrix: (Units=1/GPa)
#
#
# Indices 1 2 3 4 5 6 
#
# 1 0.014208 -0.000098 -0.003523 0.000000 0.000000 0.000000
# 2 -0.000098 0.015437 0.000511 0.000000 0.000000 0.000000
# 3 -0.003523 0.000511 0.009520 0.000000 0.000000 0.000000
# 4 0.000000 0.000000 0.000000 0.013798 0.000000 0.000000
# 5 0.000000 0.000000 0.000000 0.000000 0.027318 0.000000
# 6 0.000000 0.000000 0.000000 0.000000 0.000000 0.213372
#
#
# Mechanical properties :
#
#
# Convention : Reuss Voigt Hill
#
# Bulk Modulus (GPa) = 30.35432 34.16030 32.25731
# Shear Modulus (GPa) = 16.08456 38.33047 27.20752
#
# Velocity S-wave (km/s) = 2.68311 4.14196 3.48963
# Velocity P-wave (km/s) = 4.81505 6.17769 5.53844
#
# Compressibility (1/GPa) = 0.03294424
#
# Stress axis : x y z
#
# Youngs Moduli (GPa) = 70.38086 64.77853 105.03825
#
# Poissons Ratio (x) = 0.00637 0.37007
# Poissons Ratio (y) = 0.00692 -0.05363
# Poissons Ratio (z) = 0.24796 -0.03308
#
# Static dielectric constant tensor:
#      x y z
#    x 1.840820 0.000000 0.000000 
#    y 0.000000 1.839350 0.000000 
#    z 0.000000 0.000000 1.803820 
# 
# From -- ./inp_files/25780.got.cif
#   From: 2010.05.17/outbox.cif.g08.bks.cpg/sg51_13_cif.got.tgz:25780.got - 2010.06.03 11:52:47.
