data_PCOD9401749
_publ_section_title
;
Structure prediction by ZEFSAII (Michael W. Deem and Ramdas Pophale) SiO2 
 PCOD9401749
Probable space group: P M M A
;
_chemical_formula_sum "Si O2"
_cell_formula_units_Z 48
_cell_length_a 15.293766
_cell_length_b 7.475752
_cell_length_c 18.018618
_cell_angle_alpha 90.000000
_cell_angle_beta 90.000000
_cell_angle_gamma 90.000000
_cell_volume 2060.111872
_symmetry_space_group_name_H-M "P M M A"
_symmetry_group_IT_number 51
_symmetry_cell_setting 'orthorhombic'
loop_
_space_group_symop_operation_xyz
x,y,z
1/2-x,-y,z
1/2+x,-y,-z
-x,y,-z
-x,-y,-z
1/2+x,y,-z
1/2-x,y,z
x,-y,z
loop_
_atom_site_type_symbol
_atom_site_label
_atom_site_fract_x
_atom_site_fract_y
_atom_site_fract_z
Si Si1 0.405195 0.707583 0.003526
Si Si2 0.250000 0.718823 0.900148
Si Si3 0.441916 0.716062 0.430462
Si Si4 0.250000 0.793778 0.726822
Si Si5 0.914478 0.215478 0.829402
Si Si6 0.750000 0.698402 0.563853
Si Si7 0.444553 0.787631 0.716582
Si Si8 0.750000 0.784966 0.729009
O O1 0.413712 0.500000 0.981245
O O2 0.385659 0.714508 0.090620
O O3 0.500000 0.794986 0.000000
O O4 0.333354 0.781126 0.947980
O O5 0.250000 0.500000 0.897840
O O6 0.250000 0.785942 0.816463
O O7 0.500000 0.769514 0.500000
O O8 0.434660 0.500000 0.428495
O O9 0.344313 0.786172 0.447767
O O10 0.490606 0.765428 0.353783
O O11 0.345648 0.715895 0.704428
O O12 0.250000 0.000000 0.700490
O O13 0.836609 0.259729 0.773728
O O14 0.004567 0.280055 0.790578
O O15 0.919455 0.000000 0.835444
O O16 0.750000 0.500000 0.528249
O O17 0.750000 0.685439 0.652402
O O18 0.434183 0.000000 0.728039
O O19 0.750000 0.000000 0.715827
#
# Coordination Sequence:
#
# PCOD9401749 Si02
#       8
#     8   4   8   4   8   4   8   4
#     4  10  21  35  51  74 106 143 185 233 281 334
#     4  10  21  37  54  77 109 147 189 232 286 345
#     4  10  22  39  60  88 120 152 188 230 277 333
#     4  10  22  38  58  83 112 148 193 242 285 336
#     4  10  20  33  53  80 108 141 183 232 283 337
#     4  10  20  36  58  85 115 147 182 221 268 323
#     4  10  21  38  58  83 114 148 191 238 285 339
#     4  10  19  33  54  81 110 138 176 227 275 324
#
# _framework density 23.299707999999999
#
# number of rings (size 3 to 8) (size 9 to 14) (size 15 to 20)
#    0.000    2.000    1.667    1.500    0.000    4.000 
#    0.000    0.833    0.000    0.000    0.000    0.000 
#    0.000    0.000    0.000    0.000    0.000    0.000 
#
# Total GULP energy -267948.093324 kJ/mol
# GULP energy per Si atom -5582.251944 kJ/mol
# Density = 2.324668 g / cm^3
# Si number density = 23.299708 Si / 1000 Ang^3
#
#
#
# Elastic Constant Matrix: (Units=GPa)
#
#
# Indices 1 2 3 4 5 6 
#
# 1 189.2700 7.9922 24.7165 0.0000 0.0000 0.0000
# 2 7.9922 62.4987 -16.4957 0.0000 0.0000 0.0000
# 3 24.7165 -16.4957 57.3776 0.0000 0.0000 0.0000
# 4 0.0000 0.0000 0.0000 9.2010 0.0000 0.0000
# 5 0.0000 0.0000 0.0000 0.0000 -27.6299 0.0000
# 6 0.0000 0.0000 0.0000 0.0000 0.0000 -22.1239
#
#
#
# Elastic Compliance Matrix: (Units=1/GPa)
#
#
# Indices 1 2 3 4 5 6 
#
# 1 0.005725 -0.001497 -0.002896 0.000000 0.000000 0.000000
# 2 -0.001497 0.017705 0.005735 0.000000 0.000000 0.000000
# 3 -0.002896 0.005735 0.020325 0.000000 0.000000 0.000000
# 4 0.000000 0.000000 0.000000 0.108684 0.000000 0.000000
# 5 0.000000 0.000000 0.000000 0.000000 -0.036193 0.000000
# 6 0.000000 0.000000 0.000000 0.000000 0.000000 -0.045200
#
#
# Mechanical properties :
#
#
# Convention : Reuss Voigt Hill
#
# Bulk Modulus (GPa) = 21.53367 37.95249 29.74308
# Shear Modulus (GPa) = 59.63579 11.41832 35.52705
#
# Velocity S-wave (km/s) = 5.06465 2.21614 3.90909
# Velocity P-wave (km/s) = 6.59264 4.78252 5.75914
#
# Compressibility (1/GPa) = 0.04643891
#
# Stress axis : x y z
#
# Youngs Moduli (GPa) = 174.67613 56.48015 49.20098
#
# Poissons Ratio (x) = 0.08452 0.14250
# Poissons Ratio (y) = 0.26141 -0.28216
# Poissons Ratio (z) = 0.50592 -0.32390
#
# Static dielectric constant tensor:
#      x y z
#    x 1.900470 0.000000 0.000000 
#    y 0.000000 1.890620 0.000000 
#    z 0.000000 0.000000 1.857780 
# 
# From -- ./inp_files/29713.got.cif
#   From: 2010.05.17/outbox.cif.g08.bks.cpg/sg51_15_cif.got.tgz:29713.got - 2010.06.03 11:52:47.
