data_PCOD9401251
_publ_section_title
;
Structure prediction by ZEFSAII (Michael W. Deem and Ramdas Pophale) SiO2 
 PCOD9401251
Probable space group: P M M A
;
_chemical_formula_sum "Si O2"
_cell_formula_units_Z 48
_cell_length_a 8.684515
_cell_length_b 31.780834
_cell_length_c 9.292383
_cell_angle_alpha 90.000000
_cell_angle_beta 90.000000
_cell_angle_gamma 90.000000
_cell_volume 2564.708205
_symmetry_space_group_name_H-M "P M M A"
_symmetry_group_IT_number 51
_symmetry_cell_setting 'orthorhombic'
loop_
_space_group_symop_operation_xyz
x,y,z
1/2-x,-y,z
1/2+x,-y,-z
-x,y,-z
-x,-y,-z
1/2+x,y,-z
1/2-x,y,z
x,-y,z
loop_
_atom_site_type_symbol
_atom_site_label
_atom_site_fract_x
_atom_site_fract_y
_atom_site_fract_z
Si Si1 0.565339 0.545908 0.837010
Si Si2 0.935500 0.715046 0.339742
Si Si3 0.566240 0.124164 0.659726
Si Si4 0.065147 0.632781 0.837856
Si Si5 0.934029 0.049171 0.158842
Si Si6 0.064671 0.202113 0.839336
O O1 0.750000 0.549444 0.842411
O O2 0.526210 0.500000 0.772014
O O3 0.495175 0.588540 0.773817
O O4 0.500000 0.545011 0.000000
O O5 0.750000 0.714789 0.346666
O O6 0.983726 0.672651 0.256831
O O7 0.981477 0.756140 0.248947
O O8 0.000000 0.716723 0.500000
O O9 0.500000 0.128986 0.500000
O O10 0.750000 0.126020 0.656646
O O11 0.510716 0.080250 0.727848
O O12 0.500776 0.161394 0.758919
O O13 0.250000 0.631477 0.846112
O O14 0.000000 0.637172 0.000000
O O15 0.750000 0.055177 0.158214
O O16 0.966165 0.000000 0.189560
O O17 0.000000 0.058472 0.000000
O O18 0.250000 0.199825 0.843262
O O19 0.000000 0.204267 0.000000
#
# Coordination Sequence:
#
# PCOD9401251 Si02
#       6
#     8   8   8   8   8   8
#     4   9  16  26  43  70 102 136 174 217 266 317
#     4  10  23  39  57  81 110 144 182 225 274 329
#     4  12  25  41  61  87 120 156 194 237 286 339
#     4  10  19  32  51  78 107 138 178 221 269 323
#     4  10  21  39  63  90 120 156 198 242 288 338
#     4  11  23  41  63  88 116 148 188 231 279 333
#
# _framework density 18.715579000000002
#
# number of rings (size 3 to 8) (size 9 to 14) (size 15 to 20)
#    0.000    1.667    0.000    6.000    0.000    6.333 
#    0.000    0.000    0.000    0.500    0.000    0.000 
#    0.000    0.000    0.000    0.000    0.000    0.000 
#
# Total GULP energy -268164.318915 kJ/mol
# GULP energy per Si atom -5586.756644 kJ/mol
# Density = 1.867298 g / cm^3
# Si number density = 18.715579 Si / 1000 Ang^3
#
#
#
# Elastic Constant Matrix: (Units=GPa)
#
#
# Indices 1 2 3 4 5 6 
#
# 1 87.3301 60.5334 47.0565 0.0000 0.0000 0.0000
# 2 60.5334 139.1155 87.0800 0.0000 0.0000 0.0000
# 3 47.0565 87.0800 131.2718 0.0000 0.0000 0.0000
# 4 0.0000 0.0000 0.0000 -49.3658 0.0000 0.0000
# 5 0.0000 0.0000 0.0000 0.0000 32.4731 0.0000
# 6 0.0000 0.0000 0.0000 0.0000 0.0000 246.6711
#
#
#
# Elastic Compliance Matrix: (Units=1/GPa)
#
#
# Indices 1 2 3 4 5 6 
#
# 1 0.016696 -0.006017 -0.001993 0.000000 0.000000 0.000000
# 2 -0.006017 0.014461 -0.007436 0.000000 0.000000 0.000000
# 3 -0.001993 -0.007436 0.013265 0.000000 0.000000 0.000000
# 4 0.000000 0.000000 0.000000 -0.020257 0.000000 0.000000
# 5 0.000000 0.000000 0.000000 0.000000 0.030795 0.000000
# 6 0.000000 0.000000 0.000000 0.000000 0.000000 0.004054
#
#
# Mechanical properties :
#
#
# Convention : Reuss Voigt Hill
#
# Bulk Modulus (GPa) = 73.91518 83.00635 78.46077
# Shear Modulus (GPa) = 52.95734 56.82552 54.89143
#
# Velocity S-wave (km/s) = 5.32516 5.51621 5.42153
# Velocity P-wave (km/s) = 8.79712 9.22059 9.01134
#
# Compressibility (1/GPa) = 0.01352902
#
# Stress axis : x y z
#
# Youngs Moduli (GPa) = 59.89591 69.15164 75.38633
#
# Poissons Ratio (x) = 0.41608 0.15028
# Poissons Ratio (y) = 0.36039 0.56056
# Poissons Ratio (z) = 0.11940 0.51420
#
# Static dielectric constant tensor:
#      x y z
#    x 1.627640 0.000000 0.000000 
#    y 0.000000 1.671070 0.000000 
#    z 0.000000 0.000000 1.675670 
# 
# From -- ./inp_files/5958.got.cif
#   From: 2010.05.17/outbox.cif.g08.bks.cpg/sg51_3_cif.got.tgz:5958.got - 2010.06.03 11:52:47.
