data_PCOD9401272
_publ_section_title
;
Structure prediction by ZEFSAII (Michael W. Deem and Ramdas Pophale) SiO2 
 PCOD9401272
Probable space group: P M M A
;
_chemical_formula_sum "Si O2"
_cell_formula_units_Z 56
_cell_length_a 25.174530
_cell_length_b 8.223184
_cell_length_c 15.395646
_cell_angle_alpha 90.000000
_cell_angle_beta 90.000000
_cell_angle_gamma 90.000000
_cell_volume 3187.126459
_symmetry_space_group_name_H-M "P M M A"
_symmetry_group_IT_number 51
_symmetry_cell_setting 'orthorhombic'
loop_
_space_group_symop_operation_xyz
x,y,z
1/2-x,-y,z
1/2+x,-y,-z
-x,y,-z
-x,-y,-z
1/2+x,y,-z
1/2-x,y,z
x,-y,z
loop_
_atom_site_type_symbol
_atom_site_label
_atom_site_fract_x
_atom_site_fract_y
_atom_site_fract_z
Si Si1 0.432561 0.804825 0.866244
Si Si2 0.133023 0.303344 0.035111
Si Si3 0.250000 0.693851 0.789067
Si Si4 0.536472 0.698481 0.628181
Si Si5 0.359791 0.806624 0.708507
Si Si6 0.577588 0.304489 0.448330
Si Si7 0.750000 0.301131 0.010530
Si Si8 0.950787 0.696259 0.824453
O O1 0.403419 0.744329 0.778315
O O2 0.492909 0.743565 0.866718
O O3 0.433399 0.000000 0.865914
O O4 0.397966 0.747246 0.947891
O O5 0.133862 0.500000 0.037100
O O6 0.194286 0.247647 0.031530
O O7 0.098110 0.245415 0.116703
O O8 0.250000 0.500000 0.792496
O O9 0.302661 0.750337 0.740571
O O10 0.250000 0.752950 0.888826
O O11 0.536714 0.500000 0.630107
O O12 0.477213 0.748645 0.598872
O O13 0.574392 0.749815 0.548541
O O14 0.549799 0.756034 0.724752
O O15 0.374883 0.751672 0.612195
O O16 0.361670 0.000000 0.711484
O O17 0.577023 0.500000 0.449101
O O18 0.750000 0.500000 0.009611
O O19 0.948531 0.500000 0.822167
#
# Coordination Sequence:
#
# PCOD9401272 Si02
#       8
#     8   8   4   8   8   8   4   8
#     4  11  22  33  47  71 106 138 163 202 254 307
#     4  10  20  34  52  72  96 131 171 212 252 301
#     4  11  21  35  57  74  93 132 174 213 249 299
#     4   8  15  28  49  76 100 128 166 210 249 291
#     4  11  22  34  49  75 107 135 165 208 256 303
#     4   9  16  30  52  73  98 133 170 204 247 300
#     4   9  18  33  51  72  95 122 166 211 247 287
#     4  10  19  32  52  75 101 133 171 210 254 301
#
# _framework density 17.570687
#
# number of rings (size 3 to 8) (size 9 to 14) (size 15 to 20)
#    0.000    2.143    2.857    2.357    0.000    3.429 
#    0.000    2.500    0.000    0.857    0.000    4.000 
#    0.000    0.000    0.000    0.000    0.000    0.000 
#
# Total GULP energy -312402.899126 kJ/mol
# GULP energy per Si atom -5578.623199 kJ/mol
# Density = 1.753070 g / cm^3
# Si number density = 17.570687 Si / 1000 Ang^3
#
#
#
# Elastic Constant Matrix: (Units=GPa)
#
#
# Indices 1 2 3 4 5 6 
#
# 1 146.6548 9.1774 75.4607 0.0000 0.0000 0.0000
# 2 9.1774 7.9914 9.3323 0.0000 0.0000 0.0000
# 3 75.4607 9.3323 111.6538 0.0000 0.0000 0.0000
# 4 0.0000 0.0000 0.0000 6.0714 0.0000 0.0000
# 5 0.0000 0.0000 0.0000 0.0000 28.9580 0.0000
# 6 0.0000 0.0000 0.0000 0.0000 0.0000 -4.5328
#
#
#
# Elastic Compliance Matrix: (Units=1/GPa)
#
#
# Indices 1 2 3 4 5 6 
#
# 1 0.010581 -0.004211 -0.006799 0.000000 0.000000 0.000000
# 2 -0.004211 0.140345 -0.008884 0.000000 0.000000 0.000000
# 3 -0.006799 -0.008884 0.014294 0.000000 0.000000 0.000000
# 4 0.000000 0.000000 0.000000 0.164708 0.000000 0.000000
# 5 0.000000 0.000000 0.000000 0.000000 0.034533 0.000000
# 6 0.000000 0.000000 0.000000 0.000000 0.000000 -0.220614
#
#
# Mechanical properties :
#
#
# Convention : Reuss Voigt Hill
#
# Bulk Modulus (GPa) = 7.97250 50.47118 29.22184
# Shear Modulus (GPa) = 22.17831 17.58795 19.88313
#
# Velocity S-wave (km/s) = 3.55665 3.16726 3.36759
# Velocity P-wave (km/s) = 4.62748 6.49326 5.63808
#
# Compressibility (1/GPa) = 0.12543116
#
# Stress axis : x y z
#
# Youngs Moduli (GPa) = 94.51274 7.12528 69.96040
#
# Poissons Ratio (x) = 0.03001 0.47565
# Poissons Ratio (y) = 0.39801 0.62155
# Poissons Ratio (z) = 0.64258 0.06330
#
# Static dielectric constant tensor:
#      x y z
#    x 1.578680 0.000000 0.000000 
#    y 0.000000 1.606600 0.000000 
#    z 0.000000 0.000000 1.615140 
# 
# From -- ./inp_files/25848.got.cif
#   From: 2010.05.17/outbox.cif.g08.bks.cpg/sg51_13_cif.got.tgz:25848.got - 2010.06.03 11:52:47.
