data_PCOD9401115
_publ_section_title
;
Structure prediction by ZEFSAII (Michael W. Deem and Ramdas Pophale) SiO2 
 PCOD9401115
Probable space group: P M M A
;
_chemical_formula_sum "Si O2"
_cell_formula_units_Z 48
_cell_length_a 14.711902
_cell_length_b 8.815645
_cell_length_c 18.188112
_cell_angle_alpha 90.000000
_cell_angle_beta 90.000000
_cell_angle_gamma 90.000000
_cell_volume 2358.905464
_symmetry_space_group_name_H-M "P M M A"
_symmetry_group_IT_number 51
_symmetry_cell_setting 'orthorhombic'
loop_
_space_group_symop_operation_xyz
x,y,z
1/2-x,-y,z
1/2+x,-y,-z
-x,y,-z
-x,-y,-z
1/2+x,y,-z
1/2-x,y,z
x,-y,z
loop_
_atom_site_type_symbol
_atom_site_label
_atom_site_fract_x
_atom_site_fract_y
_atom_site_fract_z
Si Si1 0.896734 0.328478 0.030041
Si Si2 0.605455 0.827392 0.475153
Si Si3 0.152767 0.682085 0.374500
Si Si4 0.150738 0.316259 0.129830
Si Si5 0.951337 0.317882 0.327576
Si Si6 0.042097 0.820269 0.825048
O O1 0.867128 0.500000 0.048006
O O2 0.900980 0.229730 0.103125
O O3 0.846846 0.274217 0.956762
O O4 0.000000 0.336843 0.000000
O O5 0.500000 0.832982 0.500000
O O6 0.650106 0.732636 0.540514
O O7 0.605035 0.749185 0.395754
O O8 0.639277 0.000000 0.472103
O O9 0.250000 0.735741 0.343172
O O10 0.151668 0.500000 0.369920
O O11 0.057550 0.732870 0.338790
O O12 0.250000 0.280041 0.162125
O O13 0.138906 0.500000 0.133880
O O14 0.061412 0.240640 0.163450
O O15 0.948720 0.500000 0.329773
O O16 0.921284 0.256178 0.248972
O O17 0.040988 0.000000 0.818302
#
# Coordination Sequence:
#
# PCOD9401115 Si02
#       6
#     8   8   8   8   8   8
#     4   8  15  30  50  69  90 121 161 198 232 277
#     4   9  17  30  48  70  95 123 157 197 239 282
#     4   9  18  32  50  72  96 124 159 195 233 282
#     4   9  18  33  52  72  95 125 160 196 235 283
#     4  10  19  32  50  70  95 129 165 200 236 278
#     4  11  21  31  46  71 101 129 158 196 241 287
#
# _framework density 20.348420999999998
#
# number of rings (size 3 to 8) (size 9 to 14) (size 15 to 20)
#    0.000    2.667    0.000    3.500    0.000    7.000 
#    0.000    1.667    0.000    1.000    0.000    2.333 
#    0.000    0.000    0.000    0.000    0.000    0.000 
#
# Total GULP energy -267637.656996 kJ/mol
# GULP energy per Si atom -5575.784521 kJ/mol
# Density = 2.030211 g / cm^3
# Si number density = 20.348421 Si / 1000 Ang^3
#
#
#
# Elastic Constant Matrix: (Units=GPa)
#
#
# Indices 1 2 3 4 5 6 
#
# 1 27.0306 -13.5268 -13.0745 0.0000 0.0000 0.0000
# 2 -13.5268 26.7938 18.6828 0.0000 0.0000 0.0000
# 3 -13.0745 18.6828 113.2833 0.0000 0.0000 0.0000
# 4 0.0000 0.0000 0.0000 -14.8094 0.0000 0.0000
# 5 0.0000 0.0000 0.0000 0.0000 0.7538 0.0000
# 6 0.0000 0.0000 0.0000 0.0000 0.0000 4.5020
#
#
#
# Elastic Compliance Matrix: (Units=1/GPa)
#
#
# Indices 1 2 3 4 5 6 
#
# 1 0.049827 0.023893 0.001810 0.000000 0.000000 0.000000
# 2 0.023893 0.053629 -0.006087 0.000000 0.000000 0.000000
# 3 0.001810 -0.006087 0.010040 0.000000 0.000000 0.000000
# 4 0.000000 0.000000 0.000000 -0.067525 0.000000 0.000000
# 5 0.000000 0.000000 0.000000 0.000000 1.326692 0.000000
# 6 0.000000 0.000000 0.000000 0.000000 0.000000 0.222125
#
#
# Mechanical properties :
#
#
# Convention : Reuss Voigt Hill
#
# Bulk Modulus (GPa) = 6.54752 16.80785 11.67769
# Shear Modulus (GPa) = 3.11242 9.75767 6.43505
#
# Velocity S-wave (km/s) = 1.23810 2.19219 1.78025
# Velocity P-wave (km/s) = 2.29533 3.83218 3.15865
#
# Compressibility (1/GPa) = 0.15272950
#
# Stress axis : x y z
#
# Youngs Moduli (GPa) = 20.06925 18.64669 99.59940
#
# Poissons Ratio (x) = -0.44553 -0.18031
# Poissons Ratio (y) = -0.47952 0.60625
# Poissons Ratio (z) = -0.03633 0.11350
#
# Static dielectric constant tensor:
#      x y z
#    x 1.754280 0.000000 0.000000 
#    y 0.000000 1.685120 0.000000 
#    z 0.000000 0.000000 1.723470 
# 
# From -- ./inp_files/30037.got.cif
#   From: 2010.05.17/outbox.cif.g08.bks.cpg/sg51_16_cif.got.tgz:30037.got - 2010.06.03 11:52:47.
