data_PCOD9401255
_publ_section_title
;
Structure prediction by ZEFSAII (Michael W. Deem and Ramdas Pophale) SiO2 
 PCOD9401255
Probable space group: P M M A
;
_chemical_formula_sum "Si O2"
_cell_formula_units_Z 64
_cell_length_a 14.662339
_cell_length_b 20.673557
_cell_length_c 10.302351
_cell_angle_alpha 90.000000
_cell_angle_beta 90.000000
_cell_angle_gamma 90.000000
_cell_volume 3122.876462
_symmetry_space_group_name_H-M "P M M A"
_symmetry_group_IT_number 51
_symmetry_cell_setting 'orthorhombic'
loop_
_space_group_symop_operation_xyz
x,y,z
1/2-x,-y,z
1/2+x,-y,-z
-x,y,-z
-x,-y,-z
1/2+x,y,-z
1/2-x,y,z
x,-y,z
loop_
_atom_site_type_symbol
_atom_site_label
_atom_site_fract_x
_atom_site_fract_y
_atom_site_fract_z
Si Si1 0.860780 0.924856 0.188812
Si Si2 0.640992 0.430842 0.836427
Si Si3 0.392270 0.711177 0.473165
Si Si4 0.855204 0.928778 0.699420
Si Si5 0.103504 0.150710 0.548387
Si Si6 0.140028 0.709338 0.163506
Si Si7 0.608547 0.430071 0.526157
Si Si8 0.138008 0.155509 0.063545
O O1 0.750000 0.926196 0.188990
O O2 0.889893 0.885773 0.316261
O O3 0.890845 0.000000 0.186408
O O4 0.889822 0.884136 0.062869
O O5 0.750000 0.431173 0.859329
O O6 0.604201 0.500000 0.885806
O O7 0.604442 0.361107 0.880347
O O8 0.626414 0.430512 0.680703
O O9 0.500000 0.707741 0.500000
O O10 0.357888 0.776254 0.542897
O O11 0.378698 0.718960 0.317702
O O12 0.355729 0.640559 0.516646
O O13 0.750000 0.936315 0.739060
O O14 0.853670 0.894295 0.561652
O O15 0.895556 0.883214 0.809713
O O16 0.897390 0.000000 0.691617
O O17 0.000000 0.156253 0.500000
O O18 0.250000 0.707407 0.153310
O O19 0.107103 0.770628 0.081614
O O20 0.500000 0.430236 0.500000
O O21 0.643079 0.500000 0.475432
O O22 0.250000 0.157632 0.063291
#
# Coordination Sequence:
#
# PCOD9401255 Si02
#       8
#     8   8   8   8   8   8   8   8
#     4  10  21  37  55  74  97 125 159 200 243 285
#     4   8  13  20  32  57  93 123 147 185 236 281
#     4   9  17  28  43  65  96 128 156 193 239 282
#     4  10  19  32  52  73  91 118 159 201 242 288
#     4  11  22  34  49  71 101 131 157 195 240 293
#     4   9  15  25  45  69  91 121 162 202 237 282
#     4   8  13  22  37  58  85 119 157 192 227 270
#     4   9  17  31  51  73  93 117 155 202 242 277
#
# _framework density 20.493926999999999
#
# number of rings (size 3 to 8) (size 9 to 14) (size 15 to 20)
#    0.000    2.750    1.250    1.125    0.000    4.000 
#    0.000    0.625    0.000    1.500    0.000    0.875 
#    0.000    1.000    0.000   30.500    0.000    3.125 
#
# Total GULP energy -356509.511409 kJ/mol
# GULP energy per Si atom -5570.461116 kJ/mol
# Density = 2.044728 g / cm^3
# Si number density = 20.493927 Si / 1000 Ang^3
#
#
#
# Elastic Constant Matrix: (Units=GPa)
#
#
# Indices 1 2 3 4 5 6 
#
# 1 43.9952 8.5339 -2.0117 0.0000 0.0000 0.0000
# 2 8.5339 278.1922 78.3952 0.0000 0.0000 0.0000
# 3 -2.0117 78.3952 91.3511 0.0000 0.0000 0.0000
# 4 0.0000 0.0000 0.0000 17.4326 0.0000 0.0000
# 5 0.0000 0.0000 0.0000 0.0000 27.9874 0.0000
# 6 0.0000 0.0000 0.0000 0.0000 0.0000 24.7928
#
#
#
# Elastic Compliance Matrix: (Units=1/GPa)
#
#
# Indices 1 2 3 4 5 6 
#
# 1 0.023014 -0.001120 0.001468 0.000000 0.000000 0.000000
# 2 -0.001120 0.004796 -0.004140 0.000000 0.000000 0.000000
# 3 0.001468 -0.004140 0.014532 0.000000 0.000000 0.000000
# 4 0.000000 0.000000 0.000000 0.057364 0.000000 0.000000
# 5 0.000000 0.000000 0.000000 0.000000 0.035730 0.000000
# 6 0.000000 0.000000 0.000000 0.000000 0.000000 0.040334
#
#
# Mechanical properties :
#
#
# Convention : Reuss Voigt Hill
#
# Bulk Modulus (GPa) = 28.77080 64.81926 46.79503
# Shear Modulus (GPa) = 25.64885 35.95063 30.79974
#
# Velocity S-wave (km/s) = 3.54154 4.19287 3.88089
# Velocity P-wave (km/s) = 5.54910 7.42546 6.55477
#
# Compressibility (1/GPa) = 0.03475746
#
# Stress axis : x y z
#
# Youngs Moduli (GPa) = 43.45180 208.52016 68.81310
#
# Poissons Ratio (x) = 0.23345 -0.10099
# Poissons Ratio (y) = 0.04865 0.28490
# Poissons Ratio (z) = -0.06377 0.86332
#
# Static dielectric constant tensor:
#      x y z
#    x 1.685330 0.000000 0.000000 
#    y 0.000000 1.827880 0.000000 
#    z 0.000000 0.000000 1.670510 
# 
# From -- ./inp_files/10058.got.cif
#   From: 2010.05.17/outbox.cif.g08.bks.cpg/sg51_6_cif.got.tgz:10058.got - 2010.06.03 11:52:47.
