data_PCOD9401902
_publ_section_title
;
Structure prediction by ZEFSAII (Michael W. Deem and Ramdas Pophale) SiO2 
 PCOD9401902
Probable space group: P M M A
;
_chemical_formula_sum "Si O2"
_cell_formula_units_Z 56
_cell_length_a 16.279670
_cell_length_b 9.577115
_cell_length_c 18.795790
_cell_angle_alpha 90.000000
_cell_angle_beta 90.000000
_cell_angle_gamma 90.000000
_cell_volume 2930.494318
_symmetry_space_group_name_H-M "P M M A"
_symmetry_group_IT_number 51
_symmetry_cell_setting 'orthorhombic'
loop_
_space_group_symop_operation_xyz
x,y,z
1/2-x,-y,z
1/2+x,-y,-z
-x,y,-z
-x,-y,-z
1/2+x,y,-z
1/2-x,y,z
x,-y,z
loop_
_atom_site_type_symbol
_atom_site_label
_atom_site_fract_x
_atom_site_fract_y
_atom_site_fract_z
Si Si1 0.750000 0.834062 0.048066
Si Si2 0.656976 0.165278 0.655478
Si Si3 0.590955 0.337822 0.030397
Si Si4 0.989621 0.667059 0.582869
Si Si5 0.991055 0.342488 0.836071
Si Si6 0.250000 0.833159 0.779714
Si Si7 0.603472 0.664286 0.292830
Si Si8 0.839980 0.835554 0.826895
O O1 0.832177 0.761808 0.017141
O O2 0.750000 0.810871 0.134406
O O3 0.750000 0.000000 0.035027
O O4 0.750000 0.203115 0.633000
O O5 0.587536 0.252903 0.616365
O O6 0.654454 0.183287 0.741218
O O7 0.645126 0.000000 0.642418
O O8 0.609048 0.500000 0.011971
O O9 0.570796 0.330305 0.114514
O O10 0.500000 0.304184 0.000000
O O11 0.976985 0.500000 0.590176
O O12 0.071715 0.699974 0.628460
O O13 0.000000 0.700387 0.500000
O O14 0.959905 0.500000 0.843254
O O15 0.918169 0.241576 0.857893
O O16 0.022868 0.320353 0.756715
O O17 0.327711 0.761716 0.741154
O O18 0.250000 0.000000 0.769219
O O19 0.628035 0.500000 0.289688
O O20 0.750000 0.783828 0.849644
O O21 0.844074 0.000000 0.841521
#
# Coordination Sequence:
#
# PCOD9401902 Si02
#       8
#     4   8   8   8   8   4   8   8
#     4  11  23  39  63  93 123 156 195 242 298 354
#     4   9  18  33  53  76 103 137 177 216 259 319
#     4  10  22  41  63  86 116 156 199 242 290 345
#     4  10  21  37  55  78 108 142 182 229 284 339
#     4  10  19  33  57  85 108 139 187 236 280 331
#     4  11  23  37  59  91 117 144 189 240 288 340
#     4  10  20  36  58  82 110 145 185 233 287 339
#     4   9  18  32  51  77 109 144 177 216 271 328
#
# _framework density 19.109404999999999
#
# number of rings (size 3 to 8) (size 9 to 14) (size 15 to 20)
#    0.000    2.143    2.857    1.286    0.000    3.429 
#    2.571    1.429    0.000    0.000    0.000    0.000 
#    0.000    0.000    0.000    0.000    0.000    0.000 
#
# Total GULP energy -312418.557078 kJ/mol
# GULP energy per Si atom -5578.902805 kJ/mol
# Density = 1.906591 g / cm^3
# Si number density = 19.109405 Si / 1000 Ang^3
#
#
#
# Elastic Constant Matrix: (Units=GPa)
#
#
# Indices 1 2 3 4 5 6 
#
# 1 128.8916 87.8775 26.4156 0.0000 0.0000 0.0000
# 2 87.8775 79.4035 28.1225 0.0000 0.0000 0.0000
# 3 26.4156 28.1225 69.2964 0.0000 0.0000 0.0000
# 4 0.0000 0.0000 0.0000 15.1739 0.0000 0.0000
# 5 0.0000 0.0000 0.0000 0.0000 24.0262 0.0000
# 6 0.0000 0.0000 0.0000 0.0000 0.0000 42.1253
#
#
#
# Elastic Compliance Matrix: (Units=1/GPa)
#
#
# Indices 1 2 3 4 5 6 
#
# 1 0.031988 -0.036300 0.002538 0.000000 0.000000 0.000000
# 2 -0.036300 0.055902 -0.008849 0.000000 0.000000 0.000000
# 3 0.002538 -0.008849 0.017055 0.000000 0.000000 0.000000
# 4 0.000000 0.000000 0.000000 0.065903 0.000000 0.000000
# 5 0.000000 0.000000 0.000000 0.000000 0.041621 0.000000
# 6 0.000000 0.000000 0.000000 0.000000 0.000000 0.023739
#
#
# Mechanical properties :
#
#
# Convention : Reuss Voigt Hill
#
# Bulk Modulus (GPa) = 50.70560 62.49141 56.59851
# Shear Modulus (GPa) = 15.24372 25.27682 20.26027
#
# Velocity S-wave (km/s) = 2.82744 3.64090 3.25964
# Velocity P-wave (km/s) = 6.10337 7.10266 6.62189
#
# Compressibility (1/GPa) = 0.01972169
#
# Stress axis : x y z
#
# Youngs Moduli (GPa) = 31.26208 17.88830 58.63546
#
# Poissons Ratio (x) = 0.64935 -0.14883
# Poissons Ratio (y) = 1.13482 0.51888
# Poissons Ratio (z) = -0.07935 0.15830
#
# Static dielectric constant tensor:
#      x y z
#    x 1.654750 0.000000 0.000000 
#    y 0.000000 1.642250 0.000000 
#    z 0.000000 0.000000 1.717080 
# 
# From -- ./inp_files/33538.got.cif
#   From: 2010.05.17/outbox.cif.g08.bks.cpg/sg51_17_cif.got.tgz:33538.got - 2010.06.03 11:52:47.
