data_PCOD9401317
_publ_section_title
;
Structure prediction by ZEFSAII (Michael W. Deem and Ramdas Pophale) SiO2 
 PCOD9401317
Probable space group: P M M A
;
_chemical_formula_sum "Si O2"
_cell_formula_units_Z 44
_cell_length_a 8.391509
_cell_length_b 29.994620
_cell_length_c 9.405060
_cell_angle_alpha 90.000000
_cell_angle_beta 90.000000
_cell_angle_gamma 90.000000
_cell_volume 2367.254765
_symmetry_space_group_name_H-M "P M M A"
_symmetry_group_IT_number 51
_symmetry_cell_setting 'orthorhombic'
loop_
_space_group_symop_operation_xyz
x,y,z
1/2-x,-y,z
1/2+x,-y,-z
-x,y,-z
-x,-y,-z
1/2+x,y,-z
1/2-x,y,z
x,-y,z
loop_
_atom_site_type_symbol
_atom_site_label
_atom_site_fract_x
_atom_site_fract_y
_atom_site_fract_z
Si Si1 0.442782 0.086846 0.838414
Si Si2 0.940787 0.366980 0.337978
Si Si3 0.940551 0.450748 0.838752
Si Si4 0.557435 0.000000 0.338083
Si Si5 0.557748 0.729693 0.336798
Si Si6 0.442946 0.172880 0.662995
O O1 0.250000 0.086947 0.838808
O O2 0.495806 0.044062 0.746853
O O3 0.497864 0.132085 0.760421
O O4 0.500000 0.084222 0.000000
O O5 0.750000 0.367241 0.338210
O O6 0.995198 0.318415 0.277380
O O7 0.000000 0.369943 0.500000
O O8 0.999693 0.409388 0.251981
O O9 0.750000 0.450302 0.838204
O O10 0.994062 0.500000 0.786495
O O11 0.000000 0.446304 0.000000
O O12 0.500000 0.000000 0.500000
O O13 0.750000 0.000000 0.339436
O O14 0.500000 0.729507 0.500000
O O15 0.750000 0.729754 0.333896
O O16 0.504814 0.778104 0.280744
O O17 0.500000 0.167681 0.500000
O O18 0.250000 0.172250 0.660630
#
# Coordination Sequence:
#
# PCOD9401317 Si02
#       6
#     8   8   8   4   8   8
#     4  10  21  35  51  73 103 135 167 205 249 296
#     4  10  19  32  52  77 104 133 166 207 252 297
#     4  10  21  37  55  74  98 130 167 206 250 302
#     4  10  21  36  54  78 102 128 167 210 250 296
#     4   8  15  28  47  71  99 129 162 202 246 290
#     4   9  17  31  51  74  99 129 167 207 245 291
#
# _framework density 18.586929999999999
#
# number of rings (size 3 to 8) (size 9 to 14) (size 15 to 20)
#    0.000    2.545    0.000    1.909    0.000    3.636 
#    0.000    0.909    0.000    2.182    0.000    0.000 
#    0.000    0.000    0.000    0.000    0.000    0.000 
#
# Total GULP energy -245222.556736 kJ/mol
# GULP energy per Si atom -5573.239926 kJ/mol
# Density = 1.854463 g / cm^3
# Si number density = 18.586930 Si / 1000 Ang^3
#
#
#
# Elastic Constant Matrix: (Units=GPa)
#
#
# Indices 1 2 3 4 5 6 
#
# 1 16.9003 33.8262 12.6422 0.0000 0.0000 0.0000
# 2 33.8262 252.4369 101.1902 0.0000 0.0000 0.0000
# 3 12.6422 101.1902 93.0973 0.0000 0.0000 0.0000
# 4 0.0000 0.0000 0.0000 -17.9978 0.0000 0.0000
# 5 0.0000 0.0000 0.0000 0.0000 30.2820 0.0000
# 6 0.0000 0.0000 0.0000 0.0000 0.0000 94.8690
#
#
#
# Elastic Compliance Matrix: (Units=1/GPa)
#
#
# Indices 1 2 3 4 5 6 
#
# 1 0.080961 -0.011415 0.001413 0.000000 0.000000 0.000000
# 2 -0.011415 0.008629 -0.007830 0.000000 0.000000 0.000000
# 3 0.001413 -0.007830 0.019060 0.000000 0.000000 0.000000
# 4 0.000000 0.000000 0.000000 -0.055562 0.000000 0.000000
# 5 0.000000 0.000000 0.000000 0.000000 0.033023 0.000000
# 6 0.000000 0.000000 0.000000 0.000000 0.000000 0.010541
#
#
# Mechanical properties :
#
#
# Convention : Reuss Voigt Hill
#
# Bulk Modulus (GPa) = 13.70101 73.08354 43.39227
# Shear Modulus (GPa) = 31.91966 35.74904 33.83435
#
# Velocity S-wave (km/s) = 4.14855 4.39035 4.27116
# Velocity P-wave (km/s) = 5.50769 8.06880 6.90797
#
# Compressibility (1/GPa) = 0.07298733
#
# Stress axis : x y z
#
# Youngs Moduli (GPa) = 12.35164 115.88163 52.46685
#
# Poissons Ratio (x) = 1.32281 -0.07415
# Poissons Ratio (y) = 0.14100 0.41079
# Poissons Ratio (z) = -0.01746 0.90730
#
# Static dielectric constant tensor:
#      x y z
#    x 1.649550 0.000000 0.000000 
#    y 0.000000 1.707340 0.000000 
#    z 0.000000 0.000000 1.575470 
# 
# From -- ./inp_files/5725.got.cif
#   From: 2010.05.17/outbox.cif.g08.bks.cpg/sg51_3_cif.got.tgz:5725.got - 2010.06.03 11:52:47.
