data_PCOD9401605
_publ_section_title
;
Structure prediction by ZEFSAII (Michael W. Deem and Ramdas Pophale) SiO2 
 PCOD9401605
Probable space group: P M M A
;
_chemical_formula_sum "Si O2"
_cell_formula_units_Z 40
_cell_length_a 8.527395
_cell_length_b 27.114872
_cell_length_c 9.127635
_cell_angle_alpha 90.000000
_cell_angle_beta 90.000000
_cell_angle_gamma 90.000000
_cell_volume 2110.484681
_symmetry_space_group_name_H-M "P M M A"
_symmetry_group_IT_number 51
_symmetry_cell_setting 'orthorhombic'
loop_
_space_group_symop_operation_xyz
x,y,z
1/2-x,-y,z
1/2+x,-y,-z
-x,y,-z
-x,-y,-z
1/2+x,y,-z
1/2-x,y,z
x,-y,z
loop_
_atom_site_type_symbol
_atom_site_label
_atom_site_fract_x
_atom_site_fract_y
_atom_site_fract_z
Si Si1 0.937243 0.095532 0.165054
Si Si2 0.437283 0.000000 0.334903
Si Si3 0.937089 0.190778 0.664827
Si Si4 0.439208 0.394038 0.832824
Si Si5 0.939169 0.285856 0.167342
Si Si6 0.939873 0.500000 0.168208
O O1 0.750000 0.094063 0.164400
O O2 0.001824 0.048481 0.252303
O O3 0.994437 0.145347 0.242898
O O4 0.000000 0.094223 0.000000
O O5 0.500000 0.000000 0.500000
O O6 0.250000 0.000000 0.335624
O O7 0.750000 0.187756 0.665061
O O8 0.000000 0.187888 0.500000
O O9 0.991208 0.241787 0.738298
O O10 0.250000 0.394119 0.834967
O O11 0.486709 0.340395 0.773207
O O12 0.490839 0.446931 0.766642
O O13 0.500000 0.394220 0.000000
O O14 0.750000 0.282571 0.166495
O O15 0.000000 0.281859 0.000000
O O16 0.750000 0.500000 0.166261
O O17 0.000000 0.500000 0.000000
#
# Coordination Sequence:
#
# PCOD9401605 Si02
#       6
#     8   4   8   8   8   4
#     4  12  25  44  67  94 124 158 196 238 283 333
#     4  12  25  44  67  96 130 166 202 240 283 332
#     4  12  25  42  61  84 112 147 187 234 286 341
#     4   8  14  23  39  63  96 133 173 216 266 321
#     4  10  19  33  52  78 109 145 184 228 277 333
#     4   8  12  20  34  58  91 130 169 212 262 318
#
# _framework density 18.952991999999998
#
# number of rings (size 3 to 8) (size 9 to 14) (size 15 to 20)
#    0.000    1.600    0.000    6.600    0.000    0.800 
#    0.000    0.000    0.000    0.000    0.000    0.700 
#    0.000    0.000    0.000    0.000    0.000    0.000 
#
# Total GULP energy -223280.864021 kJ/mol
# GULP energy per Si atom -5582.021601 kJ/mol
# Density = 1.890985 g / cm^3
# Si number density = 18.952992 Si / 1000 Ang^3
#
#
#
# Elastic Constant Matrix: (Units=GPa)
#
#
# Indices 1 2 3 4 5 6 
#
# 1 140.2248 71.5114 49.0925 0.0000 0.0000 0.0000
# 2 71.5114 237.7337 91.7113 0.0000 0.0000 0.0000
# 3 49.0925 91.7113 115.1964 0.0000 0.0000 0.0000
# 4 0.0000 0.0000 0.0000 -24.6749 0.0000 0.0000
# 5 0.0000 0.0000 0.0000 0.0000 29.5457 0.0000
# 6 0.0000 0.0000 0.0000 0.0000 0.0000 -2.2984
#
#
#
# Elastic Compliance Matrix: (Units=1/GPa)
#
#
# Indices 1 2 3 4 5 6 
#
# 1 0.008856 -0.001743 -0.002386 0.000000 0.000000 0.000000
# 2 -0.001743 0.006414 -0.004364 0.000000 0.000000 0.000000
# 3 -0.002386 -0.004364 0.013172 0.000000 0.000000 0.000000
# 4 0.000000 0.000000 0.000000 -0.040527 0.000000 0.000000
# 5 0.000000 0.000000 0.000000 0.000000 0.033846 0.000000
# 6 0.000000 0.000000 0.000000 0.000000 0.000000 -0.435088
#
#
# Mechanical properties :
#
#
# Convention : Reuss Voigt Hill
#
# Bulk Modulus (GPa) = 87.29326 101.97615 94.63471
# Shear Modulus (GPa) = -12.73809 19.23714 3.24952
#
# Velocity S-wave (km/s) = -2.59528 3.18935 1.31082
# Velocity P-wave (km/s) = 6.09730 8.21488 7.23399
#
# Compressibility (1/GPa) = 0.01145564
#
# Stress axis : x y z
#
# Youngs Moduli (GPa) = 112.91958 155.90562 75.92090
#
# Poissons Ratio (x) = 0.27181 0.18115
# Poissons Ratio (y) = 0.19686 0.33128
# Poissons Ratio (z) = 0.26943 0.68030
#
# Static dielectric constant tensor:
#      x y z
#    x 1.634320 0.000000 0.000000 
#    y 0.000000 1.704370 0.000000 
#    z 0.000000 0.000000 1.602990 
# 
# From -- ./inp_files/5513.got.cif
#   From: 2010.05.17/outbox.cif.g08.bks.cpg/sg51_3_cif.got.tgz:5513.got - 2010.06.03 11:52:47.
