data_PCOD9401994
_publ_section_title
;
Structure prediction by ZEFSAII (Michael W. Deem and Ramdas Pophale) SiO2 
 PCOD9401994
Probable space group: P M M A
;
_chemical_formula_sum "Si O2"
_cell_formula_units_Z 48
_cell_length_a 19.831947
_cell_length_b 7.762137
_cell_length_c 15.563419
_cell_angle_alpha 90.000000
_cell_angle_beta 90.000000
_cell_angle_gamma 90.000000
_cell_volume 2395.806101
_symmetry_space_group_name_H-M "P M M A"
_symmetry_group_IT_number 51
_symmetry_cell_setting 'orthorhombic'
loop_
_space_group_symop_operation_xyz
x,y,z
1/2-x,-y,z
1/2+x,-y,-z
-x,y,-z
-x,-y,-z
1/2+x,y,-z
1/2-x,y,z
x,-y,z
loop_
_atom_site_type_symbol
_atom_site_label
_atom_site_fract_x
_atom_site_fract_y
_atom_site_fract_z
Si Si1 0.826298 0.705464 0.867516
Si Si2 0.672434 0.788876 0.396983
Si Si3 0.429528 0.208410 0.457310
Si Si4 0.905736 0.795937 0.227695
Si Si5 0.327696 0.791701 0.938109
Si Si6 0.059283 0.296470 0.259443
O O1 0.750000 0.775586 0.856754
O O2 0.822249 0.500000 0.853737
O O3 0.881650 0.775385 0.801521
O O4 0.847000 0.734239 0.966317
O O5 0.750000 0.734422 0.396675
O O6 0.631334 0.734606 0.481386
O O7 0.632905 0.728317 0.311966
O O8 0.671715 0.000000 0.396452
O O9 0.500000 0.265988 0.500000
O O10 0.424943 0.265571 0.359290
O O11 0.430508 0.000000 0.457057
O O12 0.875186 0.727344 0.138610
O O13 0.985373 0.773925 0.237797
O O14 0.891874 0.000000 0.226844
O O15 0.250000 0.737972 0.922567
O O16 0.328871 0.000000 0.938756
O O17 0.055321 0.500000 0.244600
#
# Coordination Sequence:
#
# PCOD9401994 Si02
#       6
#     8   8   8   8   8   8
#     4   9  20  39  57  73 102 145 184 219 265 318
#     4   9  17  31  54  81 106 136 175 215 258 317
#     4  10  19  35  56  78 104 138 175 214 267 322
#     4  10  19  34  55  80 111 142 172 214 269 322
#     4   9  18  33  56  84 109 137 177 224 269 311
#     4  11  23  36  54  79 106 141 182 221 264 316
#
# _framework density 20.035008999999999
#
# number of rings (size 3 to 8) (size 9 to 14) (size 15 to 20)
#    0.000    2.333    1.667    1.000    0.000    5.667 
#    0.000    3.333    0.000    2.500    0.000    0.000 
#    0.000    0.000    0.000    0.000    0.000    0.000 
#
# Total GULP energy -267956.276555 kJ/mol
# GULP energy per Si atom -5582.422428 kJ/mol
# Density = 1.998941 g / cm^3
# Si number density = 20.035009 Si / 1000 Ang^3
#
#
#
# Elastic Constant Matrix: (Units=GPa)
#
#
# Indices 1 2 3 4 5 6 
#
# 1 144.9168 -10.7522 101.9150 0.0000 0.0000 0.0000
# 2 -10.7522 17.6178 -18.0101 0.0000 0.0000 0.0000
# 3 101.9150 -18.0101 157.9268 0.0000 0.0000 0.0000
# 4 0.0000 0.0000 0.0000 34.8319 0.0000 0.0000
# 5 0.0000 0.0000 0.0000 0.0000 42.6237 0.0000
# 6 0.0000 0.0000 0.0000 0.0000 0.0000 10.4801
#
#
#
# Elastic Compliance Matrix: (Units=1/GPa)
#
#
# Indices 1 2 3 4 5 6 
#
# 1 0.012642 -0.000707 -0.008239 0.000000 0.000000 0.000000
# 2 -0.000707 0.064291 0.007788 0.000000 0.000000 0.000000
# 3 -0.008239 0.007788 0.012537 0.000000 0.000000 0.000000
# 4 0.000000 0.000000 0.000000 0.028709 0.000000 0.000000
# 5 0.000000 0.000000 0.000000 0.000000 0.023461 0.000000
# 6 0.000000 0.000000 0.000000 0.000000 0.000000 0.095419
#
#
# Mechanical properties :
#
#
# Convention : Reuss Voigt Hill
#
# Bulk Modulus (GPa) = 11.47391 51.86297 31.66844
# Shear Modulus (GPa) = 18.62700 34.07437 26.35068
#
# Velocity S-wave (km/s) = 3.05244 4.12848 3.63055
# Velocity P-wave (km/s) = 4.26176 6.97626 5.78060
#
# Compressibility (1/GPa) = 0.08715427
#
# Stress axis : x y z
#
# Youngs Moduli (GPa) = 79.09927 15.55431 79.76293
#
# Poissons Ratio (x) = 0.01100 0.65718
# Poissons Ratio (y) = 0.05592 -0.62120
# Poissons Ratio (z) = 0.65171 -0.12114
#
# Static dielectric constant tensor:
#      x y z
#    x 1.692750 0.000000 0.000000 
#    y 0.000000 1.745880 0.000000 
#    z 0.000000 0.000000 1.680500 
# 
# From -- ./inp_files/24741.got.cif
#   From: 2010.05.17/outbox.cif.g08.bks.cpg/sg51_13_cif.got.tgz:24741.got - 2010.06.03 11:52:47.
