data_PCOD9401597
_publ_section_title
;
Structure prediction by ZEFSAII (Michael W. Deem and Ramdas Pophale) SiO2 
 PCOD9401597
Probable space group: P M M A
;
_chemical_formula_sum "Si O2"
_cell_formula_units_Z 40
_cell_length_a 8.450410
_cell_length_b 27.737834
_cell_length_c 9.111111
_cell_angle_alpha 90.000000
_cell_angle_beta 90.000000
_cell_angle_gamma 90.000000
_cell_volume 2135.608610
_symmetry_space_group_name_H-M "P M M A"
_symmetry_group_IT_number 51
_symmetry_cell_setting 'orthorhombic'
loop_
_space_group_symop_operation_xyz
x,y,z
1/2-x,-y,z
1/2+x,-y,-z
-x,y,-z
-x,-y,-z
1/2+x,y,-z
1/2-x,y,z
x,-y,z
loop_
_atom_site_type_symbol
_atom_site_label
_atom_site_fract_x
_atom_site_fract_y
_atom_site_fract_z
Si Si1 0.941582 0.396258 0.330835
Si Si2 0.558435 0.500000 0.330884
Si Si3 0.561938 0.093651 0.834837
Si Si4 0.438080 0.000000 0.665264
Si Si5 0.558915 0.292660 0.331604
Si Si6 0.940393 0.187326 0.332187
O O1 0.750000 0.396283 0.331070
O O2 0.994016 0.448131 0.266445
O O3 0.993939 0.344396 0.266175
O O4 0.000000 0.396241 0.500000
O O5 0.750000 0.500000 0.331049
O O6 0.500000 0.500000 0.500000
O O7 0.750000 0.091768 0.834225
O O8 0.497525 0.047797 0.746610
O O9 0.506252 0.143068 0.759619
O O10 0.500000 0.091551 0.000000
O O11 0.500000 0.000000 0.500000
O O12 0.250000 0.000000 0.664924
O O13 0.500000 0.292768 0.500000
O O14 0.750000 0.292728 0.331713
O O15 0.509047 0.240337 0.271922
O O16 0.750000 0.185154 0.332517
O O17 0.000000 0.183568 0.500000
#
# Coordination Sequence:
#
# PCOD9401597 Si02
#       6
#     8   4   8   4   8   8
#     4   8  12  18  27  43  67 101 142 188 235 284
#     4   8  12  16  24  38  62  96 139 184 231 282
#     4  12  25  42  61  84 112 143 175 212 256 304
#     4  12  25  44  67  92 118 146 178 212 247 290
#     4   8  14  23  37  56  82 114 154 199 245 291
#     4  10  19  33  52  76 103 136 175 217 259 305
#
# _framework density 18.730024
#
# number of rings (size 3 to 8) (size 9 to 14) (size 15 to 20)
#    0.000    2.400    0.000    4.200    0.000    0.800 
#    0.000    0.000    0.000    0.000    0.000    0.000 
#    0.000    0.000    0.000    0.900    0.000    7.400 
#
# Total GULP energy -222753.255136 kJ/mol
# GULP energy per Si atom -5568.831378 kJ/mol
# Density = 1.868739 g / cm^3
# Si number density = 18.730024 Si / 1000 Ang^3
#
#
#
# Elastic Constant Matrix: (Units=GPa)
#
#
# Indices 1 2 3 4 5 6 
#
# 1 79.0584 53.9640 23.4069 0.0000 0.0000 0.0000
# 2 53.9640 269.5622 70.6309 0.0000 0.0000 0.0000
# 3 23.4069 70.6309 60.8419 0.0000 0.0000 0.0000
# 4 0.0000 0.0000 0.0000 -9.4419 0.0000 0.0000
# 5 0.0000 0.0000 0.0000 0.0000 20.1441 0.0000
# 6 0.0000 0.0000 0.0000 0.0000 0.0000 9.0336
#
#
#
# Elastic Compliance Matrix: (Units=1/GPa)
#
#
# Indices 1 2 3 4 5 6 
#
# 1 0.015100 -0.002157 -0.003305 0.000000 0.000000 0.000000
# 2 -0.002157 0.005639 -0.005717 0.000000 0.000000 0.000000
# 3 -0.003305 -0.005717 0.024345 0.000000 0.000000 0.000000
# 4 0.000000 0.000000 0.000000 -0.105910 0.000000 0.000000
# 5 0.000000 0.000000 0.000000 0.000000 0.049642 0.000000
# 6 0.000000 0.000000 0.000000 0.000000 0.000000 0.110698
#
#
# Mechanical properties :
#
#
# Convention : Reuss Voigt Hill
#
# Bulk Modulus (GPa) = 44.00371 78.38511 61.19441
# Shear Modulus (GPa) = 38.62588 21.37786 30.00187
#
# Velocity S-wave (km/s) = 4.54612 3.38208 4.00660
# Velocity P-wave (km/s) = 7.14849 7.56255 7.35843
#
# Compressibility (1/GPa) = 0.02272536
#
# Stress axis : x y z
#
# Youngs Moduli (GPa) = 66.22664 177.32143 41.07694
#
# Poissons Ratio (x) = 0.38244 0.13577
# Poissons Ratio (y) = 0.14283 0.23484
# Poissons Ratio (z) = 0.21890 1.01376
#
# Static dielectric constant tensor:
#      x y z
#    x 1.629180 0.000000 0.000000 
#    y 0.000000 1.750490 0.000000 
#    z 0.000000 0.000000 1.582780 
# 
# From -- ./inp_files/5597.got.cif
#   From: 2010.05.17/outbox.cif.g08.bks.cpg/sg51_3_cif.got.tgz:5597.got - 2010.06.03 11:52:47.
