data_PCOD9401691
_publ_section_title
;
Structure prediction by ZEFSAII (Michael W. Deem and Ramdas Pophale) SiO2 
 PCOD9401691
Probable space group: P M M A
;
_chemical_formula_sum "Si O2"
_cell_formula_units_Z 48
_cell_length_a 31.506098
_cell_length_b 7.743459
_cell_length_c 9.420408
_cell_angle_alpha 90.000000
_cell_angle_beta 90.000000
_cell_angle_gamma 90.000000
_cell_volume 2298.260936
_symmetry_space_group_name_H-M "P M M A"
_symmetry_group_IT_number 51
_symmetry_cell_setting 'orthorhombic'
loop_
_space_group_symop_operation_xyz
x,y,z
1/2-x,-y,z
1/2+x,-y,-z
-x,y,-z
-x,-y,-z
1/2+x,y,-z
1/2-x,y,z
x,-y,z
loop_
_atom_site_type_symbol
_atom_site_label
_atom_site_fract_x
_atom_site_fract_y
_atom_site_fract_z
Si Si1 0.202256 0.210770 0.573473
Si Si2 0.798045 0.208750 0.100000
Si Si3 0.377459 0.209213 0.394061
Si Si4 0.457150 0.211265 0.580854
Si Si5 0.463329 0.199238 0.900550
Si Si6 0.617811 0.302008 0.934818
O O1 0.250000 0.265730 0.536343
O O2 0.193541 0.262326 0.736645
O O3 0.166324 0.269614 0.465598
O O4 0.201986 0.000000 0.572891
O O5 0.750000 0.265137 0.062089
O O6 0.798034 0.000000 0.097659
O O7 0.835666 0.268170 0.998958
O O8 0.416396 0.268993 0.491771
O O9 0.382343 0.263158 0.231841
O O10 0.377230 0.000000 0.395769
O O11 0.500000 0.260194 0.500000
O O12 0.458004 0.274003 0.743081
O O13 0.455116 0.000000 0.582597
O O14 0.476643 0.000000 0.876112
O O15 0.500000 0.278221 0.000000
O O16 0.418679 0.200011 0.982033
O O17 0.606739 0.500000 0.957993
#
# Coordination Sequence:
#
# PCOD9401691 Si02
#       6
#     8   8   8   8   8   8
#     4   8  15  30  55  84 106 128 170 229 281 320
#     4   9  18  36  62  86 107 137 182 232 278 326
#     4  10  19  33  54  77 105 141 182 225 265 313
#     4   9  17  31  55  85 108 129 169 226 278 319
#     4  10  20  37  63  88 109 138 180 228 275 325
#     4  12  25  37  51  77 117 155 185 221 267 324
#
# _framework density 20.885356000000002
#
# number of rings (size 3 to 8) (size 9 to 14) (size 15 to 20)
#    0.000    2.333    0.000    4.500    0.000    6.667 
#    0.000    5.000    0.000    3.000    0.000    0.000 
#    0.000    0.000    0.000    0.000    0.000    0.000 
#
# Total GULP energy -268078.324268 kJ/mol
# GULP energy per Si atom -5584.965089 kJ/mol
# Density = 2.083782 g / cm^3
# Si number density = 20.885356 Si / 1000 Ang^3
#
#
#
# Elastic Constant Matrix: (Units=GPa)
#
#
# Indices 1 2 3 4 5 6 
#
# 1 138.7420 -7.4580 101.9541 0.0000 0.0000 0.0000
# 2 -7.4580 33.3120 -4.7515 0.0000 0.0000 0.0000
# 3 101.9541 -4.7515 179.6334 0.0000 0.0000 0.0000
# 4 0.0000 0.0000 0.0000 -54.7446 0.0000 0.0000
# 5 0.0000 0.0000 0.0000 0.0000 42.1323 0.0000
# 6 0.0000 0.0000 0.0000 0.0000 0.0000 1380.3070
#
#
#
# Elastic Compliance Matrix: (Units=1/GPa)
#
#
# Indices 1 2 3 4 5 6 
#
# 1 0.012470 0.001789 -0.007030 0.000000 0.000000 0.000000
# 2 0.001789 0.030390 -0.000212 0.000000 0.000000 0.000000
# 3 -0.007030 -0.000212 0.009551 0.000000 0.000000 0.000000
# 4 0.000000 0.000000 0.000000 -0.018267 0.000000 0.000000
# 5 0.000000 0.000000 0.000000 0.000000 0.023735 0.000000
# 6 0.000000 0.000000 0.000000 0.000000 0.000000 0.000724
#
#
# Mechanical properties :
#
#
# Convention : Reuss Voigt Hill
#
# Bulk Modulus (GPa) = 24.09320 59.01962 41.55641
# Shear Modulus (GPa) = 59.99226 291.00179 175.49702
#
# Velocity S-wave (km/s) = 5.36534 11.81674 9.17666
# Velocity P-wave (km/s) = 7.06707 14.64584 11.49879
#
# Compressibility (1/GPa) = 0.04150549
#
# Stress axis : x y z
#
# Youngs Moduli (GPa) = 80.19303 32.90600 104.69654
#
# Poissons Ratio (x) = -0.05887 0.73604
# Poissons Ratio (y) = -0.14347 0.02215
# Poissons Ratio (z) = 0.56377 0.00696
#
# Static dielectric constant tensor:
#      x y z
#    x 1.712400 0.000000 0.000000 
#    y 0.000000 1.766310 0.000000 
#    z 0.000000 0.000000 1.711000 
# 
# From -- ./inp_files/12737.got.cif
#   From: 2010.05.17/outbox.cif.g08.bks.cpg/sg51_7_cif.got.tgz:12737.got - 2010.06.03 11:52:47.
