data_PCOD9401107
_publ_section_title
;
Structure prediction by ZEFSAII (Michael W. Deem and Ramdas Pophale) SiO2 
 PCOD9401107
Probable space group: P M M A
;
_chemical_formula_sum "Si O2"
_cell_formula_units_Z 64
_cell_length_a 23.764782
_cell_length_b 7.593052
_cell_length_c 18.987890
_cell_angle_alpha 90.000000
_cell_angle_beta 90.000000
_cell_angle_gamma 90.000000
_cell_volume 3426.312068
_symmetry_space_group_name_H-M "P M M A"
_symmetry_group_IT_number 51
_symmetry_cell_setting 'orthorhombic'
loop_
_space_group_symop_operation_xyz
x,y,z
1/2-x,-y,z
1/2+x,-y,-z
-x,y,-z
-x,-y,-z
1/2+x,y,-z
1/2-x,y,z
x,-y,z
loop_
_atom_site_type_symbol
_atom_site_label
_atom_site_fract_x
_atom_site_fract_y
_atom_site_fract_z
Si Si1 0.813225 0.287202 0.996097
Si Si2 0.374679 0.284796 0.145606
Si Si3 0.817005 0.713108 0.559072
Si Si4 0.318282 0.707980 0.592272
Si Si5 0.511969 0.700840 0.923331
Si Si6 0.314508 0.287318 0.746045
Si Si7 0.184243 0.284534 0.287230
Si Si8 0.605065 0.200944 0.124383
O O1 0.750000 0.225080 0.011226
O O2 0.812660 0.500000 0.997793
O O3 0.857251 0.229711 0.055021
O O4 0.833554 0.234466 0.918513
O O5 0.374400 0.500000 0.149631
O O6 0.436760 0.224200 0.122054
O O7 0.351908 0.223521 0.220830
O O8 0.750000 0.748121 0.560387
O O9 0.823090 0.500000 0.557292
O O10 0.838436 0.780817 0.483254
O O11 0.837624 0.773654 0.635623
O O12 0.250000 0.719158 0.591693
O O13 0.332460 0.500000 0.592353
O O14 0.334424 0.779246 0.669062
O O15 0.530703 0.500000 0.939070
O O16 0.453196 0.696367 0.882574
O O17 0.500000 0.784403 0.000000
O O18 0.250000 0.226944 0.759245
O O19 0.311987 0.500000 0.741983
O O20 0.356146 0.242155 0.808839
O O21 0.250000 0.234088 0.279117
O O22 0.183813 0.500000 0.287888
O O23 0.587511 0.000000 0.127823
#
# Coordination Sequence:
#
# PCOD9401107 Si02
#       8
#     8   8   8   8   8   8   8   8
#     4  10  19  32  50  69  91 120 152 181 215 267
#     4   9  16  27  44  65  86 114 151 187 220 258
#     4   7   9  14  27  52  89 124 143 161 202 260
#     4   7  10  18  34  57  85 118 150 173 200 251
#     4  10  19  35  54  66  82 112 155 199 230 263
#     4   9  17  30  48  68  91 120 153 184 216 262
#     4   8  12  18  32  60  96 123 140 167 215 270
#     4  12  24  34  46  65  91 117 148 190 235 274
#
# _framework density 18.678975000000001
#
# number of rings (size 3 to 8) (size 9 to 14) (size 15 to 20)
#    0.000    3.000    1.250    4.125    0.000    3.750 
#    0.000    0.000    0.000    0.000    0.000    0.875 
#    0.000    9.000    0.000    9.875    0.000    7.750 
#
# Total GULP energy -356462.207813 kJ/mol
# GULP energy per Si atom -5569.721997 kJ/mol
# Density = 1.863646 g / cm^3
# Si number density = 18.678975 Si / 1000 Ang^3
#
#
#
# Elastic Constant Matrix: (Units=GPa)
#
#
# Indices 1 2 3 4 5 6 
#
# 1 60.8968 -2.3289 27.9511 0.0000 0.0000 0.0000
# 2 -2.3289 41.7256 2.3878 0.0000 0.0000 0.0000
# 3 27.9511 2.3878 157.4317 0.0000 0.0000 0.0000
# 4 0.0000 0.0000 0.0000 -46.3306 0.0000 0.0000
# 5 0.0000 0.0000 0.0000 0.0000 4.7034 0.0000
# 6 0.0000 0.0000 0.0000 0.0000 0.0000 38.1443
#
#
#
# Elastic Compliance Matrix: (Units=1/GPa)
#
#
# Indices 1 2 3 4 5 6 
#
# 1 0.017936 0.001184 -0.003202 0.000000 0.000000 0.000000
# 2 0.001184 0.024065 -0.000575 0.000000 0.000000 0.000000
# 3 -0.003202 -0.000575 0.006929 0.000000 0.000000 0.000000
# 4 0.000000 0.000000 0.000000 -0.021584 0.000000 0.000000
# 5 0.000000 0.000000 0.000000 0.000000 0.212611 0.000000
# 6 0.000000 0.000000 0.000000 0.000000 0.000000 0.026216
#
#
# Mechanical properties :
#
#
# Convention : Reuss Voigt Hill
#
# Bulk Modulus (GPa) = 22.86025 35.11935 28.98980
# Shear Modulus (GPa) = 17.48605 14.77303 16.12954
#
# Velocity S-wave (km/s) = 3.06295 2.81533 2.94175
# Velocity P-wave (km/s) = 4.97734 5.42314 5.20502
#
# Compressibility (1/GPa) = 0.04374406
#
# Stress axis : x y z
#
# Youngs Moduli (GPa) = 55.75251 41.55389 144.31544
#
# Poissons Ratio (x) = -0.04922 0.46217
# Poissons Ratio (y) = -0.06603 0.08302
# Poissons Ratio (z) = 0.17855 0.02391
#
# Static dielectric constant tensor:
#      x y z
#    x 1.616540 0.000000 0.000000 
#    y 0.000000 1.719640 0.000000 
#    z 0.000000 0.000000 1.697960 
# 
# From -- ./inp_files/30922.got.cif
#   From: 2010.05.17/outbox.cif.g08.bks.cpg/sg51_16_cif.got.tgz:30922.got - 2010.06.03 11:52:47.
