data_PCOD9401084
_publ_section_title
;
Structure prediction by ZEFSAII (Michael W. Deem and Ramdas Pophale) SiO2 
 PCOD9401084
Probable space group: P M M A
;
_chemical_formula_sum "Si O2"
_cell_formula_units_Z 52
_cell_length_a 8.894540
_cell_length_b 23.208142
_cell_length_c 15.436584
_cell_angle_alpha 90.000000
_cell_angle_beta 90.000000
_cell_angle_gamma 90.000000
_cell_volume 3186.508389
_symmetry_space_group_name_H-M "P M M A"
_symmetry_group_IT_number 51
_symmetry_cell_setting 'orthorhombic'
loop_
_space_group_symop_operation_xyz
x,y,z
1/2-x,-y,z
1/2+x,-y,-z
-x,y,-z
-x,-y,-z
1/2+x,y,-z
1/2-x,y,z
x,-y,z
loop_
_atom_site_type_symbol
_atom_site_label
_atom_site_fract_x
_atom_site_fract_y
_atom_site_fract_z
Si Si1 0.922085 0.089042 0.088432
Si Si2 0.069910 0.770302 0.271241
Si Si3 0.930134 0.905207 0.731657
Si Si4 0.423910 0.770664 0.910713
Si Si5 0.568615 0.000000 0.594705
Si Si6 0.930302 0.563374 0.596578
Si Si7 0.569856 0.319171 0.403450
O O1 0.750000 0.070851 0.089517
O O2 0.926232 0.159248 0.087053
O O3 0.002067 0.073071 0.177826
O O4 0.000000 0.069382 0.000000
O O5 0.250000 0.764163 0.278079
O O6 0.031066 0.838085 0.281868
O O7 0.014168 0.753367 0.175151
O O8 0.987904 0.732022 0.342771
O O9 0.750000 0.908596 0.739342
O O10 0.977390 0.944553 0.651425
O O11 0.250000 0.752906 0.905405
O O12 0.500000 0.750836 0.000000
O O13 0.500000 0.000000 0.500000
O O14 0.750000 0.000000 0.588175
O O15 0.750000 0.571106 0.591410
O O16 0.959340 0.500000 0.636468
O O17 0.000000 0.560883 0.500000
O O18 0.007098 0.620222 0.634717
O O19 0.500000 0.312865 0.500000
O O20 0.750000 0.320580 0.409167
#
# Coordination Sequence:
#
# PCOD9401084 Si02
#       7
#     8   8   8   8   4   8   8
#     4   9  16  27  47  73  99 123 148 179 221 277
#     4  10  19  32  49  70  96 125 156 194 240 286
#     4   9  19  35  53  71  93 120 152 193 239 285
#     4   9  16  27  44  68  95 124 155 188 229 278
#     4  10  22  40  57  72  89 114 153 200 244 286
#     4   9  16  27  44  65  90 122 159 196 233 275
#     4  11  21  32  46  66  95 129 163 199 237 280
#
# _framework density 16.318802000000002
#
# number of rings (size 3 to 8) (size 9 to 14) (size 15 to 20)
#    0.000    2.462    0.000    4.154    0.000    6.462 
#    0.000    1.923    0.000    0.000    0.000    0.000 
#    0.000    0.615    0.000    2.308    0.000    3.846 
#
# Total GULP energy -289928.001518 kJ/mol
# GULP energy per Si atom -5575.538491 kJ/mol
# Density = 1.628166 g / cm^3
# Si number density = 16.318802 Si / 1000 Ang^3
#
#
#
# Elastic Constant Matrix: (Units=GPa)
#
#
# Indices 1 2 3 4 5 6 
#
# 1 91.3691 52.1992 53.9394 0.0000 0.0000 0.0000
# 2 52.1992 87.5171 61.5974 0.0000 0.0000 0.0000
# 3 53.9394 61.5974 127.7456 0.0000 0.0000 0.0000
# 4 0.0000 0.0000 0.0000 -7.7381 0.0000 0.0000
# 5 0.0000 0.0000 0.0000 0.0000 32.3923 0.0000
# 6 0.0000 0.0000 0.0000 0.0000 0.0000 9.9434
#
#
#
# Elastic Compliance Matrix: (Units=1/GPa)
#
#
# Indices 1 2 3 4 5 6 
#
# 1 0.017627 -0.007985 -0.003593 0.000000 0.000000 0.000000
# 2 -0.007985 0.020914 -0.006713 0.000000 0.000000 0.000000
# 3 -0.003593 -0.006713 0.012582 0.000000 0.000000 0.000000
# 4 0.000000 0.000000 0.000000 -0.129230 0.000000 0.000000
# 5 0.000000 0.000000 0.000000 0.000000 0.030872 0.000000
# 6 0.000000 0.000000 0.000000 0.000000 0.000000 0.100569
#
#
# Mechanical properties :
#
#
# Convention : Reuss Voigt Hill
#
# Bulk Modulus (GPa) = 68.76678 71.34485 70.05582
# Shear Modulus (GPa) = 52.76384 16.17924 34.47154
#
# Velocity S-wave (km/s) = 5.69239 3.15214 4.60105
# Velocity P-wave (km/s) = 9.24314 7.55396 8.44091
#
# Compressibility (1/GPa) = 0.01454191
#
# Stress axis : x y z
#
# Youngs Moduli (GPa) = 56.72961 47.81570 79.47991
#
# Poissons Ratio (x) = 0.38182 0.28555
# Poissons Ratio (y) = 0.45300 0.53352
# Poissons Ratio (z) = 0.20381 0.32097
#
# Static dielectric constant tensor:
#      x y z
#    x 1.544090 0.000000 0.000000 
#    y 0.000000 1.582020 0.000000 
#    z 0.000000 0.000000 1.520470 
# 
# From -- ./inp_files/22035.got.cif
#   From: 2010.05.17/outbox.cif.g08.bks.cpg/sg51_12_cif.got.tgz:22035.got - 2010.06.03 11:52:47.
