data_PCOD9401632
_publ_section_title
;
Structure prediction by ZEFSAII (Michael W. Deem and Ramdas Pophale) SiO2 
 PCOD9401632
Probable space group: P M M A
;
_chemical_formula_sum "Si O2"
_cell_formula_units_Z 64
_cell_length_a 23.123682
_cell_length_b 8.795167
_cell_length_c 17.950334
_cell_angle_alpha 90.000000
_cell_angle_beta 90.000000
_cell_angle_gamma 90.000000
_cell_volume 3650.678703
_symmetry_space_group_name_H-M "P M M A"
_symmetry_group_IT_number 51
_symmetry_cell_setting 'orthorhombic'
loop_
_space_group_symop_operation_xyz
x,y,z
1/2-x,-y,z
1/2+x,-y,-z
-x,y,-z
-x,-y,-z
1/2+x,y,-z
1/2-x,y,z
x,-y,z
loop_
_atom_site_type_symbol
_atom_site_label
_atom_site_fract_x
_atom_site_fract_y
_atom_site_fract_z
Si Si1 0.813874 0.815009 0.571574
Si Si2 0.914954 0.818551 0.147077
Si Si3 0.579227 0.183562 0.673676
Si Si4 0.150157 0.818871 0.594133
Si Si5 0.930162 0.674482 0.991654
Si Si6 0.950722 0.817899 0.838529
Si Si7 0.974807 0.321752 0.416781
Si Si8 0.185317 0.318176 0.749856
O O1 0.750000 0.765144 0.594870
O O2 0.864851 0.766642 0.626697
O O3 0.825428 0.768591 0.486177
O O4 0.814743 0.000000 0.571655
O O5 0.866622 0.748494 0.200651
O O6 0.981245 0.770845 0.166938
O O7 0.912430 0.000000 0.153145
O O8 0.905738 0.767028 0.061623
O O9 0.580740 0.217461 0.761226
O O10 0.523570 0.263785 0.639063
O O11 0.572962 0.000000 0.665668
O O12 0.082641 0.776338 0.593084
O O13 0.178040 0.739533 0.665324
O O14 0.158079 0.000000 0.600573
O O15 0.911262 0.500000 0.996149
O O16 0.920951 0.743360 0.910086
O O17 0.000000 0.678815 0.000000
O O18 0.951145 0.000000 0.849335
O O19 0.961706 0.500000 0.405193
O O20 0.000000 0.302999 0.500000
O O21 0.250000 0.273945 0.776291
O O22 0.181279 0.500000 0.751142
#
# Coordination Sequence:
#
# PCOD9401632 Si02
#       8
#     8   8   8   8   8   8   8   8
#     4   9  18  32  51  74  98 130 175 223 263 302
#     4  10  19  33  54  79 107 138 176 220 264 317
#     4  10  19  33  53  76 104 138 177 220 268 318
#     4  11  21  35  56  77 102 137 182 227 267 316
#     4   9  17  30  51  78 107 138 168 203 255 316
#     4   9  18  31  50  79 108 135 171 218 270 319
#     4  11  22  34  50  75 108 138 171 217 274 333
#     4  11  24  39  54  76 109 146 183 225 273 323
#
# _framework density 17.530987
#
# number of rings (size 3 to 8) (size 9 to 14) (size 15 to 20)
#    0.000    2.000    1.250    3.000    0.000    5.500 
#    0.000    0.000    0.000    1.875    0.000    1.750 
#    0.000    0.000    0.000    0.000    0.000    0.000 
#
# Total GULP energy -357195.464494 kJ/mol
# GULP energy per Si atom -5581.179133 kJ/mol
# Density = 1.749109 g / cm^3
# Si number density = 17.530987 Si / 1000 Ang^3
#
#
#
# Elastic Constant Matrix: (Units=GPa)
#
#
# Indices 1 2 3 4 5 6 
#
# 1 69.8631 12.2773 28.8275 0.0000 0.0000 0.0000
# 2 12.2773 32.2865 29.4713 0.0000 0.0000 0.0000
# 3 28.8275 29.4713 111.3335 0.0000 0.0000 0.0000
# 4 0.0000 0.0000 0.0000 21.0837 0.0000 0.0000
# 5 0.0000 0.0000 0.0000 0.0000 5.9843 0.0000
# 6 0.0000 0.0000 0.0000 0.0000 0.0000 2.5307
#
#
#
# Elastic Compliance Matrix: (Units=1/GPa)
#
#
# Indices 1 2 3 4 5 6 
#
# 1 0.016256 -0.003085 -0.003392 0.000000 0.000000 0.000000
# 2 -0.003085 0.041426 -0.010167 0.000000 0.000000 0.000000
# 3 -0.003392 -0.010167 0.012552 0.000000 0.000000 0.000000
# 4 0.000000 0.000000 0.000000 0.047430 0.000000 0.000000
# 5 0.000000 0.000000 0.000000 0.000000 0.167104 0.000000
# 6 0.000000 0.000000 0.000000 0.000000 0.000000 0.395140
#
#
# Mechanical properties :
#
#
# Convention : Reuss Voigt Hill
#
# Bulk Modulus (GPa) = 27.06737 39.40392 33.23565
# Shear Modulus (GPa) = 6.89168 15.44688 11.16928
#
# Velocity S-wave (km/s) = 1.98486 2.97158 2.52686
# Velocity P-wave (km/s) = 4.55260 5.85656 5.24526
#
# Compressibility (1/GPa) = 0.03694485
#
# Stress axis : x y z
#
# Youngs Moduli (GPa) = 61.51712 24.13916 79.66955
#
# Poissons Ratio (x) = 0.07446 0.27028
# Poissons Ratio (y) = 0.18976 0.81003
# Poissons Ratio (z) = 0.20870 0.24543
#
# Static dielectric constant tensor:
#      x y z
#    x 1.585110 0.000000 0.000000 
#    y 0.000000 1.593630 0.000000 
#    z 0.000000 0.000000 1.592060 
# 
# From -- ./inp_files/30644.got.cif
#   From: 2010.05.17/outbox.cif.g08.bks.cpg/sg51_16_cif.got.tgz:30644.got - 2010.06.03 11:52:47.
