data_PCOD9401286
_publ_section_title
;
Structure prediction by ZEFSAII (Michael W. Deem and Ramdas Pophale) SiO2 
 PCOD9401286
Probable space group: P M M A
;
_chemical_formula_sum "Si O2"
_cell_formula_units_Z 64
_cell_length_a 17.914841
_cell_length_b 9.124909
_cell_length_c 23.365465
_cell_angle_alpha 90.000000
_cell_angle_beta 90.000000
_cell_angle_gamma 90.000000
_cell_volume 3819.582796
_symmetry_space_group_name_H-M "P M M A"
_symmetry_group_IT_number 51
_symmetry_cell_setting 'orthorhombic'
loop_
_space_group_symop_operation_xyz
x,y,z
1/2-x,-y,z
1/2+x,-y,-z
-x,y,-z
-x,-y,-z
1/2+x,y,-z
1/2-x,y,z
x,-y,z
loop_
_atom_site_type_symbol
_atom_site_label
_atom_site_fract_x
_atom_site_fract_y
_atom_site_fract_z
Si Si1 0.552434 0.674617 0.128813
Si Si2 0.916106 0.827969 0.932966
Si Si3 0.971247 0.325520 0.755531
Si Si4 0.663496 0.824023 0.050575
Si Si5 0.836067 0.823947 0.556123
Si Si6 0.663844 0.829301 0.814895
Si Si7 0.926292 0.667730 0.459875
Si Si8 0.520763 0.824557 0.633648
O O1 0.556031 0.500000 0.124608
O O2 0.486243 0.735637 0.088390
O O3 0.529536 0.713270 0.193811
O O4 0.626807 0.748120 0.105138
O O5 0.855255 0.816284 0.882243
O O6 0.937890 0.000000 0.936852
O O7 0.881842 0.781964 0.993304
O O8 0.972710 0.500000 0.747236
O O9 0.891639 0.273874 0.780424
O O10 0.984248 0.243407 0.696355
O O11 0.750000 0.785956 0.043719
O O12 0.657762 0.000000 0.055788
O O13 0.750000 0.786320 0.570652
O O14 0.862979 0.745138 0.497968
O O15 0.898789 0.786630 0.604054
O O16 0.839844 0.000000 0.548326
O O17 0.750000 0.797133 0.804317
O O18 0.649294 0.000000 0.799301
O O19 0.906640 0.500000 0.445519
O O20 0.000000 0.664065 0.500000
O O21 0.954807 0.758750 0.405514
O O22 0.515902 0.000000 0.635143
#
# Coordination Sequence:
#
# PCOD9401286 Si02
#       8
#     8   8   8   8   8   8   8   8
#     4  10  21  35  50  70  98 131 165 202 246 296
#     4   9  17  31  51  73  97 126 160 199 244 295
#     4  10  21  35  49  68  96 130 168 208 247 289
#     4  10  20  33  51  75  99 123 156 201 252 303
#     4   9  18  32  50  75 107 136 161 195 239 285
#     4   9  17  30  48  69  95 128 164 200 240 291
#     4   9  17  30  49  73 101 132 164 197 234 278
#     4  10  19  32  52  75  98 130 171 209 244 285
#
# _framework density 16.755758
#
# number of rings (size 3 to 8) (size 9 to 14) (size 15 to 20)
#    0.000    2.500    0.000    2.250    0.000    8.250 
#    0.000    1.250    0.000    3.000    0.000    3.500 
#    0.000    0.000    0.000    0.000    0.000    0.000 
#
# Total GULP energy -356904.415554 kJ/mol
# GULP energy per Si atom -5576.631493 kJ/mol
# Density = 1.671762 g / cm^3
# Si number density = 16.755758 Si / 1000 Ang^3
#
#
#
# Elastic Constant Matrix: (Units=GPa)
#
#
# Indices 1 2 3 4 5 6 
#
# 1 45.6476 25.2118 46.4587 0.0000 0.0000 0.0000
# 2 25.2118 46.6952 55.3603 0.0000 0.0000 0.0000
# 3 46.4587 55.3603 125.6112 0.0000 0.0000 0.0000
# 4 0.0000 0.0000 0.0000 27.1835 0.0000 0.0000
# 5 0.0000 0.0000 0.0000 0.0000 8.2578 0.0000
# 6 0.0000 0.0000 0.0000 0.0000 0.0000 -13.8614
#
#
#
# Elastic Compliance Matrix: (Units=1/GPa)
#
#
# Indices 1 2 3 4 5 6 
#
# 1 0.036419 -0.007736 -0.010060 0.000000 0.000000 0.000000
# 2 -0.007736 0.046494 -0.017630 0.000000 0.000000 0.000000
# 3 -0.010060 -0.017630 0.019452 0.000000 0.000000 0.000000
# 4 0.000000 0.000000 0.000000 0.036787 0.000000 0.000000
# 5 0.000000 0.000000 0.000000 0.000000 0.121097 0.000000
# 6 0.000000 0.000000 0.000000 0.000000 0.000000 -0.072143
#
#
# Mechanical properties :
#
#
# Convention : Reuss Voigt Hill
#
# Bulk Modulus (GPa) = 31.73399 52.44620 42.09010
# Shear Modulus (GPa) = 18.55545 10.37753 14.46649
#
# Velocity S-wave (km/s) = 3.33138 2.49136 2.94151
# Velocity P-wave (km/s) = 5.81186 6.29636 6.05896
#
# Compressibility (1/GPa) = 0.03151195
#
# Stress axis : x y z
#
# Youngs Moduli (GPa) = 27.45827 21.50828 51.40871
#
# Poissons Ratio (x) = 0.16639 0.51719
# Poissons Ratio (y) = 0.21242 0.90632
# Poissons Ratio (z) = 0.27624 0.37919
#
# Static dielectric constant tensor:
#      x y z
#    x 1.554790 0.000000 0.000000 
#    y 0.000000 1.560160 0.000000 
#    z 0.000000 0.000000 1.557330 
# 
# From -- ./inp_files/33792.got.cif
#   From: 2010.05.17/outbox.cif.g08.bks.cpg/sg51_17_cif.got.tgz:33792.got - 2010.06.03 11:52:47.
