data_PCOD9401770
_publ_section_title
;
Structure prediction by ZEFSAII (Michael W. Deem and Ramdas Pophale) SiO2 
 PCOD9401770
Probable space group: P M M A
;
_chemical_formula_sum "Si O2"
_cell_formula_units_Z 48
_cell_length_a 18.416406
_cell_length_b 11.378372
_cell_length_c 11.882944
_cell_angle_alpha 90.000000
_cell_angle_beta 90.000000
_cell_angle_gamma 90.000000
_cell_volume 2490.055686
_symmetry_space_group_name_H-M "P M M A"
_symmetry_group_IT_number 51
_symmetry_cell_setting 'orthorhombic'
loop_
_space_group_symop_operation_xyz
x,y,z
1/2-x,-y,z
1/2+x,-y,-z
-x,y,-z
-x,-y,-z
1/2+x,y,-z
1/2-x,y,z
x,-y,z
loop_
_atom_site_type_symbol
_atom_site_label
_atom_site_fract_x
_atom_site_fract_y
_atom_site_fract_z
Si Si1 0.664604 0.314191 0.359278
Si Si2 0.923772 0.632157 0.139779
Si Si3 0.440372 0.765382 0.222098
Si Si4 0.953617 0.134263 0.396601
Si Si5 0.412046 0.132852 0.998300
Si Si6 0.667349 0.367070 0.616862
O O1 0.750000 0.310280 0.334211
O O2 0.620070 0.371061 0.257376
O O3 0.624075 0.190871 0.375786
O O4 0.654978 0.370138 0.482587
O O5 0.918390 0.500000 0.089142
O O6 0.007999 0.665403 0.165730
O O7 0.894534 0.749089 0.073915
O O8 0.497955 0.848812 0.285429
O O9 0.395483 0.833823 0.127342
O O10 0.388643 0.711332 0.315738
O O11 0.000000 0.189055 0.500000
O O12 0.942597 0.000000 0.424010
O O13 0.386412 0.000000 0.966266
O O14 0.500000 0.126903 0.000000
O O15 0.750000 0.324906 0.632649
O O16 0.661833 0.500000 0.659665
#
# Coordination Sequence:
#
# PCOD9401770 Si02
#       6
#     8   8   8   8   8   8
#     4  10  21  37  55  80 116 154 190 230 285 348
#     4  10  21  34  56  86 113 145 192 245 290 336
#     4  10  19  34  57  83 112 145 187 236 289 340
#     4  10  19  33  54  82 114 148 191 236 280 336
#     4   9  19  36  58  81 110 148 190 236 292 347
#     4  10  20  34  53  78 111 149 184 224 282 347
#
# _framework density 19.276678
#
# number of rings (size 3 to 8) (size 9 to 14) (size 15 to 20)
#    0.000    2.167    1.667    1.500    0.000    9.000 
#    0.000    3.333    0.000    3.000    0.000    0.000 
#    0.000    0.000    0.000    0.000    0.000    0.000 
#
# Total GULP energy -267239.780808 kJ/mol
# GULP energy per Si atom -5567.495434 kJ/mol
# Density = 1.923280 g / cm^3
# Si number density = 19.276678 Si / 1000 Ang^3
#
#
#
# Elastic Constant Matrix: (Units=GPa)
#
#
# Indices 1 2 3 4 5 6 
#
# 1 45.9219 32.6926 12.4054 0.0000 0.0000 0.0000
# 2 32.6926 122.8750 31.4758 0.0000 0.0000 0.0000
# 3 12.4054 31.4758 68.4930 0.0000 0.0000 0.0000
# 4 0.0000 0.0000 0.0000 8.9213 0.0000 0.0000
# 5 0.0000 0.0000 0.0000 0.0000 14.1718 0.0000
# 6 0.0000 0.0000 0.0000 0.0000 0.0000 2.8706
#
#
#
# Elastic Compliance Matrix: (Units=1/GPa)
#
#
# Indices 1 2 3 4 5 6 
#
# 1 0.027060 -0.006737 -0.001805 0.000000 0.000000 0.000000
# 2 -0.006737 0.010902 -0.003790 0.000000 0.000000 0.000000
# 3 -0.001805 -0.003790 0.016668 0.000000 0.000000 0.000000
# 4 0.000000 0.000000 0.000000 0.112092 0.000000 0.000000
# 5 0.000000 0.000000 0.000000 0.000000 0.070563 0.000000
# 6 0.000000 0.000000 0.000000 0.000000 0.000000 0.348359
#
#
# Mechanical properties :
#
#
# Convention : Reuss Voigt Hill
#
# Bulk Modulus (GPa) = 33.37066 43.38194 38.37630
# Shear Modulus (GPa) = 8.06066 15.90715 11.98391
#
# Velocity S-wave (km/s) = 2.04711 2.87575 2.49605
# Velocity P-wave (km/s) = 4.78921 5.79485 5.31586
#
# Compressibility (1/GPa) = 0.02996644
#
# Stress axis : x y z
#
# Youngs Moduli (GPa) = 36.95474 91.72920 59.99366
#
# Poissons Ratio (x) = 0.61801 0.10829
# Poissons Ratio (y) = 0.24898 0.22735
# Poissons Ratio (z) = 0.06670 0.34761
#
# Static dielectric constant tensor:
#      x y z
#    x 1.635950 0.000000 0.000000 
#    y 0.000000 1.717390 0.000000 
#    z 0.000000 0.000000 1.745880 
# 
# From -- ./inp_files/17323.got.cif
#   From: 2010.05.17/outbox.cif.g08.bks.cpg/sg51_9_cif.got.tgz:17323.got - 2010.06.03 11:52:47.
