data_PCOD9401480
_publ_section_title
;
Structure prediction by ZEFSAII (Michael W. Deem and Ramdas Pophale) SiO2 
 PCOD9401480
Probable space group: P M M A
;
_chemical_formula_sum "Si O2"
_cell_formula_units_Z 56
_cell_length_a 14.662243
_cell_length_b 31.817386
_cell_length_c 5.188725
_cell_angle_alpha 90.000000
_cell_angle_beta 90.000000
_cell_angle_gamma 90.000000
_cell_volume 2420.614127
_symmetry_space_group_name_H-M "P M M A"
_symmetry_group_IT_number 51
_symmetry_cell_setting 'orthorhombic'
loop_
_space_group_symop_operation_xyz
x,y,z
1/2-x,-y,z
1/2+x,-y,-z
-x,y,-z
-x,-y,-z
1/2+x,y,-z
1/2-x,y,z
x,-y,z
loop_
_atom_site_type_symbol
_atom_site_label
_atom_site_fract_x
_atom_site_fract_y
_atom_site_fract_z
Si Si1 0.143748 0.686056 0.842310
Si Si2 0.861886 0.819589 0.856593
Si Si3 0.355508 0.452106 0.101177
Si Si4 0.862036 0.727839 0.658746
Si Si5 0.902952 0.597532 0.388324
Si Si6 0.358342 0.865106 0.643229
Si Si7 0.063878 0.045948 0.750645
O O1 0.250000 0.697543 0.867272
O O2 0.103364 0.716572 0.624914
O O3 0.140550 0.639332 0.729949
O O4 0.107458 0.693307 0.129631
O O5 0.750000 0.819768 0.866697
O O6 0.888080 0.773247 0.765604
O O7 0.892850 0.852807 0.639502
O O8 0.894559 0.833910 0.136408
O O9 0.250000 0.452040 0.014445
O O10 0.383151 0.500000 0.158935
O O11 0.408714 0.433739 0.855361
O O12 0.359008 0.425009 0.363466
O O13 0.750000 0.727257 0.638212
O O14 0.000000 0.610141 0.500000
O O15 0.250000 0.858567 0.631875
O O16 0.375616 0.912813 0.724684
O O17 0.000000 0.045743 0.500000
O O18 0.110896 0.000000 0.763433
O O19 0.000000 0.049549 0.000000
#
# Coordination Sequence:
#
# PCOD9401480 Si02
#       7
#     8   8   8   8   8   8   8
#     4  10  19  33  55  80 108 147 193 232 267 320
#     4   9  17  30  50  80 112 138 174 226 279 323
#     4  11  24  43  66  90 118 154 197 243 287 340
#     4   9  17  30  52  80 107 140 184 230 271 320
#     4  12  25  40  61  90 124 158 191 237 296 349
#     4  10  19  32  54  81 108 138 175 225 276 325
#     4  10  21  37  55  75 104 143 182 221 268 325
#
# _framework density 23.134626000000001
#
# number of rings (size 3 to 8) (size 9 to 14) (size 15 to 20)
#    0.000    1.857    0.000    4.714    0.000    7.714 
#    0.000    0.000    0.000   13.714    0.000    0.000 
#    0.000    0.000    0.000    0.000    0.000    0.000 
#
# Total GULP energy -313074.058373 kJ/mol
# GULP energy per Si atom -5590.608185 kJ/mol
# Density = 2.308197 g / cm^3
# Si number density = 23.134626 Si / 1000 Ang^3
#
#
#
# Elastic Constant Matrix: (Units=GPa)
#
#
# Indices 1 2 3 4 5 6 
#
# 1 27.5455 -14.0583 12.2047 0.0000 0.0000 0.0000
# 2 -14.0583 71.6114 15.6450 0.0000 0.0000 0.0000
# 3 12.2047 15.6450 126.6223 0.0000 0.0000 0.0000
# 4 0.0000 0.0000 0.0000 41.4799 0.0000 0.0000
# 5 0.0000 0.0000 0.0000 0.0000 32.8315 0.0000
# 6 0.0000 0.0000 0.0000 0.0000 0.0000 5.0128
#
#
#
# Elastic Compliance Matrix: (Units=1/GPa)
#
#
# Indices 1 2 3 4 5 6 
#
# 1 0.043684 0.009759 -0.005416 0.000000 0.000000 0.000000
# 2 0.009759 0.016532 -0.002983 0.000000 0.000000 0.000000
# 3 -0.005416 -0.002983 0.008788 0.000000 0.000000 0.000000
# 4 0.000000 0.000000 0.000000 0.024108 0.000000 0.000000
# 5 0.000000 0.000000 0.000000 0.000000 0.030459 0.000000
# 6 0.000000 0.000000 0.000000 0.000000 0.000000 0.199488
#
#
# Mechanical properties :
#
#
# Convention : Reuss Voigt Hill
#
# Bulk Modulus (GPa) = 13.94248 28.15133 21.04690
# Shear Modulus (GPa) = 14.52444 29.99736 22.26090
#
# Velocity S-wave (km/s) = 2.50836 3.60480 3.10535
# Velocity P-wave (km/s) = 3.79854 5.43332 4.68774
#
# Compressibility (1/GPa) = 0.07172326
#
# Stress axis : x y z
#
# Youngs Moduli (GPa) = 22.89155 60.48920 113.78926
#
# Poissons Ratio (x) = -0.59032 0.61633
# Poissons Ratio (y) = -0.22340 0.33946
# Poissons Ratio (z) = 0.12399 0.18046
#
# Static dielectric constant tensor:
#      x y z
#    x 1.906960 0.000000 0.000000 
#    y 0.000000 1.852900 0.000000 
#    z 0.000000 0.000000 1.844150 
# 
# From -- ./inp_files/1488.got.cif
#   From: 2010.05.17/outbox.cif.g08.bks.cpg/sg51_1_cif.got.tgz:1488.got - 2010.06.03 11:52:47.
