data_PCOD9401426
_publ_section_title
;
Structure prediction by ZEFSAII (Michael W. Deem and Ramdas Pophale) SiO2 
 PCOD9401426
Probable space group: P M M A
;
_chemical_formula_sum "Si O2"
_cell_formula_units_Z 56
_cell_length_a 20.622617
_cell_length_b 9.547931
_cell_length_c 15.771334
_cell_angle_alpha 90.000000
_cell_angle_beta 90.000000
_cell_angle_gamma 90.000000
_cell_volume 3105.428091
_symmetry_space_group_name_H-M "P M M A"
_symmetry_group_IT_number 51
_symmetry_cell_setting 'orthorhombic'
loop_
_space_group_symop_operation_xyz
x,y,z
1/2-x,-y,z
1/2+x,-y,-z
-x,y,-z
-x,-y,-z
1/2+x,y,-z
1/2-x,y,z
x,-y,z
loop_
_atom_site_type_symbol
_atom_site_label
_atom_site_fract_x
_atom_site_fract_y
_atom_site_fract_z
Si Si1 0.961289 0.330472 0.915638
Si Si2 0.992951 0.661239 0.725949
Si Si3 0.056952 0.167555 0.431267
Si Si4 0.825175 0.332393 0.983221
Si Si5 0.354624 0.655288 0.699306
Si Si6 0.323789 0.663385 0.503615
Si Si7 0.326628 0.154702 0.854889
O O1 0.966795 0.500000 0.917720
O O2 0.988569 0.288306 0.823649
O O3 0.884423 0.296181 0.920641
O O4 0.000000 0.280067 0.000000
O O5 0.967797 0.500000 0.722167
O O6 0.958570 0.760873 0.658610
O O7 0.067715 0.655636 0.698094
O O8 0.123493 0.234351 0.464452
O O9 0.000000 0.200661 0.500000
O O10 0.060560 0.000000 0.424188
O O11 0.750000 0.293259 0.961505
O O12 0.825363 0.500000 0.994123
O O13 0.846590 0.259760 0.070845
O O14 0.333371 0.500000 0.729373
O O15 0.327975 0.676773 0.605483
O O16 0.335577 0.774373 0.764505
O O17 0.250000 0.691325 0.476412
O O18 0.339273 0.500000 0.484234
O O19 0.250000 0.140742 0.867497
O O20 0.356506 0.000000 0.860592
#
# Coordination Sequence:
#
# PCOD9401426 Si02
#       7
#     8   8   8   8   8   8   8
#     4   9  17  31  53  82 111 138 179 232 283 332
#     4  10  20  35  59  85 109 145 189 235 283 334
#     4  11  23  39  59  83 115 155 193 231 278 337
#     4   9  17  31  51  72  98 136 180 226 274 326
#     4  10  19  32  53  79 107 140 180 228 283 341
#     4  10  21  37  59  86 113 144 188 241 290 339
#     4  10  20  31  45  70 105 143 181 222 274 338
#
# _framework density 18.03294
#
# number of rings (size 3 to 8) (size 9 to 14) (size 15 to 20)
#    0.000    2.143    1.429    2.143    0.000    5.714 
#    0.000    1.429    0.000    4.286    0.000    0.000 
#    0.000    0.000    0.000    0.000    0.000    0.000 
#
# Total GULP energy -312122.703625 kJ/mol
# GULP energy per Si atom -5573.619708 kJ/mol
# Density = 1.799190 g / cm^3
# Si number density = 18.032940 Si / 1000 Ang^3
#
#
#
# Elastic Constant Matrix: (Units=GPa)
#
#
# Indices 1 2 3 4 5 6 
#
# 1 87.6376 37.5657 38.1621 0.0000 0.0000 0.0000
# 2 37.5657 47.7656 30.8237 0.0000 0.0000 0.0000
# 3 38.1621 30.8237 82.9471 0.0000 0.0000 0.0000
# 4 0.0000 0.0000 0.0000 53.9313 0.0000 0.0000
# 5 0.0000 0.0000 0.0000 0.0000 33.2834 0.0000
# 6 0.0000 0.0000 0.0000 0.0000 0.0000 17.3787
#
#
#
# Elastic Compliance Matrix: (Units=1/GPa)
#
#
# Indices 1 2 3 4 5 6 
#
# 1 0.018175 -0.011705 -0.004012 0.000000 0.000000 0.000000
# 2 -0.011705 0.035077 -0.007650 0.000000 0.000000 0.000000
# 3 -0.004012 -0.007650 0.016745 0.000000 0.000000 0.000000
# 4 0.000000 0.000000 0.000000 0.018542 0.000000 0.000000
# 5 0.000000 0.000000 0.000000 0.000000 0.030045 0.000000
# 6 0.000000 0.000000 0.000000 0.000000 0.000000 0.057542
#
#
# Mechanical properties :
#
#
# Convention : Reuss Voigt Hill
#
# Bulk Modulus (GPa) = 42.98654 47.93925 45.46290
# Shear Modulus (GPa) = 21.68122 28.37194 25.02658
#
# Velocity S-wave (km/s) = 3.47120 3.97084 3.72939
# Velocity P-wave (km/s) = 6.32101 6.90401 6.61893
#
# Compressibility (1/GPa) = 0.02326309
#
# Stress axis : x y z
#
# Youngs Moduli (GPa) = 55.02057 28.50832 59.72056
#
# Poissons Ratio (x) = 0.33368 0.23962
# Poissons Ratio (y) = 0.64400 0.45686
# Poissons Ratio (z) = 0.22076 0.21809
#
# Static dielectric constant tensor:
#      x y z
#    x 1.644440 0.000000 0.000000 
#    y 0.000000 1.636230 0.000000 
#    z 0.000000 0.000000 1.603120 
# 
# From -- ./inp_files/25657.got.cif
#   From: 2010.05.17/outbox.cif.g08.bks.cpg/sg51_13_cif.got.tgz:25657.got - 2010.06.03 11:52:47.
