data_PCOD9401288
_publ_section_title
;
Structure prediction by ZEFSAII (Michael W. Deem and Ramdas Pophale) SiO2 
 PCOD9401288
Probable space group: P M M A
;
_chemical_formula_sum "Si O2"
_cell_formula_units_Z 40
_cell_length_a 17.123587
_cell_length_b 14.321216
_cell_length_c 9.569565
_cell_angle_alpha 90.000000
_cell_angle_beta 90.000000
_cell_angle_gamma 90.000000
_cell_volume 2346.750053
_symmetry_space_group_name_H-M "P M M A"
_symmetry_group_IT_number 51
_symmetry_cell_setting 'orthorhombic'
loop_
_space_group_symop_operation_xyz
x,y,z
1/2-x,-y,z
1/2+x,-y,-z
-x,y,-z
-x,-y,-z
1/2+x,y,-z
1/2-x,y,z
x,-y,z
loop_
_atom_site_type_symbol
_atom_site_label
_atom_site_fract_x
_atom_site_fract_y
_atom_site_fract_z
Si Si1 0.409400 0.891862 0.235385
Si Si2 0.466510 0.393747 0.159166
Si Si3 0.343459 0.107692 0.547554
Si Si4 0.839030 0.740515 0.944733
Si Si5 0.434500 0.773063 0.771296
O O1 0.385359 0.884388 0.397675
O O2 0.347424 0.833920 0.146197
O O3 0.492993 0.843824 0.208448
O O4 0.411273 0.000000 0.197073
O O5 0.460439 0.500000 0.208373
O O6 0.384725 0.340062 0.140162
O O7 0.523664 0.327539 0.249458
O O8 0.500000 0.395641 0.000000
O O9 0.250000 0.120210 0.533941
O O10 0.381340 0.182969 0.650884
O O11 0.356592 0.000000 0.597310
O O12 0.750000 0.715443 0.970774
O O13 0.884097 0.760892 0.088744
#
# Coordination Sequence:
#
# PCOD9401288 Si02
#       5
#     8   8   8   8   8
#     4  10  20  34  50  69  98 138 175 202 241 303
#     4   8  16  32  52  73  97 126 160 199 246 299
#     4  10  20  33  50  73 101 134 171 210 252 298
#     4  10  20  32  49  75 102 129 164 208 255 297
#     4  10  19  32  52  75  99 128 167 212 253 295
#
# _framework density 17.044848000000002
#
# number of rings (size 3 to 8) (size 9 to 14) (size 15 to 20)
#    0.000    2.400    0.000    4.200    0.000    5.600 
#    0.000    0.000    0.000   11.400    0.000    0.000 
#    0.000    0.000    0.000    0.000    0.000    0.000 
#
# Total GULP energy -222976.781521 kJ/mol
# GULP energy per Si atom -5574.419538 kJ/mol
# Density = 1.700605 g / cm^3
# Si number density = 17.044848 Si / 1000 Ang^3
#
#
#
# Elastic Constant Matrix: (Units=GPa)
#
#
# Indices 1 2 3 4 5 6 
#
# 1 105.3801 55.6894 28.8428 0.0000 0.0000 0.0000
# 2 55.6894 152.8593 39.9448 0.0000 0.0000 0.0000
# 3 28.8428 39.9448 38.1798 0.0000 0.0000 0.0000
# 4 0.0000 0.0000 0.0000 -47.5656 0.0000 0.0000
# 5 0.0000 0.0000 0.0000 0.0000 22.9868 0.0000
# 6 0.0000 0.0000 0.0000 0.0000 0.0000 -24.8518
#
#
#
# Elastic Compliance Matrix: (Units=1/GPa)
#
#
# Indices 1 2 3 4 5 6 
#
# 1 0.012865 -0.002955 -0.006627 0.000000 0.000000 0.000000
# 2 -0.002955 0.009682 -0.007897 0.000000 0.000000 0.000000
# 3 -0.006627 -0.007897 0.039461 0.000000 0.000000 0.000000
# 4 0.000000 0.000000 0.000000 -0.021024 0.000000 0.000000
# 5 0.000000 0.000000 0.000000 0.000000 0.043503 0.000000
# 6 0.000000 0.000000 0.000000 0.000000 0.000000 -0.040238
#
#
# Mechanical properties :
#
#
# Convention : Reuss Voigt Hill
#
# Bulk Modulus (GPa) = 36.97026 60.59702 48.78364
# Shear Modulus (GPa) = 56.67350 1.57669 29.12509
#
# Velocity S-wave (km/s) = 5.77251 0.96283 4.13817
# Velocity P-wave (km/s) = 8.13426 6.07163 7.17743
#
# Compressibility (1/GPa) = 0.02704877
#
# Stress axis : x y z
#
# Youngs Moduli (GPa) = 77.73031 103.28086 25.34167
#
# Poissons Ratio (x) = 0.30522 0.16794
# Poissons Ratio (y) = 0.22971 0.20013
# Poissons Ratio (z) = 0.51512 0.81565
#
# Static dielectric constant tensor:
#      x y z
#    x 1.581290 0.000000 0.000000 
#    y 0.000000 1.577950 0.000000 
#    z 0.000000 0.000000 1.564700 
# 
# From -- ./inp_files/7897.got.cif
#   From: 2010.05.17/outbox.cif.g08.bks.cpg/sg51_4_cif.got.tgz:7897.got - 2010.06.03 11:52:47.
