data_PCOD9401121
_publ_section_title
;
Structure prediction by ZEFSAII (Michael W. Deem and Ramdas Pophale) SiO2 
 PCOD9401121
Probable space group: P M M A
;
_chemical_formula_sum "Si O2"
_cell_formula_units_Z 52
_cell_length_a 8.999692
_cell_length_b 15.519922
_cell_length_c 23.083952
_cell_angle_alpha 90.000000
_cell_angle_beta 90.000000
_cell_angle_gamma 90.000000
_cell_volume 3224.239866
_symmetry_space_group_name_H-M "P M M A"
_symmetry_group_IT_number 51
_symmetry_cell_setting 'orthorhombic'
loop_
_space_group_symop_operation_xyz
x,y,z
1/2-x,-y,z
1/2+x,-y,-z
-x,y,-z
-x,-y,-z
1/2+x,y,-z
1/2-x,y,z
x,-y,z
loop_
_atom_site_type_symbol
_atom_site_label
_atom_site_fract_x
_atom_site_fract_y
_atom_site_fract_z
Si Si1 0.572932 0.000000 0.936924
Si Si2 0.072052 0.656006 0.058243
Si Si3 0.579513 0.235054 0.233223
Si Si4 0.420079 0.895560 0.558499
Si Si5 0.571899 0.899471 0.680506
Si Si6 0.571688 0.596765 0.811922
Si Si7 0.921324 0.172248 0.100788
O O1 0.511671 0.914962 0.906394
O O2 0.750000 0.000000 0.939859
O O3 0.500000 0.000000 0.000000
O O4 0.250000 0.659534 0.052093
O O5 0.037248 0.609562 0.119400
O O6 0.002356 0.750983 0.066738
O O7 0.000000 0.617860 0.000000
O O8 0.750000 0.243061 0.252750
O O9 0.493926 0.167969 0.273875
O O10 0.504470 0.328502 0.225414
O O11 0.579762 0.197661 0.168075
O O12 0.500000 0.864596 0.500000
O O13 0.250000 0.865381 0.561990
O O14 0.509557 0.876370 0.616948
O O15 0.416075 0.000000 0.554987
O O16 0.750000 0.895807 0.680601
O O17 0.528824 0.000000 0.692816
O O18 0.750000 0.605603 0.806921
O O19 0.528622 0.500000 0.794900
O O20 0.750000 0.162786 0.080991
#
# Coordination Sequence:
#
# PCOD9401121 Si02
#       7
#     4   8   8   8   8   8   8
#     4  12  24  36  50  66  86 114 153 196 239 286
#     4  10  19  32  50  71  94 119 148 186 235 292
#     4  10  21  35  52  73  98 127 160 202 247 291
#     4   9  16  27  44  67  98 136 175 213 249 285
#     4  10  20  32  48  72 102 138 176 210 244 288
#     4   9  19  36  55  73  95 124 157 195 243 298
#     4  10  21  36  50  66  89 119 154 194 240 287
#
# _framework density 16.127832000000001
#
# number of rings (size 3 to 8) (size 9 to 14) (size 15 to 20)
#    0.000    2.154    0.000    3.462    1.077    5.846 
#    0.000    0.000    0.000    0.000    0.000    0.000 
#    0.000    0.615    0.000    2.308    0.000    3.538 
#
# Total GULP energy -290121.465838 kJ/mol
# GULP energy per Si atom -5579.258958 kJ/mol
# Density = 1.609112 g / cm^3
# Si number density = 16.127832 Si / 1000 Ang^3
#
#
#
# Elastic Constant Matrix: (Units=GPa)
#
#
# Indices 1 2 3 4 5 6 
#
# 1 101.7767 51.3710 42.4320 0.0000 0.0000 0.0000
# 2 51.3710 103.7722 37.8932 0.0000 0.0000 0.0000
# 3 42.4320 37.8932 80.6687 0.0000 0.0000 0.0000
# 4 0.0000 0.0000 0.0000 7.9150 0.0000 0.0000
# 5 0.0000 0.0000 0.0000 0.0000 29.9117 0.0000
# 6 0.0000 0.0000 0.0000 0.0000 0.0000 18.4470
#
#
#
# Elastic Compliance Matrix: (Units=1/GPa)
#
#
# Indices 1 2 3 4 5 6 
#
# 1 0.014714 -0.005381 -0.005212 0.000000 0.000000 0.000000
# 2 -0.005381 0.013599 -0.003558 0.000000 0.000000 0.000000
# 3 -0.005212 -0.003558 0.016809 0.000000 0.000000 0.000000
# 4 0.000000 0.000000 0.000000 0.126343 0.000000 0.000000
# 5 0.000000 0.000000 0.000000 0.000000 0.033432 0.000000
# 6 0.000000 0.000000 0.000000 0.000000 0.000000 0.054209
#
#
# Mechanical properties :
#
#
# Convention : Reuss Voigt Hill
#
# Bulk Modulus (GPa) = 59.44857 61.06777 60.25817
# Shear Modulus (GPa) = 17.06393 21.55616 19.31005
#
# Velocity S-wave (km/s) = 3.25629 3.65989 3.46397
# Velocity P-wave (km/s) = 7.14694 7.47040 7.31046
#
# Compressibility (1/GPa) = 0.01682126
#
# Stress axis : x y z
#
# Youngs Moduli (GPa) = 67.96046 73.53278 59.49105
#
# Poissons Ratio (x) = 0.39567 0.31008
# Poissons Ratio (y) = 0.36569 0.21166
# Poissons Ratio (z) = 0.35423 0.26161
#
# Static dielectric constant tensor:
#      x y z
#    x 1.546300 0.000000 0.000000 
#    y 0.000000 1.526760 0.000000 
#    z 0.000000 0.000000 1.536910 
# 
# From -- ./inp_files/31762.got.cif
#   From: 2010.05.17/outbox.cif.g08.bks.cpg/sg51_16_cif.got.tgz:31762.got - 2010.06.03 11:52:47.
