data_PCOD9401934
_publ_section_title
;
Structure prediction by ZEFSAII (Michael W. Deem and Ramdas Pophale) SiO2 
 PCOD9401934
Probable space group: P M M A
;
_chemical_formula_sum "Si O2"
_cell_formula_units_Z 52
_cell_length_a 8.499946
_cell_length_b 12.173556
_cell_length_c 30.493658
_cell_angle_alpha 90.000000
_cell_angle_beta 90.000000
_cell_angle_gamma 90.000000
_cell_volume 3155.318107
_symmetry_space_group_name_H-M "P M M A"
_symmetry_group_IT_number 51
_symmetry_cell_setting 'orthorhombic'
loop_
_space_group_symop_operation_xyz
x,y,z
1/2-x,-y,z
1/2+x,-y,-z
-x,y,-z
-x,-y,-z
1/2+x,y,-z
1/2-x,y,z
x,-y,z
loop_
_atom_site_type_symbol
_atom_site_label
_atom_site_fract_x
_atom_site_fract_y
_atom_site_fract_z
Si Si1 0.438809 0.777312 0.637324
Si Si2 0.434389 0.624679 0.869561
Si Si3 0.931899 0.000000 0.226451
Si Si4 0.060905 0.500000 0.951071
Si Si5 0.933691 0.225407 0.796697
Si Si6 0.560045 0.872601 0.451782
Si Si7 0.440988 0.627410 0.716224
Si Si8 0.933725 0.000000 0.678770
O O1 0.250000 0.769069 0.635446
O O2 0.495449 0.792676 0.587255
O O3 0.492661 0.680189 0.669622
O O4 0.484909 0.891363 0.660251
O O5 0.250000 0.656182 0.868171
O O6 0.443962 0.500000 0.850538
O O7 0.484681 0.603725 0.920118
O O8 0.534548 0.705466 0.840525
O O9 0.971368 0.111868 0.201552
O O10 0.750000 0.000000 0.240282
O O11 0.040347 0.000000 0.269387
O O12 0.250000 0.500000 0.951666
O O13 0.000000 0.500000 0.000000
O O14 0.750000 0.202461 0.791099
O O15 0.993209 0.298042 0.755536
O O16 0.500000 0.843349 0.500000
O O17 0.750000 0.872011 0.452231
O O18 0.511220 0.000000 0.442726
O O19 0.250000 0.632480 0.718364
O O20 0.487598 0.500000 0.720249
O O21 0.750000 0.000000 0.667693
#
# Coordination Sequence:
#
# PCOD9401934 Si02
#       8
#     8   8   4   4   8   8   8   4
#     4  10  19  34  53  70  97 134 167 201 249 309
#     4   8  17  33  51  73 105 146 182 211 254 316
#     4  12  24  38  54  69  98 143 178 210 253 311
#     4   8  16  30  52  80 110 142 184 228 267 312
#     4  12  23  34  50  77 106 135 174 221 264 302
#     4   9  17  29  46  70  95 123 158 198 251 310
#     4  10  21  35  53  73  96 135 178 210 248 306
#     4  12  22  32  49  77 102 125 162 208 254 301
#
# _framework density 16.480111999999998
#
# number of rings (size 3 to 8) (size 9 to 14) (size 15 to 20)
#    0.462    1.538    2.308    3.231    0.000    3.692 
#    0.000    0.000    0.000    0.462    0.000    0.538 
#    0.000    0.000    0.000    0.000    0.000    0.000 
#
# Total GULP energy -289753.224640 kJ/mol
# GULP energy per Si atom -5572.177397 kJ/mol
# Density = 1.644260 g / cm^3
# Si number density = 16.480112 Si / 1000 Ang^3
#
#
#
# Elastic Constant Matrix: (Units=GPa)
#
#
# Indices 1 2 3 4 5 6 
#
# 1 14.7865 13.6171 14.3551 0.0000 0.0000 0.0000
# 2 13.6171 83.7066 41.6043 0.0000 0.0000 0.0000
# 3 14.3551 41.6043 115.8203 0.0000 0.0000 0.0000
# 4 0.0000 0.0000 0.0000 23.4241 0.0000 0.0000
# 5 0.0000 0.0000 0.0000 0.0000 26.6348 0.0000
# 6 0.0000 0.0000 0.0000 0.0000 0.0000 -1.9544
#
#
#
# Elastic Compliance Matrix: (Units=1/GPa)
#
#
# Indices 1 2 3 4 5 6 
#
# 1 0.083568 -0.010282 -0.006664 0.000000 0.000000 0.000000
# 2 -0.010282 0.015808 -0.004404 0.000000 0.000000 0.000000
# 3 -0.006664 -0.004404 0.011042 0.000000 0.000000 0.000000
# 4 0.000000 0.000000 0.000000 0.042691 0.000000 0.000000
# 5 0.000000 0.000000 0.000000 0.000000 0.037545 0.000000
# 6 0.000000 0.000000 0.000000 0.000000 0.000000 -0.511663
#
#
# Mechanical properties :
#
#
# Convention : Reuss Voigt Hill
#
# Bulk Modulus (GPa) = 14.76734 39.27405 27.02069
# Shear Modulus (GPa) = -19.55144 19.27004 -0.14070
#
# Velocity S-wave (km/s) = -3.44810 3.42320 -0.29251
# Velocity P-wave (km/s) = 2.62152 6.28548 4.03949
#
# Compressibility (1/GPa) = 0.06771702
#
# Stress axis : x y z
#
# Youngs Moduli (GPa) = 11.96634 63.25874 90.56288
#
# Poissons Ratio (x) = 0.65044 0.60352
# Poissons Ratio (y) = 0.12304 0.39885
# Poissons Ratio (z) = 0.07975 0.27860
#
# Static dielectric constant tensor:
#      x y z
#    x 1.565700 0.000000 0.000000 
#    y 0.000000 1.547760 0.000000 
#    z 0.000000 0.000000 1.572130 
# 
# From -- ./inp_files/37394.got.cif
#   From: 2010.05.17/outbox.cif.g08.bks.cpg/sg51_19_cif.got.tgz:37394.got - 2010.06.03 11:52:47.
