data_PCOD9401091
_publ_section_title
;
Structure prediction by ZEFSAII (Michael W. Deem and Ramdas Pophale) SiO2 
 PCOD9401091
Probable space group: P M M A
;
_chemical_formula_sum "Si O2"
_cell_formula_units_Z 64
_cell_length_a 8.622825
_cell_length_b 20.219702
_cell_length_c 20.332513
_cell_angle_alpha 90.000000
_cell_angle_beta 90.000000
_cell_angle_gamma 90.000000
_cell_volume 3544.992996
_symmetry_space_group_name_H-M "P M M A"
_symmetry_group_IT_number 51
_symmetry_cell_setting 'orthorhombic'
loop_
_space_group_symop_operation_xyz
x,y,z
1/2-x,-y,z
1/2+x,-y,-z
-x,y,-z
-x,-y,-z
1/2+x,y,-z
1/2-x,y,z
x,-y,z
loop_
_atom_site_type_symbol
_atom_site_label
_atom_site_fract_x
_atom_site_fract_y
_atom_site_fract_z
Si Si1 0.064243 0.573422 0.180200
Si Si2 0.925456 0.424085 0.325780
Si Si3 0.066953 0.199435 0.569258
Si Si4 0.430102 0.655783 0.436928
Si Si5 0.435936 0.285768 0.832385
Si Si6 0.563457 0.075651 0.812363
Si Si7 0.436854 0.811686 0.717862
Si Si8 0.564497 0.172332 0.926856
O O1 0.250000 0.575841 0.186153
O O2 0.025283 0.500000 0.151330
O O3 0.984119 0.575504 0.251519
O O4 0.006383 0.642609 0.150408
O O5 0.750000 0.396800 0.329443
O O6 0.921621 0.500000 0.348113
O O7 0.040348 0.384094 0.371273
O O8 0.250000 0.187768 0.567910
O O9 0.006449 0.180885 0.642423
O O10 0.000000 0.171840 0.500000
O O11 0.028663 0.277273 0.567509
O O12 0.500000 0.618272 0.500000
O O13 0.250000 0.670913 0.446300
O O14 0.250000 0.291115 0.830916
O O15 0.486335 0.253097 0.761381
O O16 0.488991 0.232788 0.886604
O O17 0.750000 0.077728 0.803924
O O18 0.488675 0.124873 0.759548
O O19 0.529309 0.107010 0.883744
O O20 0.511679 0.000000 0.806437
O O21 0.250000 0.808339 0.715306
O O22 0.750000 0.181174 0.927961
O O23 0.500000 0.168297 0.000000
#
# Coordination Sequence:
#
# PCOD9401091 Si02
#       8
#     8   8   8   8   8   8   8   8
#     4  10  20  33  50  74 102 131 167 213 264 315
#     4  10  20  33  47  63  86 118 157 202 253 309
#     4  10  19  32  49  71  99 128 165 212 262 314
#     4  11  21  32  46  63  86 117 155 200 254 313
#     4  10  19  33  54  78 105 139 179 220 265 314
#     4   9  19  35  55  81 112 144 177 213 253 300
#     4   9  19  33  51  76 104 136 174 218 263 310
#     4  10  20  35  55  81 114 147 180 215 253 301
#
# _framework density 18.053632
#
# number of rings (size 3 to 8) (size 9 to 14) (size 15 to 20)
#    0.000    2.125    0.000    4.500    0.000    5.250 
#    0.000    0.000    0.000    0.750    0.000    0.000 
#    0.000    0.000    0.000    0.000    0.000    0.000 
#
# Total GULP energy -356676.126991 kJ/mol
# GULP energy per Si atom -5573.064484 kJ/mol
# Density = 1.801254 g / cm^3
# Si number density = 18.053632 Si / 1000 Ang^3
#
#
#
# Elastic Constant Matrix: (Units=GPa)
#
#
# Indices 1 2 3 4 5 6 
#
# 1 40.6111 15.0147 16.4939 0.0000 0.0000 0.0000
# 2 15.0147 91.2875 21.5154 0.0000 0.0000 0.0000
# 3 16.4939 21.5154 95.1585 0.0000 0.0000 0.0000
# 4 0.0000 0.0000 0.0000 10.5497 0.0000 0.0000
# 5 0.0000 0.0000 0.0000 0.0000 26.7234 0.0000
# 6 0.0000 0.0000 0.0000 0.0000 0.0000 22.3395
#
#
#
# Elastic Compliance Matrix: (Units=1/GPa)
#
#
# Indices 1 2 3 4 5 6 
#
# 1 0.027565 -0.003599 -0.003964 0.000000 0.000000 0.000000
# 2 -0.003599 0.012041 -0.002099 0.000000 0.000000 0.000000
# 3 -0.003964 -0.002099 0.011670 0.000000 0.000000 0.000000
# 4 0.000000 0.000000 0.000000 0.094789 0.000000 0.000000
# 5 0.000000 0.000000 0.000000 0.000000 0.037420 0.000000
# 6 0.000000 0.000000 0.000000 0.000000 0.000000 0.044764
#
#
# Mechanical properties :
#
#
# Convention : Reuss Voigt Hill
#
# Bulk Modulus (GPa) = 31.29702 37.01168 34.15435
# Shear Modulus (GPa) = 19.36302 23.52473 21.44388
#
# Velocity S-wave (km/s) = 3.27850 3.61369 3.45017
# Velocity P-wave (km/s) = 5.63069 6.16094 5.90177
#
# Compressibility (1/GPa) = 0.03195192
#
# Stress axis : x y z
#
# Youngs Moduli (GPa) = 36.27848 83.04928 85.68720
#
# Poissons Ratio (x) = 0.29893 0.33966
# Poissons Ratio (y) = 0.13058 0.17982
# Poissons Ratio (z) = 0.14381 0.17429
#
# Static dielectric constant tensor:
#      x y z
#    x 1.616840 0.000000 0.000000 
#    y 0.000000 1.626930 0.000000 
#    z 0.000000 0.000000 1.650970 
# 
# From -- ./inp_files/32338.got.cif
#   From: 2010.05.17/outbox.cif.g08.bks.cpg/sg51_17_cif.got.tgz:32338.got - 2010.06.03 11:52:47.
