data_PCOD9401406
_publ_section_title
;
Structure prediction by ZEFSAII (Michael W. Deem and Ramdas Pophale) SiO2 
 PCOD9401406
Probable space group: P M M A
;
_chemical_formula_sum "Si O2"
_cell_formula_units_Z 64
_cell_length_a 24.773586
_cell_length_b 8.954210
_cell_length_c 16.516288
_cell_angle_alpha 90.000000
_cell_angle_beta 90.000000
_cell_angle_gamma 90.000000
_cell_volume 3663.773342
_symmetry_space_group_name_H-M "P M M A"
_symmetry_group_IT_number 51
_symmetry_cell_setting 'orthorhombic'
loop_
_space_group_symop_operation_xyz
x,y,z
1/2-x,-y,z
1/2+x,-y,-z
-x,y,-z
-x,-y,-z
1/2+x,y,-z
1/2-x,y,z
x,-y,z
loop_
_atom_site_type_symbol
_atom_site_label
_atom_site_fract_x
_atom_site_fract_y
_atom_site_fract_z
Si Si1 0.611456 0.825656 0.110865
Si Si2 0.689332 0.821156 0.804357
Si Si3 0.059970 0.179585 0.473014
Si Si4 0.919060 0.180301 0.711692
Si Si5 0.474280 0.679471 0.776052
Si Si6 0.311606 0.321068 0.018868
Si Si7 0.312460 0.171800 0.733088
Si Si8 0.895516 0.324262 0.372372
O O1 0.558486 0.745955 0.147647
O O2 0.641386 0.749369 0.035654
O O3 0.654909 0.815671 0.183627
O O4 0.600389 0.000000 0.094603
O O5 0.750000 0.788557 0.773095
O O6 0.640230 0.782247 0.745131
O O7 0.686577 0.000000 0.818917
O O8 0.682981 0.737589 0.889606
O O9 0.073293 0.227617 0.381806
O O10 0.097891 0.242875 0.542712
O O11 0.000000 0.227458 0.500000
O O12 0.061815 0.000000 0.474516
O O13 0.966102 0.255173 0.764752
O O14 0.925621 0.000000 0.715227
O O15 0.474738 0.500000 0.780784
O O16 0.440815 0.723601 0.694255
O O17 0.250000 0.278883 0.991865
O O18 0.315161 0.500000 0.016126
O O19 0.250000 0.202331 0.746303
O O20 0.339495 0.281332 0.669284
O O21 0.318799 0.000000 0.704763
O O22 0.901130 0.500000 0.383632
#
# Coordination Sequence:
#
# PCOD9401406 Si02
#       8
#     8   8   8   8   8   8   8   8
#     4  10  19  32  53  79 108 140 179 221 261 308
#     4   9  19  37  59  80 103 133 173 220 266 313
#     4  10  19  32  53  78 105 135 174 220 263 311
#     4  10  20  35  56  80 104 136 177 220 267 318
#     4  10  20  33  50  76 110 143 174 213 265 318
#     4  10  20  34  54  80 109 140 176 218 264 314
#     4   9  18  32  50  72 101 139 178 213 254 307
#     4  10  20  32  48  73 105 138 173 215 261 310
#
# _framework density 17.468330000000002
#
# number of rings (size 3 to 8) (size 9 to 14) (size 15 to 20)
#    0.000    2.250    1.250    1.875    0.000    4.250 
#    0.000    1.250    0.000    6.000    0.000    0.000 
#    0.000    0.000    0.000    0.000    0.000    0.000 
#
# Total GULP energy -356961.145760 kJ/mol
# GULP energy per Si atom -5577.517903 kJ/mol
# Density = 1.742857 g / cm^3
# Si number density = 17.468330 Si / 1000 Ang^3
#
#
#
# Elastic Constant Matrix: (Units=GPa)
#
#
# Indices 1 2 3 4 5 6 
#
# 1 112.2956 41.6624 55.0136 0.0000 0.0000 0.0000
# 2 41.6624 34.3816 34.7931 0.0000 0.0000 0.0000
# 3 55.0136 34.7931 80.6807 0.0000 0.0000 0.0000
# 4 0.0000 0.0000 0.0000 9.7538 0.0000 0.0000
# 5 0.0000 0.0000 0.0000 0.0000 26.6650 0.0000
# 6 0.0000 0.0000 0.0000 0.0000 0.0000 12.7260
#
#
#
# Elastic Compliance Matrix: (Units=1/GPa)
#
#
# Indices 1 2 3 4 5 6 
#
# 1 0.017189 -0.015912 -0.004858 0.000000 0.000000 0.000000
# 2 -0.015912 0.066337 -0.017758 0.000000 0.000000 0.000000
# 3 -0.004858 -0.017758 0.023365 0.000000 0.000000 0.000000
# 4 0.000000 0.000000 0.000000 0.102524 0.000000 0.000000
# 5 0.000000 0.000000 0.000000 0.000000 0.037502 0.000000
# 6 0.000000 0.000000 0.000000 0.000000 0.000000 0.078579
#
#
# Mechanical properties :
#
#
# Convention : Reuss Voigt Hill
#
# Bulk Modulus (GPa) = 33.51781 54.47735 43.99758
# Shear Modulus (GPa) = 12.12127 16.22154 14.17141
#
# Velocity S-wave (km/s) = 2.63706 3.05064 2.85136
# Velocity P-wave (km/s) = 5.33868 6.60777 6.00683
#
# Compressibility (1/GPa) = 0.02983489
#
# Stress axis : x y z
#
# Youngs Moduli (GPa) = 58.17766 15.07448 42.79868
#
# Poissons Ratio (x) = 0.23987 0.20793
# Poissons Ratio (y) = 0.92573 0.76000
# Poissons Ratio (z) = 0.28265 0.26769
#
# Static dielectric constant tensor:
#      x y z
#    x 1.597810 0.000000 0.000000 
#    y 0.000000 1.587280 0.000000 
#    z 0.000000 0.000000 1.575880 
# 
# From -- ./inp_files/26229.got.cif
#   From: 2010.05.17/outbox.cif.g08.bks.cpg/sg51_14_cif.got.tgz:26229.got - 2010.06.03 11:52:47.
