data_PCOD9401027
_publ_section_title
;
Structure prediction by ZEFSAII (Michael W. Deem and Ramdas Pophale) SiO2 
 PCOD9401027
Probable space group: P M M A
;
_chemical_formula_sum "Si O2"
_cell_formula_units_Z 64
_cell_length_a 7.989050
_cell_length_b 14.724779
_cell_length_c 26.842275
_cell_angle_alpha 90.000000
_cell_angle_beta 90.000000
_cell_angle_gamma 90.000000
_cell_volume 3157.644588
_symmetry_space_group_name_H-M "P M M A"
_symmetry_group_IT_number 51
_symmetry_cell_setting 'orthorhombic'
loop_
_space_group_symop_operation_xyz
x,y,z
1/2-x,-y,z
1/2+x,-y,-z
-x,y,-z
-x,-y,-z
1/2+x,y,-z
1/2-x,y,z
x,-y,z
loop_
_atom_site_type_symbol
_atom_site_label
_atom_site_fract_x
_atom_site_fract_y
_atom_site_fract_z
Si Si1 0.449651 0.709485 0.052623
Si Si2 0.544384 0.895945 0.300149
Si Si3 0.052186 0.277243 0.646674
Si Si4 0.554255 0.898940 0.917955
Si Si5 0.452216 0.396155 0.555834
Si Si6 0.939689 0.109707 0.191098
Si Si7 0.051637 0.605614 0.259716
Si Si8 0.949259 0.603663 0.151491
O O1 0.250000 0.714913 0.054350
O O2 0.522437 0.812299 0.054837
O O3 0.505539 0.657438 0.101903
O O4 0.500000 0.666502 0.000000
O O5 0.750000 0.895880 0.298443
O O6 0.485478 0.822696 0.340159
O O7 0.490783 0.863171 0.244851
O O8 0.492307 0.000000 0.308718
O O9 0.250000 0.266067 0.637678
O O10 0.982133 0.330259 0.599032
O O11 0.030706 0.337899 0.696124
O O12 0.750000 0.905028 0.930764
O O13 0.540048 0.874757 0.859236
O O14 0.479805 0.000000 0.925881
O O15 0.500000 0.368128 0.500000
O O16 0.250000 0.398309 0.558861
O O17 0.512169 0.500000 0.563486
O O18 0.750000 0.145492 0.184567
O O19 0.928129 0.000000 0.195260
O O20 0.250000 0.606569 0.267766
O O21 0.993351 0.500000 0.261043
O O22 0.015576 0.641526 0.204008
O O23 0.750000 0.601249 0.155624
O O24 0.013739 0.500000 0.147046
#
# Coordination Sequence:
#
# PCOD9401027 Si02
#       8
#     8   8   8   8   8   8   8   8
#     4  11  24  40  58  81 107 137 175 220 266 318
#     4   8  15  28  46  72 105 138 175 217 260 308
#     4  10  19  31  52  81 109 142 182 226 268 312
#     4   9  19  35  53  75 105 138 171 211 259 310
#     4   9  18  32  50  73 103 139 181 228 275 322
#     4   8  14  26  45  69  96 128 167 207 248 301
#     4  10  21  36  54  80 114 145 171 207 261 324
#     4  10  22  41  63  83 105 137 175 217 266 318
#
# _framework density 20.268272
#
# number of rings (size 3 to 8) (size 9 to 14) (size 15 to 20)
#    0.000    2.625    0.000    2.250    1.750    4.000 
#    0.000    1.250    0.000    0.750    0.000    0.000 
#    0.000    0.000    0.000    0.000    0.000    0.000 
#
# Total GULP energy -357088.420414 kJ/mol
# GULP energy per Si atom -5579.506569 kJ/mol
# Density = 2.022214 g / cm^3
# Si number density = 20.268272 Si / 1000 Ang^3
#
#
#
# Elastic Constant Matrix: (Units=GPa)
#
#
# Indices 1 2 3 4 5 6 
#
# 1 14.1170 -5.9697 -17.1904 0.0000 0.0000 0.0000
# 2 -5.9697 84.3429 60.0846 0.0000 0.0000 0.0000
# 3 -17.1904 60.0846 116.6146 0.0000 0.0000 0.0000
# 4 0.0000 0.0000 0.0000 35.2977 0.0000 0.0000
# 5 0.0000 0.0000 0.0000 0.0000 24.1333 0.0000
# 6 0.0000 0.0000 0.0000 0.0000 0.0000 9.2603
#
#
#
# Elastic Compliance Matrix: (Units=1/GPa)
#
#
# Indices 1 2 3 4 5 6 
#
# 1 0.087514 -0.004734 0.015339 0.000000 0.000000 0.000000
# 2 -0.004734 0.018988 -0.010481 0.000000 0.000000 0.000000
# 3 0.015339 -0.010481 0.016237 0.000000 0.000000 0.000000
# 4 0.000000 0.000000 0.000000 0.028330 0.000000 0.000000
# 5 0.000000 0.000000 0.000000 0.000000 0.041436 0.000000
# 6 0.000000 0.000000 0.000000 0.000000 0.000000 0.107988
#
#
# Mechanical properties :
#
#
# Convention : Reuss Voigt Hill
#
# Bulk Modulus (GPa) = 8.13086 32.10262 20.11674
# Shear Modulus (GPa) = 14.65247 25.61494 20.13370
#
# Velocity S-wave (km/s) = 2.69165 3.55885 3.15518
# Velocity P-wave (km/s) = 3.69869 5.72367 4.81875
#
# Compressibility (1/GPa) = 0.12298817
#
# Stress axis : x y z
#
# Youngs Moduli (GPa) = 11.42677 52.66508 61.58859
#
# Poissons Ratio (x) = 0.24929 -0.94474
# Poissons Ratio (y) = 0.05409 0.64552
# Poissons Ratio (z) = -0.17528 0.55199
#
# Static dielectric constant tensor:
#      x y z
#    x 1.722580 0.000000 0.000000 
#    y 0.000000 1.773950 0.000000 
#    z 0.000000 0.000000 1.711960 
# 
# From -- ./inp_files/34950.got.cif
#   From: 2010.05.17/outbox.cif.g08.bks.cpg/sg51_18_cif.got.tgz:34950.got - 2010.06.03 11:52:47.
