data_PCOD9401788
_publ_section_title
;
Structure prediction by ZEFSAII (Michael W. Deem and Ramdas Pophale) SiO2 
 PCOD9401788
Probable space group: P M M A
;
_chemical_formula_sum "Si O2"
_cell_formula_units_Z 40
_cell_length_a 18.614270
_cell_length_b 7.701569
_cell_length_c 13.041660
_cell_angle_alpha 90.000000
_cell_angle_beta 90.000000
_cell_angle_gamma 90.000000
_cell_volume 1869.640442
_symmetry_space_group_name_H-M "P M M A"
_symmetry_group_IT_number 51
_symmetry_cell_setting 'orthorhombic'
loop_
_space_group_symop_operation_xyz
x,y,z
1/2-x,-y,z
1/2+x,-y,-z
-x,y,-z
-x,-y,-z
1/2+x,y,-z
1/2-x,y,z
x,-y,z
loop_
_atom_site_type_symbol
_atom_site_label
_atom_site_fract_x
_atom_site_fract_y
_atom_site_fract_z
Si Si1 0.903660 0.300157 0.415906
Si Si2 0.331748 0.208514 0.186044
Si Si3 0.061824 0.200420 0.361865
Si Si4 0.419281 0.709369 0.982098
Si Si5 0.331233 0.287446 0.787415
O O1 0.884111 0.500000 0.435230
O O2 0.903055 0.207807 0.525294
O O3 0.854495 0.228246 0.325341
O O4 0.985409 0.293933 0.373348
O O5 0.250000 0.275312 0.191874
O O6 0.384745 0.273002 0.275955
O O7 0.328208 0.000000 0.198206
O O8 0.368015 0.246690 0.077084
O O9 0.045579 0.000000 0.336967
O O10 0.422842 0.500000 0.975970
O O11 0.385066 0.772439 0.875849
O O12 0.500000 0.774930 0.000000
O O13 0.250000 0.237285 0.812136
O O14 0.334178 0.500000 0.785348
#
# Coordination Sequence:
#
# PCOD9401788 Si02
#       5
#     8   8   8   8   8
#     4  10  19  33  55  79 103 133 174 218 254 302
#     4  10  22  38  54  76 108 143 178 218 264 313
#     4  10  20  35  54  75 104 139 172 211 261 309
#     4  10  20  35  57  82 106 136 176 218 262 315
#     4   9  18  32  50  75 107 137 165 207 262 308
#
# _framework density 21.394487000000002
#
# number of rings (size 3 to 8) (size 9 to 14) (size 15 to 20)
#    0.000    2.200    0.000    4.200    0.000    5.600 
#    0.000    2.000    0.000    4.200    0.000    0.000 
#    0.000    0.000    0.000    0.000    0.000    0.000 
#
# Total GULP energy -223467.781818 kJ/mol
# GULP energy per Si atom -5586.694545 kJ/mol
# Density = 2.134579 g / cm^3
# Si number density = 21.394487 Si / 1000 Ang^3
#
#
#
# Elastic Constant Matrix: (Units=GPa)
#
#
# Indices 1 2 3 4 5 6 
#
# 1 54.2048 -10.6831 6.6626 0.0000 0.0000 0.0000
# 2 -10.6831 38.3369 -14.3065 0.0000 0.0000 0.0000
# 3 6.6626 -14.3065 60.8110 0.0000 0.0000 0.0000
# 4 0.0000 0.0000 0.0000 16.5158 0.0000 0.0000
# 5 0.0000 0.0000 0.0000 0.0000 10.9694 0.0000
# 6 0.0000 0.0000 0.0000 0.0000 0.0000 -174.9665
#
#
#
# Elastic Compliance Matrix: (Units=1/GPa)
#
#
# Indices 1 2 3 4 5 6 
#
# 1 0.019570 0.005101 -0.000944 0.000000 0.000000 0.000000
# 2 0.005101 0.029925 0.006481 0.000000 0.000000 0.000000
# 3 -0.000944 0.006481 0.018073 0.000000 0.000000 0.000000
# 4 0.000000 0.000000 0.000000 0.060548 0.000000 0.000000
# 5 0.000000 0.000000 0.000000 0.000000 0.091162 0.000000
# 6 0.000000 0.000000 0.000000 0.000000 0.000000 -0.005715
#
#
# Mechanical properties :
#
#
# Convention : Reuss Voigt Hill
#
# Bulk Modulus (GPa) = 11.25569 12.96652 12.11110
# Shear Modulus (GPa) = 22.53263 -18.05095 2.24084
#
# Velocity S-wave (km/s) = 3.24882 -2.90784 1.02453
# Velocity P-wave (km/s) = 4.39836 2.28039 2.65945
#
# Compressibility (1/GPa) = 0.08884397
#
# Stress axis : x y z
#
# Youngs Moduli (GPa) = 51.09871 33.41722 55.33239
#
# Poissons Ratio (x) = -0.17047 0.05223
# Poissons Ratio (y) = -0.26066 -0.35862
# Poissons Ratio (z) = 0.04824 -0.21658
#
# Static dielectric constant tensor:
#      x y z
#    x 1.758420 0.000000 0.000000 
#    y 0.000000 1.767060 0.000000 
#    z 0.000000 0.000000 1.741470 
# 
# From -- ./inp_files/17078.got.cif
#   From: 2010.05.17/outbox.cif.g08.bks.cpg/sg51_9_cif.got.tgz:17078.got - 2010.06.03 11:52:47.
