data_PCOD9401928
_publ_section_title
;
Structure prediction by ZEFSAII (Michael W. Deem and Ramdas Pophale) SiO2 
 PCOD9401928
Probable space group: P M M A
;
_chemical_formula_sum "Si O2"
_cell_formula_units_Z 56
_cell_length_a 17.092015
_cell_length_b 18.283298
_cell_length_c 9.754060
_cell_angle_alpha 90.000000
_cell_angle_beta 90.000000
_cell_angle_gamma 90.000000
_cell_volume 3048.128179
_symmetry_space_group_name_H-M "P M M A"
_symmetry_group_IT_number 51
_symmetry_cell_setting 'orthorhombic'
loop_
_space_group_symop_operation_xyz
x,y,z
1/2-x,-y,z
1/2+x,-y,-z
-x,y,-z
-x,-y,-z
1/2+x,y,-z
1/2-x,y,z
x,-y,z
loop_
_atom_site_type_symbol
_atom_site_label
_atom_site_fract_x
_atom_site_fract_y
_atom_site_fract_z
Si Si1 0.159617 0.694820 0.943071
Si Si2 0.844503 0.084068 0.734807
Si Si3 0.661014 0.086044 0.417901
Si Si4 0.906573 0.692432 0.506962
Si Si5 0.906500 0.797961 0.258431
Si Si6 0.413537 0.762352 0.202839
Si Si7 0.844051 0.416645 0.295468
O O1 0.250000 0.680013 0.978253
O O2 0.151874 0.769474 0.856340
O O3 0.130506 0.632985 0.835081
O O4 0.109339 0.709973 0.077613
O O5 0.750000 0.084671 0.741318
O O6 0.866567 0.096807 0.574670
O O7 0.876316 0.156283 0.810682
O O8 0.868795 0.000000 0.772561
O O9 0.750000 0.115915 0.404862
O O10 0.604981 0.119581 0.303815
O O11 0.665546 0.000000 0.399625
O O12 0.886056 0.755669 0.398776
O O13 0.886152 0.721334 0.657699
O O14 0.869174 0.620868 0.438214
O O15 0.000000 0.682665 0.500000
O O16 0.993649 0.776026 0.214967
O O17 0.750000 0.416143 0.291132
O O18 0.871851 0.500000 0.284864
#
# Coordination Sequence:
#
# PCOD9401928 Si02
#       7
#     8   8   8   8   8   8   8
#     4  10  21  36  55  77 104 142 178 216 265 318
#     4   9  18  31  48  74 109 144 177 219 270 318
#     4   9  17  30  50  76 105 140 183 226 267 315
#     4   9  19  33  53  80 110 139 171 212 262 314
#     4  10  19  34  52  75 106 141 179 221 264 313
#     4  11  20  33  53  80 109 140 180 224 266 313
#     4   9  19  37  59  81 106 138 175 214 262 320
#
# _framework density 18.371929999999999
#
# number of rings (size 3 to 8) (size 9 to 14) (size 15 to 20)
#    0.000    2.429    1.429    2.143    0.000    2.571 
#    0.000    2.857    0.000   17.143    0.000    0.000 
#    0.000    0.000    0.000    0.000    0.000    0.000 
#
# Total GULP energy -311898.949748 kJ/mol
# GULP energy per Si atom -5569.624103 kJ/mol
# Density = 1.833011 g / cm^3
# Si number density = 18.371930 Si / 1000 Ang^3
#
#
#
# Elastic Constant Matrix: (Units=GPa)
#
#
# Indices 1 2 3 4 5 6 
#
# 1 18.1360 7.3883 13.4369 0.0000 0.0000 0.0000
# 2 7.3883 89.4061 26.6195 0.0000 0.0000 0.0000
# 3 13.4369 26.6195 73.3966 0.0000 0.0000 0.0000
# 4 0.0000 0.0000 0.0000 19.7415 0.0000 0.0000
# 5 0.0000 0.0000 0.0000 0.0000 19.7858 0.0000
# 6 0.0000 0.0000 0.0000 0.0000 0.0000 18.9769
#
#
#
# Elastic Compliance Matrix: (Units=1/GPa)
#
#
# Indices 1 2 3 4 5 6 
#
# 1 0.064116 -0.002022 -0.011005 0.000000 0.000000 0.000000
# 2 -0.002022 0.012603 -0.004201 0.000000 0.000000 0.000000
# 3 -0.011005 -0.004201 0.017163 0.000000 0.000000 0.000000
# 4 0.000000 0.000000 0.000000 0.050655 0.000000 0.000000
# 5 0.000000 0.000000 0.000000 0.000000 0.050541 0.000000
# 6 0.000000 0.000000 0.000000 0.000000 0.000000 0.052696
#
#
# Mechanical properties :
#
#
# Convention : Reuss Voigt Hill
#
# Bulk Modulus (GPa) = 16.82732 30.64757 23.73745
# Shear Modulus (GPa) = 16.55431 20.60044 18.57738
#
# Velocity S-wave (km/s) = 3.00503 3.35221 3.18336
# Velocity P-wave (km/s) = 4.60645 5.63037 5.14395
#
# Compressibility (1/GPa) = 0.05942717
#
# Stress axis : x y z
#
# Youngs Moduli (GPa) = 15.59674 79.34825 58.26590
#
# Poissons Ratio (x) = 0.16044 0.64119
# Poissons Ratio (y) = 0.03154 0.24475
# Poissons Ratio (z) = 0.17164 0.33331
#
# Static dielectric constant tensor:
#      x y z
#    x 1.655510 0.000000 0.000000 
#    y 0.000000 1.667760 0.000000 
#    z 0.000000 0.000000 1.642170 
# 
# From -- ./inp_files/8530.got.cif
#   From: 2010.05.17/outbox.cif.g08.bks.cpg/sg51_5_cif.got.tgz:8530.got - 2010.06.03 11:52:47.
