data_PCOD9401710
_publ_section_title
;
Structure prediction by ZEFSAII (Michael W. Deem and Ramdas Pophale) SiO2 
 PCOD9401710
Probable space group: P M M A
;
_chemical_formula_sum "Si O2"
_cell_formula_units_Z 64
_cell_length_a 20.483511
_cell_length_b 7.594169
_cell_length_c 19.785835
_cell_angle_alpha 90.000000
_cell_angle_beta 90.000000
_cell_angle_gamma 90.000000
_cell_volume 3077.790396
_symmetry_space_group_name_H-M "P M M A"
_symmetry_group_IT_number 51
_symmetry_cell_setting 'orthorhombic'
loop_
_space_group_symop_operation_xyz
x,y,z
1/2-x,-y,z
1/2+x,-y,-z
-x,y,-z
-x,-y,-z
1/2+x,y,-z
1/2-x,y,z
x,-y,z
loop_
_atom_site_type_symbol
_atom_site_label
_atom_site_fract_x
_atom_site_fract_y
_atom_site_fract_z
Si Si1 0.676739 0.710463 0.916580
Si Si2 0.430859 0.788282 0.971371
Si Si3 0.821059 0.288419 0.256314
Si Si4 0.534928 0.784099 0.430954
Si Si5 0.039033 0.790152 0.294812
Si Si6 0.948389 0.201699 0.177903
Si Si7 0.179821 0.792691 0.585480
Si Si8 0.824739 0.287777 0.763682
O O1 0.750000 0.775710 0.932179
O O2 0.680220 0.500000 0.910733
O O3 0.659072 0.774246 0.840680
O O4 0.626296 0.745514 0.976264
O O5 0.430373 0.718938 0.894680
O O6 0.430371 0.000000 0.968282
O O7 0.500000 0.728339 0.000000
O O8 0.750000 0.243335 0.226545
O O9 0.827991 0.500000 0.255049
O O10 0.881575 0.203890 0.219390
O O11 0.820836 0.227131 0.333581
O O12 0.500000 0.733671 0.500000
O O13 0.496089 0.724936 0.363445
O O14 0.609678 0.720131 0.435275
O O15 0.536554 0.000000 0.428096
O O16 0.116430 0.763275 0.286045
O O17 0.002688 0.717017 0.227651
O O18 0.027522 0.000000 0.294833
O O19 0.969912 0.000000 0.165154
O O20 0.250000 0.718159 0.561822
O O21 0.180142 0.000000 0.568327
O O22 0.750000 0.229344 0.748103
O O23 0.823354 0.500000 0.764039
#
# Coordination Sequence:
#
# PCOD9401710 Si02
#       8
#     8   8   8   8   8   8   8   8
#     4   9  19  36  55  74 100 135 174 215 259 309
#     4  10  21  35  51  73 102 134 170 214 260 309
#     4  10  20  32  48  73 102 131 168 214 255 293
#     4   9  17  31  52  80 111 138 169 216 265 307
#     4  10  19  33  54  79 105 133 169 215 262 306
#     4  10  20  34  51  73 102 136 172 210 258 313
#     4   9  16  30  53  75  99 137 177 207 246 303
#     4   9  19  36  56  77 102 135 173 212 258 312
#
# _framework density 20.794138
#
# number of rings (size 3 to 8) (size 9 to 14) (size 15 to 20)
#    0.000    2.500    1.250    1.875    0.000    4.500 
#    0.000    4.375    0.000    3.750    0.000    1.750 
#    0.000    0.000    0.000    0.000    0.000    0.000 
#
# Total GULP energy -356776.015938 kJ/mol
# GULP energy per Si atom -5574.625249 kJ/mol
# Density = 2.074681 g / cm^3
# Si number density = 20.794138 Si / 1000 Ang^3
#
#
#
# Elastic Constant Matrix: (Units=GPa)
#
#
# Indices 1 2 3 4 5 6 
#
# 1 181.9946 -0.8977 86.3884 0.0000 0.0000 0.0000
# 2 -0.8977 45.9571 2.1105 0.0000 0.0000 0.0000
# 3 86.3884 2.1105 83.4121 0.0000 0.0000 0.0000
# 4 0.0000 0.0000 0.0000 -17.9880 0.0000 0.0000
# 5 0.0000 0.0000 0.0000 0.0000 30.1511 0.0000
# 6 0.0000 0.0000 0.0000 0.0000 0.0000 8.1226
#
#
#
# Elastic Compliance Matrix: (Units=1/GPa)
#
#
# Indices 1 2 3 4 5 6 
#
# 1 0.010832 0.000728 -0.011237 0.000000 0.000000 0.000000
# 2 0.000728 0.021834 -0.001306 0.000000 0.000000 0.000000
# 3 -0.011237 -0.001306 0.023660 0.000000 0.000000 0.000000
# 4 0.000000 0.000000 0.000000 -0.055592 0.000000 0.000000
# 5 0.000000 0.000000 0.000000 0.000000 0.033166 0.000000
# 6 0.000000 0.000000 0.000000 0.000000 0.000000 0.123113
#
#
# Mechanical properties :
#
#
# Convention : Reuss Voigt Hill
#
# Bulk Modulus (GPa) = 30.58615 54.06292 42.32453
# Shear Modulus (GPa) = 26.10387 18.97464 22.53925
#
# Velocity S-wave (km/s) = 3.54693 3.02404 3.29587
# Velocity P-wave (km/s) = 5.61385 6.18455 5.90609
#
# Compressibility (1/GPa) = 0.03269454
#
# Stress axis : x y z
#
# Youngs Moduli (GPa) = 92.31653 45.80096 42.26558
#
# Poissons Ratio (x) = -0.03333 0.47495
# Poissons Ratio (y) = -0.06717 0.05520
# Poissons Ratio (z) = 1.03738 0.05982
#
# Static dielectric constant tensor:
#      x y z
#    x 1.768100 0.000000 0.000000 
#    y 0.000000 2.273870 0.000000 
#    z 0.000000 0.000000 1.738120 
# 
# From -- ./inp_files/33786.got.cif
#   From: 2010.05.17/outbox.cif.g08.bks.cpg/sg51_17_cif.got.tgz:33786.got - 2010.06.03 11:52:47.
