data_PCOD9401289
_publ_section_title
;
Structure prediction by ZEFSAII (Michael W. Deem and Ramdas Pophale) SiO2 
 PCOD9401289
Probable space group: P M M A
;
_chemical_formula_sum "Si O2"
_cell_formula_units_Z 56
_cell_length_a 19.327357
_cell_length_b 7.889345
_cell_length_c 18.676205
_cell_angle_alpha 90.000000
_cell_angle_beta 90.000000
_cell_angle_gamma 90.000000
_cell_volume 2847.751237
_symmetry_space_group_name_H-M "P M M A"
_symmetry_group_IT_number 51
_symmetry_cell_setting 'orthorhombic'
loop_
_space_group_symop_operation_xyz
x,y,z
1/2-x,-y,z
1/2+x,-y,-z
-x,y,-z
-x,-y,-z
1/2+x,y,-z
1/2-x,y,z
x,-y,z
loop_
_atom_site_type_symbol
_atom_site_label
_atom_site_fract_x
_atom_site_fract_y
_atom_site_fract_z
Si Si1 0.169713 0.699777 0.940540
Si Si2 0.439449 0.193765 0.049825
Si Si3 0.928379 0.699113 0.789410
Si Si4 0.043906 0.695029 0.434667
Si Si5 0.829154 0.205227 0.217267
Si Si6 0.453197 0.804678 0.692930
Si Si7 0.170257 0.706835 0.339283
O O1 0.250000 0.750388 0.941406
O O2 0.164616 0.500000 0.955889
O O3 0.144568 0.732641 0.859794
O O4 0.126899 0.798480 0.999152
O O5 0.422358 0.275677 0.125970
O O6 0.460044 0.000000 0.065240
O O7 0.500000 0.272500 0.000000
O O8 0.939288 0.500000 0.775643
O O9 0.864346 0.751923 0.737766
O O10 0.995431 0.796229 0.760613
O O11 0.059249 0.500000 0.455097
O O12 0.115879 0.765772 0.401064
O O13 0.000000 0.774282 0.500000
O O14 0.991109 0.701218 0.368361
O O15 0.750000 0.261899 0.226174
O O16 0.879614 0.260919 0.280348
O O17 0.830288 0.000000 0.215962
O O18 0.446972 0.000000 0.669302
O O19 0.250000 0.763673 0.346209
O O20 0.170869 0.500000 0.342335
#
# Coordination Sequence:
#
# PCOD9401289 Si02
#       7
#     8   8   8   8   8   8   8
#     4  10  21  35  51  72  97 128 168 212 258 306
#     4  11  23  36  50  71 100 134 173 215 261 315
#     4  10  20  33  51  74  99 129 167 214 260 301
#     4   9  18  33  53  77 104 133 166 203 244 294
#     4   9  18  33  51  70  95 129 166 203 246 297
#     4  10  19  32  52  75  99 129 164 200 243 299
#     4   8  15  30  52  75  99 130 166 203 246 296
#
# _framework density 19.664638
#
# number of rings (size 3 to 8) (size 9 to 14) (size 15 to 20)
#    0.000    2.429    0.000    3.429    0.000    7.429 
#    0.000    2.143    0.000   11.143    0.000    0.000 
#    0.000    0.000    0.000    0.000    0.000    0.000 
#
# Total GULP energy -312179.765775 kJ/mol
# GULP energy per Si atom -5574.638675 kJ/mol
# Density = 1.961988 g / cm^3
# Si number density = 19.664638 Si / 1000 Ang^3
#
#
#
# Elastic Constant Matrix: (Units=GPa)
#
#
# Indices 1 2 3 4 5 6 
#
# 1 105.5232 3.6099 72.7501 0.0000 0.0000 0.0000
# 2 3.6099 25.5466 4.6524 0.0000 0.0000 0.0000
# 3 72.7501 4.6524 95.1229 0.0000 0.0000 0.0000
# 4 0.0000 0.0000 0.0000 -0.1475 0.0000 0.0000
# 5 0.0000 0.0000 0.0000 0.0000 25.3768 0.0000
# 6 0.0000 0.0000 0.0000 0.0000 0.0000 13.7292
#
#
#
# Elastic Compliance Matrix: (Units=1/GPa)
#
#
# Indices 1 2 3 4 5 6 
#
# 1 0.020047 -0.000041 -0.015330 0.000000 0.000000 0.000000
# 2 -0.000041 0.039496 -0.001900 0.000000 0.000000 0.000000
# 3 -0.015330 -0.001900 0.022330 0.000000 0.000000 0.000000
# 4 0.000000 0.000000 0.000000 -6.781641 0.000000 0.000000
# 5 0.000000 0.000000 0.000000 0.000000 0.039406 0.000000
# 6 0.000000 0.000000 0.000000 0.000000 0.000000 0.072837
#
#
# Mechanical properties :
#
#
# Convention : Reuss Voigt Hill
#
# Bulk Modulus (GPa) = 21.12806 43.13527 32.13166
# Shear Modulus (GPa) = -0.76485 17.47041 8.35278
#
# Velocity S-wave (km/s) = -0.62433 2.98387 2.06321
# Velocity P-wave (km/s) = 3.20122 5.81845 4.69586
#
# Compressibility (1/GPa) = 0.04733043
#
# Stress axis : x y z
#
# Youngs Moduli (GPa) = 49.88386 25.31898 44.78329
#
# Poissons Ratio (x) = 0.00104 0.68651
# Poissons Ratio (y) = 0.00204 0.08511
# Poissons Ratio (z) = 0.76470 0.04812
#
# Static dielectric constant tensor:
#      x y z
#    x 1.711020 0.000000 0.000000 
#    y 0.000000 1.733080 0.000000 
#    z 0.000000 0.000000 1.690220 
# 
# From -- ./inp_files/30385.got.cif
#   From: 2010.05.17/outbox.cif.g08.bks.cpg/sg51_16_cif.got.tgz:30385.got - 2010.06.03 11:52:47.
