data_PCOD9401373
_publ_section_title
;
Structure prediction by ZEFSAII (Michael W. Deem and Ramdas Pophale) SiO2 
 PCOD9401373
Probable space group: P M M A
;
_chemical_formula_sum "Si O2"
_cell_formula_units_Z 48
_cell_length_a 15.453516
_cell_length_b 15.902770
_cell_length_c 11.529141
_cell_angle_alpha 90.000000
_cell_angle_beta 90.000000
_cell_angle_gamma 90.000000
_cell_volume 2833.329181
_symmetry_space_group_name_H-M "P M M A"
_symmetry_group_IT_number 51
_symmetry_cell_setting 'orthorhombic'
loop_
_space_group_symop_operation_xyz
x,y,z
1/2-x,-y,z
1/2+x,-y,-z
-x,y,-z
-x,-y,-z
1/2+x,y,-z
1/2-x,y,z
x,-y,z
loop_
_atom_site_type_symbol
_atom_site_label
_atom_site_fract_x
_atom_site_fract_y
_atom_site_fract_z
Si Si1 0.850993 0.225520 0.744698
Si Si2 0.512665 0.900480 0.635509
Si Si3 0.100499 0.774197 0.986500
Si Si4 0.846249 0.901921 0.207417
Si Si5 0.645768 0.408906 0.025865
Si Si6 0.145328 0.410036 0.249665
O O1 0.750000 0.214910 0.714173
O O2 0.911761 0.155000 0.690894
O O3 0.882655 0.318908 0.705688
O O4 0.858329 0.224625 0.885214
O O5 0.500000 0.882202 0.500000
O O6 0.423239 0.883608 0.703425
O O7 0.531991 0.000000 0.647565
O O8 0.143676 0.841018 0.901917
O O9 0.107807 0.679740 0.933640
O O10 0.000000 0.795485 0.000000
O O11 0.750000 0.891176 0.258254
O O12 0.854583 0.000000 0.172367
O O13 0.750000 0.404791 0.038565
O O14 0.616457 0.500000 0.074203
O O15 0.626608 0.410946 0.888131
O O16 0.250000 0.409662 0.259079
O O17 0.114118 0.500000 0.298331
#
# Coordination Sequence:
#
# PCOD9401373 Si02
#       6
#     8   8   8   8   8   8
#     4  10  19  32  52  80 108 134 168 208 253 302
#     4  10  22  39  56  75  99 128 169 218 260 302
#     4  11  19  30  50  77 110 139 167 207 251 303
#     4  10  21  37  55  73  98 135 171 203 251 313
#     4   8  14  25  41  65 101 140 172 201 237 289
#     4   7  11  22  42  68  99 133 165 197 236 287
#
# _framework density 16.941202000000001
#
# number of rings (size 3 to 8) (size 9 to 14) (size 15 to 20)
#    0.000    2.667    1.667    3.500    0.000    2.333 
#    0.000    1.667    0.000    0.500    0.000    0.000 
#    0.000    2.667    0.000    0.000    0.000    0.000 
#
# Total GULP energy -267230.521564 kJ/mol
# GULP energy per Si atom -5567.302533 kJ/mol
# Density = 1.690264 g / cm^3
# Si number density = 16.941202 Si / 1000 Ang^3
#
#
#
# Elastic Constant Matrix: (Units=GPa)
#
#
# Indices 1 2 3 4 5 6 
#
# 1 83.3730 56.1975 22.4612 0.0000 0.0000 0.0000
# 2 56.1975 112.6086 53.7558 0.0000 0.0000 0.0000
# 3 22.4612 53.7558 49.8820 0.0000 0.0000 0.0000
# 4 0.0000 0.0000 0.0000 -10.5690 0.0000 0.0000
# 5 0.0000 0.0000 0.0000 0.0000 -1.1777 0.0000
# 6 0.0000 0.0000 0.0000 0.0000 0.0000 19.6734
#
#
#
# Elastic Compliance Matrix: (Units=1/GPa)
#
#
# Indices 1 2 3 4 5 6 
#
# 1 0.018335 -0.010728 0.003305 0.000000 0.000000 0.000000
# 2 -0.010728 0.024566 -0.021643 0.000000 0.000000 0.000000
# 3 0.003305 -0.021643 0.041883 0.000000 0.000000 0.000000
# 4 0.000000 0.000000 0.000000 -0.094616 0.000000 0.000000
# 5 0.000000 0.000000 0.000000 0.000000 -0.849095 0.000000
# 6 0.000000 0.000000 0.000000 0.000000 0.000000 0.050830
#
#
# Mechanical properties :
#
#
# Convention : Reuss Voigt Hill
#
# Bulk Modulus (GPa) = 37.52074 56.74363 47.13218
# Shear Modulus (GPa) = -6.74689 9.14861 1.20086
#
# Velocity S-wave (km/s) = -1.99779 2.32636 0.84284
# Velocity P-wave (km/s) = 4.10781 6.38616 5.36923
#
# Compressibility (1/GPa) = 0.02665193
#
# Stress axis : x y z
#
# Youngs Moduli (GPa) = 54.54069 40.70742 23.87621
#
# Poissons Ratio (x) = 0.43670 -0.07891
# Poissons Ratio (y) = 0.58510 0.51675
# Poissons Ratio (z) = -0.18025 0.88102
#
# Static dielectric constant tensor:
#      x y z
#    x 1.582460 0.000000 0.000000 
#    y 0.000000 1.624670 0.000000 
#    z 0.000000 0.000000 1.533930 
# 
# From -- ./inp_files/16399.got.cif
#   From: 2010.05.17/outbox.cif.g08.bks.cpg/sg51_9_cif.got.tgz:16399.got - 2010.06.03 11:52:47.
