data_PCOD9401161
_publ_section_title
;
Structure prediction by ZEFSAII (Michael W. Deem and Ramdas Pophale) SiO2 
 PCOD9401161
Probable space group: P M M A
;
_chemical_formula_sum "Si O2"
_cell_formula_units_Z 52
_cell_length_a 8.766427
_cell_length_b 23.639702
_cell_length_c 14.632353
_cell_angle_alpha 90.000000
_cell_angle_beta 90.000000
_cell_angle_gamma 90.000000
_cell_volume 3032.346237
_symmetry_space_group_name_H-M "P M M A"
_symmetry_group_IT_number 51
_symmetry_cell_setting 'orthorhombic'
loop_
_space_group_symop_operation_xyz
x,y,z
1/2-x,-y,z
1/2+x,-y,-z
-x,y,-z
-x,-y,-z
1/2+x,y,-z
1/2-x,y,z
x,-y,z
loop_
_atom_site_type_symbol
_atom_site_label
_atom_site_fract_x
_atom_site_fract_y
_atom_site_fract_z
Si Si1 0.434079 0.000000 0.101788
Si Si2 0.565764 0.330474 0.779032
Si Si3 0.567517 0.148782 0.401958
Si Si4 0.932312 0.281186 0.402266
Si Si5 0.566259 0.778203 0.898745
Si Si6 0.934203 0.889076 0.784432
Si Si7 0.565978 0.564697 0.900369
O O1 0.479958 0.055781 0.158189
O O2 0.250000 0.000000 0.095300
O O3 0.500000 0.000000 0.000000
O O4 0.750000 0.329913 0.771570
O O5 0.495937 0.317957 0.680583
O O6 0.520642 0.278745 0.845670
O O7 0.518157 0.389226 0.825796
O O8 0.500000 0.131447 0.500000
O O9 0.750000 0.145574 0.404909
O O10 0.523221 0.215047 0.387481
O O11 0.503575 0.114188 0.316472
O O12 0.750000 0.283857 0.405010
O O13 0.000000 0.298323 0.500000
O O14 0.750000 0.778833 0.904477
O O15 0.518688 0.832968 0.840284
O O16 0.500000 0.779964 0.000000
O O17 0.750000 0.888717 0.776870
O O18 0.750000 0.566438 0.906057
O O19 0.520468 0.500000 0.878846
O O20 0.500000 0.579112 0.000000
#
# Coordination Sequence:
#
# PCOD9401161 Si02
#       7
#     4   8   8   8   8   8   8
#     4  10  22  38  57  78 103 140 179 216 256 302
#     4  10  19  32  50  74 104 136 170 210 258 305
#     4  10  20  34  55  81 106 135 168 209 259 312
#     4  10  20  33  52  78 106 135 168 208 257 312
#     4  10  20  31  47  71 101 133 165 208 256 300
#     4  10  20  36  54  75 104 137 173 213 256 304
#     4   9  18  32  50  73 103 140 178 214 253 300
#
# _framework density 17.148439
#
# number of rings (size 3 to 8) (size 9 to 14) (size 15 to 20)
#    0.000    2.154    1.538    1.846    0.000    3.692 
#    0.000    0.385    0.000    0.462    0.000    0.000 
#    0.000    0.000    0.000    0.000    0.000    0.000 
#
# Total GULP energy -290264.237000 kJ/mol
# GULP energy per Si atom -5582.004558 kJ/mol
# Density = 1.710941 g / cm^3
# Si number density = 17.148439 Si / 1000 Ang^3
#
#
#
# Elastic Constant Matrix: (Units=GPa)
#
#
# Indices 1 2 3 4 5 6 
#
# 1 15.8072 29.6296 40.4551 0.0000 0.0000 0.0000
# 2 29.6296 105.7394 88.9303 0.0000 0.0000 0.0000
# 3 40.4551 88.9303 187.8069 0.0000 0.0000 0.0000
# 4 0.0000 0.0000 0.0000 31.4427 0.0000 0.0000
# 5 0.0000 0.0000 0.0000 0.0000 38.1632 0.0000
# 6 0.0000 0.0000 0.0000 0.0000 0.0000 8.6032
#
#
#
# Elastic Compliance Matrix: (Units=1/GPa)
#
#
# Indices 1 2 3 4 5 6 
#
# 1 0.186257 -0.030658 -0.025604 0.000000 0.000000 0.000000
# 2 -0.030658 0.020762 -0.003227 0.000000 0.000000 0.000000
# 3 -0.025604 -0.003227 0.012368 0.000000 0.000000 0.000000
# 4 0.000000 0.000000 0.000000 0.031804 0.000000 0.000000
# 5 0.000000 0.000000 0.000000 0.000000 0.026203 0.000000
# 6 0.000000 0.000000 0.000000 0.000000 0.000000 0.116235
#
#
# Mechanical properties :
#
#
# Convention : Reuss Voigt Hill
#
# Bulk Modulus (GPa) = 9.95928 69.70928 39.83428
# Shear Modulus (GPa) = 9.15619 25.66438 17.41029
#
# Velocity S-wave (km/s) = 2.31322 3.87279 3.18979
# Velocity P-wave (km/s) = 3.59929 7.79338 6.07008
#
# Compressibility (1/GPa) = 0.10040883
#
# Stress axis : x y z
#
# Youngs Moduli (GPa) = 5.36892 48.16422 80.85221
#
# Poissons Ratio (x) = 1.47660 2.07016
# Poissons Ratio (y) = 0.16460 0.26095
# Poissons Ratio (z) = 0.13747 0.15545
#
# Static dielectric constant tensor:
#      x y z
#    x 1.574430 0.000000 0.000000 
#    y 0.000000 1.583730 0.000000 
#    z 0.000000 0.000000 1.545570 
# 
# From -- ./inp_files/21594.got.cif
#   From: 2010.05.17/outbox.cif.g08.bks.cpg/sg51_11_cif.got.tgz:21594.got - 2010.06.03 11:52:47.
