data_PCOD9401311
_publ_section_title
;
Structure prediction by ZEFSAII (Michael W. Deem and Ramdas Pophale) SiO2 
 PCOD9401311
Probable space group: P M M A
;
_chemical_formula_sum "Si O2"
_cell_formula_units_Z 56
_cell_length_a 7.642062
_cell_length_b 14.561273
_cell_length_c 24.314117
_cell_angle_alpha 90.000000
_cell_angle_beta 90.000000
_cell_angle_gamma 90.000000
_cell_volume 2705.629985
_symmetry_space_group_name_H-M "P M M A"
_symmetry_group_IT_number 51
_symmetry_cell_setting 'orthorhombic'
loop_
_space_group_symop_operation_xyz
x,y,z
1/2-x,-y,z
1/2+x,-y,-z
-x,y,-z
-x,-y,-z
1/2+x,y,-z
1/2-x,y,z
x,-y,z
loop_
_atom_site_type_symbol
_atom_site_label
_atom_site_fract_x
_atom_site_fract_y
_atom_site_fract_z
Si Si1 0.539898 0.714022 0.438039
Si Si2 0.456097 0.896771 0.615523
Si Si3 0.039615 0.201363 0.064030
Si Si4 0.535928 0.897620 0.829689
Si Si5 0.460074 0.402477 0.065160
Si Si6 0.041673 0.787923 0.274688
Si Si7 0.539590 0.396912 0.332376
O O1 0.500000 0.686708 0.500000
O O2 0.750000 0.717323 0.432242
O O3 0.470971 0.816692 0.424152
O O4 0.475761 0.644412 0.390874
O O5 0.250000 0.904373 0.603330
O O6 0.472175 0.852561 0.676221
O O7 0.530640 0.000000 0.612367
O O8 0.250000 0.204222 0.067003
O O9 0.977755 0.129020 0.109017
O O10 0.973562 0.302639 0.082355
O O11 0.000000 0.184150 0.000000
O O12 0.750000 0.896914 0.829981
O O13 0.478162 0.825031 0.783853
O O14 0.480322 0.000000 0.814489
O O15 0.250000 0.402502 0.072418
O O16 0.527089 0.500000 0.088174
O O17 0.500000 0.404092 0.000000
O O18 0.250000 0.797916 0.275936
O O19 0.001161 0.682205 0.288242
O O20 0.750000 0.402109 0.335341
O O21 0.473649 0.500000 0.321797
#
# Coordination Sequence:
#
# PCOD9401311 Si02
#       7
#     8   8   8   8   8   8   8
#     4   9  18  31  47  71 102 135 170 206 245 292
#     4   9  18  33  51  70  97 135 173 209 254 304
#     4   9  17  30  47  67  93 126 161 196 237 287
#     4   9  18  32  49  70  99 132 160 193 246 303
#     4   8  13  22  38  59  81 107 141 179 218 261
#     4  10  19  32  52  77 100 123 162 213 256 298
#     4   9  19  37  57  74  99 136 168 198 247 304
#
# _framework density 20.697583000000002
#
# number of rings (size 3 to 8) (size 9 to 14) (size 15 to 20)
#    0.000    3.000    0.000    1.714    0.000    4.286 
#    0.000    2.143    0.000    4.286    0.000    8.000 
#    0.000    0.000    0.000    0.000    0.000    0.000 
#
# Total GULP energy -312012.113837 kJ/mol
# GULP energy per Si atom -5571.644890 kJ/mol
# Density = 2.065047 g / cm^3
# Si number density = 20.697583 Si / 1000 Ang^3
#
#
#
# Elastic Constant Matrix: (Units=GPa)
#
#
# Indices 1 2 3 4 5 6 
#
# 1 38.5589 3.2458 -5.1828 0.0000 0.0000 0.0000
# 2 3.2458 153.2680 61.5480 0.0000 0.0000 0.0000
# 3 -5.1828 61.5480 103.6915 0.0000 0.0000 0.0000
# 4 0.0000 0.0000 0.0000 -33.4824 0.0000 0.0000
# 5 0.0000 0.0000 0.0000 0.0000 16.4804 0.0000
# 6 0.0000 0.0000 0.0000 0.0000 0.0000 6.8614
#
#
#
# Elastic Compliance Matrix: (Units=1/GPa)
#
#
# Indices 1 2 3 4 5 6 
#
# 1 0.026345 -0.001427 0.002164 0.000000 0.000000 0.000000
# 2 -0.001427 0.008644 -0.005202 0.000000 0.000000 0.000000
# 3 0.002164 -0.005202 0.012840 0.000000 0.000000 0.000000
# 4 0.000000 0.000000 0.000000 -0.029866 0.000000 0.000000
# 5 0.000000 0.000000 0.000000 0.000000 0.060678 0.000000
# 6 0.000000 0.000000 0.000000 0.000000 0.000000 0.145743
#
#
# Mechanical properties :
#
#
# Convention : Reuss Voigt Hill
#
# Bulk Modulus (GPa) = 25.70777 46.08228 35.89503
# Shear Modulus (GPa) = 20.30214 13.69905 17.00060
#
# Velocity S-wave (km/s) = 3.13532 2.57547 2.86908
# Velocity P-wave (km/s) = 5.05516 5.58184 5.32502
#
# Compressibility (1/GPa) = 0.03889874
#
# Stress axis : x y z
#
# Youngs Moduli (GPa) = 37.95747 115.69149 77.88263
#
# Poissons Ratio (x) = 0.16507 -0.16852
# Poissons Ratio (y) = 0.05416 0.40514
# Poissons Ratio (z) = -0.08213 0.60182
#
# Static dielectric constant tensor:
#      x y z
#    x 1.871810 0.000000 0.000000 
#    y 0.000000 1.799580 0.000000 
#    z 0.000000 0.000000 1.702710 
# 
# From -- ./inp_files/31965.got.cif
#   From: 2010.05.17/outbox.cif.g08.bks.cpg/sg51_16_cif.got.tgz:31965.got - 2010.06.03 11:52:47.
