data_PCOD9401433
_publ_section_title
;
Structure prediction by ZEFSAII (Michael W. Deem and Ramdas Pophale) SiO2 
 PCOD9401433
Probable space group: P M M A
;
_chemical_formula_sum "Si O2"
_cell_formula_units_Z 64
_cell_length_a 8.906112
_cell_length_b 14.255106
_cell_length_c 29.297232
_cell_angle_alpha 90.000000
_cell_angle_beta 90.000000
_cell_angle_gamma 90.000000
_cell_volume 3719.505400
_symmetry_space_group_name_H-M "P M M A"
_symmetry_group_IT_number 51
_symmetry_cell_setting 'orthorhombic'
loop_
_space_group_symop_operation_xyz
x,y,z
1/2-x,-y,z
1/2+x,-y,-z
-x,y,-z
-x,-y,-z
1/2+x,y,-z
1/2-x,y,z
x,-y,z
loop_
_atom_site_type_symbol
_atom_site_label
_atom_site_fract_x
_atom_site_fract_y
_atom_site_fract_z
Si Si1 0.931002 0.891327 0.359134
Si Si2 0.929224 0.102005 0.949306
Si Si3 0.929057 0.213899 0.452430
Si Si4 0.930079 0.391561 0.593420
Si Si5 0.929215 0.285699 0.687909
Si Si6 0.428191 0.290502 0.949687
Si Si7 0.570641 0.388718 0.225945
Si Si8 0.919623 0.388257 0.868658
O O1 0.750000 0.885137 0.354331
O O2 0.968631 0.854344 0.410159
O O3 0.006902 0.816507 0.325327
O O4 0.974840 0.000000 0.352890
O O5 0.750000 0.116651 0.952613
O O6 0.010689 0.191950 0.929312
O O7 0.955330 0.000000 0.927506
O O8 0.000000 0.097179 0.000000
O O9 0.750000 0.216985 0.456200
O O10 0.000000 0.182941 0.500000
O O11 0.990354 0.317282 0.439582
O O12 0.750000 0.386173 0.586612
O O13 0.976168 0.500000 0.587949
O O14 0.961439 0.353943 0.644639
O O15 0.750000 0.281273 0.693456
O O16 0.004374 0.329673 0.732432
O O17 0.250000 0.289020 0.954243
O O18 0.485396 0.365287 0.913473
O O19 0.500000 0.303610 0.000000
O O20 0.750000 0.379577 0.223827
O O21 0.536000 0.500000 0.232519
O O22 0.498582 0.356639 0.178024
O O23 0.750000 0.350224 0.872950
O O24 0.910100 0.500000 0.865117
#
# Coordination Sequence:
#
# PCOD9401433 Si02
#       8
#     8   8   8   8   8   8   8   8
#     4   9  19  36  55  75 101 133 170 213 259 306
#     4   9  16  27  45  69  96 125 160 203 248 293
#     4  10  20  33  49  70  97 131 171 213 257 304
#     4   9  18  32  49  70  98 131 166 205 249 298
#     4  10  19  32  53  80 106 131 163 205 252 303
#     4  11  21  33  51  74 103 138 176 217 259 306
#     4  10  20  34  54  80 108 137 168 202 245 300
#     4  10  21  37  55  75 102 136 174 215 256 299
#
# _framework density 17.206589000000001
#
# number of rings (size 3 to 8) (size 9 to 14) (size 15 to 20)
#    0.000    2.250    0.000    4.125    0.000    5.000 
#    0.000    0.000    0.000    0.750    0.000    0.000 
#    0.000    0.000    0.000    0.000    0.000    0.000 
#
# Total GULP energy -356886.390602 kJ/mol
# GULP energy per Si atom -5576.349853 kJ/mol
# Density = 1.716743 g / cm^3
# Si number density = 17.206589 Si / 1000 Ang^3
#
#
#
# Elastic Constant Matrix: (Units=GPa)
#
#
# Indices 1 2 3 4 5 6 
#
# 1 88.4799 36.4091 50.6269 0.0000 0.0000 0.0000
# 2 36.4091 73.9846 29.8932 0.0000 0.0000 0.0000
# 3 50.6269 29.8932 94.5520 0.0000 0.0000 0.0000
# 4 0.0000 0.0000 0.0000 15.9371 0.0000 0.0000
# 5 0.0000 0.0000 0.0000 0.0000 28.0703 0.0000
# 6 0.0000 0.0000 0.0000 0.0000 0.0000 26.5739
#
#
#
# Elastic Compliance Matrix: (Units=1/GPa)
#
#
# Indices 1 2 3 4 5 6 
#
# 1 0.018208 -0.005757 -0.007929 0.000000 0.000000 0.000000
# 2 -0.005757 0.017316 -0.002392 0.000000 0.000000 0.000000
# 3 -0.007929 -0.002392 0.015578 0.000000 0.000000 0.000000
# 4 0.000000 0.000000 0.000000 0.062747 0.000000 0.000000
# 5 0.000000 0.000000 0.000000 0.000000 0.035625 0.000000
# 6 0.000000 0.000000 0.000000 0.000000 0.000000 0.037631
#
#
# Mechanical properties :
#
#
# Convention : Reuss Voigt Hill
#
# Bulk Modulus (GPa) = 52.78235 54.54167 53.66201
# Shear Modulus (GPa) = 22.16555 23.45541 22.81048
#
# Velocity S-wave (km/s) = 3.59305 3.69611 3.64494
# Velocity P-wave (km/s) = 6.92500 7.06979 6.99777
#
# Compressibility (1/GPa) = 0.01894573
#
# Stress axis : x y z
#
# Youngs Moduli (GPa) = 54.92154 57.75072 64.19264
#
# Poissons Ratio (x) = 0.33245 0.50900
# Poissons Ratio (y) = 0.31616 0.15356
# Poissons Ratio (z) = 0.43548 0.13815
#
# Static dielectric constant tensor:
#      x y z
#    x 1.583940 0.000000 0.000000 
#    y 0.000000 1.609540 0.000000 
#    z 0.000000 0.000000 1.564720 
# 
# From -- ./inp_files/34957.got.cif
#   From: 2010.05.17/outbox.cif.g08.bks.cpg/sg51_18_cif.got.tgz:34957.got - 2010.06.03 11:52:47.
