data_PCOD9401005
_publ_section_title
;
Structure prediction by ZEFSAII (Michael W. Deem and Ramdas Pophale) SiO2 
 PCOD9401005
Probable space group: P M M A
;
_chemical_formula_sum "Si O2"
_cell_formula_units_Z 56
_cell_length_a 14.863961
_cell_length_b 15.275155
_cell_length_c 11.706773
_cell_angle_alpha 90.000000
_cell_angle_beta 90.000000
_cell_angle_gamma 90.000000
_cell_volume 2658.014711
_symmetry_space_group_name_H-M "P M M A"
_symmetry_group_IT_number 51
_symmetry_cell_setting 'orthorhombic'
loop_
_space_group_symop_operation_xyz
x,y,z
1/2-x,-y,z
1/2+x,-y,-z
-x,y,-z
-x,-y,-z
1/2+x,y,-z
1/2-x,y,z
x,-y,z
loop_
_atom_site_type_symbol
_atom_site_label
_atom_site_fract_x
_atom_site_fract_y
_atom_site_fract_z
Si Si1 0.069000 0.750938 0.893699
Si Si2 0.851055 0.406936 0.987813
Si Si3 0.354246 0.787068 0.553527
Si Si4 0.925898 0.657450 0.763553
Si Si5 0.548121 0.101377 0.257943
Si Si6 0.150773 0.162451 0.286794
Si Si7 0.858613 0.402948 0.524720
O O1 0.138260 0.678849 0.936143
O O2 0.092951 0.846141 0.847675
O O3 0.019935 0.705477 0.785502
O O4 0.000000 0.760472 0.000000
O O5 0.750000 0.408978 0.943847
O O6 0.869118 0.500000 0.047874
O O7 0.912709 0.399031 0.876742
O O8 0.250000 0.791294 0.593403
O O9 0.416616 0.848291 0.629796
O O10 0.355832 0.821546 0.423083
O O11 0.381409 0.684375 0.546449
O O12 0.857266 0.739907 0.765653
O O13 0.908066 0.608138 0.646383
O O14 0.439249 0.112006 0.249360
O O15 0.571430 0.000000 0.261730
O O16 0.250000 0.125507 0.260919
O O17 0.750000 0.398283 0.544170
O O18 0.878332 0.500000 0.476987
#
# Coordination Sequence:
#
# PCOD9401005 Si02
#       7
#     8   8   8   8   8   8   8
#     4   9  21  38  54  75 106 140 175 225 279 320
#     4  10  19  31  51  79 109 143 181 219 264 321
#     4   9  19  35  54  80 115 148 179 217 260 315
#     4   9  16  29  52  81 111 142 177 215 260 320
#     4  11  23  38  58  80 102 137 186 232 276 329
#     4   9  18  34  56  82 112 140 167 214 276 326
#     4   9  16  28  51  83 115 146 179 216 260 311
#
# _framework density 21.068355
#
# number of rings (size 3 to 8) (size 9 to 14) (size 15 to 20)
#    0.000    2.571    0.000    3.000    0.000    6.857 
#    0.000    2.143    0.000   13.714    0.000    2.000 
#    0.000    0.000    0.000    0.000    0.000    0.000 
#
# Total GULP energy -312177.832753 kJ/mol
# GULP energy per Si atom -5574.604156 kJ/mol
# Density = 2.102040 g / cm^3
# Si number density = 21.068355 Si / 1000 Ang^3
#
#
#
# Elastic Constant Matrix: (Units=GPa)
#
#
# Indices 1 2 3 4 5 6 
#
# 1 37.7023 21.9400 5.2708 0.0000 0.0000 0.0000
# 2 21.9400 165.0083 36.3559 0.0000 0.0000 0.0000
# 3 5.2708 36.3559 46.8167 0.0000 0.0000 0.0000
# 4 0.0000 0.0000 0.0000 20.7857 0.0000 0.0000
# 5 0.0000 0.0000 0.0000 0.0000 15.6249 0.0000
# 6 0.0000 0.0000 0.0000 0.0000 0.0000 19.6190
#
#
#
# Elastic Compliance Matrix: (Units=1/GPa)
#
#
# Indices 1 2 3 4 5 6 
#
# 1 0.028752 -0.003752 -0.000324 0.000000 0.000000 0.000000
# 2 -0.003752 0.007801 -0.005635 0.000000 0.000000 0.000000
# 3 -0.000324 -0.005635 0.025773 0.000000 0.000000 0.000000
# 4 0.000000 0.000000 0.000000 0.048110 0.000000 0.000000
# 5 0.000000 0.000000 0.000000 0.000000 0.064001 0.000000
# 6 0.000000 0.000000 0.000000 0.000000 0.000000 0.050971
#
#
# Mechanical properties :
#
#
# Convention : Reuss Voigt Hill
#
# Bulk Modulus (GPa) = 23.30787 41.85119 32.57953
# Shear Modulus (GPa) = 19.29538 23.60329 21.44934
#
# Velocity S-wave (km/s) = 3.02958 3.35075 3.19420
# Velocity P-wave (km/s) = 4.82957 5.90573 5.39455
#
# Compressibility (1/GPa) = 0.04290396
#
# Stress axis : x y z
#
# Youngs Moduli (GPa) = 34.78022 128.19268 38.80103
#
# Poissons Ratio (x) = 0.48093 0.01256
# Poissons Ratio (y) = 0.13048 0.21866
# Poissons Ratio (z) = 0.01126 0.72241
#
# Static dielectric constant tensor:
#      x y z
#    x 1.826300 0.000000 0.000000 
#    y 0.000000 1.810560 0.000000 
#    z 0.000000 0.000000 1.749680 
# 
# From -- ./inp_files/16625.got.cif
#   From: 2010.05.17/outbox.cif.g08.bks.cpg/sg51_9_cif.got.tgz:16625.got - 2010.06.03 11:52:47.
