data_PCOD9401282
_publ_section_title
;
Structure prediction by ZEFSAII (Michael W. Deem and Ramdas Pophale) SiO2 
 PCOD9401282
Probable space group: P M M A
;
_chemical_formula_sum "Si O2"
_cell_formula_units_Z 48
_cell_length_a 31.444043
_cell_length_b 8.865975
_cell_length_c 9.913099
_cell_angle_alpha 90.000000
_cell_angle_beta 90.000000
_cell_angle_gamma 90.000000
_cell_volume 2763.594548
_symmetry_space_group_name_H-M "P M M A"
_symmetry_group_IT_number 51
_symmetry_cell_setting 'orthorhombic'
loop_
_space_group_symop_operation_xyz
x,y,z
1/2-x,-y,z
1/2+x,-y,-z
-x,y,-z
-x,-y,-z
1/2+x,y,-z
1/2-x,y,z
x,-y,z
loop_
_atom_site_type_symbol
_atom_site_label
_atom_site_fract_x
_atom_site_fract_y
_atom_site_fract_z
Si Si1 0.389437 0.181372 0.196583
Si Si2 0.066870 0.319551 0.709933
Si Si3 0.360206 0.680223 0.925593
Si Si4 0.987204 0.818297 0.846427
Si Si5 0.370382 0.181178 0.499362
Si Si6 0.799217 0.682180 0.311838
O O1 0.438775 0.228461 0.180962
O O2 0.372490 0.227065 0.343105
O O3 0.388683 0.000000 0.189824
O O4 0.363525 0.244757 0.070467
O O5 0.066485 0.500000 0.696072
O O6 0.098189 0.280712 0.835734
O O7 0.089060 0.246175 0.580115
O O8 0.020709 0.256767 0.745604
O O9 0.359753 0.500000 0.941808
O O10 0.320213 0.723608 0.832220
O O11 0.990110 0.000000 0.833767
O O12 0.000000 0.778491 0.000000
O O13 0.328869 0.244523 0.574600
O O14 0.371061 0.000000 0.507627
O O15 0.750000 0.724950 0.321292
O O16 0.802530 0.500000 0.323432
#
# Coordination Sequence:
#
# PCOD9401282 Si02
#       6
#     8   8   8   8   8   8
#     4  10  21  35  51  76 108 142 177 219 266 311
#     4  10  20  34  52  76 105 140 183 224 263 306
#     4   9  18  32  53  78 103 133 169 213 260 309
#     4  10  19  32  52  75 103 143 187 225 265 309
#     4  10  21  36  54  77 109 143 176 216 264 316
#     4   9  19  38  61  83 106 133 170 214 261 319
#
# _framework density 17.368684999999999
#
# number of rings (size 3 to 8) (size 9 to 14) (size 15 to 20)
#    0.000    2.333    1.667    2.000    0.000    6.000 
#    0.000    4.167    0.000    3.000    0.000    0.000 
#    0.000    0.000    0.000    0.000    0.000    0.000 
#
# Total GULP energy -267842.608930 kJ/mol
# GULP energy per Si atom -5580.054353 kJ/mol
# Density = 1.732915 g / cm^3
# Si number density = 17.368685 Si / 1000 Ang^3
#
#
#
# Elastic Constant Matrix: (Units=GPa)
#
#
# Indices 1 2 3 4 5 6 
#
# 1 113.2365 30.1846 69.7216 0.0000 0.0000 0.0000
# 2 30.1846 21.1210 42.4074 0.0000 0.0000 0.0000
# 3 69.7216 42.4074 163.9898 0.0000 0.0000 0.0000
# 4 0.0000 0.0000 0.0000 16.6055 0.0000 0.0000
# 5 0.0000 0.0000 0.0000 0.0000 15.4248 0.0000
# 6 0.0000 0.0000 0.0000 0.0000 0.0000 18.8658
#
#
#
# Elastic Compliance Matrix: (Units=1/GPa)
#
#
# Indices 1 2 3 4 5 6 
#
# 1 0.014483 -0.017336 -0.001675 0.000000 0.000000 0.000000
# 2 -0.017336 0.119229 -0.023462 0.000000 0.000000 0.000000
# 3 -0.001675 -0.023462 0.012877 0.000000 0.000000 0.000000
# 4 0.000000 0.000000 0.000000 0.060221 0.000000 0.000000
# 5 0.000000 0.000000 0.000000 0.000000 0.064831 0.000000
# 6 0.000000 0.000000 0.000000 0.000000 0.000000 0.053006
#
#
# Mechanical properties :
#
#
# Convention : Reuss Voigt Hill
#
# Bulk Modulus (GPa) = 16.22213 64.77493 40.49853
# Shear Modulus (GPa) = 11.62413 20.58146 16.10280
#
# Velocity S-wave (km/s) = 2.58981 3.44608 3.04816
# Velocity P-wave (km/s) = 4.27820 7.29445 5.97963
#
# Compressibility (1/GPa) = 0.06164420
#
# Stress axis : x y z
#
# Youngs Moduli (GPa) = 69.04489 8.38725 77.65750
#
# Poissons Ratio (x) = 0.14540 0.13005
# Poissons Ratio (y) = 1.19697 1.82197
# Poissons Ratio (z) = 0.11562 0.19678
#
# Static dielectric constant tensor:
#      x y z
#    x 1.573110 0.000000 0.000000 
#    y 0.000000 1.584750 0.000000 
#    z 0.000000 0.000000 1.578920 
# 
# From -- ./inp_files/12721.got.cif
#   From: 2010.05.17/outbox.cif.g08.bks.cpg/sg51_7_cif.got.tgz:12721.got - 2010.06.03 11:52:47.
