data_PCOD9401845
_publ_section_title
;
Structure prediction by ZEFSAII (Michael W. Deem and Ramdas Pophale) SiO2 
 PCOD9401845
Probable space group: P M M A
;
_chemical_formula_sum "Si O2"
_cell_formula_units_Z 48
_cell_length_a 9.053468
_cell_length_b 20.386520
_cell_length_c 14.757578
_cell_angle_alpha 90.000000
_cell_angle_beta 90.000000
_cell_angle_gamma 90.000000
_cell_volume 2723.787082
_symmetry_space_group_name_H-M "P M M A"
_symmetry_group_IT_number 51
_symmetry_cell_setting 'orthorhombic'
loop_
_space_group_symop_operation_xyz
x,y,z
1/2-x,-y,z
1/2+x,-y,-z
-x,y,-z
-x,-y,-z
1/2+x,y,-z
1/2-x,y,z
x,-y,z
loop_
_atom_site_type_symbol
_atom_site_label
_atom_site_fract_x
_atom_site_fract_y
_atom_site_fract_z
Si Si1 0.572311 0.925787 0.207119
Si Si2 0.424463 0.421911 0.904034
Si Si3 0.074656 0.270323 0.594312
Si Si4 0.075588 0.886946 0.593043
Si Si5 0.425853 0.191941 0.097528
Si Si6 0.926096 0.318576 0.776190
O O1 0.750000 0.914813 0.204318
O O2 0.525506 0.918346 0.312453
O O3 0.492877 0.871595 0.146910
O O4 0.542828 0.000000 0.176559
O O5 0.250000 0.407320 0.908133
O O6 0.442477 0.500000 0.890173
O O7 0.501774 0.380425 0.825904
O O8 0.500000 0.405062 0.000000
O O9 0.250000 0.282017 0.592975
O O10 0.051906 0.191528 0.602716
O O11 0.000000 0.290662 0.500000
O O12 0.999155 0.304776 0.679403
O O13 0.250000 0.898930 0.584316
O O14 0.000000 0.908968 0.500000
O O15 0.250000 0.184898 0.087315
O O16 0.454806 0.255078 0.160545
O O17 0.500000 0.200742 0.000000
O O18 0.750000 0.326376 0.767680
#
# Coordination Sequence:
#
# PCOD9401845 Si02
#       6
#     8   8   8   8   8   8
#     4  10  21  38  57  77 105 142 183 227 279 335
#     4  10  21  37  58  86 120 156 191 228 274 328
#     4  10  19  33  55  82 114 148 183 230 279 329
#     4   9  18  32  52  78 107 140 176 221 274 328
#     4  11  24  39  57  80 107 139 182 230 278 330
#     4  11  22  36  58  87 115 148 188 230 276 329
#
# _framework density 17.622522
#
# number of rings (size 3 to 8) (size 9 to 14) (size 15 to 20)
#    0.000    1.833    1.667    2.500    0.000    6.667 
#    0.000    0.000    0.000    0.500    0.000    0.000 
#    0.000    0.000    0.000    0.000    0.000    0.000 
#
# Total GULP energy -268152.116271 kJ/mol
# GULP energy per Si atom -5586.502422 kJ/mol
# Density = 1.758241 g / cm^3
# Si number density = 17.622522 Si / 1000 Ang^3
#
#
#
# Elastic Constant Matrix: (Units=GPa)
#
#
# Indices 1 2 3 4 5 6 
#
# 1 77.8243 57.2517 70.9856 0.0000 0.0000 0.0000
# 2 57.2517 55.3261 52.9279 0.0000 0.0000 0.0000
# 3 70.9856 52.9279 143.0803 0.0000 0.0000 0.0000
# 4 0.0000 0.0000 0.0000 -36.5794 0.0000 0.0000
# 5 0.0000 0.0000 0.0000 0.0000 38.8202 0.0000
# 6 0.0000 0.0000 0.0000 0.0000 0.0000 21.2794
#
#
#
# Elastic Compliance Matrix: (Units=1/GPa)
#
#
# Indices 1 2 3 4 5 6 
#
# 1 0.063550 -0.055098 -0.011147 0.000000 0.000000 0.000000
# 2 -0.055098 0.075745 -0.000684 0.000000 0.000000 0.000000
# 3 -0.011147 -0.000684 0.012772 0.000000 0.000000 0.000000
# 4 0.000000 0.000000 0.000000 -0.027338 0.000000 0.000000
# 5 0.000000 0.000000 0.000000 0.000000 0.025760 0.000000
# 6 0.000000 0.000000 0.000000 0.000000 0.000000 0.046994
#
#
# Mechanical properties :
#
#
# Convention : Reuss Voigt Hill
#
# Bulk Modulus (GPa) = 54.91702 70.95124 62.93413
# Shear Modulus (GPa) = 14.81874 11.04173 12.93023
#
# Velocity S-wave (km/s) = 2.90297 2.50585 2.71169
# Velocity P-wave (km/s) = 6.51667 6.98008 6.75235
#
# Compressibility (1/GPa) = 0.01820929
#
# Stress axis : x y z
#
# Youngs Moduli (GPa) = 15.73562 13.20223 78.29463
#
# Poissons Ratio (x) = 0.72742 0.87275
# Poissons Ratio (y) = 0.86701 0.05353
# Poissons Ratio (z) = 0.17540 0.00903
#
# Static dielectric constant tensor:
#      x y z
#    x 1.585500 0.000000 0.000000 
#    y 0.000000 1.589580 0.000000 
#    z 0.000000 0.000000 1.576730 
# 
# From -- ./inp_files/21050.got.cif
#   From: 2010.05.17/outbox.cif.g08.bks.cpg/sg51_11_cif.got.tgz:21050.got - 2010.06.03 11:52:47.
