data_PCOD9401233
_publ_section_title
;
Structure prediction by ZEFSAII (Michael W. Deem and Ramdas Pophale) SiO2 
 PCOD9401233
Probable space group: P M M A
;
_chemical_formula_sum "Si O2"
_cell_formula_units_Z 44
_cell_length_a 8.690631
_cell_length_b 29.900657
_cell_length_c 9.387043
_cell_angle_alpha 90.000000
_cell_angle_beta 90.000000
_cell_angle_gamma 90.000000
_cell_volume 2439.275472
_symmetry_space_group_name_H-M "P M M A"
_symmetry_group_IT_number 51
_symmetry_cell_setting 'orthorhombic'
loop_
_space_group_symop_operation_xyz
x,y,z
1/2-x,-y,z
1/2+x,-y,-z
-x,y,-z
-x,-y,-z
1/2+x,y,-z
1/2-x,y,z
x,-y,z
loop_
_atom_site_type_symbol
_atom_site_label
_atom_site_fract_x
_atom_site_fract_y
_atom_site_fract_z
Si Si1 0.934565 0.276561 0.838617
Si Si2 0.064406 0.000000 0.658598
Si Si3 0.565532 0.178875 0.838787
Si Si4 0.565333 0.086591 0.160371
Si Si5 0.934304 0.550541 0.659355
Si Si6 0.566692 0.368375 0.159857
O O1 0.750000 0.280645 0.844177
O O2 0.972918 0.227699 0.774385
O O3 0.005237 0.321586 0.774222
O O4 0.000000 0.275418 0.000000
O O5 0.017104 0.044307 0.745294
O O6 0.000000 0.000000 0.500000
O O7 0.250000 0.000000 0.652710
O O8 0.750000 0.175040 0.844364
O O9 0.495194 0.133595 0.776209
O O10 0.500000 0.179829 0.000000
O O11 0.750000 0.088098 0.151897
O O12 0.500000 0.081814 0.000000
O O13 0.750000 0.555601 0.656888
O O14 0.969590 0.500000 0.711262
O O15 0.000000 0.554036 0.500000
O O16 0.008372 0.588996 0.753929
O O17 0.750000 0.367102 0.153853
O O18 0.500000 0.371306 0.000000
#
# Coordination Sequence:
#
# PCOD9401233 Si02
#       6
#     8   4   8   8   8   8
#     4   9  16  27  44  69 102 134 166 204 248 300
#     4  10  23  38  52  72  98 132 169 204 248 300
#     4   9  16  26  44  71 100 131 164 202 248 294
#     4  10  19  32  51  76 102 128 164 207 248 294
#     4  10  21  38  58  78 102 134 172 213 258 309
#     4  11  21  33  52  78 108 140 174 213 257 303
#
# _framework density 18.038143000000002
#
# number of rings (size 3 to 8) (size 9 to 14) (size 15 to 20)
#    0.000    2.182    0.000    6.273    0.000    5.091 
#    0.000    0.000    0.000    1.091    0.000    2.545 
#    0.000    0.000    0.000    0.000    0.000    0.000 
#
# Total GULP energy -245318.134434 kJ/mol
# GULP energy per Si atom -5575.412146 kJ/mol
# Density = 1.799709 g / cm^3
# Si number density = 18.038143 Si / 1000 Ang^3
#
#
#
# Elastic Constant Matrix: (Units=GPa)
#
#
# Indices 1 2 3 4 5 6 
#
# 1 98.1234 79.3712 24.6737 0.0000 0.0000 0.0000
# 2 79.3712 230.1580 63.4205 0.0000 0.0000 0.0000
# 3 24.6737 63.4205 41.5557 0.0000 0.0000 0.0000
# 4 0.0000 0.0000 0.0000 -5.9030 0.0000 0.0000
# 5 0.0000 0.0000 0.0000 0.0000 22.4261 0.0000
# 6 0.0000 0.0000 0.0000 0.0000 0.0000 32.4573
#
#
#
# Elastic Compliance Matrix: (Units=1/GPa)
#
#
# Indices 1 2 3 4 5 6 
#
# 1 0.014199 -0.004441 -0.001653 0.000000 0.000000 0.000000
# 2 -0.004441 0.008887 -0.010926 0.000000 0.000000 0.000000
# 3 -0.001653 -0.010926 0.041721 0.000000 0.000000 0.000000
# 4 0.000000 0.000000 0.000000 -0.169406 0.000000 0.000000
# 5 0.000000 0.000000 0.000000 0.000000 0.044591 0.000000
# 6 0.000000 0.000000 0.000000 0.000000 0.000000 0.030810
#
#
# Mechanical properties :
#
#
# Convention : Reuss Voigt Hill
#
# Bulk Modulus (GPa) = 32.50282 78.30754 55.40518
# Shear Modulus (GPa) = 331.17803 23.28753 177.23278
#
# Velocity S-wave (km/s) = 13.56456 3.59697 9.92309
# Velocity P-wave (km/s) = 16.22923 7.79470 12.73077
#
# Compressibility (1/GPa) = 0.03076656
#
# Stress axis : x y z
#
# Youngs Moduli (GPa) = 70.42556 112.52148 23.96899
#
# Poissons Ratio (x) = 0.49974 0.03962
# Poissons Ratio (y) = 0.31278 0.26189
# Poissons Ratio (z) = 0.11640 1.22943
#
# Static dielectric constant tensor:
#      x y z
#    x 1.600120 0.000000 0.000000 
#    y 0.000000 1.685070 0.000000 
#    z 0.000000 0.000000 1.584810 
# 
# From -- ./inp_files/5828.got.cif
#   From: 2010.05.17/outbox.cif.g08.bks.cpg/sg51_3_cif.got.tgz:5828.got - 2010.06.03 11:52:47.
