data_PCOD9401787
_publ_section_title
;
Structure prediction by ZEFSAII (Michael W. Deem and Ramdas Pophale) SiO2 
 PCOD9401787
Probable space group: P M M A
;
_chemical_formula_sum "Si O2"
_cell_formula_units_Z 64
_cell_length_a 20.644719
_cell_length_b 8.656906
_cell_length_c 20.536818
_cell_angle_alpha 90.000000
_cell_angle_beta 90.000000
_cell_angle_gamma 90.000000
_cell_volume 3670.327622
_symmetry_space_group_name_H-M "P M M A"
_symmetry_group_IT_number 51
_symmetry_cell_setting 'orthorhombic'
loop_
_space_group_symop_operation_xyz
x,y,z
1/2-x,-y,z
1/2+x,-y,-z
-x,y,-z
-x,-y,-z
1/2+x,y,-z
1/2-x,y,z
x,-y,z
loop_
_atom_site_type_symbol
_atom_site_label
_atom_site_fract_x
_atom_site_fract_y
_atom_site_fract_z
Si Si1 0.822557 0.186549 0.569900
Si Si2 0.099952 0.186006 0.306480
Si Si3 0.929267 0.686391 0.472450
Si Si4 0.435831 0.314300 0.815971
Si Si5 0.958392 0.313913 0.330016
Si Si6 0.675581 0.814794 0.091818
Si Si7 0.675489 0.685182 0.947181
Si Si8 0.421567 0.185619 0.160315
O O1 0.750000 0.241078 0.556461
O O2 0.845719 0.234433 0.642203
O O3 0.873768 0.246160 0.517707
O O4 0.822924 0.000000 0.568444
O O5 0.107391 0.231694 0.231129
O O6 0.031695 0.252927 0.330497
O O7 0.095992 0.000000 0.307650
O O8 0.925995 0.500000 0.475076
O O9 0.924510 0.736050 0.396885
O O10 0.000000 0.731730 0.500000
O O11 0.437616 0.500000 0.819058
O O12 0.429346 0.266582 0.739803
O O13 0.376931 0.252093 0.858709
O O14 0.505081 0.249922 0.840636
O O15 0.960402 0.500000 0.330709
O O16 0.750000 0.772093 0.109040
O O17 0.671154 0.000000 0.090795
O O18 0.663188 0.750881 0.019311
O O19 0.750000 0.727852 0.929578
O O20 0.671329 0.500000 0.948964
O O21 0.623810 0.750359 0.896364
O O22 0.424041 0.000000 0.156645
#
# Coordination Sequence:
#
# PCOD9401787 Si02
#       8
#     8   8   8   8   8   8   8   8
#     4  10  21  35  50  74 108 142 178 220 265 315
#     4   9  18  32  51  74 102 138 176 214 259 312
#     4  10  19  33  55  79 102 135 178 222 265 314
#     4  10  20  35  56  81 110 141 175 221 271 320
#     4   9  18  33  53  78 105 133 171 218 264 313
#     4  10  21  38  59  81 106 138 178 223 270 322
#     4  10  21  37  56  79 108 142 181 222 265 319
#     4  10  20  34  54  81 111 143 179 220 266 315
#
# _framework density 17.437137
#
# number of rings (size 3 to 8) (size 9 to 14) (size 15 to 20)
#    0.000    2.250    1.250    1.500    0.000    4.500 
#    0.000    4.375    0.000    3.750    0.000    0.000 
#    0.000    0.000    0.000    0.000    0.000    0.000 
#
# Total GULP energy -357029.375253 kJ/mol
# GULP energy per Si atom -5578.583988 kJ/mol
# Density = 1.739745 g / cm^3
# Si number density = 17.437137 Si / 1000 Ang^3
#
#
#
# Elastic Constant Matrix: (Units=GPa)
#
#
# Indices 1 2 3 4 5 6 
#
# 1 145.2008 39.8922 114.7364 0.0000 0.0000 0.0000
# 2 39.8922 32.6489 41.9349 0.0000 0.0000 0.0000
# 3 114.7364 41.9349 146.6799 0.0000 0.0000 0.0000
# 4 0.0000 0.0000 0.0000 23.3151 0.0000 0.0000
# 5 0.0000 0.0000 0.0000 0.0000 27.7322 0.0000
# 6 0.0000 0.0000 0.0000 0.0000 0.0000 23.2970
#
#
#
# Elastic Compliance Matrix: (Units=1/GPa)
#
#
# Indices 1 2 3 4 5 6 
#
# 1 0.018861 -0.006473 -0.012903 0.000000 0.000000 0.000000
# 2 -0.006473 0.050624 -0.009410 0.000000 0.000000 0.000000
# 3 -0.012903 -0.009410 0.019601 0.000000 0.000000 0.000000
# 4 0.000000 0.000000 0.000000 0.042891 0.000000 0.000000
# 5 0.000000 0.000000 0.000000 0.000000 0.036059 0.000000
# 6 0.000000 0.000000 0.000000 0.000000 0.000000 0.042924
#
#
# Mechanical properties :
#
#
# Convention : Reuss Voigt Hill
#
# Bulk Modulus (GPa) = 31.73148 79.73964 55.73556
# Shear Modulus (GPa) = 17.91876 23.39992 20.65934
#
# Velocity S-wave (km/s) = 3.20913 3.66725 3.44581
# Velocity P-wave (km/s) = 5.65407 7.98503 6.91842
#
# Compressibility (1/GPa) = 0.03151444
#
# Stress axis : x y z
#
# Youngs Moduli (GPa) = 53.01837 19.75353 51.01736
#
# Poissons Ratio (x) = 0.12785 0.65830
# Poissons Ratio (y) = 0.34316 0.48008
# Poissons Ratio (z) = 0.68412 0.18588
#
# Static dielectric constant tensor:
#      x y z
#    x 1.561750 0.000000 0.000000 
#    y 0.000000 1.592420 0.000000 
#    z 0.000000 0.000000 1.599160 
# 
# From -- ./inp_files/30524.got.cif
#   From: 2010.05.17/outbox.cif.g08.bks.cpg/sg51_16_cif.got.tgz:30524.got - 2010.06.03 11:52:47.
