data_PCOD9401077
_publ_section_title
;
Structure prediction by ZEFSAII (Michael W. Deem and Ramdas Pophale) SiO2 
 PCOD9401077
Probable space group: P M M A
;
_chemical_formula_sum "Si O2"
_cell_formula_units_Z 36
_cell_length_a 9.394899
_cell_length_b 12.519405
_cell_length_c 20.086103
_cell_angle_alpha 90.000000
_cell_angle_beta 90.000000
_cell_angle_gamma 90.000000
_cell_volume 2362.498220
_symmetry_space_group_name_H-M "P M M A"
_symmetry_group_IT_number 51
_symmetry_cell_setting 'orthorhombic'
loop_
_space_group_symop_operation_xyz
x,y,z
1/2-x,-y,z
1/2+x,-y,-z
-x,y,-z
-x,-y,-z
1/2+x,y,-z
1/2-x,y,z
x,-y,z
loop_
_atom_site_type_symbol
_atom_site_label
_atom_site_fract_x
_atom_site_fract_y
_atom_site_fract_z
Si Si1 0.086077 0.369873 0.934688
Si Si2 0.082917 0.872498 0.568051
Si Si3 0.418052 0.372598 0.197060
Si Si4 0.579806 0.289373 0.657029
Si Si5 0.580454 0.500000 0.569876
O O1 0.250000 0.336050 0.937131
O O2 0.084191 0.500000 0.935210
O O3 0.009428 0.337529 0.866325
O O4 0.000000 0.334686 0.000000
O O5 0.250000 0.846306 0.561779
O O6 0.000000 0.844779 0.500000
O O7 0.009312 0.807319 0.626911
O O8 0.070065 0.000000 0.577787
O O9 0.250000 0.358173 0.182991
O O10 0.439864 0.500000 0.207220
O O11 0.452579 0.314401 0.266036
O O12 0.750000 0.269809 0.651555
O O13 0.547355 0.394932 0.613321
O O14 0.750000 0.500000 0.557837
O O15 0.500000 0.500000 0.500000
#
# Coordination Sequence:
#
# PCOD9401077 Si02
#       5
#     8   8   8   8   4
#     4   9  16  25  38  58  84 117 156 192 222 260
#     4  10  21  36  52  69  89 115 151 196 241 280
#     4   9  16  28  44  62  89 123 152 183 224 269
#     4  10  19  32  49  68  93 122 153 187 229 278
#     4  10  20  32  44  64  91 120 151 184 223 270
#
# _framework density 15.238106
#
# number of rings (size 3 to 8) (size 9 to 14) (size 15 to 20)
#    0.000    2.444    1.111    2.000    0.000    7.556 
#    0.000    0.000    0.000    0.000    0.000    0.000 
#    0.000    0.889    0.000    2.889    0.000    4.222 
#
# Total GULP energy -200753.889476 kJ/mol
# GULP energy per Si atom -5576.496930 kJ/mol
# Density = 1.520342 g / cm^3
# Si number density = 15.238106 Si / 1000 Ang^3
#
#
#
# Elastic Constant Matrix: (Units=GPa)
#
#
# Indices 1 2 3 4 5 6 
#
# 1 99.1264 39.0044 98.3476 0.0000 0.0000 0.0000
# 2 39.0044 27.3502 38.2751 0.0000 0.0000 0.0000
# 3 98.3476 38.2751 160.3783 0.0000 0.0000 0.0000
# 4 0.0000 0.0000 0.0000 14.2313 0.0000 0.0000
# 5 0.0000 0.0000 0.0000 0.0000 32.6256 0.0000
# 6 0.0000 0.0000 0.0000 0.0000 0.0000 20.5262
#
#
#
# Elastic Compliance Matrix: (Units=1/GPa)
#
#
# Indices 1 2 3 4 5 6 
#
# 1 0.039106 -0.033347 -0.016022 0.000000 0.000000 0.000000
# 2 -0.033347 0.083335 0.000561 0.000000 0.000000 0.000000
# 3 -0.016022 0.000561 0.015926 0.000000 0.000000 0.000000
# 4 0.000000 0.000000 0.000000 0.070267 0.000000 0.000000
# 5 0.000000 0.000000 0.000000 0.000000 0.030651 0.000000
# 6 0.000000 0.000000 0.000000 0.000000 0.000000 0.048718
#
#
# Mechanical properties :
#
#
# Convention : Reuss Voigt Hill
#
# Bulk Modulus (GPa) = 24.53967 70.90101 47.72034
# Shear Modulus (GPa) = 12.52492 20.89181 16.70837
#
# Velocity S-wave (km/s) = 2.87007 3.70675 3.31492
# Velocity P-wave (km/s) = 5.20790 8.05914 6.78498
#
# Compressibility (1/GPa) = 0.04075035
#
# Stress axis : x y z
#
# Youngs Moduli (GPa) = 25.57154 11.99979 62.78854
#
# Poissons Ratio (x) = 0.40016 1.00601
# Poissons Ratio (y) = 0.85275 -0.03523
# Poissons Ratio (z) = 0.40971 -0.00673
#
# Static dielectric constant tensor:
#      x y z
#    x 1.506440 0.000000 0.000000 
#    y 0.000000 1.485830 0.000000 
#    z 0.000000 0.000000 1.493030 
# 
# From -- ./inp_files/27049.got.cif
#   From: 2010.05.17/outbox.cif.g08.bks.cpg/sg51_14_cif.got.tgz:27049.got - 2010.06.03 11:52:47.
