data_PCOD9401245
_publ_section_title
;
Structure prediction by ZEFSAII (Michael W. Deem and Ramdas Pophale) SiO2 
 PCOD9401245
Probable space group: P M M A
;
_chemical_formula_sum "Si O2"
_cell_formula_units_Z 40
_cell_length_a 8.519258
_cell_length_b 26.866851
_cell_length_c 9.938788
_cell_angle_alpha 90.000000
_cell_angle_beta 90.000000
_cell_angle_gamma 90.000000
_cell_volume 2274.845806
_symmetry_space_group_name_H-M "P M M A"
_symmetry_group_IT_number 51
_symmetry_cell_setting 'orthorhombic'
loop_
_space_group_symop_operation_xyz
x,y,z
1/2-x,-y,z
1/2+x,-y,-z
-x,y,-z
-x,-y,-z
1/2+x,y,-z
1/2-x,y,z
x,-y,z
loop_
_atom_site_type_symbol
_atom_site_label
_atom_site_fract_x
_atom_site_fract_y
_atom_site_fract_z
Si Si1 0.939430 0.946612 0.846522
Si Si2 0.439021 0.162835 0.153378
Si Si3 0.439510 0.556113 0.150391
Si Si4 0.061254 0.643313 0.349321
Si Si5 0.437092 0.751824 0.651192
O O1 0.750000 0.946669 0.847742
O O2 0.987916 0.892386 0.793129
O O3 0.990853 0.000000 0.785284
O O4 0.000000 0.946975 0.000000
O O5 0.250000 0.165273 0.151500
O O6 0.504866 0.205860 0.247704
O O7 0.500000 0.167766 0.000000
O O8 0.250000 0.556763 0.148278
O O9 0.489349 0.500000 0.190125
O O10 0.492223 0.599063 0.251639
O O11 0.500000 0.565268 0.000000
O O12 0.250000 0.644678 0.351332
O O13 0.000000 0.634662 0.500000
O O14 0.999631 0.697469 0.305991
O O15 0.500000 0.760865 0.500000
O O16 0.250000 0.750657 0.647150
#
# Coordination Sequence:
#
# PCOD9401245 Si02
#       5
#     8   8   8   8   8
#     4   8  14  25  43  68  98 130 162 200 246 294
#     4  10  19  32  51  77 106 134 169 210 252 300
#     4   9  19  35  54  77 105 135 166 202 245 294
#     4  10  20  35  54  76 102 131 168 209 249 297
#     4  11  22  37  55  74 100 134 172 212 258 307
#
# _framework density 17.583608000000002
#
# number of rings (size 3 to 8) (size 9 to 14) (size 15 to 20)
#    0.000    2.400    0.000    4.200    0.000    3.600 
#    0.000    2.000    0.000    0.600    0.000    0.000 
#    0.000    0.000    0.000    0.000    0.000    0.000 
#
# Total GULP energy -222937.697328 kJ/mol
# GULP energy per Si atom -5573.442433 kJ/mol
# Density = 1.754359 g / cm^3
# Si number density = 17.583608 Si / 1000 Ang^3
#
#
#
# Elastic Constant Matrix: (Units=GPa)
#
#
# Indices 1 2 3 4 5 6 
#
# 1 62.4178 47.4340 24.5460 0.0000 0.0000 0.0000
# 2 47.4340 221.8666 103.8248 0.0000 0.0000 0.0000
# 3 24.5460 103.8248 63.0031 0.0000 0.0000 0.0000
# 4 0.0000 0.0000 0.0000 283.7820 0.0000 0.0000
# 5 0.0000 0.0000 0.0000 0.0000 27.9163 0.0000
# 6 0.0000 0.0000 0.0000 0.0000 0.0000 -12.7251
#
#
#
# Elastic Compliance Matrix: (Units=1/GPa)
#
#
# Indices 1 2 3 4 5 6 
#
# 1 0.019270 -0.002651 -0.003139 0.000000 0.000000 0.000000
# 2 -0.002651 0.020061 -0.032027 0.000000 0.000000 0.000000
# 3 -0.003139 -0.032027 0.069873 0.000000 0.000000 0.000000
# 4 0.000000 0.000000 0.000000 0.003524 0.000000 0.000000
# 5 0.000000 0.000000 0.000000 0.000000 0.035821 0.000000
# 6 0.000000 0.000000 0.000000 0.000000 0.000000 -0.078585
#
#
# Mechanical properties :
#
#
# Convention : Reuss Voigt Hill
#
# Bulk Modulus (GPa) = 29.78783 77.65524 53.72153
# Shear Modulus (GPa) = 31.88999 71.22681 51.55840
#
# Velocity S-wave (km/s) = 4.26328 6.37146 5.42084
# Velocity P-wave (km/s) = 6.41962 9.91900 8.35458
#
# Compressibility (1/GPa) = 0.03357076
#
# Stress axis : x y z
#
# Youngs Moduli (GPa) = 51.89399 49.84748 14.31161
#
# Poissons Ratio (x) = 0.13213 0.04493
# Poissons Ratio (y) = 0.13756 0.45835
# Poissons Ratio (z) = 0.16292 1.59645
#
# Static dielectric constant tensor:
#      x y z
#    x 1.590970 0.000000 0.000000 
#    y 0.000000 1.643990 0.000000 
#    z 0.000000 0.000000 1.537180 
# 
# From -- ./inp_files/5214.got.cif
#   From: 2010.05.17/outbox.cif.g08.bks.cpg/sg51_3_cif.got.tgz:5214.got - 2010.06.03 11:52:47.
