data_PCOD9401486
_publ_section_title
;
Structure prediction by ZEFSAII (Michael W. Deem and Ramdas Pophale) SiO2 
 PCOD9401486
Probable space group: P M M A
;
_chemical_formula_sum "Si O2"
_cell_formula_units_Z 44
_cell_length_a 9.499739
_cell_length_b 7.635481
_cell_length_c 30.962445
_cell_angle_alpha 90.000000
_cell_angle_beta 90.000000
_cell_angle_gamma 90.000000
_cell_volume 2245.863321
_symmetry_space_group_name_H-M "P M M A"
_symmetry_group_IT_number 51
_symmetry_cell_setting 'orthorhombic'
loop_
_space_group_symop_operation_xyz
x,y,z
1/2-x,-y,z
1/2+x,-y,-z
-x,y,-z
-x,-y,-z
1/2+x,y,-z
1/2-x,y,z
x,-y,z
loop_
_atom_site_type_symbol
_atom_site_label
_atom_site_fract_x
_atom_site_fract_y
_atom_site_fract_z
Si Si1 0.918136 0.000000 0.455293
Si Si2 0.911970 0.785554 0.218354
Si Si3 0.086282 0.701047 0.612727
Si Si4 0.088795 0.209913 0.136185
Si Si5 0.587839 0.787733 0.697788
Si Si6 0.410136 0.289431 0.040281
O O1 0.952673 0.832205 0.425642
O O2 0.000000 0.000000 0.500000
O O3 0.750000 0.000000 0.463114
O O4 0.750000 0.728943 0.220257
O O5 0.990551 0.726326 0.174841
O O6 0.000133 0.730235 0.260289
O O7 0.911553 0.000000 0.218174
O O8 0.250000 0.738891 0.624601
O O9 0.077549 0.500000 0.598647
O O10 0.989517 0.728621 0.654363
O O11 0.250000 0.277414 0.139466
O O12 0.034036 0.248737 0.088102
O O13 0.096180 0.000000 0.140351
O O14 0.750000 0.729733 0.699637
O O15 0.587817 0.000000 0.697789
O O16 0.250000 0.222180 0.038345
O O17 0.404857 0.500000 0.036838
O O18 0.500000 0.222867 0.000000
#
# Coordination Sequence:
#
# PCOD9401486 Si02
#       6
#     4   8   8   8   8   8
#     4  10  22  40  62  88 120 156 196 240 287 340
#     4   9  17  29  48  74 103 137 175 214 260 316
#     4  10  21  38  60  86 117 154 195 239 287 337
#     4   9  17  30  47  68  95 125 161 206 255 307
#     4  10  19  32  54  82 111 146 187 228 274 329
#     4   9  18  32  48  65  87 118 155 196 247 306
#
# _framework density 19.591574000000001
#
# number of rings (size 3 to 8) (size 9 to 14) (size 15 to 20)
#    0.000    2.545    0.909    1.091    0.000    5.455 
#    0.000    0.909    0.000    3.273    0.000    0.000 
#    0.000    0.000    0.000    0.000    0.000    0.000 
#
# Total GULP energy -245653.518126 kJ/mol
# GULP energy per Si atom -5583.034503 kJ/mol
# Density = 1.954698 g / cm^3
# Si number density = 19.591574 Si / 1000 Ang^3
#
#
#
# Elastic Constant Matrix: (Units=GPa)
#
#
# Indices 1 2 3 4 5 6 
#
# 1 124.5609 31.4844 117.7313 0.0000 0.0000 0.0000
# 2 31.4844 56.2561 38.5995 0.0000 0.0000 0.0000
# 3 117.7313 38.5995 215.1588 0.0000 0.0000 0.0000
# 4 0.0000 0.0000 0.0000 200.9272 0.0000 0.0000
# 5 0.0000 0.0000 0.0000 0.0000 42.1532 0.0000
# 6 0.0000 0.0000 0.0000 0.0000 0.0000 4.5364
#
#
#
# Elastic Compliance Matrix: (Units=1/GPa)
#
#
# Indices 1 2 3 4 5 6 
#
# 1 0.017252 -0.003624 -0.008790 0.000000 0.000000 0.000000
# 2 -0.003624 0.021032 -0.001790 0.000000 0.000000 0.000000
# 3 -0.008790 -0.001790 0.009779 0.000000 0.000000 0.000000
# 4 0.000000 0.000000 0.000000 0.004977 0.000000 0.000000
# 5 0.000000 0.000000 0.000000 0.000000 0.023723 0.000000
# 6 0.000000 0.000000 0.000000 0.000000 0.000000 0.220439
#
#
# Mechanical properties :
#
#
# Convention : Reuss Voigt Hill
#
# Bulk Modulus (GPa) = 50.87850 85.73403 68.30626
# Shear Modulus (GPa) = 15.05285 63.40073 39.22679
#
# Velocity S-wave (km/s) = 2.77489 5.69486 4.47948
# Velocity P-wave (km/s) = 6.02434 9.33261 7.85462
#
# Compressibility (1/GPa) = 0.01965467
#
# Stress axis : x y z
#
# Youngs Moduli (GPa) = 57.96315 47.54553 102.26412
#
# Poissons Ratio (x) = 0.17232 0.89890
# Poissons Ratio (y) = 0.21008 0.18306
# Poissons Ratio (z) = 0.50950 0.08511
#
# Static dielectric constant tensor:
#      x y z
#    x 1.673970 0.000000 0.000000 
#    y 0.000000 1.721970 0.000000 
#    z 0.000000 0.000000 1.641390 
# 
# From -- ./inp_files/36744.got.cif
#   From: 2010.05.17/outbox.cif.g08.bks.cpg/sg51_19_cif.got.tgz:36744.got - 2010.06.03 11:52:47.
