data_PCOD9401947
_publ_section_title
;
Structure prediction by ZEFSAII (Michael W. Deem and Ramdas Pophale) SiO2 
 PCOD9401947
Probable space group: P M M A
;
_chemical_formula_sum "Si O2"
_cell_formula_units_Z 52
_cell_length_a 15.915497
_cell_length_b 14.400499
_cell_length_c 14.198130
_cell_angle_alpha 90.000000
_cell_angle_beta 90.000000
_cell_angle_gamma 90.000000
_cell_volume 3254.085013
_symmetry_space_group_name_H-M "P M M A"
_symmetry_group_IT_number 51
_symmetry_cell_setting 'orthorhombic'
loop_
_space_group_symop_operation_xyz
x,y,z
1/2-x,-y,z
1/2+x,-y,-z
-x,y,-z
-x,-y,-z
1/2+x,y,-z
1/2-x,y,z
x,-y,z
loop_
_atom_site_type_symbol
_atom_site_label
_atom_site_fract_x
_atom_site_fract_y
_atom_site_fract_z
Si Si1 0.750000 0.605954 0.866033
Si Si2 0.416708 0.887293 0.554311
Si Si3 0.750000 0.802402 0.770375
Si Si4 0.154646 0.204297 0.935000
Si Si5 0.750000 0.112291 0.564432
Si Si6 0.899874 0.603540 0.019426
Si Si7 0.092553 0.888391 0.120460
Si Si8 0.078063 0.888889 0.769120
O O1 0.750000 0.500000 0.827478
O O2 0.750000 0.692520 0.794639
O O3 0.834981 0.613368 0.930681
O O4 0.500000 0.854980 0.500000
O O5 0.332734 0.865673 0.496553
O O6 0.416297 0.854313 0.662284
O O7 0.420927 0.000000 0.557859
O O8 0.750000 0.830996 0.661237
O O9 0.830562 0.849418 0.818983
O O10 0.250000 0.204934 0.970362
O O11 0.124355 0.308910 0.917899
O O12 0.148331 0.148593 0.838778
O O13 0.099715 0.157372 0.017455
O O14 0.750000 0.000000 0.584122
O O15 0.884021 0.500000 0.057788
O O16 0.000000 0.609516 0.000000
O O17 0.008628 0.864126 0.177844
O O18 0.097212 0.000000 0.110639
O O19 0.082114 0.000000 0.766165
#
# Coordination Sequence:
#
# PCOD9401947 Si02
#       8
#     4   8   4   8   4   8   8   8
#     4  10  20  36  53  77 104 130 171 214 256 306
#     4   9  18  35  52  70  95 130 173 218 261 294
#     4  12  20  32  51  78  99 135 167 213 260 305
#     4  12  22  33  48  74 107 143 173 210 249 307
#     4  10  20  32  52  75 101 129 168 219 260 307
#     4  10  19  34  54  72  98 135 171 213 259 300
#     4  11  20  32  47  71 106 142 175 206 242 299
#     4  10  22  34  50  71 103 143 179 213 251 303
#
# _framework density 15.979914000000001
#
# number of rings (size 3 to 8) (size 9 to 14) (size 15 to 20)
#    0.000    1.538    3.077    3.462    1.077    4.615 
#    0.000    0.000    0.000    0.000    0.000    1.077 
#    0.000    2.462    0.000    0.000    0.000    0.000 
#
# Total GULP energy -289958.572450 kJ/mol
# GULP energy per Si atom -5576.126393 kJ/mol
# Density = 1.594354 g / cm^3
# Si number density = 15.979914 Si / 1000 Ang^3
#
#
#
# Elastic Constant Matrix: (Units=GPa)
#
#
# Indices 1 2 3 4 5 6 
#
# 1 104.5381 34.1431 43.1351 0.0000 0.0000 0.0000
# 2 34.1431 33.6876 28.7642 0.0000 0.0000 0.0000
# 3 43.1351 28.7642 120.4714 0.0000 0.0000 0.0000
# 4 0.0000 0.0000 0.0000 11.8359 0.0000 0.0000
# 5 0.0000 0.0000 0.0000 0.0000 15.4528 0.0000
# 6 0.0000 0.0000 0.0000 0.0000 0.0000 15.8740
#
#
#
# Elastic Compliance Matrix: (Units=1/GPa)
#
#
# Indices 1 2 3 4 5 6 
#
# 1 0.014729 -0.013094 -0.002147 0.000000 0.000000 0.000000
# 2 -0.013094 0.048928 -0.006994 0.000000 0.000000 0.000000
# 3 -0.002147 -0.006994 0.010739 0.000000 0.000000 0.000000
# 4 0.000000 0.000000 0.000000 0.084489 0.000000 0.000000
# 5 0.000000 0.000000 0.000000 0.000000 0.064713 0.000000
# 6 0.000000 0.000000 0.000000 0.000000 0.000000 0.062996
#
#
# Mechanical properties :
#
#
# Convention : Reuss Voigt Hill
#
# Bulk Modulus (GPa) = 33.41675 52.30911 42.86293
# Shear Modulus (GPa) = 14.66107 18.80952 16.73529
#
# Velocity S-wave (km/s) = 3.03226 3.43457 3.23967
# Velocity P-wave (km/s) = 5.76338 6.96661 6.39337
#
# Compressibility (1/GPa) = 0.02992511
#
# Stress axis : x y z
#
# Youngs Moduli (GPa) = 67.89493 20.43833 93.11561
#
# Poissons Ratio (x) = 0.26763 0.19993
# Poissons Ratio (y) = 0.88905 0.65122
# Poissons Ratio (z) = 0.14578 0.14294
#
# Static dielectric constant tensor:
#      x y z
#    x 1.582270 0.000000 0.000000 
#    y 0.000000 1.529280 0.000000 
#    z 0.000000 0.000000 1.523930 
# 
# From -- ./inp_files/17431.got.cif
#   From: 2010.05.17/outbox.cif.g08.bks.cpg/sg51_9_cif.got.tgz:17431.got - 2010.06.03 11:52:47.
