data_PCOD9401759
_publ_section_title
;
Structure prediction by ZEFSAII (Michael W. Deem and Ramdas Pophale) SiO2 
 PCOD9401759
Probable space group: P M M A
;
_chemical_formula_sum "Si O2"
_cell_formula_units_Z 48
_cell_length_a 8.772057
_cell_length_b 16.626691
_cell_length_c 18.962492
_cell_angle_alpha 90.000000
_cell_angle_beta 90.000000
_cell_angle_gamma 90.000000
_cell_volume 2765.684790
_symmetry_space_group_name_H-M "P M M A"
_symmetry_group_IT_number 51
_symmetry_cell_setting 'orthorhombic'
loop_
_space_group_symop_operation_xyz
x,y,z
1/2-x,-y,z
1/2+x,-y,-z
-x,y,-z
-x,-y,-z
1/2+x,y,-z
1/2-x,y,z
x,-y,z
loop_
_atom_site_type_symbol
_atom_site_label
_atom_site_fract_x
_atom_site_fract_y
_atom_site_fract_z
Si Si1 0.067562 0.408288 0.211142
Si Si2 0.066852 0.175936 0.421154
Si Si3 0.068112 0.672530 0.923392
Si Si4 0.068083 0.000000 0.079439
Si Si5 0.067222 0.000000 0.421708
Si Si6 0.067307 0.743454 0.711271
Si Si7 0.932429 0.158275 0.151599
O O1 0.250000 0.400023 0.213741
O O2 0.027108 0.500000 0.228870
O O3 0.008768 0.385824 0.133329
O O4 0.991686 0.342017 0.261108
O O5 0.250000 0.180854 0.424887
O O6 0.000000 0.184990 0.500000
O O7 0.000869 0.237006 0.364640
O O8 0.021817 0.086542 0.392166
O O9 0.250000 0.661397 0.922414
O O10 0.037545 0.764340 0.898149
O O11 0.000000 0.659669 0.000000
O O12 0.013104 0.079399 0.121531
O O13 0.250000 0.000000 0.074202
O O14 0.000000 0.000000 0.000000
O O15 0.000000 0.000000 0.500000
O O16 0.250000 0.000000 0.425416
O O17 0.250000 0.743223 0.709200
O O18 0.021386 0.810380 0.770350
O O19 0.750000 0.144149 0.152061
#
# Coordination Sequence:
#
# PCOD9401759 Si02
#       7
#     8   8   8   4   4   8   8
#     4  10  21  37  57  80 105 135 171 212 261 317
#     4  10  19  33  54  81 113 146 182 221 261 309
#     4  10  20  34  54  78 104 136 172 214 264 314
#     4  12  24  35  52  75 102 140 184 228 270 311
#     4   8  16  29  46  71 103 138 172 208 249 291
#     4  10  21  37  57  80 106 139 176 216 265 317
#     4   9  20  37  53  72 101 137 178 221 264 311
#
# _framework density 17.355556
#
# number of rings (size 3 to 8) (size 9 to 14) (size 15 to 20)
#    0.000    2.167    0.000    4.250    0.000    8.333 
#    0.000    1.667    0.000    0.500    0.000    0.000 
#    0.000    0.000    0.000    0.000    0.000    0.000 
#
# Total GULP energy -267784.044029 kJ/mol
# GULP energy per Si atom -5578.834251 kJ/mol
# Density = 1.731605 g / cm^3
# Si number density = 17.355556 Si / 1000 Ang^3
#
#
#
# Elastic Constant Matrix: (Units=GPa)
#
#
# Indices 1 2 3 4 5 6 
#
# 1 65.0843 52.8415 46.5882 0.0000 0.0000 0.0000
# 2 52.8415 112.9091 69.2371 0.0000 0.0000 0.0000
# 3 46.5882 69.2371 124.4196 0.0000 0.0000 0.0000
# 4 0.0000 0.0000 0.0000 10.2685 0.0000 0.0000
# 5 0.0000 0.0000 0.0000 0.0000 28.3067 0.0000
# 6 0.0000 0.0000 0.0000 0.0000 0.0000 26.8818
#
#
#
# Elastic Compliance Matrix: (Units=1/GPa)
#
#
# Indices 1 2 3 4 5 6 
#
# 1 0.026386 -0.009548 -0.004567 0.000000 0.000000 0.000000
# 2 -0.009548 0.016900 -0.005829 0.000000 0.000000 0.000000
# 3 -0.004567 -0.005829 0.012991 0.000000 0.000000 0.000000
# 4 0.000000 0.000000 0.000000 0.097386 0.000000 0.000000
# 5 0.000000 0.000000 0.000000 0.000000 0.035327 0.000000
# 6 0.000000 0.000000 0.000000 0.000000 0.000000 0.037200
#
#
# Mechanical properties :
#
#
# Convention : Reuss Voigt Hill
#
# Bulk Modulus (GPa) = 61.01790 71.08296 66.05043
# Shear Modulus (GPa) = 18.41350 22.00780 20.21065
#
# Velocity S-wave (km/s) = 3.26077 3.56484 3.41619
# Velocity P-wave (km/s) = 7.02927 7.61511 7.32805
#
# Compressibility (1/GPa) = 0.01638863
#
# Stress axis : x y z
#
# Youngs Moduli (GPa) = 37.89944 59.17258 76.97633
#
# Poissons Ratio (x) = 0.56499 0.35151
# Poissons Ratio (y) = 0.36187 0.44870
# Poissons Ratio (z) = 0.17307 0.34492
#
# Static dielectric constant tensor:
#      x y z
#    x 1.565200 0.000000 0.000000 
#    y 0.000000 1.595340 0.000000 
#    z 0.000000 0.000000 1.576630 
# 
# From -- ./inp_files/27682.got.cif
#   From: 2010.05.17/outbox.cif.g08.bks.cpg/sg51_14_cif.got.tgz:27682.got - 2010.06.03 11:52:47.
