data_PCOD9401175
_publ_section_title
;
Structure prediction by ZEFSAII (Michael W. Deem and Ramdas Pophale) SiO2 
 PCOD9401175
Probable space group: P M M A
;
_chemical_formula_sum "Si O2"
_cell_formula_units_Z 64
_cell_length_a 20.368688
_cell_length_b 9.421748
_cell_length_c 19.946414
_cell_angle_alpha 90.000000
_cell_angle_beta 90.000000
_cell_angle_gamma 90.000000
_cell_volume 3827.889292
_symmetry_space_group_name_H-M "P M M A"
_symmetry_group_IT_number 51
_symmetry_cell_setting 'orthorhombic'
loop_
_space_group_symop_operation_xyz
x,y,z
1/2-x,-y,z
1/2+x,-y,-z
-x,y,-z
-x,-y,-z
1/2+x,y,-z
1/2-x,y,z
x,-y,z
loop_
_atom_site_type_symbol
_atom_site_label
_atom_site_fract_x
_atom_site_fract_y
_atom_site_fract_z
Si Si1 0.576228 0.663084 0.524845
Si Si2 0.325488 0.330533 0.961465
Si Si3 0.325220 0.330786 0.120523
Si Si4 0.083963 0.171418 0.857772
Si Si5 0.177096 0.827477 0.735883
Si Si6 0.112418 0.833378 0.601251
Si Si7 0.058529 0.829203 0.193717
Si Si8 0.038429 0.166006 0.349376
O O1 0.500000 0.666269 0.500000
O O2 0.596356 0.500000 0.530183
O O3 0.615008 0.745965 0.467035
O O4 0.576860 0.741196 0.596202
O O5 0.250000 0.290686 0.943367
O O6 0.332003 0.500000 0.950621
O O7 0.378720 0.245910 0.918707
O O8 0.333457 0.304270 0.040874
O O9 0.250000 0.292634 0.138059
O O10 0.332634 0.500000 0.130654
O O11 0.378858 0.246317 0.162220
O O12 0.123433 0.214241 0.790479
O O13 0.007953 0.209237 0.846553
O O14 0.088152 0.000000 0.864375
O O15 0.250000 0.781685 0.755540
O O16 0.159267 0.781585 0.660825
O O17 0.175798 0.000000 0.734254
O O18 0.038724 0.822978 0.631846
O O19 0.124566 0.000000 0.587740
O O20 0.049192 0.792627 0.272252
O O21 0.065049 0.000000 0.190123
O O22 0.056005 0.000000 0.356960
#
# Coordination Sequence:
#
# PCOD9401175 Si02
#       8
#     8   8   8   8   8   8   8   8
#     4   9  17  27  42  67  95 122 158 203 244 285
#     4   9  19  36  54  72  99 136 176 214 249 295
#     4   9  20  39  58  74  96 130 171 210 254 312
#     4  10  19  32  50  77 108 135 167 209 255 301
#     4   9  16  27  46  71  99 134 173 207 241 290
#     4   9  15  27  46  66  92 128 166 201 240 288
#     4  10  20  33  52  79 109 133 162 210 260 305
#     4   9  16  29  47  69  98 129 158 195 246 297
#
# _framework density 16.719397000000001
#
# number of rings (size 3 to 8) (size 9 to 14) (size 15 to 20)
#    0.000    2.750    1.250    1.500    0.000    4.500 
#    0.000    4.375    0.000    1.875    0.000    1.750 
#    0.000    0.000    0.000    0.000    0.000    0.000 
#
# Total GULP energy -356676.633454 kJ/mol
# GULP energy per Si atom -5573.072398 kJ/mol
# Density = 1.668134 g / cm^3
# Si number density = 16.719397 Si / 1000 Ang^3
#
#
#
# Elastic Constant Matrix: (Units=GPa)
#
#
# Indices 1 2 3 4 5 6 
#
# 1 94.7311 43.0015 59.7681 0.0000 0.0000 0.0000
# 2 43.0015 45.1730 50.5582 0.0000 0.0000 0.0000
# 3 59.7681 50.5582 92.2568 0.0000 0.0000 0.0000
# 4 0.0000 0.0000 0.0000 -33.0279 0.0000 0.0000
# 5 0.0000 0.0000 0.0000 0.0000 20.7022 0.0000
# 6 0.0000 0.0000 0.0000 0.0000 0.0000 20.9196
#
#
#
# Elastic Compliance Matrix: (Units=1/GPa)
#
#
# Indices 1 2 3 4 5 6 
#
# 1 0.020001 -0.011735 -0.006527 0.000000 0.000000 0.000000
# 2 -0.011735 0.064138 -0.027546 0.000000 0.000000 0.000000
# 3 -0.006527 -0.027546 0.030163 0.000000 0.000000 0.000000
# 4 0.000000 0.000000 0.000000 -0.030277 0.000000 0.000000
# 5 0.000000 0.000000 0.000000 0.000000 0.048304 0.000000
# 6 0.000000 0.000000 0.000000 0.000000 0.000000 0.047802
#
#
# Mechanical properties :
#
#
# Convention : Reuss Voigt Hill
#
# Bulk Modulus (GPa) = 44.07852 59.86848 51.97350
# Shear Modulus (GPa) = 17.90143 6.97433 12.43788
#
# Velocity S-wave (km/s) = 3.27570 2.04462 2.73045
# Velocity P-wave (km/s) = 6.38184 6.43890 6.41044
#
# Compressibility (1/GPa) = 0.02268679
#
# Stress axis : x y z
#
# Youngs Moduli (GPa) = 49.99832 15.59148 33.15289
#
# Poissons Ratio (x) = 0.18296 0.21638
# Poissons Ratio (y) = 0.58671 0.91324
# Poissons Ratio (z) = 0.32632 0.42949
#
# Static dielectric constant tensor:
#      x y z
#    x 1.554740 0.000000 0.000000 
#    y 0.000000 1.554580 0.000000 
#    z 0.000000 0.000000 1.557020 
# 
# From -- ./inp_files/34100.got.cif
#   From: 2010.05.17/outbox.cif.g08.bks.cpg/sg51_18_cif.got.tgz:34100.got - 2010.06.03 11:52:47.
