data_PCOD9401081
_publ_section_title
;
Structure prediction by ZEFSAII (Michael W. Deem and Ramdas Pophale) SiO2 
 PCOD9401081
Probable space group: P M M A
;
_chemical_formula_sum "Si O2"
_cell_formula_units_Z 64
_cell_length_a 9.657993
_cell_length_b 19.728078
_cell_length_c 19.362188
_cell_angle_alpha 90.000000
_cell_angle_beta 90.000000
_cell_angle_gamma 90.000000
_cell_volume 3689.148143
_symmetry_space_group_name_H-M "P M M A"
_symmetry_group_IT_number 51
_symmetry_cell_setting 'orthorhombic'
loop_
_space_group_symop_operation_xyz
x,y,z
1/2-x,-y,z
1/2+x,-y,-z
-x,y,-z
-x,-y,-z
1/2+x,y,-z
1/2-x,y,z
x,-y,z
loop_
_atom_site_type_symbol
_atom_site_label
_atom_site_fract_x
_atom_site_fract_y
_atom_site_fract_z
Si Si1 0.906321 0.601098 0.562719
Si Si2 0.401285 0.574645 0.688359
Si Si3 0.916564 0.421695 0.071311
Si Si4 0.090097 0.315712 0.808881
Si Si5 0.410081 0.078244 0.196278
Si Si6 0.909026 0.764494 0.565229
Si Si7 0.413525 0.788905 0.277814
Si Si8 0.592367 0.082306 0.063721
O O1 0.750000 0.577460 0.557560
O O2 0.905045 0.682921 0.560664
O O3 0.000000 0.577020 0.500000
O O4 0.978233 0.581034 0.633584
O O5 0.250000 0.582162 0.653021
O O6 0.404969 0.500000 0.720428
O O7 0.410149 0.630831 0.746178
O O8 0.750000 0.417567 0.060622
O O9 0.944205 0.500000 0.095590
O O10 0.953371 0.361551 0.125190
O O11 0.000000 0.413031 0.000000
O O12 0.250000 0.292958 0.819720
O O13 0.994699 0.255440 0.779416
O O14 0.250000 0.082077 0.171202
O O15 0.425309 0.132676 0.256461
O O16 0.513415 0.096816 0.134614
O O17 0.434898 0.000000 0.216545
O O18 0.750000 0.789384 0.560093
O O19 0.962450 0.779464 0.642962
O O20 0.000000 0.788710 0.500000
O O21 0.250000 0.769699 0.276486
O O22 0.750000 0.107221 0.062047
O O23 0.597583 0.000000 0.058513
O O24 0.500000 0.107269 0.000000
#
# Coordination Sequence:
#
# PCOD9401081 Si02
#       8
#     8   8   8   8   8   8   8   8
#     4  10  19  32  49  69  96 129 166 206 247 295
#     4  10  20  33  49  70  97 130 166 205 250 298
#     4   9  18  34  55  78 104 136 175 217 258 302
#     4  10  20  34  53  76 102 132 168 209 255 306
#     4   9  18  33  53  76 103 137 174 211 258 314
#     4   9  18  32  51  74  99 129 166 207 250 300
#     4  10  20  35  54  78 106 133 166 212 260 305
#     4   9  16  27  46  72 102 134 168 205 242 286
#
# _framework density 17.348178000000001
#
# number of rings (size 3 to 8) (size 9 to 14) (size 15 to 20)
#    0.000    2.500    1.250    1.125    0.000    5.500 
#    0.000    0.625    0.000    4.125    0.000    0.000 
#    0.000    0.000    0.000    0.000    0.000    0.000 
#
# Total GULP energy -356540.504972 kJ/mol
# GULP energy per Si atom -5570.945390 kJ/mol
# Density = 1.730869 g / cm^3
# Si number density = 17.348178 Si / 1000 Ang^3
#
#
#
# Elastic Constant Matrix: (Units=GPa)
#
#
# Indices 1 2 3 4 5 6 
#
# 1 86.8241 34.2339 54.0880 0.0000 0.0000 0.0000
# 2 34.2339 55.9564 37.6493 0.0000 0.0000 0.0000
# 3 54.0880 37.6493 100.4034 0.0000 0.0000 0.0000
# 4 0.0000 0.0000 0.0000 21.2932 0.0000 0.0000
# 5 0.0000 0.0000 0.0000 0.0000 29.3137 0.0000
# 6 0.0000 0.0000 0.0000 0.0000 0.0000 15.2692
#
#
#
# Elastic Compliance Matrix: (Units=1/GPa)
#
#
# Indices 1 2 3 4 5 6 
#
# 1 0.018856 -0.006288 -0.007800 0.000000 0.000000 0.000000
# 2 -0.006288 0.025998 -0.006361 0.000000 0.000000 0.000000
# 3 -0.007800 -0.006361 0.016547 0.000000 0.000000 0.000000
# 4 0.000000 0.000000 0.000000 0.046963 0.000000 0.000000
# 5 0.000000 0.000000 0.000000 0.000000 0.034114 0.000000
# 6 0.000000 0.000000 0.000000 0.000000 0.000000 0.065491
#
#
# Mechanical properties :
#
#
# Convention : Reuss Voigt Hill
#
# Bulk Modulus (GPa) = 48.77442 55.01404 51.89423
# Shear Modulus (GPa) = 19.55399 20.98941 20.27170
#
# Velocity S-wave (km/s) = 3.36095 3.48212 3.42207
# Velocity P-wave (km/s) = 6.57551 6.92441 6.75221
#
# Compressibility (1/GPa) = 0.02050255
#
# Stress axis : x y z
#
# Youngs Moduli (GPa) = 53.03392 38.46423 60.43336
#
# Poissons Ratio (x) = 0.24186 0.47138
# Poissons Ratio (y) = 0.33347 0.38445
# Poissons Ratio (z) = 0.41366 0.24469
#
# Static dielectric constant tensor:
#      x y z
#    x 1.608550 0.000000 0.000000 
#    y 0.000000 1.590170 0.000000 
#    z 0.000000 0.000000 1.575790 
# 
# From -- ./inp_files/32341.got.cif
#   From: 2010.05.17/outbox.cif.g08.bks.cpg/sg51_17_cif.got.tgz:32341.got - 2010.06.03 11:52:47.
