data_PCOD9401825
_publ_section_title
;
Structure prediction by ZEFSAII (Michael W. Deem and Ramdas Pophale) SiO2 
 PCOD9401825
Probable space group: P M M A
;
_chemical_formula_sum "Si O2"
_cell_formula_units_Z 64
_cell_length_a 23.506561
_cell_length_b 8.820862
_cell_length_c 16.502458
_cell_angle_alpha 90.000000
_cell_angle_beta 90.000000
_cell_angle_gamma 90.000000
_cell_volume 3421.753818
_symmetry_space_group_name_H-M "P M M A"
_symmetry_group_IT_number 51
_symmetry_cell_setting 'orthorhombic'
loop_
_space_group_symop_operation_xyz
x,y,z
1/2-x,-y,z
1/2+x,-y,-z
-x,y,-z
-x,-y,-z
1/2+x,y,-z
1/2-x,y,z
x,-y,z
loop_
_atom_site_type_symbol
_atom_site_label
_atom_site_fract_x
_atom_site_fract_y
_atom_site_fract_z
Si Si1 0.816588 0.333431 0.731326
Si Si2 0.815615 0.315254 0.388803
Si Si3 0.924433 0.681500 0.286942
Si Si4 0.024654 0.181279 0.876724
Si Si5 0.865716 0.319937 0.562266
Si Si6 0.078558 0.321088 0.037339
Si Si7 0.817983 0.826344 0.889557
Si Si8 0.014851 0.827446 0.405282
O O1 0.750000 0.347726 0.746569
O O2 0.843677 0.500000 0.746562
O O3 0.823452 0.298417 0.637177
O O4 0.835348 0.210913 0.796659
O O5 0.750000 0.265238 0.377452
O O6 0.814510 0.500000 0.390404
O O7 0.861920 0.271795 0.320573
O O8 0.840526 0.265609 0.476548
O O9 0.924502 0.500000 0.276644
O O10 0.945034 0.759568 0.204381
O O11 0.969965 0.728352 0.355689
O O12 0.962470 0.254619 0.892243
O O13 0.020233 0.000000 0.876250
O O14 0.059914 0.238095 0.954894
O O15 0.876776 0.500000 0.552665
O O16 0.922417 0.240620 0.593885
O O17 0.069155 0.500000 0.029955
O O18 0.143599 0.283480 0.057140
O O19 0.750000 0.805901 0.899764
O O20 0.831565 0.000000 0.908857
O O21 0.000000 0.829428 0.500000
O O22 0.013489 0.000000 0.373994
#
# Coordination Sequence:
#
# PCOD9401825 Si02
#       8
#     8   8   8   8   8   8   8   8
#     4   9  18  32  51  78 112 148 189 237 283 336
#     4   9  18  34  58  85 112 147 193 246 295 337
#     4  11  22  38  61  87 116 151 195 241 289 346
#     4  11  23  41  64  89 120 153 188 237 295 353
#     4  10  19  33  55  81 109 146 193 241 289 341
#     4  11  22  40  65  92 119 149 192 238 288 351
#     4  10  21  37  57  83 119 160 197 236 289 350
#     4  11  23  37  53  77 114 153 190 236 290 343
#
# _framework density 18.703859000000001
#
# number of rings (size 3 to 8) (size 9 to 14) (size 15 to 20)
#    0.000    1.750    1.250    4.500    1.750    3.250 
#    0.000    0.625    0.000    6.375    0.000    0.000 
#    0.000    0.000    0.000    0.000    0.000    0.000 
#
# Total GULP energy -356968.682268 kJ/mol
# GULP energy per Si atom -5577.635660 kJ/mol
# Density = 1.866129 g / cm^3
# Si number density = 18.703859 Si / 1000 Ang^3
#
#
#
# Elastic Constant Matrix: (Units=GPa)
#
#
# Indices 1 2 3 4 5 6 
#
# 1 79.5231 34.4705 34.6263 0.0000 0.0000 0.0000
# 2 34.4705 78.7131 26.0700 0.0000 0.0000 0.0000
# 3 34.6263 26.0700 67.8291 0.0000 0.0000 0.0000
# 4 0.0000 0.0000 0.0000 31.1351 0.0000 0.0000
# 5 0.0000 0.0000 0.0000 0.0000 27.3622 0.0000
# 6 0.0000 0.0000 0.0000 0.0000 0.0000 20.5397
#
#
#
# Elastic Compliance Matrix: (Units=1/GPa)
#
#
# Indices 1 2 3 4 5 6 
#
# 1 0.018074 -0.005568 -0.007087 0.000000 0.000000 0.000000
# 2 -0.005568 0.016273 -0.003412 0.000000 0.000000 0.000000
# 3 -0.007087 -0.003412 0.019672 0.000000 0.000000 0.000000
# 4 0.000000 0.000000 0.000000 0.032118 0.000000 0.000000
# 5 0.000000 0.000000 0.000000 0.000000 0.036547 0.000000
# 6 0.000000 0.000000 0.000000 0.000000 0.000000 0.048686
#
#
# Mechanical properties :
#
#
# Convention : Reuss Voigt Hill
#
# Bulk Modulus (GPa) = 45.69211 46.26657 45.97934
# Shear Modulus (GPa) = 23.71931 24.53398 24.12664
#
# Velocity S-wave (km/s) = 3.56497 3.62568 3.59545
# Velocity P-wave (km/s) = 6.43643 6.50519 6.47090
#
# Compressibility (1/GPa) = 0.02188562
#
# Stress axis : x y z
#
# Youngs Moduli (GPa) = 55.32735 61.45219 50.83357
#
# Poissons Ratio (x) = 0.34217 0.36024
# Poissons Ratio (y) = 0.30806 0.17344
# Poissons Ratio (z) = 0.39209 0.20967
#
# Static dielectric constant tensor:
#      x y z
#    x 1.618120 0.000000 0.000000 
#    y 0.000000 1.654570 0.000000 
#    z 0.000000 0.000000 1.693920 
# 
# From -- ./inp_files/26262.got.cif
#   From: 2010.05.17/outbox.cif.g08.bks.cpg/sg51_14_cif.got.tgz:26262.got - 2010.06.03 11:52:47.
