data_PCOD9401939
_publ_section_title
;
Structure prediction by ZEFSAII (Michael W. Deem and Ramdas Pophale) SiO2 
 PCOD9401939
Probable space group: P M M A
;
_chemical_formula_sum "Si O2"
_cell_formula_units_Z 56
_cell_length_a 18.716790
_cell_length_b 9.302625
_cell_length_c 19.806516
_cell_angle_alpha 90.000000
_cell_angle_beta 90.000000
_cell_angle_gamma 90.000000
_cell_volume 3448.617051
_symmetry_space_group_name_H-M "P M M A"
_symmetry_group_IT_number 51
_symmetry_cell_setting 'orthorhombic'
loop_
_space_group_symop_operation_xyz
x,y,z
1/2-x,-y,z
1/2+x,-y,-z
-x,y,-z
-x,-y,-z
1/2+x,y,-z
1/2-x,y,z
x,-y,z
loop_
_atom_site_type_symbol
_atom_site_label
_atom_site_fract_x
_atom_site_fract_y
_atom_site_fract_z
Si Si1 0.539272 0.671706 0.070253
Si Si2 0.833934 0.338808 0.884069
Si Si3 0.165534 0.827129 0.446041
Si Si4 0.431956 0.665010 0.550370
Si Si5 0.333303 0.830909 0.981500
Si Si6 0.468516 0.171790 0.348488
Si Si7 0.456533 0.669516 0.208668
O O1 0.546384 0.500000 0.067858
O O2 0.615515 0.747074 0.068517
O O3 0.498800 0.707082 0.139698
O O4 0.500000 0.715203 0.000000
O O5 0.750000 0.339589 0.873270
O O6 0.856732 0.500000 0.907446
O O7 0.875052 0.310995 0.815448
O O8 0.849358 0.228023 0.943440
O O9 0.250000 0.792088 0.433821
O O10 0.132339 0.743419 0.510502
O O11 0.107890 0.794185 0.385936
O O12 0.161706 0.000000 0.456884
O O13 0.500000 0.659145 0.500000
O O14 0.413761 0.500000 0.568471
O O15 0.465497 0.756504 0.611302
O O16 0.250000 0.801312 0.968780
O O17 0.345620 0.000000 0.978330
O O18 0.470326 0.235349 0.273504
O O19 0.475468 0.000000 0.349173
O O20 0.468955 0.500000 0.223384
#
# Coordination Sequence:
#
# PCOD9401939 Si02
#       7
#     8   8   8   8   8   8   8
#     4  10  19  34  53  73  96 129 173 219 263 311
#     4   9  17  31  49  67  93 131 168 202 248 305
#     4   9  18  33  53  78 108 140 171 203 242 294
#     4   9  17  31  52  76 101 131 169 211 247 283
#     4  10  20  32  48  72  98 123 157 207 262 311
#     4  10  20  33  50  73 104 142 176 204 249 308
#     4  10  20  33  49  72 101 132 171 217 259 302
#
# _framework density 16.238392999999999
#
# number of rings (size 3 to 8) (size 9 to 14) (size 15 to 20)
#    0.000    2.429    1.429    1.286    0.000    5.429 
#    0.000    0.000    0.000    0.857    0.000    4.000 
#    0.000    0.000    0.000    0.000    0.000    0.000 
#
# Total GULP energy -311866.201357 kJ/mol
# GULP energy per Si atom -5569.039310 kJ/mol
# Density = 1.620143 g / cm^3
# Si number density = 16.238393 Si / 1000 Ang^3
#
#
#
# Elastic Constant Matrix: (Units=GPa)
#
#
# Indices 1 2 3 4 5 6 
#
# 1 56.8969 47.9973 55.4864 0.0000 0.0000 0.0000
# 2 47.9973 57.8756 55.9027 0.0000 0.0000 0.0000
# 3 55.4864 55.9027 103.7977 0.0000 0.0000 0.0000
# 4 0.0000 0.0000 0.0000 12.1821 0.0000 0.0000
# 5 0.0000 0.0000 0.0000 0.0000 18.3773 0.0000
# 6 0.0000 0.0000 0.0000 0.0000 0.0000 23.1372
#
#
#
# Elastic Compliance Matrix: (Units=1/GPa)
#
#
# Indices 1 2 3 4 5 6 
#
# 1 0.064852 -0.042305 -0.011883 0.000000 0.000000 0.000000
# 2 -0.042305 0.063609 -0.011644 0.000000 0.000000 0.000000
# 3 -0.011883 -0.011644 0.022257 0.000000 0.000000 0.000000
# 4 0.000000 0.000000 0.000000 0.082088 0.000000 0.000000
# 5 0.000000 0.000000 0.000000 0.000000 0.054415 0.000000
# 6 0.000000 0.000000 0.000000 0.000000 0.000000 0.043220
#
#
# Mechanical properties :
#
#
# Convention : Reuss Voigt Hill
#
# Bulk Modulus (GPa) = 52.47885 59.70478 56.09182
# Shear Modulus (GPa) = 10.67335 14.68491 12.67913
#
# Velocity S-wave (km/s) = 2.56655 3.01048 2.79733
# Velocity P-wave (km/s) = 6.41645 6.99510 6.71201
#
# Compressibility (1/GPa) = 0.01905529
#
# Stress axis : x y z
#
# Youngs Moduli (GPa) = 15.41980 15.72097 44.92873
#
# Poissons Ratio (x) = 0.66507 0.53389
# Poissons Ratio (y) = 0.65233 0.52314
# Poissons Ratio (z) = 0.18324 0.18305
#
# Static dielectric constant tensor:
#      x y z
#    x 1.572070 0.000000 0.000000 
#    y 0.000000 1.555290 0.000000 
#    z 0.000000 0.000000 1.530610 
# 
# From -- ./inp_files/33709.got.cif
#   From: 2010.05.17/outbox.cif.g08.bks.cpg/sg51_17_cif.got.tgz:33709.got - 2010.06.03 11:52:47.
