data_PCOD9401093
_publ_section_title
;
Structure prediction by ZEFSAII (Michael W. Deem and Ramdas Pophale) SiO2 
 PCOD9401093
Probable space group: P M M A
;
_chemical_formula_sum "Si O2"
_cell_formula_units_Z 44
_cell_length_a 8.476568
_cell_length_b 30.236473
_cell_length_c 9.502393
_cell_angle_alpha 90.000000
_cell_angle_beta 90.000000
_cell_angle_gamma 90.000000
_cell_volume 2435.477764
_symmetry_space_group_name_H-M "P M M A"
_symmetry_group_IT_number 51
_symmetry_cell_setting 'orthorhombic'
loop_
_space_group_symop_operation_xyz
x,y,z
1/2-x,-y,z
1/2+x,-y,-z
-x,y,-z
-x,-y,-z
1/2+x,y,-z
1/2-x,y,z
x,-y,z
loop_
_atom_site_type_symbol
_atom_site_label
_atom_site_fract_x
_atom_site_fract_y
_atom_site_fract_z
Si Si1 0.560806 0.584106 0.340744
Si Si2 0.062488 0.320673 0.341353
Si Si3 0.060296 0.760729 0.839713
Si Si4 0.059513 0.857305 0.838816
Si Si5 0.440976 0.047608 0.838116
Si Si6 0.559334 0.500000 0.158699
O O1 0.500000 0.577827 0.500000
O O2 0.750000 0.584660 0.344545
O O3 0.501827 0.631936 0.289664
O O4 0.507204 0.543805 0.242726
O O5 0.250000 0.322538 0.344021
O O6 0.000000 0.315107 0.500000
O O7 0.005944 0.279812 0.248452
O O8 0.250000 0.758793 0.839580
O O9 0.010191 0.809344 0.780838
O O10 0.000000 0.757867 0.000000
O O11 0.250000 0.857379 0.839608
O O12 0.007238 0.904795 0.775965
O O13 0.000000 0.857408 0.000000
O O14 0.250000 0.047583 0.838855
O O15 0.492880 0.000000 0.776234
O O16 0.500000 0.047620 0.000000
O O17 0.750000 0.500000 0.158046
O O18 0.500000 0.500000 0.000000
#
# Coordination Sequence:
#
# PCOD9401093 Si02
#       6
#     8   8   8   8   8   4
#     4  10  20  37  58  81 105 134 170 206 244 291
#     4  11  22  37  56  78 102 132 168 209 253 297
#     4  10  19  32  49  71  99 132 168 206 249 299
#     4   8  14  23  36  55  82 116 153 192 235 284
#     4   8  12  18  29  47  73 107 146 186 228 276
#     4  10  23  38  56  82 112 140 169 204 242 286
#
# _framework density 18.066269999999999
#
# number of rings (size 3 to 8) (size 9 to 14) (size 15 to 20)
#    0.000    2.545    0.000    4.091    0.000    2.909 
#    0.000    1.818    0.000    0.000    0.000    0.000 
#    0.000    0.727    0.000    1.273    0.000    9.091 
#
# Total GULP energy -245036.929177 kJ/mol
# GULP energy per Si atom -5569.021118 kJ/mol
# Density = 1.802515 g / cm^3
# Si number density = 18.066270 Si / 1000 Ang^3
#
#
#
# Elastic Constant Matrix: (Units=GPa)
#
#
# Indices 1 2 3 4 5 6 
#
# 1 53.2323 41.6665 13.6587 0.0000 0.0000 0.0000
# 2 41.6665 248.6637 72.2559 0.0000 0.0000 0.0000
# 3 13.6587 72.2559 36.4655 0.0000 0.0000 0.0000
# 4 0.0000 0.0000 0.0000 -8.9965 0.0000 0.0000
# 5 0.0000 0.0000 0.0000 0.0000 22.3811 0.0000
# 6 0.0000 0.0000 0.0000 0.0000 0.0000 94.8537
#
#
#
# Elastic Compliance Matrix: (Units=1/GPa)
#
#
# Indices 1 2 3 4 5 6 
#
# 1 0.021694 -0.003003 -0.002176 0.000000 0.000000 0.000000
# 2 -0.003003 0.009895 -0.018483 0.000000 0.000000 0.000000
# 3 -0.002176 -0.018483 0.064861 0.000000 0.000000 0.000000
# 4 0.000000 0.000000 0.000000 -0.111155 0.000000 0.000000
# 5 0.000000 0.000000 0.000000 0.000000 0.044681 0.000000
# 6 0.000000 0.000000 0.000000 0.000000 0.000000 0.010543
#
#
# Mechanical properties :
#
#
# Convention : Reuss Voigt Hill
#
# Bulk Modulus (GPa) = 20.35489 65.94710 43.15099
# Shear Modulus (GPa) = 47.97652 35.69968 41.83810
#
# Velocity S-wave (km/s) = 5.15883 4.45009 4.81751
# Velocity P-wave (km/s) = 6.83929 7.93641 7.40819
#
# Compressibility (1/GPa) = 0.04912825
#
# Stress axis : x y z
#
# Youngs Moduli (GPa) = 46.09505 101.05830 15.41758
#
# Poissons Ratio (x) = 0.30347 0.03354
# Poissons Ratio (y) = 0.13842 0.28496
# Poissons Ratio (z) = 0.10029 1.86782
#
# Static dielectric constant tensor:
#      x y z
#    x 1.609160 0.000000 0.000000 
#    y 0.000000 1.701040 0.000000 
#    z 0.000000 0.000000 1.570960 
# 
# From -- ./inp_files/5776.got.cif
#   From: 2010.05.17/outbox.cif.g08.bks.cpg/sg51_3_cif.got.tgz:5776.got - 2010.06.03 11:52:47.
