data_PCOD9401273
_publ_section_title
;
Structure prediction by ZEFSAII (Michael W. Deem and Ramdas Pophale) SiO2 
 PCOD9401273
Probable space group: P M M A
;
_chemical_formula_sum "Si O2"
_cell_formula_units_Z 48
_cell_length_a 16.769120
_cell_length_b 9.040881
_cell_length_c 18.726227
_cell_angle_alpha 90.000000
_cell_angle_beta 90.000000
_cell_angle_gamma 90.000000
_cell_volume 2839.038677
_symmetry_space_group_name_H-M "P M M A"
_symmetry_group_IT_number 51
_symmetry_cell_setting 'orthorhombic'
loop_
_space_group_symop_operation_xyz
x,y,z
1/2-x,-y,z
1/2+x,-y,-z
-x,y,-z
-x,-y,-z
1/2+x,y,-z
1/2-x,y,z
x,-y,z
loop_
_atom_site_type_symbol
_atom_site_label
_atom_site_fract_x
_atom_site_fract_y
_atom_site_fract_z
Si Si1 0.418084 0.330626 0.453819
Si Si2 0.995648 0.822734 0.327791
Si Si3 0.983945 0.321864 0.826100
Si Si4 0.338991 0.823322 0.582361
Si Si5 0.658316 0.175580 0.914180
Si Si6 0.084419 0.668849 0.957507
O O1 0.500000 0.331157 0.500000
O O2 0.397598 0.500000 0.436753
O O3 0.438512 0.238290 0.383242
O O4 0.355449 0.256163 0.507143
O O5 0.909503 0.784020 0.362664
O O6 0.005419 0.747024 0.251487
O O7 0.001110 0.000000 0.322163
O O8 0.979757 0.500000 0.823780
O O9 0.904132 0.259059 0.863296
O O10 0.058199 0.282760 0.878511
O O11 0.250000 0.788235 0.608363
O O12 0.344699 0.000000 0.571094
O O13 0.750000 0.208036 0.895815
O O14 0.645058 0.000000 0.908865
O O15 0.640529 0.228834 0.995073
O O16 0.114799 0.500000 0.955943
O O17 0.000000 0.665796 0.000000
#
# Coordination Sequence:
#
# PCOD9401273 Si02
#       6
#     8   8   8   8   8   8
#     4   9  17  30  49  72  97 126 162 201 239 286
#     4  10  19  32  52  75 101 134 167 202 247 296
#     4  10  20  34  52  74 101 133 168 205 246 295
#     4   9  18  33  52  74 100 130 165 205 249 296
#     4  10  20  33  51  76 102 128 163 207 251 295
#     4   8  16  31  50  71  95 126 163 199 238 288
#
# _framework density 16.907131
#
# number of rings (size 3 to 8) (size 9 to 14) (size 15 to 20)
#    0.000    2.667    0.000    3.000    0.000    8.000 
#    0.000    1.667    0.000    8.000    0.000    0.000 
#    0.000    0.000    0.000    0.000    0.000    0.000 
#
# Total GULP energy -267477.766469 kJ/mol
# GULP energy per Si atom -5572.453468 kJ/mol
# Density = 1.686865 g / cm^3
# Si number density = 16.907131 Si / 1000 Ang^3
#
#
#
# Elastic Constant Matrix: (Units=GPa)
#
#
# Indices 1 2 3 4 5 6 
#
# 1 72.7463 43.4549 43.2602 0.0000 0.0000 0.0000
# 2 43.4549 67.8719 58.7431 0.0000 0.0000 0.0000
# 3 43.2602 58.7431 140.2508 0.0000 0.0000 0.0000
# 4 0.0000 0.0000 0.0000 32.2663 0.0000 0.0000
# 5 0.0000 0.0000 0.0000 0.0000 15.6187 0.0000
# 6 0.0000 0.0000 0.0000 0.0000 0.0000 10.5559
#
#
#
# Elastic Compliance Matrix: (Units=1/GPa)
#
#
# Indices 1 2 3 4 5 6 
#
# 1 0.022438 -0.013139 -0.001418 0.000000 0.000000 0.000000
# 2 -0.013139 0.030805 -0.008850 0.000000 0.000000 0.000000
# 3 -0.001418 -0.008850 0.011274 0.000000 0.000000 0.000000
# 4 0.000000 0.000000 0.000000 0.030992 0.000000 0.000000
# 5 0.000000 0.000000 0.000000 0.000000 0.064026 0.000000
# 6 0.000000 0.000000 0.000000 0.000000 0.000000 0.094734
#
#
# Mechanical properties :
#
#
# Convention : Reuss Voigt Hill
#
# Bulk Modulus (GPa) = 56.48340 63.53171 60.00756
# Shear Modulus (GPa) = 16.28751 20.71558 18.50155
#
# Velocity S-wave (km/s) = 3.10716 3.50416 3.31162
# Velocity P-wave (km/s) = 6.80831 7.35056 7.08462
#
# Compressibility (1/GPa) = 0.01770432
#
# Stress axis : x y z
#
# Youngs Moduli (GPa) = 44.56735 32.46197 88.69813
#
# Poissons Ratio (x) = 0.42651 0.12577
# Poissons Ratio (y) = 0.58555 0.78498
# Poissons Ratio (z) = 0.06319 0.28729
#
# Static dielectric constant tensor:
#      x y z
#    x 1.574080 0.000000 0.000000 
#    y 0.000000 1.567900 0.000000 
#    z 0.000000 0.000000 1.562750 
# 
# From -- ./inp_files/30028.got.cif
#   From: 2010.05.17/outbox.cif.g08.bks.cpg/sg51_16_cif.got.tgz:30028.got - 2010.06.03 11:52:47.
