data_PCOD9401729
_publ_section_title
;
Structure prediction by ZEFSAII (Michael W. Deem and Ramdas Pophale) SiO2 
 PCOD9401729
Probable space group: P M M A
;
_chemical_formula_sum "Si O2"
_cell_formula_units_Z 48
_cell_length_a 8.646108
_cell_length_b 32.718076
_cell_length_c 9.589735
_cell_angle_alpha 90.000000
_cell_angle_beta 90.000000
_cell_angle_gamma 90.000000
_cell_volume 2712.782775
_symmetry_space_group_name_H-M "P M M A"
_symmetry_group_IT_number 51
_symmetry_cell_setting 'orthorhombic'
loop_
_space_group_symop_operation_xyz
x,y,z
1/2-x,-y,z
1/2+x,-y,-z
-x,y,-z
-x,-y,-z
1/2+x,y,-z
1/2-x,y,z
x,-y,z
loop_
_atom_site_type_symbol
_atom_site_label
_atom_site_fract_x
_atom_site_fract_y
_atom_site_fract_z
Si Si1 0.935540 0.044630 0.158193
Si Si2 0.936013 0.707668 0.342857
Si Si3 0.936481 0.797302 0.341991
Si Si4 0.434415 0.870649 0.157456
Si Si5 0.064192 0.381472 0.657209
Si Si6 0.064775 0.453940 0.155785
O O1 0.750000 0.048334 0.153867
O O2 0.006879 0.085938 0.219266
O O3 0.974332 0.000000 0.221192
O O4 0.000000 0.043559 0.000000
O O5 0.750000 0.707679 0.347954
O O6 0.981841 0.752014 0.284140
O O7 0.982834 0.663481 0.282768
O O8 0.000000 0.707555 0.500000
O O9 0.750000 0.800050 0.344696
O O10 0.000000 0.800349 0.500000
O O11 0.004797 0.833212 0.248764
O O12 0.250000 0.870875 0.151433
O O13 0.500000 0.867194 0.000000
O O14 0.250000 0.383304 0.653227
O O15 0.000000 0.384113 0.500000
O O16 0.000585 0.418659 0.746799
O O17 0.250000 0.451536 0.152377
O O18 0.021425 0.500000 0.203269
O O19 0.000000 0.448920 0.000000
#
# Coordination Sequence:
#
# PCOD9401729 Si02
#       6
#     8   8   8   8   8   8
#     4   9  16  27  45  69  96 127 163 203 248 298
#     4   8  16  30  50  74 100 130 164 204 247 294
#     4  10  19  34  54  76 102 133 170 207 247 299
#     4  11  21  33  50  74 103 134 168 209 255 297
#     4  10  19  33  54  80 106 132 166 208 253 296
#     4  10  21  37  55  75 101 135 172 208 250 301
#
# _framework density 17.694008
#
# number of rings (size 3 to 8) (size 9 to 14) (size 15 to 20)
#    0.000    2.333    0.000    4.500    0.000    3.667 
#    0.000    0.833    0.000    0.500    0.000    0.000 
#    0.000    0.000    0.000    0.000    0.000    0.000 
#
# Total GULP energy -267434.357023 kJ/mol
# GULP energy per Si atom -5571.549105 kJ/mol
# Density = 1.765374 g / cm^3
# Si number density = 17.694008 Si / 1000 Ang^3
#
#
#
# Elastic Constant Matrix: (Units=GPa)
#
#
# Indices 1 2 3 4 5 6 
#
# 1 84.2906 71.2540 25.7496 0.0000 0.0000 0.0000
# 2 71.2540 238.2909 69.7212 0.0000 0.0000 0.0000
# 3 25.7496 69.7212 40.0178 0.0000 0.0000 0.0000
# 4 0.0000 0.0000 0.0000 32.1495 0.0000 0.0000
# 5 0.0000 0.0000 0.0000 0.0000 26.0994 0.0000
# 6 0.0000 0.0000 0.0000 0.0000 0.0000 38.7368
#
#
#
# Elastic Compliance Matrix: (Units=1/GPa)
#
#
# Indices 1 2 3 4 5 6 
#
# 1 0.016192 -0.003658 -0.004045 0.000000 0.000000 0.000000
# 2 -0.003658 0.009387 -0.014000 0.000000 0.000000 0.000000
# 3 -0.004045 -0.014000 0.051984 0.000000 0.000000 0.000000
# 4 0.000000 0.000000 0.000000 0.031105 0.000000 0.000000
# 5 0.000000 0.000000 0.000000 0.000000 0.038315 0.000000
# 6 0.000000 0.000000 0.000000 0.000000 0.000000 0.025815
#
#
# Mechanical properties :
#
#
# Convention : Reuss Voigt Hill
#
# Bulk Modulus (GPa) = 29.27831 77.33877 53.30854
# Shear Modulus (GPa) = 21.96934 32.45544 27.21239
#
# Velocity S-wave (km/s) = 3.52749 4.28747 3.92592
# Velocity P-wave (km/s) = 5.75968 8.26522 7.12347
#
# Compressibility (1/GPa) = 0.03415498
#
# Stress axis : x y z
#
# Youngs Moduli (GPa) = 61.75951 106.53377 19.23671
#
# Poissons Ratio (x) = 0.38970 0.07782
# Poissons Ratio (y) = 0.22592 0.26932
# Poissons Ratio (z) = 0.24985 1.49150
#
# Static dielectric constant tensor:
#      x y z
#    x 1.590940 0.000000 0.000000 
#    y 0.000000 1.670920 0.000000 
#    z 0.000000 0.000000 1.562900 
# 
# From -- ./inp_files/6013.got.cif
#   From: 2010.05.17/outbox.cif.g08.bks.cpg/sg51_4_cif.got.tgz:6013.got - 2010.06.03 11:52:47.
