data_PCOD9401002
_publ_section_title
;
Structure prediction by ZEFSAII (Michael W. Deem and Ramdas Pophale) SiO2 
 PCOD9401002
Probable space group: P M M A
;
_chemical_formula_sum "Si O2"
_cell_formula_units_Z 48
_cell_length_a 19.784694
_cell_length_b 7.486836
_cell_length_c 15.553728
_cell_angle_alpha 90.000000
_cell_angle_beta 90.000000
_cell_angle_gamma 90.000000
_cell_volume 2303.892216
_symmetry_space_group_name_H-M "P M M A"
_symmetry_group_IT_number 51
_symmetry_cell_setting 'orthorhombic'
loop_
_space_group_symop_operation_xyz
x,y,z
1/2-x,-y,z
1/2+x,-y,-z
-x,y,-z
-x,-y,-z
1/2+x,y,-z
1/2-x,y,z
x,-y,z
loop_
_atom_site_type_symbol
_atom_site_label
_atom_site_fract_x
_atom_site_fract_y
_atom_site_fract_z
Si Si1 0.575578 0.217931 0.527809
Si Si2 0.827716 0.218537 0.373470
Si Si3 0.325963 0.286986 0.123298
Si Si4 0.573838 0.214835 0.722079
Si Si5 0.425356 0.214354 0.778796
Si Si6 0.425315 0.713204 0.977085
O O1 0.500000 0.271660 0.500000
O O2 0.630670 0.275073 0.457940
O O3 0.588268 0.277288 0.625306
O O4 0.576110 0.000000 0.527112
O O5 0.750000 0.276745 0.373190
O O6 0.869852 0.277183 0.289672
O O7 0.827298 0.000000 0.373306
O O8 0.250000 0.214875 0.128035
O O9 0.320688 0.500000 0.111456
O O10 0.368670 0.258870 0.209652
O O11 0.369707 0.215443 0.043282
O O12 0.500502 0.280978 0.754405
O O13 0.569324 0.000000 0.718295
O O14 0.427442 0.000000 0.770940
O O15 0.409739 0.255884 0.877461
O O16 0.428121 0.500000 0.990138
O O17 0.500000 0.784425 0.000000
#
# Coordination Sequence:
#
# PCOD9401002 Si02
#       6
#     8   8   8   8   8   8
#     4   9  15  27  48  74 105 139 171 206 250 300
#     4   9  17  29  46  72 106 139 170 207 254 304
#     4  10  22  39  55  73 102 137 170 210 262 311
#     4  10  19  31  53  81 106 133 171 215 254 297
#     4  10  19  31  51  79 106 134 168 211 259 301
#     4  10  20  35  55  76  97 130 175 212 246 304
#
# _framework density 20.834308
#
# number of rings (size 3 to 8) (size 9 to 14) (size 15 to 20)
#    0.000    2.333    3.333    0.000    0.000    2.667 
#    0.000    1.667    0.000    1.500    0.000    0.000 
#    0.000    0.000    0.000    0.000    0.000    0.000 
#
# Total GULP energy -268109.666197 kJ/mol
# GULP energy per Si atom -5585.618046 kJ/mol
# Density = 2.078689 g / cm^3
# Si number density = 20.834308 Si / 1000 Ang^3
#
#
#
# Elastic Constant Matrix: (Units=GPa)
#
#
# Indices 1 2 3 4 5 6 
#
# 1 231.7339 8.6109 144.3925 0.0000 0.0000 0.0000
# 2 8.6109 56.8341 -3.4329 0.0000 0.0000 0.0000
# 3 144.3925 -3.4329 237.4769 0.0000 0.0000 0.0000
# 4 0.0000 0.0000 0.0000 34.6065 0.0000 0.0000
# 5 0.0000 0.0000 0.0000 0.0000 30.7758 0.0000
# 6 0.0000 0.0000 0.0000 0.0000 0.0000 4.9118
#
#
#
# Elastic Compliance Matrix: (Units=1/GPa)
#
#
# Indices 1 2 3 4 5 6 
#
# 1 0.007046 -0.001327 -0.004303 0.000000 0.000000 0.000000
# 2 -0.001327 0.017861 0.001065 0.000000 0.000000 0.000000
# 3 -0.004303 0.001065 0.006843 0.000000 0.000000 0.000000
# 4 0.000000 0.000000 0.000000 0.028896 0.000000 0.000000
# 5 0.000000 0.000000 0.000000 0.000000 0.032493 0.000000
# 6 0.000000 0.000000 0.000000 0.000000 0.000000 0.203592
#
#
# Mechanical properties :
#
#
# Convention : Reuss Voigt Hill
#
# Bulk Modulus (GPa) = 44.21170 91.68733 67.94951
# Shear Modulus (GPa) = 15.95399 39.15711 27.55555
#
# Velocity S-wave (km/s) = 2.77023 4.33997 3.64071
# Velocity P-wave (km/s) = 5.61239 8.31969 7.09634
#
# Compressibility (1/GPa) = 0.02261845
#
# Stress axis : x y z
#
# Youngs Moduli (GPa) = 141.92374 55.98933 146.13674
#
# Poissons Ratio (x) = 0.07432 0.62888
# Poissons Ratio (y) = 0.18840 -0.15568
# Poissons Ratio (z) = 0.61075 -0.05965
#
# Static dielectric constant tensor:
#      x y z
#    x 1.721790 0.000000 0.000000 
#    y 0.000000 1.805710 0.000000 
#    z 0.000000 0.000000 1.708460 
# 
# From -- ./inp_files/17317.got.cif
#   From: 2010.05.17/outbox.cif.g08.bks.cpg/sg51_9_cif.got.tgz:17317.got - 2010.06.03 11:52:47.
