data_PCOD9401474
_publ_section_title
;
Structure prediction by ZEFSAII (Michael W. Deem and Ramdas Pophale) SiO2 
 PCOD9401474
Probable space group: P M M A
;
_chemical_formula_sum "Si O2"
_cell_formula_units_Z 32
_cell_length_a 18.605634
_cell_length_b 9.056305
_cell_length_c 10.639908
_cell_angle_alpha 90.000000
_cell_angle_beta 90.000000
_cell_angle_gamma 90.000000
_cell_volume 1792.806370
_symmetry_space_group_name_H-M "P M M A"
_symmetry_group_IT_number 51
_symmetry_cell_setting 'orthorhombic'
loop_
_space_group_symop_operation_xyz
x,y,z
1/2-x,-y,z
1/2+x,-y,-z
-x,y,-z
-x,-y,-z
1/2+x,y,-z
1/2-x,y,z
x,-y,z
loop_
_atom_site_type_symbol
_atom_site_label
_atom_site_fract_x
_atom_site_fract_y
_atom_site_fract_z
Si Si1 0.412962 0.330269 0.015467
Si Si2 0.087270 0.322537 0.737714
Si Si3 0.333822 0.175978 0.507991
Si Si4 0.430724 0.176124 0.267495
O O1 0.391423 0.500000 0.038727
O O2 0.385999 0.281270 0.878359
O O3 0.500000 0.329328 0.000000
O O4 0.397057 0.231721 0.136170
O O5 0.081357 0.500000 0.735445
O O6 0.137822 0.263292 0.628452
O O7 0.008254 0.253054 0.718654
O O8 0.250000 0.204822 0.485388
O O9 0.380948 0.214107 0.385825
O O10 0.342862 0.000000 0.530274
O O11 0.440441 0.000000 0.263555
#
# Coordination Sequence:
#
# PCOD9401474 Si02
#       4
#     8   8   8   8
#     4   8  16  31  50  75 105 131 161 208 257 298
#     4  10  20  34  54  79 105 133 168 210 255 304
#     4  10  22  38  52  71 103 138 172 212 254 298
#     4  10  19  32  54  80 103 132 171 211 254 304
#
# _framework density 17.849112000000002
#
# number of rings (size 3 to 8) (size 9 to 14) (size 15 to 20)
#    0.000    2.500    0.000    3.750    0.000   11.000 
#    0.000    1.250    0.000    4.500    0.000    0.000 
#    0.000    0.000    0.000    0.000    0.000    0.000 
#
# Total GULP energy -178482.415165 kJ/mol
# GULP energy per Si atom -5577.575474 kJ/mol
# Density = 1.780849 g / cm^3
# Si number density = 17.849112 Si / 1000 Ang^3
#
#
#
# Elastic Constant Matrix: (Units=GPa)
#
#
# Indices 1 2 3 4 5 6 
#
# 1 17.2511 3.0960 -4.9498 0.0000 0.0000 0.0000
# 2 3.0960 21.0606 10.1821 0.0000 0.0000 0.0000
# 3 -4.9498 10.1821 62.5825 0.0000 0.0000 0.0000
# 4 0.0000 0.0000 0.0000 38.2195 0.0000 0.0000
# 5 0.0000 0.0000 0.0000 0.0000 -3.8000 0.0000
# 6 0.0000 0.0000 0.0000 0.0000 0.0000 -2.3631
#
#
#
# Elastic Compliance Matrix: (Units=1/GPa)
#
#
# Indices 1 2 3 4 5 6 
#
# 1 0.062207 -0.012507 0.006955 0.000000 0.000000 0.000000
# 2 -0.012507 0.054051 -0.009783 0.000000 0.000000 0.000000
# 3 0.006955 -0.009783 0.018121 0.000000 0.000000 0.000000
# 4 0.000000 0.000000 0.000000 0.026165 0.000000 0.000000
# 5 0.000000 0.000000 0.000000 0.000000 -0.263159 0.000000
# 6 0.000000 0.000000 0.000000 0.000000 0.000000 -0.423168
#
#
# Mechanical properties :
#
#
# Convention : Reuss Voigt Hill
#
# Bulk Modulus (GPa) = 9.64248 13.06120 11.35184
# Shear Modulus (GPa) = -10.85673 12.58233 0.86280
#
# Velocity S-wave (km/s) = -2.46895 2.65793 0.69601
# Velocity P-wave (km/s) = 1.64732 4.09303 2.64945
#
# Compressibility (1/GPa) = 0.10370781
#
# Stress axis : x y z
#
# Youngs Moduli (GPa) = 16.07526 18.50121 55.18546
#
# Poissons Ratio (x) = 0.23140 -0.38382
# Poissons Ratio (y) = 0.20106 0.53989
# Poissons Ratio (z) = -0.11180 0.18100
#
# Static dielectric constant tensor:
#      x y z
#    x 1.582810 0.000000 0.000000 
#    y 0.000000 1.596830 0.000000 
#    z 0.000000 0.000000 1.627990 
# 
# From -- ./inp_files/10264.got.cif
#   From: 2010.05.17/outbox.cif.g08.bks.cpg/sg51_6_cif.got.tgz:10264.got - 2010.06.03 11:52:47.
