data_PCOD9401258
_publ_section_title
;
Structure prediction by ZEFSAII (Michael W. Deem and Ramdas Pophale) SiO2 
 PCOD9401258
Probable space group: P M M A
;
_chemical_formula_sum "Si O2"
_cell_formula_units_Z 48
_cell_length_a 17.550704
_cell_length_b 16.827084
_cell_length_c 9.205112
_cell_angle_alpha 90.000000
_cell_angle_beta 90.000000
_cell_angle_gamma 90.000000
_cell_volume 2718.519681
_symmetry_space_group_name_H-M "P M M A"
_symmetry_group_IT_number 51
_symmetry_cell_setting 'orthorhombic'
loop_
_space_group_symop_operation_xyz
x,y,z
1/2-x,-y,z
1/2+x,-y,-z
-x,y,-z
-x,-y,-z
1/2+x,y,-z
1/2-x,y,z
x,-y,z
loop_
_atom_site_type_symbol
_atom_site_label
_atom_site_fract_x
_atom_site_fract_y
_atom_site_fract_z
Si Si1 0.060144 0.320381 0.287802
Si Si2 0.415811 0.161911 0.480676
Si Si3 0.658880 0.087441 0.788162
Si Si4 0.835142 0.409204 0.501782
Si Si5 0.115344 0.719519 0.724327
Si Si6 0.839426 0.248114 0.948755
O O1 0.074103 0.242332 0.386511
O O2 0.097930 0.389531 0.383729
O O3 0.970131 0.316918 0.261810
O O4 0.108395 0.308328 0.142380
O O5 0.500000 0.126265 0.500000
O O6 0.364932 0.107636 0.377383
O O7 0.386559 0.197770 0.632559
O O8 0.750000 0.085428 0.794456
O O9 0.629216 0.000000 0.828861
O O10 0.635619 0.159846 0.894119
O O11 0.750000 0.399595 0.567931
O O12 0.842162 0.500000 0.451378
O O13 0.841248 0.346017 0.371474
O O14 0.148508 0.737503 0.881649
O O15 0.750000 0.257332 0.911668
#
# Coordination Sequence:
#
# PCOD9401258 Si02
#       6
#     8   8   8   8   8   8
#     4   9  18  33  52  72  98 134 171 201 237 297
#     4   8  16  30  49  71  95 126 164 204 244 291
#     4   9  18  32  49  70  98 133 169 204 247 301
#     4  10  20  34  53  78 106 132 162 203 248 295
#     4  10  19  32  52  77 102 129 166 211 253 293
#     4  10  19  32  52  74 100 134 170 209 251 298
#
# _framework density 17.656668
#
# number of rings (size 3 to 8) (size 9 to 14) (size 15 to 20)
#    0.000    2.667    0.000    3.000    0.000    6.333 
#    0.000    1.667    0.000   20.000    0.000    0.000 
#    0.000    0.000    0.000    0.000    0.000    0.000 
#
# Total GULP energy -267227.935534 kJ/mol
# GULP energy per Si atom -5567.248657 kJ/mol
# Density = 1.761648 g / cm^3
# Si number density = 17.656668 Si / 1000 Ang^3
#
#
#
# Elastic Constant Matrix: (Units=GPa)
#
#
# Indices 1 2 3 4 5 6 
#
# 1 48.4839 18.1495 3.4647 0.0000 0.0000 0.0000
# 2 18.1495 70.4190 23.5125 0.0000 0.0000 0.0000
# 3 3.4647 23.5125 73.9120 0.0000 0.0000 0.0000
# 4 0.0000 0.0000 0.0000 -11.8199 0.0000 0.0000
# 5 0.0000 0.0000 0.0000 0.0000 26.3704 0.0000
# 6 0.0000 0.0000 0.0000 0.0000 0.0000 7.5036
#
#
#
# Elastic Compliance Matrix: (Units=1/GPa)
#
#
# Indices 1 2 3 4 5 6 
#
# 1 0.022881 -0.006197 0.000899 0.000000 0.000000 0.000000
# 2 -0.006197 0.017567 -0.005298 0.000000 0.000000 0.000000
# 3 0.000899 -0.005298 0.015173 0.000000 0.000000 0.000000
# 4 0.000000 0.000000 0.000000 -0.084603 0.000000 0.000000
# 5 0.000000 0.000000 0.000000 0.000000 0.037921 0.000000
# 6 0.000000 0.000000 0.000000 0.000000 0.000000 0.133269
#
#
# Mechanical properties :
#
#
# Convention : Reuss Voigt Hill
#
# Bulk Modulus (GPa) = 29.04595 31.45202 30.24898
# Shear Modulus (GPa) = 28.59164 14.25672 21.42418
#
# Velocity S-wave (km/s) = 4.02843 2.84463 3.48713
# Velocity P-wave (km/s) = 6.17445 5.35173 5.77775
#
# Compressibility (1/GPa) = 0.03442821
#
# Stress axis : x y z
#
# Youngs Moduli (GPa) = 43.70422 56.92522 65.90760
#
# Poissons Ratio (x) = 0.35279 -0.05924
# Poissons Ratio (y) = 0.27085 0.34916
# Poissons Ratio (z) = -0.03929 0.30158
#
# Static dielectric constant tensor:
#      x y z
#    x 1.639580 0.000000 0.000000 
#    y 0.000000 1.616580 0.000000 
#    z 0.000000 0.000000 1.606290 
# 
# From -- ./inp_files/8227.got.cif
#   From: 2010.05.17/outbox.cif.g08.bks.cpg/sg51_5_cif.got.tgz:8227.got - 2010.06.03 11:52:47.
