data_PCOD9401851
_publ_section_title
;
Structure prediction by ZEFSAII (Michael W. Deem and Ramdas Pophale) SiO2 
 PCOD9401851
Probable space group: P M M A
;
_chemical_formula_sum "Si O2"
_cell_formula_units_Z 56
_cell_length_a 19.865688
_cell_length_b 7.435839
_cell_length_c 16.831935
_cell_angle_alpha 90.000000
_cell_angle_beta 90.000000
_cell_angle_gamma 90.000000
_cell_volume 2486.380744
_symmetry_space_group_name_H-M "P M M A"
_symmetry_group_IT_number 51
_symmetry_cell_setting 'orthorhombic'
loop_
_space_group_symop_operation_xyz
x,y,z
1/2-x,-y,z
1/2+x,-y,-z
-x,y,-z
-x,-y,-z
1/2+x,y,-z
1/2-x,y,z
x,-y,z
loop_
_atom_site_type_symbol
_atom_site_label
_atom_site_fract_x
_atom_site_fract_y
_atom_site_fract_z
Si Si1 0.001673 0.781940 0.409813
Si Si2 0.750000 0.720242 0.555482
Si Si3 0.750000 0.285153 0.371643
Si Si4 0.597399 0.280414 0.848689
Si Si5 0.826960 0.280893 0.008540
Si Si6 0.055173 0.296504 0.876821
Si Si7 0.362557 0.705012 0.323274
Si Si8 0.110448 0.209175 0.709171
O O1 0.935389 0.726668 0.363254
O O2 0.000000 0.721358 0.500000
O O3 0.064539 0.707650 0.362503
O O4 0.006392 0.000000 0.409537
O O5 0.750000 0.500000 0.550792
O O6 0.750000 0.781847 0.463540
O O7 0.686805 0.780581 0.609182
O O8 0.750000 0.500000 0.375736
O O9 0.814358 0.227847 0.321162
O O10 0.593265 0.500000 0.842809
O O11 0.647548 0.236215 0.920198
O O12 0.520481 0.218963 0.867351
O O13 0.626679 0.214717 0.764336
O O14 0.750000 0.220244 0.024389
O O15 0.825334 0.500000 0.015046
O O16 0.886896 0.215707 0.066722
O O17 0.044299 0.500000 0.907259
O O18 0.088719 0.302372 0.790033
O O19 0.338902 0.500000 0.310453
O O20 0.095339 0.000000 0.723379
#
# Coordination Sequence:
#
# PCOD9401851 Si02
#       8
#     8   4   4   8   8   8   8   8
#     4  10  21  37  56  79 109 145 186 230 274 330
#     4   9  20  35  53  82 115 144 182 235 287 333
#     4  11  23  39  57  78 109 148 188 231 279 337
#     4   9  17  30  51  79 112 145 179 224 276 327
#     4   9  18  30  50  82 114 144 181 228 275 322
#     4  10  19  34  55  82 112 145 185 227 274 327
#     4  10  19  33  55  83 112 145 184 230 284 332
#     4  11  23  38  57  82 112 146 185 232 283 332
#
# _framework density 22.522696
#
# number of rings (size 3 to 8) (size 9 to 14) (size 15 to 20)
#    0.000    2.143    1.429    1.929    2.000    2.571 
#    0.000    1.071    0.000    2.571    0.000    0.000 
#    0.000    0.000    0.000    0.000    0.000    0.000 
#
# Total GULP energy -312708.950860 kJ/mol
# GULP energy per Si atom -5584.088408 kJ/mol
# Density = 2.247143 g / cm^3
# Si number density = 22.522696 Si / 1000 Ang^3
#
#
#
# Elastic Constant Matrix: (Units=GPa)
#
#
# Indices 1 2 3 4 5 6 
#
# 1 80.7937 -8.6796 -18.2131 0.0000 0.0000 0.0000
# 2 -8.6796 69.9029 2.1335 0.0000 0.0000 0.0000
# 3 -18.2131 2.1335 76.0536 0.0000 0.0000 0.0000
# 4 0.0000 0.0000 0.0000 -20.4361 0.0000 0.0000
# 5 0.0000 0.0000 0.0000 0.0000 43.8097 0.0000
# 6 0.0000 0.0000 0.0000 0.0000 0.0000 -64.4172
#
#
#
# Elastic Compliance Matrix: (Units=1/GPa)
#
#
# Indices 1 2 3 4 5 6 
#
# 1 0.013249 0.001550 0.003129 0.000000 0.000000 0.000000
# 2 0.001550 0.014499 -0.000036 0.000000 0.000000 0.000000
# 3 0.003129 -0.000036 0.013899 0.000000 0.000000 0.000000
# 4 0.000000 0.000000 0.000000 -0.048933 0.000000 0.000000
# 5 0.000000 0.000000 0.000000 0.000000 0.022826 0.000000
# 6 0.000000 0.000000 0.000000 0.000000 0.000000 -0.015524
#
#
# Mechanical properties :
#
#
# Convention : Reuss Voigt Hill
#
# Bulk Modulus (GPa) = 19.63327 19.69240 19.66283
# Shear Modulus (GPa) = 648.69667 8.55856 328.62762
#
# Velocity S-wave (km/s) = 16.98954 1.95147 12.09241
# Velocity P-wave (km/s) = 19.83923 3.72021 14.27297
#
# Compressibility (1/GPa) = 0.05093395
#
# Stress axis : x y z
#
# Youngs Moduli (GPa) = 75.47664 68.96997 71.94738
#
# Poissons Ratio (x) = -0.10688 -0.22515
# Poissons Ratio (y) = -0.11696 0.00256
# Poissons Ratio (z) = -0.23620 0.00246
#
# Static dielectric constant tensor:
#      x y z
#    x 1.474060 0.000000 0.000000 
#    y 0.000000 1.909770 0.000000 
#    z 0.000000 0.000000 1.799750 
# 
# From -- ./inp_files/25865.got.cif
#   From: 2010.05.17/outbox.cif.g08.bks.cpg/sg51_13_cif.got.tgz:25865.got - 2010.06.03 11:52:47.
