data_PCOD9401795
_publ_section_title
;
Structure prediction by ZEFSAII (Michael W. Deem and Ramdas Pophale) SiO2 
 PCOD9401795
Probable space group: P M M A
;
_chemical_formula_sum "Si O2"
_cell_formula_units_Z 48
_cell_length_a 25.962567
_cell_length_b 7.751808
_cell_length_c 12.227339
_cell_angle_alpha 90.000000
_cell_angle_beta 90.000000
_cell_angle_gamma 90.000000
_cell_volume 2460.835542
_symmetry_space_group_name_H-M "P M M A"
_symmetry_group_IT_number 51
_symmetry_cell_setting 'orthorhombic'
loop_
_space_group_symop_operation_xyz
x,y,z
1/2-x,-y,z
1/2+x,-y,-z
-x,y,-z
-x,-y,-z
1/2+x,y,-z
1/2-x,y,z
x,-y,z
loop_
_atom_site_type_symbol
_atom_site_label
_atom_site_fract_x
_atom_site_fract_y
_atom_site_fract_z
Si Si1 0.191476 0.210361 0.372755
Si Si2 0.691311 0.208417 0.377792
Si Si3 0.902781 0.211674 0.774218
Si Si4 0.408954 0.697122 0.750445
Si Si5 0.059676 0.791288 0.991880
Si Si6 0.994439 0.198370 0.620035
O O1 0.250000 0.265006 0.349011
O O2 0.178591 0.262881 0.497419
O O3 0.149351 0.267505 0.285534
O O4 0.191190 0.000000 0.372542
O O5 0.750000 0.264517 0.353654
O O6 0.647995 0.269046 0.294567
O O7 0.691139 0.000000 0.376708
O O8 0.910966 0.267240 0.898965
O O9 0.951030 0.271408 0.700509
O O10 0.903222 0.000000 0.776449
O O11 0.422585 0.500000 0.729648
O O12 0.451284 0.802148 0.682180
O O13 0.415403 0.733891 0.878504
O O14 0.059219 0.000000 0.990904
O O15 0.000000 0.734866 0.000000
O O16 0.000000 0.279139 0.500000
O O17 0.977558 0.000000 0.601362
#
# Coordination Sequence:
#
# PCOD9401795 Si02
#       6
#     8   8   8   8   8   8
#     4   8  14  27  51  83 110 128 159 215 276 324
#     4   9  18  35  59  82 105 137 178 221 265 321
#     4   9  16  28  49  76 102 134 173 219 269 311
#     4  12  24  35  51  77 112 145 177 220 274 334
#     4  10  19  35  55  73 102 144 191 231 260 309
#     4  10  19  33  55  79 104 136 177 223 270 322
#
# _framework density 19.505569999999999
#
# number of rings (size 3 to 8) (size 9 to 14) (size 15 to 20)
#    0.000    2.333    1.667    3.500    0.000    3.667 
#    0.000    0.833    0.000    4.000    0.000    0.000 
#    0.000    0.000    0.000    0.000    0.000    0.000 
#
# Total GULP energy -267900.332228 kJ/mol
# GULP energy per Si atom -5581.256921 kJ/mol
# Density = 1.946117 g / cm^3
# Si number density = 19.505570 Si / 1000 Ang^3
#
#
#
# Elastic Constant Matrix: (Units=GPa)
#
#
# Indices 1 2 3 4 5 6 
#
# 1 131.1713 -1.5326 99.9566 0.0000 0.0000 0.0000
# 2 -1.5326 30.7513 2.3807 0.0000 0.0000 0.0000
# 3 99.9566 2.3807 180.4992 0.0000 0.0000 0.0000
# 4 0.0000 0.0000 0.0000 -182.9836 0.0000 0.0000
# 5 0.0000 0.0000 0.0000 0.0000 24.2048 0.0000
# 6 0.0000 0.0000 0.0000 0.0000 0.0000 -29.8952
#
#
#
# Elastic Compliance Matrix: (Units=1/GPa)
#
#
# Indices 1 2 3 4 5 6 
#
# 1 0.013236 0.001228 -0.007346 0.000000 0.000000 0.000000
# 2 0.001228 0.032666 -0.001111 0.000000 0.000000 0.000000
# 3 -0.007346 -0.001111 0.009623 0.000000 0.000000 0.000000
# 4 0.000000 0.000000 0.000000 -0.005465 0.000000 0.000000
# 5 0.000000 0.000000 0.000000 0.000000 0.041314 0.000000
# 6 0.000000 0.000000 0.000000 0.000000 0.000000 -0.033450
#
#
# Mechanical properties :
#
#
# Convention : Reuss Voigt Hill
#
# Bulk Modulus (GPa) = 24.35013 60.44792 42.39902
# Shear Modulus (GPa) = 58.09221 -21.62698 18.23262
#
# Velocity S-wave (km/s) = 5.46324 -3.33342 3.06067
# Velocity P-wave (km/s) = 7.23235 4.03011 5.85443
#
# Compressibility (1/GPa) = 0.04106754
#
# Stress axis : x y z
#
# Youngs Moduli (GPa) = 75.55297 30.61268 103.91954
#
# Poissons Ratio (x) = -0.03760 0.76338
# Poissons Ratio (y) = -0.09280 0.11546
# Poissons Ratio (z) = 0.55500 0.03401
#
# Static dielectric constant tensor:
#      x y z
#    x 1.659370 0.000000 0.000000 
#    y 0.000000 1.720290 0.000000 
#    z 0.000000 0.000000 1.662020 
# 
# From -- ./inp_files/18570.got.cif
#   From: 2010.05.17/outbox.cif.g08.bks.cpg/sg51_10_cif.got.tgz:18570.got - 2010.06.03 11:52:47.
