data_PCOD9401848
_publ_section_title
;
Structure prediction by ZEFSAII (Michael W. Deem and Ramdas Pophale) SiO2 
 PCOD9401848
Probable space group: P M M A
;
_chemical_formula_sum "Si O2"
_cell_formula_units_Z 36
_cell_length_a 7.923167
_cell_length_b 13.195391
_cell_length_c 17.009376
_cell_angle_alpha 90.000000
_cell_angle_beta 90.000000
_cell_angle_gamma 90.000000
_cell_volume 1778.318125
_symmetry_space_group_name_H-M "P M M A"
_symmetry_group_IT_number 51
_symmetry_cell_setting 'orthorhombic'
loop_
_space_group_symop_operation_xyz
x,y,z
1/2-x,-y,z
1/2+x,-y,-z
-x,y,-z
-x,-y,-z
1/2+x,y,-z
1/2-x,y,z
x,-y,z
loop_
_atom_site_type_symbol
_atom_site_label
_atom_site_fract_x
_atom_site_fract_y
_atom_site_fract_z
Si Si1 0.051678 0.391481 0.882211
Si Si2 0.049009 0.669042 0.288940
Si Si3 0.049995 0.500000 0.590740
Si Si4 0.952370 0.169807 0.083999
Si Si5 0.450189 0.891085 0.256431
O O1 0.250000 0.392915 0.902107
O O2 0.976041 0.500000 0.906080
O O3 0.979658 0.286211 0.914441
O O4 0.034393 0.380394 0.788039
O O5 0.250000 0.671270 0.273989
O O6 0.985870 0.785477 0.293249
O O7 0.016432 0.599180 0.363680
O O8 0.250000 0.500000 0.597663
O O9 0.000000 0.500000 0.500000
O O10 0.750000 0.170729 0.091586
O O11 0.022754 0.119043 0.162524
O O12 0.000000 0.124456 0.000000
O O13 0.250000 0.893219 0.271573
O O14 0.522147 0.000000 0.282135
#
# Coordination Sequence:
#
# PCOD9401848 Si02
#       5
#     8   8   4   8   8
#     4   9  17  30  48  69  97 136 177 218 265 319
#     4  10  19  33  55  83 111 139 175 215 258 312
#     4  12  24  38  58  86 119 148 173 206 252 304
#     4  10  20  32  46  68  99 136 180 229 279 323
#     4   9  19  36  57  79 104 138 180 224 268 315
#
# _framework density 20.243846000000001
#
# number of rings (size 3 to 8) (size 9 to 14) (size 15 to 20)
#    0.000    2.222    1.111    2.333    0.000    3.111 
#    0.000    0.000    0.000    0.667    0.000    0.000 
#    0.000    0.000    0.000    0.000    0.000    0.000 
#
# Total GULP energy -200880.111303 kJ/mol
# GULP energy per Si atom -5580.003092 kJ/mol
# Density = 2.019777 g / cm^3
# Si number density = 20.243846 Si / 1000 Ang^3
#
#
#
# Elastic Constant Matrix: (Units=GPa)
#
#
# Indices 1 2 3 4 5 6 
#
# 1 31.7058 3.4374 -18.8058 0.0000 0.0000 0.0000
# 2 3.4374 175.3223 36.1672 0.0000 0.0000 0.0000
# 3 -18.8058 36.1672 89.5269 0.0000 0.0000 0.0000
# 4 0.0000 0.0000 0.0000 5.7849 0.0000 0.0000
# 5 0.0000 0.0000 0.0000 0.0000 20.5948 0.0000
# 6 0.0000 0.0000 0.0000 0.0000 0.0000 4.0559
#
#
#
# Elastic Compliance Matrix: (Units=1/GPa)
#
#
# Indices 1 2 3 4 5 6 
#
# 1 0.037040 -0.002543 0.008808 0.000000 0.000000 0.000000
# 2 -0.002543 0.006397 -0.003118 0.000000 0.000000 0.000000
# 3 0.008808 -0.003118 0.014280 0.000000 0.000000 0.000000
# 4 0.000000 0.000000 0.000000 0.172863 0.000000 0.000000
# 5 0.000000 0.000000 0.000000 0.000000 0.048556 0.000000
# 6 0.000000 0.000000 0.000000 0.000000 0.000000 0.246555
#
#
# Mechanical properties :
#
#
# Convention : Reuss Voigt Hill
#
# Bulk Modulus (GPa) = 15.62275 37.57252 26.59763
# Shear Modulus (GPa) = 9.24668 24.47087 16.85877
#
# Velocity S-wave (km/s) = 2.13953 3.48056 2.88893
# Velocity P-wave (km/s) = 3.71987 5.89514 4.92900
#
# Compressibility (1/GPa) = 0.06400923
#
# Stress axis : x y z
#
# Youngs Moduli (GPa) = 26.99785 156.32450 70.02905
#
# Poissons Ratio (x) = 0.39756 -0.61681
# Poissons Ratio (y) = 0.06866 0.21838
# Poissons Ratio (z) = -0.23779 0.48749
#
# Static dielectric constant tensor:
#      x y z
#    x 1.717830 0.000000 0.000000 
#    y 0.000000 1.826040 0.000000 
#    z 0.000000 0.000000 1.643280 
# 
# From -- ./inp_files/20354.got.cif
#   From: 2010.05.17/outbox.cif.g08.bks.cpg/sg51_11_cif.got.tgz:20354.got - 2010.06.03 11:52:47.
