data_PCOD9401086
_publ_section_title
;
Structure prediction by ZEFSAII (Michael W. Deem and Ramdas Pophale) SiO2 
 PCOD9401086
Probable space group: P M M A
;
_chemical_formula_sum "Si O2"
_cell_formula_units_Z 64
_cell_length_a 8.484282
_cell_length_b 22.890607
_cell_length_c 16.604832
_cell_angle_alpha 90.000000
_cell_angle_beta 90.000000
_cell_angle_gamma 90.000000
_cell_volume 3224.830482
_symmetry_space_group_name_H-M "P M M A"
_symmetry_group_IT_number 51
_symmetry_cell_setting 'orthorhombic'
loop_
_space_group_symop_operation_xyz
x,y,z
1/2-x,-y,z
1/2+x,-y,-z
-x,y,-z
-x,-y,-z
1/2+x,y,-z
1/2-x,y,z
x,-y,z
loop_
_atom_site_type_symbol
_atom_site_label
_atom_site_fract_x
_atom_site_fract_y
_atom_site_fract_z
Si Si1 0.933356 0.135595 0.247319
Si Si2 0.560219 0.068804 0.087555
Si Si3 0.941587 0.308442 0.629073
Si Si4 0.933628 0.564741 0.609298
Si Si5 0.562065 0.823203 0.585622
Si Si6 0.567490 0.729312 0.200512
Si Si7 0.431982 0.648498 0.087899
Si Si8 0.572322 0.434488 0.219749
O O1 0.750000 0.118863 0.258571
O O2 0.997246 0.098587 0.171105
O O3 0.941096 0.202584 0.218676
O O4 0.010019 0.139439 0.336225
O O5 0.750000 0.075200 0.086830
O O6 0.520738 0.000000 0.091417
O O7 0.500000 0.090893 0.000000
O O8 0.750000 0.310058 0.629717
O O9 0.997530 0.369867 0.589151
O O10 0.992702 0.245320 0.593816
O O11 0.004367 0.304298 0.720523
O O12 0.750000 0.563498 0.585692
O O13 0.002972 0.500000 0.586938
O O14 0.952634 0.566707 0.705870
O O15 0.500000 0.845528 0.500000
O O16 0.750000 0.821635 0.584653
O O17 0.750000 0.714431 0.185873
O O18 0.462288 0.712316 0.124750
O O19 0.250000 0.633119 0.089991
O O20 0.526933 0.608044 0.149050
O O21 0.500000 0.643668 0.000000
O O22 0.750000 0.423354 0.251193
O O23 0.570307 0.500000 0.186898
#
# Coordination Sequence:
#
# PCOD9401086 Si02
#       8
#     8   8   8   8   8   8   8   8
#     4   9  19  35  56  83 115 151 189 230 278 328
#     4   9  18  34  57  86 121 159 197 236 276 322
#     4   9  17  30  49  72  97 128 165 208 260 321
#     4   9  16  27  46  70  93 120 157 204 258 318
#     4  10  20  34  54  81 112 147 189 235 286 339
#     4  10  19  32  49  70  96 126 163 208 259 314
#     4  12  24  36  48  62  86 121 161 206 259 318
#     4  10  20  33  48  66  87 113 151 201 257 317
#
# _framework density 19.846005000000002
#
# number of rings (size 3 to 8) (size 9 to 14) (size 15 to 20)
#    0.000    2.250    1.250    2.250    0.000    3.000 
#    0.000    1.250    0.000    0.750    0.000    0.000 
#    0.000    0.000    0.000    0.000    0.000    0.375 
#
# Total GULP energy -356553.886054 kJ/mol
# GULP energy per Si atom -5571.154470 kJ/mol
# Density = 1.980083 g / cm^3
# Si number density = 19.846005 Si / 1000 Ang^3
#
#
#
# Elastic Constant Matrix: (Units=GPa)
#
#
# Indices 1 2 3 4 5 6 
#
# 1 26.4250 15.9368 18.3726 0.0000 0.0000 0.0000
# 2 15.9368 54.3749 44.7165 0.0000 0.0000 0.0000
# 3 18.3726 44.7165 154.4100 0.0000 0.0000 0.0000
# 4 0.0000 0.0000 0.0000 -30.4268 0.0000 0.0000
# 5 0.0000 0.0000 0.0000 0.0000 16.6676 0.0000
# 6 0.0000 0.0000 0.0000 0.0000 0.0000 17.8273
#
#
#
# Elastic Compliance Matrix: (Units=1/GPa)
#
#
# Indices 1 2 3 4 5 6 
#
# 1 0.046472 -0.011910 -0.002081 0.000000 0.000000 0.000000
# 2 -0.011910 0.027192 -0.006458 0.000000 0.000000 0.000000
# 3 -0.002081 -0.006458 0.008594 0.000000 0.000000 0.000000
# 4 0.000000 0.000000 0.000000 -0.032866 0.000000 0.000000
# 5 0.000000 0.000000 0.000000 0.000000 0.059997 0.000000
# 6 0.000000 0.000000 0.000000 0.000000 0.000000 0.056094
#
#
# Mechanical properties :
#
#
# Convention : Reuss Voigt Hill
#
# Bulk Modulus (GPa) = 24.17646 43.69576 33.93611
# Shear Modulus (GPa) = 22.71014 11.22588 16.96801
#
# Velocity S-wave (km/s) = 3.38645 2.38092 2.92718
# Velocity P-wave (km/s) = 5.24397 5.44275 5.34428
#
# Compressibility (1/GPa) = 0.04136255
#
# Stress axis : x y z
#
# Youngs Moduli (GPa) = 21.51824 36.77547 116.36131
#
# Poissons Ratio (x) = 0.43798 0.24210
# Poissons Ratio (y) = 0.25627 0.75142
# Poissons Ratio (z) = 0.04477 0.23748
#
# Static dielectric constant tensor:
#      x y z
#    x 1.691820 0.000000 0.000000 
#    y 0.000000 1.753890 0.000000 
#    z 0.000000 0.000000 1.694020 
# 
# From -- ./inp_files/22320.got.cif
#   From: 2010.05.17/outbox.cif.g08.bks.cpg/sg51_12_cif.got.tgz:22320.got - 2010.06.03 11:52:47.
