data_PCOD9401083
_publ_section_title
;
Structure prediction by ZEFSAII (Michael W. Deem and Ramdas Pophale) SiO2 
 PCOD9401083
Probable space group: P M M A
;
_chemical_formula_sum "Si O2"
_cell_formula_units_Z 44
_cell_length_a 8.097950
_cell_length_b 17.246630
_cell_length_c 16.416886
_cell_angle_alpha 90.000000
_cell_angle_beta 90.000000
_cell_angle_gamma 90.000000
_cell_volume 2292.820836
_symmetry_space_group_name_H-M "P M M A"
_symmetry_group_IT_number 51
_symmetry_cell_setting 'orthorhombic'
loop_
_space_group_symop_operation_xyz
x,y,z
1/2-x,-y,z
1/2+x,-y,-z
-x,y,-z
-x,-y,-z
1/2+x,y,-z
1/2-x,y,z
x,-y,z
loop_
_atom_site_type_symbol
_atom_site_label
_atom_site_fract_x
_atom_site_fract_y
_atom_site_fract_z
Si Si1 0.949616 0.089499 0.590142
Si Si2 0.551859 0.801036 0.736379
Si Si3 0.053981 0.500000 0.592000
Si Si4 0.057546 0.416148 0.887137
Si Si5 0.946850 0.757107 0.086683
Si Si6 0.555110 0.375190 0.714794
O O1 0.750000 0.090038 0.592272
O O2 0.009760 0.138258 0.668555
O O3 0.000000 0.118942 0.500000
O O4 0.006086 0.000000 0.596096
O O5 0.750000 0.807315 0.737174
O O6 0.498190 0.802213 0.831257
O O7 0.507419 0.714426 0.707113
O O8 0.250000 0.500000 0.600541
O O9 0.000000 0.500000 0.500000
O O10 0.980833 0.575143 0.636085
O O11 0.250000 0.416682 0.911765
O O12 0.983256 0.500000 0.911478
O O13 0.983445 0.332176 0.911290
O O14 0.044260 0.411489 0.789675
O O15 0.750000 0.751151 0.089012
O O16 0.000000 0.791684 0.000000
O O17 0.750000 0.379282 0.734885
#
# Coordination Sequence:
#
# PCOD9401083 Si02
#       6
#     8   8   4   8   8   8
#     4   9  18  34  57  85 115 143 170 207 258 315
#     4   9  19  35  55  79 108 141 176 215 260 315
#     4  12  24  36  48  64  91 128 171 218 264 310
#     4   9  17  30  48  68  93 128 169 213 260 311
#     4  10  20  33  50  74 104 140 181 224 269 316
#     4  10  19  32  49  70  95 127 169 213 258 306
#
# _framework density 19.190334
#
# number of rings (size 3 to 8) (size 9 to 14) (size 15 to 20)
#    0.000    2.364    0.909    1.909    0.000    3.273 
#    0.000    1.818    0.000    0.545    0.000    0.000 
#    0.000    0.000    0.000    0.000    0.000    0.000 
#
# Total GULP energy -245250.785762 kJ/mol
# GULP energy per Si atom -5573.881495 kJ/mol
# Density = 1.914666 g / cm^3
# Si number density = 19.190334 Si / 1000 Ang^3
#
#
#
# Elastic Constant Matrix: (Units=GPa)
#
#
# Indices 1 2 3 4 5 6 
#
# 1 22.4724 15.7958 4.8264 0.0000 0.0000 0.0000
# 2 15.7958 73.8293 68.2589 0.0000 0.0000 0.0000
# 3 4.8264 68.2589 182.9235 0.0000 0.0000 0.0000
# 4 0.0000 0.0000 0.0000 19.8596 0.0000 0.0000
# 5 0.0000 0.0000 0.0000 0.0000 27.0280 0.0000
# 6 0.0000 0.0000 0.0000 0.0000 0.0000 13.6529
#
#
#
# Elastic Compliance Matrix: (Units=1/GPa)
#
#
# Indices 1 2 3 4 5 6 
#
# 1 0.054660 -0.015818 0.004461 0.000000 0.000000 0.000000
# 2 -0.015818 0.025257 -0.009007 0.000000 0.000000 0.000000
# 3 0.004461 -0.009007 0.008710 0.000000 0.000000 0.000000
# 4 0.000000 0.000000 0.000000 0.050353 0.000000 0.000000
# 5 0.000000 0.000000 0.000000 0.000000 0.036999 0.000000
# 6 0.000000 0.000000 0.000000 0.000000 0.000000 0.073244
#
#
# Mechanical properties :
#
#
# Convention : Reuss Voigt Hill
#
# Bulk Modulus (GPa) = 20.87842 50.77638 35.82740
# Shear Modulus (GPa) = 16.34417 24.79772 20.57094
#
# Velocity S-wave (km/s) = 2.92153 3.59862 3.27761
# Velocity P-wave (km/s) = 4.72057 6.61691 5.74749
#
# Compressibility (1/GPa) = 0.04789634
#
# Stress axis : x y z
#
# Youngs Moduli (GPa) = 18.29497 39.59311 114.80745
#
# Poissons Ratio (x) = 0.62630 -0.51211
# Poissons Ratio (y) = 0.28940 1.03412
# Poissons Ratio (z) = -0.08161 0.35663
#
# Static dielectric constant tensor:
#      x y z
#    x 1.684620 0.000000 0.000000 
#    y 0.000000 1.683860 0.000000 
#    z 0.000000 0.000000 1.678670 
# 
# From -- ./inp_files/20887.got.cif
#   From: 2010.05.17/outbox.cif.g08.bks.cpg/sg51_11_cif.got.tgz:20887.got - 2010.06.03 11:52:47.
