data_PCOD9401078
_publ_section_title
;
Structure prediction by ZEFSAII (Michael W. Deem and Ramdas Pophale) SiO2 
 PCOD9401078
Probable space group: P M M A
;
_chemical_formula_sum "Si O2"
_cell_formula_units_Z 56
_cell_length_a 9.609443
_cell_length_b 19.813739
_cell_length_c 15.606350
_cell_angle_alpha 90.000000
_cell_angle_beta 90.000000
_cell_angle_gamma 90.000000
_cell_volume 2971.433364
_symmetry_space_group_name_H-M "P M M A"
_symmetry_group_IT_number 51
_symmetry_cell_setting 'orthorhombic'
loop_
_space_group_symop_operation_xyz
x,y,z
1/2-x,-y,z
1/2+x,-y,-z
-x,y,-z
-x,-y,-z
1/2+x,y,-z
1/2-x,y,z
x,-y,z
loop_
_atom_site_type_symbol
_atom_site_label
_atom_site_fract_x
_atom_site_fract_y
_atom_site_fract_z
Si Si1 0.405011 0.926252 0.124064
Si Si2 0.592164 0.226402 0.922249
Si Si3 0.591082 0.151010 0.580178
Si Si4 0.409623 0.922971 0.714266
Si Si5 0.413212 0.580710 0.912872
Si Si6 0.590196 0.313846 0.582133
Si Si7 0.582004 0.670029 0.779618
O O1 0.250000 0.924494 0.166713
O O2 0.413244 0.854929 0.077217
O O3 0.530966 0.925431 0.190230
O O4 0.408664 0.000000 0.079355
O O5 0.750000 0.246830 0.939377
O O6 0.556513 0.258582 0.829613
O O7 0.500000 0.252172 0.000000
O O8 0.500000 0.127447 0.500000
O O9 0.750000 0.127491 0.575541
O O10 0.512562 0.124231 0.662653
O O11 0.591844 0.232175 0.580134
O O12 0.250000 0.900369 0.710380
O O13 0.416719 0.000000 0.680749
O O14 0.250000 0.601245 0.919699
O O15 0.415337 0.500000 0.899161
O O16 0.493771 0.617578 0.835701
O O17 0.500000 0.593535 0.000000
O O18 0.500000 0.336489 0.500000
O O19 0.750000 0.336974 0.572305
O O20 0.542583 0.331161 0.679086
O O21 0.750000 0.658114 0.783382
#
# Coordination Sequence:
#
# PCOD9401078 Si02
#       7
#     8   8   8   8   8   8   8
#     4   9  18  34  53  69  91 130 175 216 263 318
#     4  10  21  35  51  76 108 140 178 224 272 323
#     4  10  19  32  49  68  93 125 162 206 260 320
#     4  10  20  32  46  66  90 117 157 210 264 319
#     4  10  21  37  58  86 119 153 189 227 267 317
#     4   9  19  35  55  80 108 139 177 222 269 318
#     4  10  20  35  56  82 114 148 182 224 273 324
#
# _framework density 18.846122999999999
#
# number of rings (size 3 to 8) (size 9 to 14) (size 15 to 20)
#    0.000    2.286    0.000    2.571    0.000    8.000 
#    0.000    1.429    0.000    0.429    0.000    0.000 
#    0.000    0.000    0.000    0.000    0.000    0.000 
#
# Total GULP energy -312005.656195 kJ/mol
# GULP energy per Si atom -5571.529575 kJ/mol
# Density = 1.880323 g / cm^3
# Si number density = 18.846123 Si / 1000 Ang^3
#
#
#
# Elastic Constant Matrix: (Units=GPa)
#
#
# Indices 1 2 3 4 5 6 
#
# 1 120.0564 32.6311 74.0419 0.0000 0.0000 0.0000
# 2 32.6311 54.7900 26.0284 0.0000 0.0000 0.0000
# 3 74.0419 26.0284 131.6391 0.0000 0.0000 0.0000
# 4 0.0000 0.0000 0.0000 25.8409 0.0000 0.0000
# 5 0.0000 0.0000 0.0000 0.0000 35.2700 0.0000
# 6 0.0000 0.0000 0.0000 0.0000 0.0000 30.1154
#
#
#
# Elastic Compliance Matrix: (Units=1/GPa)
#
#
# Indices 1 2 3 4 5 6 
#
# 1 0.013910 -0.005041 -0.006827 0.000000 0.000000 0.000000
# 2 -0.005041 0.021971 -0.001509 0.000000 0.000000 0.000000
# 3 -0.006827 -0.001509 0.011735 0.000000 0.000000 0.000000
# 4 0.000000 0.000000 0.000000 0.038698 0.000000 0.000000
# 5 0.000000 0.000000 0.000000 0.000000 0.028353 0.000000
# 6 0.000000 0.000000 0.000000 0.000000 0.000000 0.033206
#
#
# Mechanical properties :
#
#
# Convention : Reuss Voigt Hill
#
# Bulk Modulus (GPa) = 47.93506 63.54315 55.73910
# Shear Modulus (GPa) = 27.53612 29.83086 28.68349
#
# Velocity S-wave (km/s) = 3.82658 3.98284 3.90549
# Velocity P-wave (km/s) = 6.70924 7.41220 7.06946
#
# Compressibility (1/GPa) = 0.02086156
#
# Stress axis : x y z
#
# Youngs Moduli (GPa) = 71.89070 45.51556 85.21652
#
# Poissons Ratio (x) = 0.22945 0.58178
# Poissons Ratio (y) = 0.36241 0.12857
# Poissons Ratio (z) = 0.49080 0.06867
#
# Static dielectric constant tensor:
#      x y z
#    x 1.649000 0.000000 0.000000 
#    y 0.000000 1.679260 0.000000 
#    z 0.000000 0.000000 1.668370 
# 
# From -- ./inp_files/21820.got.cif
#   From: 2010.05.17/outbox.cif.g08.bks.cpg/sg51_11_cif.got.tgz:21820.got - 2010.06.03 11:52:47.
