data_PCOD9401714
_publ_section_title
;
Structure prediction by ZEFSAII (Michael W. Deem and Ramdas Pophale) SiO2 
 PCOD9401714
Probable space group: P M M A
;
_chemical_formula_sum "Si O2"
_cell_formula_units_Z 36
_cell_length_a 8.806623
_cell_length_b 23.294559
_cell_length_c 10.165344
_cell_angle_alpha 90.000000
_cell_angle_beta 90.000000
_cell_angle_gamma 90.000000
_cell_volume 2085.383717
_symmetry_space_group_name_H-M "P M M A"
_symmetry_group_IT_number 51
_symmetry_cell_setting 'orthorhombic'
loop_
_space_group_symop_operation_xyz
x,y,z
1/2-x,-y,z
1/2+x,-y,-z
-x,y,-z
-x,-y,-z
1/2+x,y,-z
1/2-x,y,z
x,-y,z
loop_
_atom_site_type_symbol
_atom_site_label
_atom_site_fract_x
_atom_site_fract_y
_atom_site_fract_z
Si Si1 0.931827 0.285654 0.643567
Si Si2 0.931573 0.066395 0.143841
Si Si3 0.068599 0.848403 0.357344
Si Si4 0.932094 0.500000 0.145937
Si Si5 0.567042 0.626448 0.147749
O O1 0.750000 0.291973 0.639978
O O2 0.967388 0.218561 0.670595
O O3 0.000000 0.299560 0.500000
O O4 0.001472 0.325874 0.755382
O O5 0.750000 0.071858 0.139053
O O6 0.999667 0.109933 0.248804
O O7 0.968597 0.000000 0.177681
O O8 0.000000 0.077871 0.000000
O O9 0.250000 0.854293 0.361166
O O10 0.000000 0.862133 0.500000
O O11 0.750000 0.500000 0.137685
O O12 0.975257 0.437610 0.201650
O O13 0.000000 0.500000 0.000000
O O14 0.750000 0.630524 0.140939
O O15 0.500000 0.632033 0.000000
#
# Coordination Sequence:
#
# PCOD9401714 Si02
#       5
#     8   8   8   4   8
#     4  10  21  37  55  77 105 138 175 216 263 311
#     4  10  21  37  57  81 109 140 174 214 260 308
#     4  10  21  37  57  79 105 138 176 217 260 309
#     4   8  16  30  49  74 103 134 170 212 258 306
#     4  10  19  33  54  79 106 137 174 216 260 309
#
# _framework density 17.263010000000001
#
# number of rings (size 3 to 8) (size 9 to 14) (size 15 to 20)
#    0.000    2.222    0.000    2.667    0.000    6.222 
#    0.000    0.556    0.000    0.000    0.000    0.000 
#    0.000    0.000    0.000    0.000    0.000    0.000 
#
# Total GULP energy -200825.424308 kJ/mol
# GULP energy per Si atom -5578.484009 kJ/mol
# Density = 1.722372 g / cm^3
# Si number density = 17.263010 Si / 1000 Ang^3
#
#
#
# Elastic Constant Matrix: (Units=GPa)
#
#
# Indices 1 2 3 4 5 6 
#
# 1 66.5703 69.2779 62.7482 0.0000 0.0000 0.0000
# 2 69.2779 140.0254 119.4567 0.0000 0.0000 0.0000
# 3 62.7482 119.4567 129.6022 0.0000 0.0000 0.0000
# 4 0.0000 0.0000 0.0000 171.8908 0.0000 0.0000
# 5 0.0000 0.0000 0.0000 0.0000 36.6136 0.0000
# 6 0.0000 0.0000 0.0000 0.0000 0.0000 51.1909
#
#
#
# Elastic Compliance Matrix: (Units=1/GPa)
#
#
# Indices 1 2 3 4 5 6 
#
# 1 0.031432 -0.012020 -0.004139 0.000000 0.000000 0.000000
# 2 -0.012020 0.038019 -0.029223 0.000000 0.000000 0.000000
# 3 -0.004139 -0.029223 0.036655 0.000000 0.000000 0.000000
# 4 0.000000 0.000000 0.000000 0.005818 0.000000 0.000000
# 5 0.000000 0.000000 0.000000 0.000000 0.027312 0.000000
# 6 0.000000 0.000000 0.000000 0.000000 0.000000 0.019535
#
#
# Mechanical properties :
#
#
# Convention : Reuss Voigt Hill
#
# Bulk Modulus (GPa) = 65.18081 93.24039 79.21060
# Shear Modulus (GPa) = 19.63483 57.58674 38.61079
#
# Velocity S-wave (km/s) = 3.37619 5.78194 4.73442
# Velocity P-wave (km/s) = 7.28269 9.93496 8.71037
#
# Compressibility (1/GPa) = 0.01534194
#
# Stress axis : x y z
#
# Youngs Moduli (GPa) = 31.81464 26.30266 27.28112
#
# Poissons Ratio (x) = 0.31616 0.11292
# Poissons Ratio (y) = 0.38241 0.79724
# Poissons Ratio (z) = 0.13168 0.76865
#
# Static dielectric constant tensor:
#      x y z
#    x 1.573760 0.000000 0.000000 
#    y 0.000000 1.602630 0.000000 
#    z 0.000000 0.000000 1.537800 
# 
# From -- ./inp_files/5233.got.cif
#   From: 2010.05.17/outbox.cif.g08.bks.cpg/sg51_3_cif.got.tgz:5233.got - 2010.06.03 11:52:47.
