data_PCOD9401320
_publ_section_title
;
Structure prediction by ZEFSAII (Michael W. Deem and Ramdas Pophale) SiO2 
 PCOD9401320
Probable space group: P M M A
;
_chemical_formula_sum "Si O2"
_cell_formula_units_Z 48
_cell_length_a 8.722249
_cell_length_b 16.102932
_cell_length_c 19.769406
_cell_angle_alpha 90.000000
_cell_angle_beta 90.000000
_cell_angle_gamma 90.000000
_cell_volume 2776.687851
_symmetry_space_group_name_H-M "P M M A"
_symmetry_group_IT_number 51
_symmetry_cell_setting 'orthorhombic'
loop_
_space_group_symop_operation_xyz
x,y,z
1/2-x,-y,z
1/2+x,-y,-z
-x,y,-z
-x,-y,-z
1/2+x,y,-z
1/2-x,y,z
x,-y,z
loop_
_atom_site_type_symbol
_atom_site_label
_atom_site_fract_x
_atom_site_fract_y
_atom_site_fract_z
Si Si1 0.566329 0.095338 0.924822
Si Si2 0.069241 0.408534 0.168740
Si Si3 0.564933 0.769029 0.675384
Si Si4 0.432272 0.765581 0.826581
Si Si5 0.068629 0.411267 0.332633
Si Si6 0.933448 0.096552 0.425907
O O1 0.750000 0.103960 0.926237
O O2 0.495339 0.162519 0.874731
O O3 0.530046 0.000000 0.904320
O O4 0.500000 0.107258 0.000000
O O5 0.250000 0.400243 0.153049
O O6 0.016683 0.500000 0.144608
O O7 0.057279 0.410452 0.250749
O O8 0.981782 0.325881 0.146887
O O9 0.750000 0.768235 0.677207
O O10 0.504342 0.776313 0.751910
O O11 0.509487 0.679129 0.646466
O O12 0.504910 0.842877 0.629290
O O13 0.250000 0.769659 0.821762
O O14 0.250000 0.412765 0.348757
O O15 0.001710 0.500000 0.356176
O O16 0.750000 0.105045 0.426818
O O17 0.000000 0.115890 0.500000
O O18 0.970770 0.000000 0.411273
#
# Coordination Sequence:
#
# PCOD9401320 Si02
#       6
#     8   8   8   8   8   8
#     4  10  21  38  58  77  99 131 171 212 256 309
#     4   8  14  27  47  70  99 135 172 209 250 297
#     4  10  19  32  52  77 104 134 169 210 254 297
#     4  11  21  32  50  78 110 139 170 211 255 301
#     4   7  11  22  42  68  96 126 160 197 239 287
#     4  10  21  37  55  74  98 130 167 207 254 309
#
# _framework density 17.286781999999999
#
# number of rings (size 3 to 8) (size 9 to 14) (size 15 to 20)
#    0.000    2.667    0.000    5.000    0.000    3.000 
#    0.000    0.000    0.000    2.500    0.000    0.000 
#    0.000    0.000    0.000    0.000    0.000    0.000 
#
# Total GULP energy -267394.369987 kJ/mol
# GULP energy per Si atom -5570.716041 kJ/mol
# Density = 1.724744 g / cm^3
# Si number density = 17.286782 Si / 1000 Ang^3
#
#
#
# Elastic Constant Matrix: (Units=GPa)
#
#
# Indices 1 2 3 4 5 6 
#
# 1 71.8147 68.3203 33.6814 0.0000 0.0000 0.0000
# 2 68.3203 178.5398 82.4138 0.0000 0.0000 0.0000
# 3 33.6814 82.4138 55.2158 0.0000 0.0000 0.0000
# 4 0.0000 0.0000 0.0000 -14.2682 0.0000 0.0000
# 5 0.0000 0.0000 0.0000 0.0000 24.9895 0.0000
# 6 0.0000 0.0000 0.0000 0.0000 0.0000 22.3788
#
#
#
# Elastic Compliance Matrix: (Units=1/GPa)
#
#
# Indices 1 2 3 4 5 6 
#
# 1 0.022025 -0.007158 -0.002751 0.000000 0.000000 0.000000
# 2 -0.007158 0.020335 -0.025984 0.000000 0.000000 0.000000
# 3 -0.002751 -0.025984 0.058572 0.000000 0.000000 0.000000
# 4 0.000000 0.000000 0.000000 -0.070086 0.000000 0.000000
# 5 0.000000 0.000000 0.000000 0.000000 0.040017 0.000000
# 6 0.000000 0.000000 0.000000 0.000000 0.000000 0.044685
#
#
# Mechanical properties :
#
#
# Convention : Reuss Voigt Hill
#
# Bulk Modulus (GPa) = 34.31128 74.93347 54.62237
# Shear Modulus (GPa) = 25.37432 14.69700 20.03566
#
# Velocity S-wave (km/s) = 3.83540 2.91896 3.40813
# Velocity P-wave (km/s) = 6.28531 7.40282 6.86684
#
# Compressibility (1/GPa) = 0.02914494
#
# Stress axis : x y z
#
# Youngs Moduli (GPa) = 45.40331 49.17740 17.07292
#
# Poissons Ratio (x) = 0.35203 0.04696
# Poissons Ratio (y) = 0.32501 0.44363
# Poissons Ratio (z) = 0.12489 1.27784
#
# Static dielectric constant tensor:
#      x y z
#    x 1.536520 0.000000 0.000000 
#    y 0.000000 1.635350 0.000000 
#    z 0.000000 0.000000 1.545280 
# 
# From -- ./inp_files/27550.got.cif
#   From: 2010.05.17/outbox.cif.g08.bks.cpg/sg51_14_cif.got.tgz:27550.got - 2010.06.03 11:52:47.
