data_PCOD9401833
_publ_section_title
;
Structure prediction by ZEFSAII (Michael W. Deem and Ramdas Pophale) SiO2 
 PCOD9401833
Probable space group: P M M A
;
_chemical_formula_sum "Si O2"
_cell_formula_units_Z 56
_cell_length_a 23.718860
_cell_length_b 7.820060
_cell_length_c 14.361343
_cell_angle_alpha 90.000000
_cell_angle_beta 90.000000
_cell_angle_gamma 90.000000
_cell_volume 2663.783667
_symmetry_space_group_name_H-M "P M M A"
_symmetry_group_IT_number 51
_symmetry_cell_setting 'orthorhombic'
loop_
_space_group_symop_operation_xyz
x,y,z
1/2-x,-y,z
1/2+x,-y,-z
-x,y,-z
-x,-y,-z
1/2+x,y,-z
1/2-x,y,z
x,-y,z
loop_
_atom_site_type_symbol
_atom_site_label
_atom_site_fract_x
_atom_site_fract_y
_atom_site_fract_z
Si Si1 0.898238 0.191291 0.034373
Si Si2 0.482003 0.793235 0.817920
Si Si3 0.686436 0.296460 0.873329
Si Si4 0.608263 0.795076 0.338539
Si Si5 0.314403 0.300553 0.814785
Si Si6 0.560709 0.296192 0.531479
Si Si7 0.599026 0.295234 0.731732
O O1 0.855194 0.189721 0.121558
O O2 0.953159 0.269305 0.085786
O O3 0.913156 0.000000 0.002928
O O4 0.859654 0.271009 0.954613
O O5 0.443723 0.737615 0.729005
O O6 0.545361 0.737576 0.798307
O O7 0.480006 0.000000 0.820961
O O8 0.750000 0.228882 0.891626
O O9 0.692105 0.500000 0.863438
O O10 0.655514 0.227315 0.780787
O O11 0.663854 0.723158 0.289659
O O12 0.600147 0.734209 0.443171
O O13 0.609241 0.000000 0.337004
O O14 0.250000 0.251466 0.826542
O O15 0.320653 0.500000 0.841981
O O16 0.500000 0.223937 0.500000
O O17 0.553596 0.500000 0.544637
O O18 0.583365 0.226330 0.629445
O O19 0.605586 0.500000 0.723603
#
# Coordination Sequence:
#
# PCOD9401833 Si02
#       7
#     8   8   8   8   8   8   8
#     4  10  21  36  56  83 112 144 180 222 275 331
#     4   9  19  34  52  80 114 142 171 216 277 333
#     4  10  22  40  58  77 105 144 189 231 270 319
#     4  10  20  33  52  80 113 147 181 222 275 333
#     4  10  20  34  54  80 110 145 184 227 274 325
#     4  10  19  33  55  82 110 142 183 230 277 332
#     4  10  21  36  56  81 108 143 186 231 278 325
#
# _framework density 21.022727
#
# number of rings (size 3 to 8) (size 9 to 14) (size 15 to 20)
#    0.000    2.143    1.429    2.571    0.000    8.000 
#    0.000    3.571    0.000    2.571    0.000    0.000 
#    0.000    0.000    0.000    0.000    0.000    0.000 
#
# Total GULP energy -312455.021236 kJ/mol
# GULP energy per Si atom -5579.553951 kJ/mol
# Density = 2.097488 g / cm^3
# Si number density = 21.022727 Si / 1000 Ang^3
#
#
#
# Elastic Constant Matrix: (Units=GPa)
#
#
# Indices 1 2 3 4 5 6 
#
# 1 49.3688 -0.3104 55.4668 0.0000 0.0000 0.0000
# 2 -0.3104 18.1248 5.6146 0.0000 0.0000 0.0000
# 3 55.4668 5.6146 130.0400 0.0000 0.0000 0.0000
# 4 0.0000 0.0000 0.0000 102.6218 0.0000 0.0000
# 5 0.0000 0.0000 0.0000 0.0000 18.8205 0.0000
# 6 0.0000 0.0000 0.0000 0.0000 0.0000 57.9014
#
#
#
# Elastic Compliance Matrix: (Units=1/GPa)
#
#
# Indices 1 2 3 4 5 6 
#
# 1 0.039524 0.005979 -0.017117 0.000000 0.000000 0.000000
# 2 0.005979 0.056826 -0.005004 0.000000 0.000000 0.000000
# 3 -0.017117 -0.005004 0.015207 0.000000 0.000000 0.000000
# 4 0.000000 0.000000 0.000000 0.009745 0.000000 0.000000
# 5 0.000000 0.000000 0.000000 0.000000 0.053133 0.000000
# 6 0.000000 0.000000 0.000000 0.000000 0.000000 0.017271
#
#
# Mechanical properties :
#
#
# Convention : Reuss Voigt Hill
#
# Bulk Modulus (GPa) = 12.61449 35.45287 24.03368
# Shear Modulus (GPa) = 19.96704 44.98626 32.47665
#
# Velocity S-wave (km/s) = 3.08520 4.63091 3.93470
# Velocity P-wave (km/s) = 4.32489 6.74496 5.66565
#
# Compressibility (1/GPa) = 0.07927394
#
# Stress axis : x y z
#
# Youngs Moduli (GPa) = 25.30097 17.59772 65.75974
#
# Poissons Ratio (x) = -0.10522 1.12559
# Poissons Ratio (y) = -0.15128 0.32905
# Poissons Ratio (z) = 0.43307 0.08806
#
# Static dielectric constant tensor:
#      x y z
#    x 1.772530 0.000000 0.000000 
#    y 0.000000 1.769110 0.000000 
#    z 0.000000 0.000000 1.786920 
# 
# From -- ./inp_files/25789.got.cif
#   From: 2010.05.17/outbox.cif.g08.bks.cpg/sg51_13_cif.got.tgz:25789.got - 2010.06.03 11:52:47.
