data_PCOD9401742
_publ_section_title
;
Structure prediction by ZEFSAII (Michael W. Deem and Ramdas Pophale) SiO2 
 PCOD9401742
Probable space group: P M M A
;
_chemical_formula_sum "Si O2"
_cell_formula_units_Z 40
_cell_length_a 9.828640
_cell_length_b 21.467810
_cell_length_c 10.150427
_cell_angle_alpha 90.000000
_cell_angle_beta 90.000000
_cell_angle_gamma 90.000000
_cell_volume 2141.733764
_symmetry_space_group_name_H-M "P M M A"
_symmetry_group_IT_number 51
_symmetry_cell_setting 'orthorhombic'
loop_
_space_group_symop_operation_xyz
x,y,z
1/2-x,-y,z
1/2+x,-y,-z
-x,y,-z
-x,-y,-z
1/2+x,y,-z
1/2-x,y,z
x,-y,z
loop_
_atom_site_type_symbol
_atom_site_label
_atom_site_fract_x
_atom_site_fract_y
_atom_site_fract_z
Si Si1 0.910636 0.102005 0.626612
Si Si2 0.250000 0.430520 0.147196
Si Si3 0.997902 0.657854 0.842280
Si Si4 0.407493 0.074013 0.881144
Si Si5 0.750000 0.428315 0.170950
Si Si6 0.907932 0.252289 0.623928
O O1 0.750000 0.081769 0.626330
O O2 0.908452 0.177322 0.627883
O O3 0.000000 0.081883 0.500000
O O4 0.000058 0.082127 0.751849
O O5 0.250000 0.500000 0.200995
O O6 0.377114 0.389830 0.184564
O O7 0.250000 0.434982 0.988184
O O8 0.972302 0.718746 0.755829
O O9 0.124671 0.616344 0.798641
O O10 0.000000 0.671039 0.000000
O O11 0.250000 0.098146 0.871767
O O12 0.394026 0.000000 0.904088
O O13 0.500000 0.100787 0.000000
O O14 0.750000 0.500000 0.221983
O O15 0.750000 0.271882 0.610983
O O16 0.000000 0.272006 0.500000
#
# Coordination Sequence:
#
# PCOD9401742 Si02
#       6
#     8   4   8   8   4   8
#     4  10  21  38  59  83 112 149 194 239 283 336
#     4   9  16  30  53  77 105 139 174 223 276 323
#     4  10  19  33  54  81 108 138 180 227 273 329
#     4  10  21  38  60  88 121 155 190 230 280 333
#     4   9  18  30  49  81 111 135 174 223 276 331
#     4  10  22  39  57  79 109 146 185 228 278 331
#
# _framework density 18.676458
#
# number of rings (size 3 to 8) (size 9 to 14) (size 15 to 20)
#    0.000    2.200    1.000    1.800    1.400    5.600 
#    0.000    0.000    0.000    3.600    0.000    0.000 
#    0.000    0.000    0.000    0.000    0.000    0.000 
#
# Total GULP energy -222759.406281 kJ/mol
# GULP energy per Si atom -5568.985157 kJ/mol
# Density = 1.863395 g / cm^3
# Si number density = 18.676458 Si / 1000 Ang^3
#
#
#
# Elastic Constant Matrix: (Units=GPa)
#
#
# Indices 1 2 3 4 5 6 
#
# 1 197.0517 18.4866 58.1053 0.0000 0.0000 0.0000
# 2 18.4866 27.6325 7.4329 0.0000 0.0000 0.0000
# 3 58.1053 7.4329 98.0292 0.0000 0.0000 0.0000
# 4 0.0000 0.0000 0.0000 32.2975 0.0000 0.0000
# 5 0.0000 0.0000 0.0000 0.0000 29.9509 0.0000
# 6 0.0000 0.0000 0.0000 0.0000 0.0000 29.3831
#
#
#
# Elastic Compliance Matrix: (Units=1/GPa)
#
#
# Indices 1 2 3 4 5 6 
#
# 1 0.006440 -0.003350 -0.003563 0.000000 0.000000 0.000000
# 2 -0.003350 0.038685 -0.000948 0.000000 0.000000 0.000000
# 3 -0.003563 -0.000948 0.012385 0.000000 0.000000 0.000000
# 4 0.000000 0.000000 0.000000 0.030962 0.000000 0.000000
# 5 0.000000 0.000000 0.000000 0.000000 0.033388 0.000000
# 6 0.000000 0.000000 0.000000 0.000000 0.000000 0.034033
#
#
# Mechanical properties :
#
#
# Convention : Reuss Voigt Hill
#
# Bulk Modulus (GPa) = 23.92989 54.52922 39.22955
# Shear Modulus (GPa) = 26.94779 34.23887 30.59333
#
# Velocity S-wave (km/s) = 3.80264 4.28631 4.05170
# Velocity P-wave (km/s) = 5.66752 7.33190 6.55277
#
# Compressibility (1/GPa) = 0.04178875
#
# Stress axis : x y z
#
# Youngs Moduli (GPa) = 155.28602 25.84958 80.74383
#
# Poissons Ratio (x) = 0.08659 0.28769
# Poissons Ratio (y) = 0.52018 0.07652
# Poissons Ratio (z) = 0.55329 0.02450
#
# Static dielectric constant tensor:
#      x y z
#    x 1.555040 0.000000 0.000000 
#    y 0.000000 1.639530 0.000000 
#    z 0.000000 0.000000 1.651220 
# 
# From -- ./inp_files/5527.got.cif
#   From: 2010.05.17/outbox.cif.g08.bks.cpg/sg51_3_cif.got.tgz:5527.got - 2010.06.03 11:52:47.
