data_PCOD9401829
_publ_section_title
;
Structure prediction by ZEFSAII (Michael W. Deem and Ramdas Pophale) SiO2 
 PCOD9401829
Probable space group: P M M A
;
_chemical_formula_sum "Si O2"
_cell_formula_units_Z 64
_cell_length_a 22.126116
_cell_length_b 15.800042
_cell_length_c 9.449293
_cell_angle_alpha 90.000000
_cell_angle_beta 90.000000
_cell_angle_gamma 90.000000
_cell_volume 3303.411999
_symmetry_space_group_name_H-M "P M M A"
_symmetry_group_IT_number 51
_symmetry_cell_setting 'orthorhombic'
loop_
_space_group_symop_operation_xyz
x,y,z
1/2-x,-y,z
1/2+x,-y,-z
-x,y,-z
-x,-y,-z
1/2+x,y,-z
1/2-x,y,z
x,-y,z
loop_
_atom_site_type_symbol
_atom_site_label
_atom_site_fract_x
_atom_site_fract_y
_atom_site_fract_z
Si Si1 0.095719 0.100750 0.739262
Si Si2 0.182288 0.901152 0.477338
Si Si3 0.849863 0.589931 0.771729
Si Si4 0.006630 0.409156 0.170442
Si Si5 0.179729 0.408317 0.897806
Si Si6 0.149122 0.773741 0.236330
Si Si7 0.680115 0.778542 0.089959
Si Si8 0.493505 0.222390 0.171738
O O1 0.129987 0.115605 0.591165
O O2 0.139313 0.146368 0.852097
O O3 0.032551 0.149528 0.755197
O O4 0.090008 0.000000 0.761300
O O5 0.250000 0.886353 0.536970
O O6 0.172862 0.843904 0.341247
O O7 0.178765 0.000000 0.439478
O O8 0.832140 0.500000 0.704465
O O9 0.922256 0.590380 0.793385
O O10 0.834870 0.679949 0.704837
O O11 0.824056 0.590525 0.931239
O O12 0.982134 0.500000 0.223276
O O13 0.983901 0.316812 0.215686
O O14 0.000000 0.409857 0.000000
O O15 0.250000 0.408328 0.856958
O O16 0.153338 0.500000 0.852038
O O17 0.156060 0.314641 0.860158
O O18 0.076860 0.782241 0.213419
O O19 0.176527 0.779618 0.079767
O O20 0.750000 0.786677 0.132707
O O21 0.500000 0.215617 0.000000
#
# Coordination Sequence:
#
# PCOD9401829 Si02
#       8
#     8   8   8   8   8   8   8   8
#     4  11  24  40  57  76 107 150 186 226 286 344
#     4  10  23  43  62  80 104 139 189 241 283 329
#     4   8  14  25  44  74 109 141 173 211 259 318
#     4   8  14  24  44  74 108 145 177 211 258 315
#     4   8  14  24  41  70 106 137 167 213 270 322
#     4  10  19  34  59  86 113 143 180 231 277 318
#     4  10  19  33  55  82 108 140 186 231 274 325
#     4  10  19  35  55  85 122 145 177 224 277 334
#
# _framework density 19.373908
#
# number of rings (size 3 to 8) (size 9 to 14) (size 15 to 20)
#    0.000    2.625    1.250    0.750    1.750    3.000 
#    0.000    1.250    0.000    1.500    0.000    3.500 
#    0.000    0.000    0.000    0.000    0.000    0.000 
#
# Total GULP energy -356412.522203 kJ/mol
# GULP energy per Si atom -5568.945659 kJ/mol
# Density = 1.932981 g / cm^3
# Si number density = 19.373908 Si / 1000 Ang^3
#
#
#
# Elastic Constant Matrix: (Units=GPa)
#
#
# Indices 1 2 3 4 5 6 
#
# 1 67.2094 19.0728 -2.5987 0.0000 0.0000 0.0000
# 2 19.0728 96.0862 30.0742 0.0000 0.0000 0.0000
# 3 -2.5987 30.0742 22.6550 0.0000 0.0000 0.0000
# 4 0.0000 0.0000 0.0000 -39.4384 0.0000 0.0000
# 5 0.0000 0.0000 0.0000 0.0000 16.9602 0.0000
# 6 0.0000 0.0000 0.0000 0.0000 0.0000 -577.5657
#
#
#
# Elastic Compliance Matrix: (Units=1/GPa)
#
#
# Indices 1 2 3 4 5 6 
#
# 1 0.017277 -0.006929 0.011179 0.000000 0.000000 0.000000
# 2 -0.006929 0.020584 -0.028120 0.000000 0.000000 0.000000
# 3 0.011179 -0.028120 0.082751 0.000000 0.000000 0.000000
# 4 0.000000 0.000000 0.000000 -0.025356 0.000000 0.000000
# 5 0.000000 0.000000 0.000000 0.000000 0.058962 0.000000
# 6 0.000000 0.000000 0.000000 0.000000 0.000000 -0.001731
#
#
# Mechanical properties :
#
#
# Convention : Reuss Voigt Hill
#
# Bulk Modulus (GPa) = 13.72213 31.00525 22.36369
# Shear Modulus (GPa) = 22.27017 -110.71530 -44.22256
#
# Velocity S-wave (km/s) = 3.39410 -7.56774 -4.78282
# Velocity P-wave (km/s) = 4.73899 7.76676 4.35112
#
# Compressibility (1/GPa) = 0.07287497
#
# Stress axis : x y z
#
# Youngs Moduli (GPa) = 57.87927 48.58179 12.08441
#
# Poissons Ratio (x) = 0.33660 -0.13510
# Poissons Ratio (y) = 0.40102 0.33981
# Poissons Ratio (z) = -0.64706 1.36610
#
# Static dielectric constant tensor:
#      x y z
#    x 1.676850 0.000000 0.000000 
#    y 0.000000 1.730620 0.000000 
#    z 0.000000 0.000000 1.577200 
# 
# From -- ./inp_files/11855.got.cif
#   From: 2010.05.17/outbox.cif.g08.bks.cpg/sg51_6_cif.got.tgz:11855.got - 2010.06.03 11:52:47.
