data_PCOD9401246
_publ_section_title
;
Structure prediction by ZEFSAII (Michael W. Deem and Ramdas Pophale) SiO2 
 PCOD9401246
Probable space group: P M M A
;
_chemical_formula_sum "Si O2"
_cell_formula_units_Z 40
_cell_length_a 8.715358
_cell_length_b 26.600889
_cell_length_c 9.382462
_cell_angle_alpha 90.000000
_cell_angle_beta 90.000000
_cell_angle_gamma 90.000000
_cell_volume 2175.195001
_symmetry_space_group_name_H-M "P M M A"
_symmetry_group_IT_number 51
_symmetry_cell_setting 'orthorhombic'
loop_
_space_group_symop_operation_xyz
x,y,z
1/2-x,-y,z
1/2+x,-y,-z
-x,y,-z
-x,-y,-z
1/2+x,y,-z
1/2-x,y,z
x,-y,z
loop_
_atom_site_type_symbol
_atom_site_label
_atom_site_fract_x
_atom_site_fract_y
_atom_site_fract_z
Si Si1 0.934207 0.647096 0.842214
Si Si2 0.065994 0.945117 0.838914
Si Si3 0.065076 0.255889 0.341587
Si Si4 0.433676 0.558363 0.656740
Si Si5 0.934180 0.841547 0.839768
O O1 0.750000 0.646005 0.847659
O O2 0.982671 0.694560 0.745538
O O3 0.995474 0.596487 0.769404
O O4 0.000000 0.652653 0.000000
O O5 0.250000 0.940702 0.844773
O O6 0.995372 0.894287 0.776335
O O7 0.027877 0.000000 0.774324
O O8 0.000000 0.946270 0.000000
O O9 0.250000 0.256050 0.348811
O O10 0.018738 0.205928 0.255277
O O11 0.000000 0.256336 0.500000
O O12 0.500000 0.569872 0.500000
O O13 0.250000 0.563493 0.653907
O O14 0.471133 0.500000 0.688532
O O15 0.750000 0.843464 0.848722
O O16 0.000000 0.836008 0.000000
#
# Coordination Sequence:
#
# PCOD9401246 Si02
#       5
#     8   8   8   8   8
#     4  11  23  39  59  84 113 145 183 226 274 324
#     4   9  16  26  43  70 102 135 171 211 257 308
#     4  10  23  39  56  79 106 139 178 220 267 321
#     4  10  21  38  60  86 116 150 187 226 269 319
#     4  10  19  32  51  77 106 136 173 215 262 313
#
# _framework density 18.389156
#
# number of rings (size 3 to 8) (size 9 to 14) (size 15 to 20)
#    0.000    2.000    0.000    4.800    0.000    7.600 
#    0.000    0.000    0.000    0.600    0.000    0.000 
#    0.000    0.000    0.000    0.000    0.000    0.000 
#
# Total GULP energy -223297.202305 kJ/mol
# GULP energy per Si atom -5582.430058 kJ/mol
# Density = 1.834730 g / cm^3
# Si number density = 18.389156 Si / 1000 Ang^3
#
#
#
# Elastic Constant Matrix: (Units=GPa)
#
#
# Indices 1 2 3 4 5 6 
#
# 1 56.5229 50.6161 37.8124 0.0000 0.0000 0.0000
# 2 50.6161 151.2272 93.7326 0.0000 0.0000 0.0000
# 3 37.8124 93.7326 118.2150 0.0000 0.0000 0.0000
# 4 0.0000 0.0000 0.0000 -13.6997 0.0000 0.0000
# 5 0.0000 0.0000 0.0000 0.0000 30.8952 0.0000
# 6 0.0000 0.0000 0.0000 0.0000 0.0000 39.4536
#
#
#
# Elastic Compliance Matrix: (Units=1/GPa)
#
#
# Indices 1 2 3 4 5 6 
#
# 1 0.025712 -0.006899 -0.002754 0.000000 0.000000 0.000000
# 2 -0.006899 0.014854 -0.009571 0.000000 0.000000 0.000000
# 3 -0.002754 -0.009571 0.016929 0.000000 0.000000 0.000000
# 4 0.000000 0.000000 0.000000 -0.072994 0.000000 0.000000
# 5 0.000000 0.000000 0.000000 0.000000 0.032368 0.000000
# 6 0.000000 0.000000 0.000000 0.000000 0.000000 0.025346
#
#
# Mechanical properties :
#
#
# Convention : Reuss Voigt Hill
#
# Bulk Modulus (GPa) = 52.50167 76.69860 64.60013
# Shear Modulus (GPa) = 57.46361 20.91675 39.19018
#
# Velocity S-wave (km/s) = 5.59611 3.37627 4.62145
# Velocity P-wave (km/s) = 8.38854 7.54971 7.98015
#
# Compressibility (1/GPa) = 0.01904701
#
# Stress axis : x y z
#
# Youngs Moduli (GPa) = 38.89171 67.32301 59.07060
#
# Poissons Ratio (x) = 0.46445 0.16270
# Poissons Ratio (y) = 0.26831 0.56536
# Poissons Ratio (z) = 0.10712 0.64434
#
# Static dielectric constant tensor:
#      x y z
#    x 1.618070 0.000000 0.000000 
#    y 0.000000 1.666010 0.000000 
#    z 0.000000 0.000000 1.590520 
# 
# From -- ./inp_files/5229.got.cif
#   From: 2010.05.17/outbox.cif.g08.bks.cpg/sg51_3_cif.got.tgz:5229.got - 2010.06.03 11:52:47.
