data_PCOD9401270
_publ_section_title
;
Structure prediction by ZEFSAII (Michael W. Deem and Ramdas Pophale) SiO2 
 PCOD9401270
Probable space group: P M M A
;
_chemical_formula_sum "Si O2"
_cell_formula_units_Z 64
_cell_length_a 34.741861
_cell_length_b 8.786708
_cell_length_c 11.413780
_cell_angle_alpha 90.000000
_cell_angle_beta 90.000000
_cell_angle_gamma 90.000000
_cell_volume 3484.245677
_symmetry_space_group_name_H-M "P M M A"
_symmetry_group_IT_number 51
_symmetry_cell_setting 'orthorhombic'
loop_
_space_group_symop_operation_xyz
x,y,z
1/2-x,-y,z
1/2+x,-y,-z
-x,y,-z
-x,-y,-z
1/2+x,y,-z
1/2-x,y,z
x,-y,z
loop_
_atom_site_type_symbol
_atom_site_label
_atom_site_fract_x
_atom_site_fract_y
_atom_site_fract_z
Si Si1 0.638872 0.821359 0.332094
Si Si2 0.094508 0.184030 0.903175
Si Si3 0.629230 0.185293 0.848780
Si Si4 0.706113 0.319822 0.473439
Si Si5 0.293466 0.183765 0.270686
Si Si6 0.978493 0.679985 0.211677
Si Si7 0.442507 0.179847 0.556133
Si Si8 0.445656 0.183439 0.288992
O O1 0.621504 0.773060 0.206973
O O2 0.675220 0.731038 0.378326
O O3 0.603223 0.806750 0.422265
O O4 0.648697 0.000000 0.324741
O O5 0.052353 0.251181 0.878735
O O6 0.091115 0.000000 0.901886
O O7 0.114007 0.232965 0.024025
O O8 0.671670 0.237724 0.811573
O O9 0.596557 0.229579 0.755139
O O10 0.630316 0.000000 0.850103
O O11 0.750000 0.282170 0.438250
O O12 0.703730 0.500000 0.492657
O O13 0.698560 0.236700 0.596794
O O14 0.250000 0.235254 0.239366
O O15 0.293411 0.000000 0.268634
O O16 0.979718 0.500000 0.200177
O O17 0.962729 0.728424 0.340406
O O18 0.021098 0.749324 0.207422
O O19 0.452019 0.227980 0.424461
O O20 0.452461 0.000000 0.570709
O O21 0.447751 0.000000 0.284759
#
# Coordination Sequence:
#
# PCOD9401270 Si02
#       8
#     8   8   8   8   8   8   8   8
#     4   9  17  31  52  75  98 127 165 209 252 293
#     4   9  19  37  56  72  96 132 173 211 249 299
#     4   9  18  34  56  79 100 129 171 210 246 296
#     4  10  20  32  48  74 107 138 166 198 242 301
#     4   9  17  32  56  83 108 131 159 202 253 299
#     4  11  22  34  49  72 103 135 170 211 254 297
#     4   9  18  33  53  76 101 129 164 206 255 311
#     4  10  19  32  52  75 101 133 168 206 249 301
#
# _framework density 18.368393999999999
#
# number of rings (size 3 to 8) (size 9 to 14) (size 15 to 20)
#    0.000    2.500    0.000    3.375    0.000    7.250 
#    0.000    6.250    0.000    2.250    0.000    1.750 
#    0.000    0.000    0.000    0.000    0.000    0.000 
#
# Total GULP energy -357093.036881 kJ/mol
# GULP energy per Si atom -5579.578701 kJ/mol
# Density = 1.832659 g / cm^3
# Si number density = 18.368394 Si / 1000 Ang^3
#
#
#
# Elastic Constant Matrix: (Units=GPa)
#
#
# Indices 1 2 3 4 5 6 
#
# 1 96.3066 15.3434 20.6754 0.0000 0.0000 0.0000
# 2 15.3434 13.2135 4.0183 0.0000 0.0000 0.0000
# 3 20.6754 4.0183 29.0068 0.0000 0.0000 0.0000
# 4 0.0000 0.0000 0.0000 0.8140 0.0000 0.0000
# 5 0.0000 0.0000 0.0000 0.0000 20.7031 0.0000
# 6 0.0000 0.0000 0.0000 0.0000 0.0000 9.9023
#
#
#
# Elastic Compliance Matrix: (Units=1/GPa)
#
#
# Indices 1 2 3 4 5 6 
#
# 1 0.014437 -0.014235 -0.008319 0.000000 0.000000 0.000000
# 2 -0.014235 0.093044 -0.002743 0.000000 0.000000 0.000000
# 3 -0.008319 -0.002743 0.040784 0.000000 0.000000 0.000000
# 4 0.000000 0.000000 0.000000 1.228521 0.000000 0.000000
# 5 0.000000 0.000000 0.000000 0.000000 0.048302 0.000000
# 6 0.000000 0.000000 0.000000 0.000000 0.000000 0.100987
#
#
# Mechanical properties :
#
#
# Convention : Reuss Voigt Hill
#
# Bulk Modulus (GPa) = 10.23837 24.28901 17.26369
# Shear Modulus (GPa) = 3.10709 12.84986 7.97847
#
# Velocity S-wave (km/s) = 1.30200 2.64780 2.08639
# Velocity P-wave (km/s) = 2.80112 4.75392 3.90167
#
# Compressibility (1/GPa) = 0.09767183
#
# Stress axis : x y z
#
# Youngs Moduli (GPa) = 69.26559 10.74766 24.51940
#
# Poissons Ratio (x) = 0.15299 0.20397
# Poissons Ratio (y) = 0.98597 0.06726
# Poissons Ratio (z) = 0.57619 0.02948
#
# Static dielectric constant tensor:
#      x y z
#    x 1.642680 0.000000 0.000000 
#    y 0.000000 1.613190 0.000000 
#    z 0.000000 0.000000 1.623510 
# 
# From -- ./inp_files/19616.got.cif
#   From: 2010.05.17/outbox.cif.g08.bks.cpg/sg51_10_cif.got.tgz:19616.got - 2010.06.03 11:52:47.
