data_PCOD9401232
_publ_section_title
;
Structure prediction by ZEFSAII (Michael W. Deem and Ramdas Pophale) SiO2 
 PCOD9401232
Probable space group: P M M A
;
_chemical_formula_sum "Si O2"
_cell_formula_units_Z 44
_cell_length_a 8.374555
_cell_length_b 29.963062
_cell_length_c 9.374614
_cell_angle_alpha 90.000000
_cell_angle_beta 90.000000
_cell_angle_gamma 90.000000
_cell_volume 2352.346680
_symmetry_space_group_name_H-M "P M M A"
_symmetry_group_IT_number 51
_symmetry_cell_setting 'orthorhombic'
loop_
_space_group_symop_operation_xyz
x,y,z
1/2-x,-y,z
1/2+x,-y,-z
-x,y,-z
-x,-y,-z
1/2+x,y,-z
1/2-x,y,z
x,-y,z
loop_
_atom_site_type_symbol
_atom_site_label
_atom_site_fract_x
_atom_site_fract_y
_atom_site_fract_z
Si Si1 0.940708 0.673755 0.163437
Si Si2 0.056810 0.412720 0.662336
Si Si3 0.441161 0.768181 0.164052
Si Si4 0.556988 0.950787 0.662303
Si Si5 0.557027 0.500000 0.162584
Si Si6 0.443100 0.865465 0.162704
O O1 0.750000 0.672931 0.158836
O O2 0.998257 0.632390 0.258455
O O3 0.993340 0.721864 0.224498
O O4 0.000000 0.669495 0.000000
O O5 0.250000 0.412575 0.662408
O O6 0.003408 0.455844 0.752615
O O7 0.000000 0.414930 0.500000
O O8 0.250000 0.765970 0.165745
O O9 0.492174 0.816664 0.223087
O O10 0.500000 0.768598 0.000000
O O11 0.500000 0.947075 0.500000
O O12 0.750000 0.949957 0.664197
O O13 0.498057 0.908402 0.751203
O O14 0.506247 0.000000 0.716458
O O15 0.750000 0.500000 0.161723
O O16 0.500000 0.500000 0.000000
O O17 0.250000 0.866085 0.163242
O O18 0.500000 0.868369 0.000000
#
# Coordination Sequence:
#
# PCOD9401232 Si02
#       6
#     8   8   8   8   4   8
#     4  10  19  32  51  76 101 129 167 206 242 287
#     4  10  22  37  54  77 106 136 168 205 247 294
#     4   9  16  28  47  70  97 129 162 199 243 288
#     4   9  18  33  50  68  93 125 160 198 240 289
#     4  10  21  38  58  82 106 132 169 208 246 294
#     4   9  18  31  48  72  99 125 158 200 244 290
#
# _framework density 18.704726000000001
#
# number of rings (size 3 to 8) (size 9 to 14) (size 15 to 20)
#    0.000    2.545    0.000    3.000    0.000    4.000 
#    0.000    0.909    0.000    4.364    0.000    0.000 
#    0.000    0.000    0.000    0.000    0.000    0.000 
#
# Total GULP energy -245284.324050 kJ/mol
# GULP energy per Si atom -5574.643728 kJ/mol
# Density = 1.866215 g / cm^3
# Si number density = 18.704726 Si / 1000 Ang^3
#
#
#
# Elastic Constant Matrix: (Units=GPa)
#
#
# Indices 1 2 3 4 5 6 
#
# 1 16.3276 28.5593 9.1109 0.0000 0.0000 0.0000
# 2 28.5593 243.7514 93.6565 0.0000 0.0000 0.0000
# 3 9.1109 93.6565 87.2852 0.0000 0.0000 0.0000
# 4 0.0000 0.0000 0.0000 -10.3657 0.0000 0.0000
# 5 0.0000 0.0000 0.0000 0.0000 24.8649 0.0000
# 6 0.0000 0.0000 0.0000 0.0000 0.0000 -80.1266
#
#
#
# Elastic Compliance Matrix: (Units=1/GPa)
#
#
# Indices 1 2 3 4 5 6 
#
# 1 0.077436 -0.010153 0.002811 0.000000 0.000000 0.000000
# 2 -0.010153 0.008312 -0.007859 0.000000 0.000000 0.000000
# 3 0.002811 -0.007859 0.019595 0.000000 0.000000 0.000000
# 4 0.000000 0.000000 0.000000 -0.096472 0.000000 0.000000
# 5 0.000000 0.000000 0.000000 0.000000 0.040217 0.000000
# 6 0.000000 0.000000 0.000000 0.000000 0.000000 -0.012480
#
#
# Mechanical properties :
#
#
# Convention : Reuss Voigt Hill
#
# Bulk Modulus (GPa) = 13.34352 67.77974 40.56163
# Shear Modulus (GPa) = 54.35398 1.27701 27.81549
#
# Velocity S-wave (km/s) = 5.39648 0.82717 3.86046
# Velocity P-wave (km/s) = 6.78075 6.10144 6.45005
#
# Compressibility (1/GPa) = 0.07494276
#
# Stress axis : x y z
#
# Youngs Moduli (GPa) = 12.91383 120.31371 51.03239
#
# Poissons Ratio (x) = 1.22155 -0.14347
# Poissons Ratio (y) = 0.13111 0.40104
# Poissons Ratio (z) = -0.03630 0.94549
#
# Static dielectric constant tensor:
#      x y z
#    x 1.659690 0.000000 0.000000 
#    y 0.000000 1.709990 0.000000 
#    z 0.000000 0.000000 1.591670 
# 
# From -- ./inp_files/5746.got.cif
#   From: 2010.05.17/outbox.cif.g08.bks.cpg/sg51_3_cif.got.tgz:5746.got - 2010.06.03 11:52:47.
