data_PCOD9401466
_publ_section_title
;
Structure prediction by ZEFSAII (Michael W. Deem and Ramdas Pophale) SiO2 
 PCOD9401466
Probable space group: P M M A
;
_chemical_formula_sum "Si O2"
_cell_formula_units_Z 48
_cell_length_a 31.529277
_cell_length_b 7.716153
_cell_length_c 9.855095
_cell_angle_alpha 90.000000
_cell_angle_beta 90.000000
_cell_angle_gamma 90.000000
_cell_volume 2397.594080
_symmetry_space_group_name_H-M "P M M A"
_symmetry_group_IT_number 51
_symmetry_cell_setting 'orthorhombic'
loop_
_space_group_symop_operation_xyz
x,y,z
1/2-x,-y,z
1/2+x,-y,-z
-x,y,-z
-x,-y,-z
1/2+x,y,-z
1/2-x,y,z
x,-y,z
loop_
_atom_site_type_symbol
_atom_site_label
_atom_site_fract_x
_atom_site_fract_y
_atom_site_fract_z
Si Si1 0.367971 0.206134 0.127169
Si Si2 0.869246 0.708576 0.460771
Si Si3 0.298072 0.709291 0.330898
Si Si4 0.490806 0.703962 0.849230
Si Si5 0.394131 0.793997 0.831334
Si Si6 0.561664 0.301457 0.658728
O O1 0.322437 0.241483 0.193196
O O2 0.402942 0.297471 0.221930
O O3 0.376250 0.000000 0.134689
O O4 0.373387 0.264995 0.972583
O O5 0.870346 0.500000 0.475350
O O6 0.828981 0.770967 0.547714
O O7 0.868318 0.750669 0.303339
O O8 0.912671 0.776536 0.531665
O O9 0.250000 0.773491 0.338861
O O10 0.296855 0.500000 0.337526
O O11 0.502436 0.500000 0.856115
O O12 0.441347 0.718845 0.819839
O O13 0.520244 0.778746 0.729298
O O14 0.500000 0.777734 0.000000
O O15 0.398635 0.000000 0.839338
O O16 0.551065 0.500000 0.620396
#
# Coordination Sequence:
#
# PCOD9401466 Si02
#       6
#     8   8   8   8   8   8
#     4  10  20  33  52  78 108 140 172 211 259 311
#     4   9  19  35  55  77 106 140 173 216 266 315
#     4   9  19  38  63  86 104 128 169 218 265 318
#     4  10  19  32  54  78 102 139 186 230 269 308
#     4  11  23  35  49  75 112 147 179 216 260 312
#     4   9  18  34  54  77 102 136 183 228 264 305
#
# _framework density 20.020068999999999
#
# number of rings (size 3 to 8) (size 9 to 14) (size 15 to 20)
#    0.000    2.333    1.667    2.000    0.000    6.667 
#    0.000    4.167    0.000    3.000    0.000    0.000 
#    0.000    0.000    0.000    0.000    0.000    0.000 
#
# Total GULP energy -267790.612019 kJ/mol
# GULP energy per Si atom -5578.971084 kJ/mol
# Density = 1.997450 g / cm^3
# Si number density = 20.020069 Si / 1000 Ang^3
#
#
#
# Elastic Constant Matrix: (Units=GPa)
#
#
# Indices 1 2 3 4 5 6 
#
# 1 83.4477 -8.7655 18.1982 0.0000 0.0000 0.0000
# 2 -8.7655 33.6528 -13.9634 0.0000 0.0000 0.0000
# 3 18.1982 -13.9634 97.6061 0.0000 0.0000 0.0000
# 4 0.0000 0.0000 0.0000 17.1101 0.0000 0.0000
# 5 0.0000 0.0000 0.0000 0.0000 16.2288 0.0000
# 6 0.0000 0.0000 0.0000 0.0000 0.0000 55.7968
#
#
#
# Elastic Compliance Matrix: (Units=1/GPa)
#
#
# Indices 1 2 3 4 5 6 
#
# 1 0.012681 0.002469 -0.002011 0.000000 0.000000 0.000000
# 2 0.002469 0.032071 0.004128 0.000000 0.000000 0.000000
# 3 -0.002011 0.004128 0.011211 0.000000 0.000000 0.000000
# 4 0.000000 0.000000 0.000000 0.058445 0.000000 0.000000
# 5 0.000000 0.000000 0.000000 0.000000 0.061619 0.000000
# 6 0.000000 0.000000 0.000000 0.000000 0.000000 0.017922
#
#
# Mechanical properties :
#
#
# Convention : Reuss Voigt Hill
#
# Bulk Modulus (GPa) = 15.35313 22.84949 19.10131
# Shear Modulus (GPa) = 24.21425 32.44297 28.32861
#
# Velocity S-wave (km/s) = 3.48156 4.02994 3.76574
# Velocity P-wave (km/s) = 4.88336 5.75256 5.33569
#
# Compressibility (1/GPa) = 0.06513332
#
# Stress axis : x y z
#
# Youngs Moduli (GPa) = 78.85522 31.18093 89.20006
#
# Poissons Ratio (x) = -0.07697 0.17940
# Poissons Ratio (y) = -0.19466 -0.36820
# Poissons Ratio (z) = 0.15860 -0.12871
#
# Static dielectric constant tensor:
#      x y z
#    x 1.692080 0.000000 0.000000 
#    y 0.000000 1.819000 0.000000 
#    z 0.000000 0.000000 1.720260 
# 
# From -- ./inp_files/12766.got.cif
#   From: 2010.05.17/outbox.cif.g08.bks.cpg/sg51_7_cif.got.tgz:12766.got - 2010.06.03 11:52:47.
