data_PCOD9401041
_publ_section_title
;
Structure prediction by ZEFSAII (Michael W. Deem and Ramdas Pophale) SiO2 
 PCOD9401041
Probable space group: P M M A
;
_chemical_formula_sum "Si O2"
_cell_formula_units_Z 64
_cell_length_a 9.071514
_cell_length_b 14.307071
_cell_length_c 26.848528
_cell_angle_alpha 90.000000
_cell_angle_beta 90.000000
_cell_angle_gamma 90.000000
_cell_volume 3484.584396
_symmetry_space_group_name_H-M "P M M A"
_symmetry_group_IT_number 51
_symmetry_cell_setting 'orthorhombic'
loop_
_space_group_symop_operation_xyz
x,y,z
1/2-x,-y,z
1/2+x,-y,-z
-x,y,-z
-x,-y,-z
1/2+x,y,-z
1/2-x,y,z
x,-y,z
loop_
_atom_site_type_symbol
_atom_site_label
_atom_site_fract_x
_atom_site_fract_y
_atom_site_fract_z
Si Si1 0.424374 0.609308 0.694861
Si Si2 0.574869 0.212376 0.050312
Si Si3 0.915504 0.386680 0.795174
Si Si4 0.577651 0.886794 0.857546
Si Si5 0.927766 0.223048 0.649577
Si Si6 0.426563 0.609748 0.090556
Si Si7 0.070747 0.107787 0.253217
Si Si8 0.572748 0.890852 0.552022
O O1 0.250000 0.619968 0.691127
O O2 0.461733 0.500000 0.688607
O O3 0.478381 0.638299 0.750189
O O4 0.506309 0.674483 0.655708
O O5 0.750000 0.209097 0.046564
O O6 0.516841 0.155901 0.098181
O O7 0.517802 0.318576 0.057783
O O8 0.500000 0.174914 0.000000
O O9 0.750000 0.350826 0.784500
O O10 0.907991 0.500000 0.795740
O O11 0.956316 0.362892 0.851632
O O12 0.750000 0.859735 0.864201
O O13 0.528128 0.856962 0.801874
O O14 0.571677 0.000000 0.858211
O O15 0.750000 0.226702 0.650264
O O16 0.976386 0.165812 0.698789
O O17 0.973318 0.170393 0.599332
O O18 0.250000 0.620119 0.082790
O O19 0.462292 0.500000 0.083460
O O20 0.250000 0.107191 0.252835
O O21 0.023086 0.000000 0.258306
O O22 0.500000 0.861947 0.500000
O O23 0.750000 0.885125 0.547692
O O24 0.535168 0.000000 0.560868
#
# Coordination Sequence:
#
# PCOD9401041 Si02
#       8
#     8   8   8   8   8   8   8   8
#     4  10  21  34  47  70 109 150 185 225 272 319
#     4  12  26  41  58  80 107 140 179 225 272 327
#     4   8  15  30  52  75  99 133 176 216 256 310
#     4   9  19  38  62  84 108 139 175 219 272 328
#     4  10  19  31  53  83 110 144 187 228 267 316
#     4   9  19  37  60  83 108 139 176 220 269 323
#     4   8  15  30  54  83 111 138 170 210 260 319
#     4   9  18  33  54  81 114 149 186 228 273 323
#
# _framework density 18.366607999999999
#
# number of rings (size 3 to 8) (size 9 to 14) (size 15 to 20)
#    0.000    2.625    0.000    3.375    1.750    4.250 
#    0.000    1.250    0.000    2.250    0.000    0.000 
#    0.000    0.000    0.000    0.000    0.000    0.000 
#
# Total GULP energy -357201.223520 kJ/mol
# GULP energy per Si atom -5581.269118 kJ/mol
# Density = 1.832481 g / cm^3
# Si number density = 18.366608 Si / 1000 Ang^3
#
#
#
# Elastic Constant Matrix: (Units=GPa)
#
#
# Indices 1 2 3 4 5 6 
#
# 1 44.4256 35.2304 56.9508 0.0000 0.0000 0.0000
# 2 35.2304 63.6552 58.8100 0.0000 0.0000 0.0000
# 3 56.9508 58.8100 147.1653 0.0000 0.0000 0.0000
# 4 0.0000 0.0000 0.0000 31.1197 0.0000 0.0000
# 5 0.0000 0.0000 0.0000 0.0000 26.0134 0.0000
# 6 0.0000 0.0000 0.0000 0.0000 0.0000 21.8206
#
#
#
# Elastic Compliance Matrix: (Units=1/GPa)
#
#
# Indices 1 2 3 4 5 6 
#
# 1 0.054017 -0.016778 -0.014199 0.000000 0.000000 0.000000
# 2 -0.016778 0.030116 -0.005542 0.000000 0.000000 0.000000
# 3 -0.014199 -0.005542 0.014505 0.000000 0.000000 0.000000
# 4 0.000000 0.000000 0.000000 0.032134 0.000000 0.000000
# 5 0.000000 0.000000 0.000000 0.000000 0.038442 0.000000
# 6 0.000000 0.000000 0.000000 0.000000 0.000000 0.045828
#
#
# Mechanical properties :
#
#
# Convention : Reuss Voigt Hill
#
# Bulk Modulus (GPa) = 39.06338 61.91429 50.48884
# Shear Modulus (GPa) = 16.85704 22.74105 19.79905
#
# Velocity S-wave (km/s) = 3.03282 3.52259 3.28684
# Velocity P-wave (km/s) = 5.79473 7.09424 6.47716
#
# Compressibility (1/GPa) = 0.02559942
#
# Stress axis : x y z
#
# Youngs Moduli (GPa) = 18.51272 33.20543 68.94377
#
# Poissons Ratio (x) = 0.55711 0.97894
# Poissons Ratio (y) = 0.31060 0.38208
# Poissons Ratio (z) = 0.26286 0.18402
#
# Static dielectric constant tensor:
#      x y z
#    x 1.608400 0.000000 0.000000 
#    y 0.000000 1.663470 0.000000 
#    z 0.000000 0.000000 1.630430 
# 
# From -- ./inp_files/35030.got.cif
#   From: 2010.05.17/outbox.cif.g08.bks.cpg/sg51_18_cif.got.tgz:35030.got - 2010.06.03 11:52:47.
