data_PCOD9401620
_publ_section_title
;
Structure prediction by ZEFSAII (Michael W. Deem and Ramdas Pophale) SiO2 
 PCOD9401620
Probable space group: P M M A
;
_chemical_formula_sum "Si O2"
_cell_formula_units_Z 36
_cell_length_a 9.617394
_cell_length_b 10.717699
_cell_length_c 19.461415
_cell_angle_alpha 90.000000
_cell_angle_beta 90.000000
_cell_angle_gamma 90.000000
_cell_volume 2006.011314
_symmetry_space_group_name_H-M "P M M A"
_symmetry_group_IT_number 51
_symmetry_cell_setting 'orthorhombic'
loop_
_space_group_symop_operation_xyz
x,y,z
1/2-x,-y,z
1/2+x,-y,-z
-x,y,-z
-x,-y,-z
1/2+x,y,-z
1/2-x,y,z
x,-y,z
loop_
_atom_site_type_symbol
_atom_site_label
_atom_site_fract_x
_atom_site_fract_y
_atom_site_fract_z
Si Si1 0.907319 0.000000 0.433155
Si Si2 0.916800 0.357398 0.071043
Si Si3 0.581351 0.142660 0.178239
Si Si4 0.587113 0.232970 0.330839
Si Si5 0.094096 0.352425 0.437062
O O1 0.925445 0.117183 0.382834
O O2 0.000000 0.000000 0.500000
O O3 0.750000 0.000000 0.458080
O O4 0.750000 0.346146 0.059632
O O5 0.940830 0.500000 0.097037
O O6 0.960604 0.248013 0.123354
O O7 0.000000 0.344610 0.000000
O O8 0.750000 0.137997 0.176287
O O9 0.546036 0.188769 0.254905
O O10 0.532141 0.000000 0.165912
O O11 0.750000 0.272489 0.329577
O O12 0.485537 0.331753 0.365673
O O13 0.250000 0.298124 0.437576
O O14 0.106766 0.500000 0.448152
O O15 0.000000 0.303285 0.500000
#
# Coordination Sequence:
#
# PCOD9401620 Si02
#       5
#     4   8   8   8   8
#     4  10  20  32  48  72  99 130 168 210 257 304
#     4   9  18  33  54  80 108 139 177 218 261 313
#     4   9  17  32  54  78 107 141 176 217 263 313
#     4  10  19  33  53  75 101 133 171 214 262 315
#     4  10  21  36  52  72 100 133 172 219 268 317
#
# _framework density 17.946059999999999
#
# number of rings (size 3 to 8) (size 9 to 14) (size 15 to 20)
#    0.000    2.444    1.111    1.333    0.000    5.333 
#    0.000    3.333    0.000    4.000    0.000    0.000 
#    0.000    0.000    0.000    0.000    0.000    0.000 
#
# Total GULP energy -200609.707808 kJ/mol
# GULP energy per Si atom -5572.491884 kJ/mol
# Density = 1.790521 g / cm^3
# Si number density = 17.946060 Si / 1000 Ang^3
#
#
#
# Elastic Constant Matrix: (Units=GPa)
#
#
# Indices 1 2 3 4 5 6 
#
# 1 58.1475 39.6817 48.9009 0.0000 0.0000 0.0000
# 2 39.6817 85.2761 71.4594 0.0000 0.0000 0.0000
# 3 48.9009 71.4594 129.9808 0.0000 0.0000 0.0000
# 4 0.0000 0.0000 0.0000 91.5200 0.0000 0.0000
# 5 0.0000 0.0000 0.0000 0.0000 23.0784 0.0000
# 6 0.0000 0.0000 0.0000 0.0000 0.0000 18.4133
#
#
#
# Elastic Compliance Matrix: (Units=1/GPa)
#
#
# Indices 1 2 3 4 5 6 
#
# 1 0.027633 -0.007689 -0.006169 0.000000 0.000000 0.000000
# 2 -0.007689 0.023884 -0.010238 0.000000 0.000000 0.000000
# 3 -0.006169 -0.010238 0.015642 0.000000 0.000000 0.000000
# 4 0.000000 0.000000 0.000000 0.010927 0.000000 0.000000
# 5 0.000000 0.000000 0.000000 0.000000 0.043331 0.000000
# 6 0.000000 0.000000 0.000000 0.000000 0.000000 0.054309
#
#
# Mechanical properties :
#
#
# Convention : Reuss Voigt Hill
#
# Bulk Modulus (GPa) = 52.72081 65.94318 59.33199
# Shear Modulus (GPa) = 21.71666 34.15981 27.93823
#
# Velocity S-wave (km/s) = 3.48243 4.36761 3.94990
# Velocity P-wave (km/s) = 6.75359 7.89048 7.34407
#
# Compressibility (1/GPa) = 0.01896784
#
# Stress axis : x y z
#
# Youngs Moduli (GPa) = 36.18905 41.86984 63.92859
#
# Poissons Ratio (x) = 0.32195 0.39435
# Poissons Ratio (y) = 0.27827 0.65447
# Poissons Ratio (z) = 0.22323 0.42865
#
# Static dielectric constant tensor:
#      x y z
#    x 1.616700 0.000000 0.000000 
#    y 0.000000 1.529820 0.000000 
#    z 0.000000 0.000000 1.580520 
# 
# From -- ./inp_files/27033.got.cif
#   From: 2010.05.17/outbox.cif.g08.bks.cpg/sg51_14_cif.got.tgz:27033.got - 2010.06.03 11:52:47.
