data_PCOD9401819
_publ_section_title
;
Structure prediction by ZEFSAII (Michael W. Deem and Ramdas Pophale) SiO2 
 PCOD9401819
Probable space group: P M M A
;
_chemical_formula_sum "Si O2"
_cell_formula_units_Z 64
_cell_length_a 8.637193
_cell_length_b 20.203433
_cell_length_c 21.163517
_cell_angle_alpha 90.000000
_cell_angle_beta 90.000000
_cell_angle_gamma 90.000000
_cell_volume 3693.053824
_symmetry_space_group_name_H-M "P M M A"
_symmetry_group_IT_number 51
_symmetry_cell_setting 'orthorhombic'
loop_
_space_group_symop_operation_xyz
x,y,z
1/2-x,-y,z
1/2+x,-y,-z
-x,y,-z
-x,-y,-z
1/2+x,y,-z
1/2-x,y,z
x,-y,z
loop_
_atom_site_type_symbol
_atom_site_label
_atom_site_fract_x
_atom_site_fract_y
_atom_site_fract_z
Si Si1 0.937958 0.427124 0.239369
Si Si2 0.434858 0.790650 0.685354
Si Si3 0.061897 0.926906 0.121005
Si Si4 0.433323 0.710985 0.433501
Si Si5 0.063391 0.574488 0.611861
Si Si6 0.064417 0.788461 0.067318
Si Si7 0.063462 0.074887 0.269096
Si Si8 0.562469 0.288289 0.187488
O O1 0.750000 0.427520 0.236982
O O2 0.992245 0.500000 0.218787
O O3 0.976282 0.418854 0.313548
O O4 0.989391 0.363751 0.199959
O O5 0.250000 0.786491 0.681326
O O6 0.504571 0.753137 0.625450
O O7 0.488243 0.866338 0.691659
O O8 0.482663 0.753738 0.750340
O O9 0.250000 0.927566 0.119003
O O10 0.008455 0.863730 0.081751
O O11 0.019920 0.917785 0.194885
O O12 0.007982 0.000000 0.100394
O O13 0.500000 0.735495 0.500000
O O14 0.250000 0.713844 0.434804
O O15 0.487014 0.635080 0.423911
O O16 0.250000 0.579750 0.606695
O O17 0.018706 0.500000 0.591682
O O18 0.250000 0.788550 0.066085
O O19 0.007271 0.743665 0.125057
O O20 0.000000 0.766474 0.000000
O O21 0.250000 0.080364 0.272443
O O22 0.020893 0.000000 0.288302
O O23 0.750000 0.286832 0.183312
#
# Coordination Sequence:
#
# PCOD9401819 Si02
#       8
#     8   8   8   8   8   8   8   8
#     4   8  14  28  53  81 107 136 171 215 267 319
#     4  11  21  35  57  84 113 142 181 228 275 325
#     4   8  15  29  49  73 103 139 177 216 258 310
#     4  12  25  39  56  78 111 149 190 231 276 327
#     4   9  17  33  56  81 112 148 184 221 268 325
#     4  11  22  35  52  74 106 143 182 222 270 321
#     4   9  17  32  55  82 111 143 181 222 268 321
#     4  10  19  33  55  81 108 138 177 221 267 322
#
# _framework density 17.329830999999999
#
# number of rings (size 3 to 8) (size 9 to 14) (size 15 to 20)
#    0.000    2.250    2.500    3.375    0.000    1.500 
#    0.000    0.000    0.000    2.250    0.000    0.000 
#    0.000    0.000    0.000    0.000    0.000    0.000 
#
# Total GULP energy -357083.007842 kJ/mol
# GULP energy per Si atom -5579.421998 kJ/mol
# Density = 1.729039 g / cm^3
# Si number density = 17.329831 Si / 1000 Ang^3
#
#
#
# Elastic Constant Matrix: (Units=GPa)
#
#
# Indices 1 2 3 4 5 6 
#
# 1 40.4697 35.3278 38.9150 0.0000 0.0000 0.0000
# 2 35.3278 122.7653 70.3055 0.0000 0.0000 0.0000
# 3 38.9150 70.3055 120.1328 0.0000 0.0000 0.0000
# 4 0.0000 0.0000 0.0000 17.5561 0.0000 0.0000
# 5 0.0000 0.0000 0.0000 0.0000 20.9970 0.0000
# 6 0.0000 0.0000 0.0000 0.0000 0.0000 25.2683
#
#
#
# Elastic Compliance Matrix: (Units=1/GPa)
#
#
# Indices 1 2 3 4 5 6 
#
# 1 0.038561 -0.005931 -0.009020 0.000000 0.000000 0.000000
# 2 -0.005931 0.013164 -0.005783 0.000000 0.000000 0.000000
# 3 -0.009020 -0.005783 0.014630 0.000000 0.000000 0.000000
# 4 0.000000 0.000000 0.000000 0.056960 0.000000 0.000000
# 5 0.000000 0.000000 0.000000 0.000000 0.047626 0.000000
# 6 0.000000 0.000000 0.000000 0.000000 0.000000 0.039575
#
#
# Mechanical properties :
#
#
# Convention : Reuss Voigt Hill
#
# Bulk Modulus (GPa) = 40.18082 63.60715 51.89398
# Shear Modulus (GPa) = 19.21006 22.01891 20.61449
#
# Velocity S-wave (km/s) = 3.33302 3.56838 3.45271
# Velocity P-wave (km/s) = 6.16833 7.33221 6.77531
#
# Compressibility (1/GPa) = 0.02488750
#
# Stress axis : x y z
#
# Youngs Moduli (GPa) = 25.93304 75.96453 68.35106
#
# Poissons Ratio (x) = 0.45053 0.61654
# Poissons Ratio (y) = 0.15380 0.39526
# Poissons Ratio (z) = 0.23392 0.43929
#
# Static dielectric constant tensor:
#      x y z
#    x 1.584770 0.000000 0.000000 
#    y 0.000000 1.606250 0.000000 
#    z 0.000000 0.000000 1.565670 
# 
# From -- ./inp_files/28413.got.cif
#   From: 2010.05.17/outbox.cif.g08.bks.cpg/sg51_15_cif.got.tgz:28413.got - 2010.06.03 11:52:47.
