data_PCOD9401986
_publ_section_title
;
Structure prediction by ZEFSAII (Michael W. Deem and Ramdas Pophale) SiO2 
 PCOD9401986
Probable space group: P M M A
;
_chemical_formula_sum "Si O2"
_cell_formula_units_Z 52
_cell_length_a 8.167808
_cell_length_b 20.831440
_cell_length_c 15.109944
_cell_angle_alpha 90.000000
_cell_angle_beta 90.000000
_cell_angle_gamma 90.000000
_cell_volume 2570.914698
_symmetry_space_group_name_H-M "P M M A"
_symmetry_group_IT_number 51
_symmetry_cell_setting 'orthorhombic'
loop_
_space_group_symop_operation_xyz
x,y,z
1/2-x,-y,z
1/2+x,-y,-z
-x,y,-z
-x,-y,-z
1/2+x,y,-z
1/2-x,y,z
x,-y,z
loop_
_atom_site_type_symbol
_atom_site_label
_atom_site_fract_x
_atom_site_fract_y
_atom_site_fract_z
Si Si1 0.944492 0.833273 0.900835
Si Si2 0.450576 0.122095 0.283072
Si Si3 0.446132 0.614239 0.402861
Si Si4 0.946927 0.238438 0.597143
Si Si5 0.946059 0.430600 0.216719
Si Si6 0.446497 0.312568 0.900243
Si Si7 0.552078 0.000000 0.602235
O O1 0.750000 0.837109 0.901232
O O2 0.005760 0.876229 0.818949
O O3 0.990370 0.759092 0.881506
O O4 0.000000 0.849467 0.000000
O O5 0.250000 0.121182 0.283124
O O6 0.503648 0.188343 0.329603
O O7 0.504140 0.062691 0.343379
O O8 0.500000 0.591854 0.500000
O O9 0.250000 0.613302 0.399084
O O10 0.505659 0.688377 0.392409
O O11 0.514896 0.576068 0.320100
O O12 0.750000 0.240246 0.599961
O O13 0.000000 0.215752 0.500000
O O14 0.750000 0.430291 0.205566
O O15 0.008305 0.500000 0.184319
O O16 0.009694 0.367876 0.165407
O O17 0.250000 0.310142 0.896298
O O18 0.500000 0.328574 0.000000
O O19 0.500000 0.000000 0.500000
O O20 0.750000 0.000000 0.603048
#
# Coordination Sequence:
#
# PCOD9401986 Si02
#       7
#     8   8   8   8   8   8   4
#     4  10  19  34  55  79 105 134 171 215 260 306
#     4   9  18  32  52  75 104 140 173 207 252 304
#     4  10  20  34  53  75 100 131 170 216 264 313
#     4   9  17  30  48  73 100 127 162 206 254 302
#     4  10  22  38  53  72 101 135 171 211 255 307
#     4  10  20  35  56  81 107 135 168 211 262 312
#     4  10  20  36  55  78 108 144 181 212 249 300
#
# _framework density 20.226262999999999
#
# number of rings (size 3 to 8) (size 9 to 14) (size 15 to 20)
#    0.000    2.308    0.000    3.692    0.000    4.000 
#    0.000    3.462    0.000    0.000    0.000    0.000 
#    0.000    0.000    0.000    0.000    0.000    0.000 
#
# Total GULP energy -290250.980954 kJ/mol
# GULP energy per Si atom -5581.749634 kJ/mol
# Density = 2.018023 g / cm^3
# Si number density = 20.226263 Si / 1000 Ang^3
#
#
#
# Elastic Constant Matrix: (Units=GPa)
#
#
# Indices 1 2 3 4 5 6 
#
# 1 15.4477 4.8966 3.8641 0.0000 0.0000 0.0000
# 2 4.8966 60.5068 68.9331 0.0000 0.0000 0.0000
# 3 3.8641 68.9331 146.9656 0.0000 0.0000 0.0000
# 4 0.0000 0.0000 0.0000 81.7778 0.0000 0.0000
# 5 0.0000 0.0000 0.0000 0.0000 26.9157 0.0000
# 6 0.0000 0.0000 0.0000 0.0000 0.0000 9.7999
#
#
#
# Elastic Compliance Matrix: (Units=1/GPa)
#
#
# Indices 1 2 3 4 5 6 
#
# 1 0.066629 -0.007294 0.001669 0.000000 0.000000 0.000000
# 2 -0.007294 0.036292 -0.016831 0.000000 0.000000 0.000000
# 3 0.001669 -0.016831 0.014655 0.000000 0.000000 0.000000
# 4 0.000000 0.000000 0.000000 0.012228 0.000000 0.000000
# 5 0.000000 0.000000 0.000000 0.000000 0.037153 0.000000
# 6 0.000000 0.000000 0.000000 0.000000 0.000000 0.102042
#
#
# Mechanical properties :
#
#
# Convention : Reuss Voigt Hill
#
# Bulk Modulus (GPa) = 13.76171 42.03416 27.89793
# Shear Modulus (GPa) = 14.78719 33.38044 24.08382
#
# Velocity S-wave (km/s) = 2.70680 4.06686 3.45442
# Velocity P-wave (km/s) = 4.07280 6.54825 5.45285
#
# Compressibility (1/GPa) = 0.07266541
#
# Stress axis : x y z
#
# Youngs Moduli (GPa) = 15.00846 27.55442 68.23751
#
# Poissons Ratio (x) = 0.20097 -0.11390
# Poissons Ratio (y) = 0.10947 1.14848
# Poissons Ratio (z) = -0.02505 0.46376
#
# Static dielectric constant tensor:
#      x y z
#    x 1.701690 0.000000 0.000000 
#    y 0.000000 1.737000 0.000000 
#    z 0.000000 0.000000 1.711980 
# 
# From -- ./inp_files/21588.got.cif
#   From: 2010.05.17/outbox.cif.g08.bks.cpg/sg51_11_cif.got.tgz:21588.got - 2010.06.03 11:52:47.
