data_PCOD9401992
_publ_section_title
;
Structure prediction by ZEFSAII (Michael W. Deem and Ramdas Pophale) SiO2 
 PCOD9401992
Probable space group: P M M A
;
_chemical_formula_sum "Si O2"
_cell_formula_units_Z 48
_cell_length_a 20.765852
_cell_length_b 7.553355
_cell_length_c 15.199052
_cell_angle_alpha 90.000000
_cell_angle_beta 90.000000
_cell_angle_gamma 90.000000
_cell_volume 2383.999455
_symmetry_space_group_name_H-M "P M M A"
_symmetry_group_IT_number 51
_symmetry_cell_setting 'orthorhombic'
loop_
_space_group_symop_operation_xyz
x,y,z
1/2-x,-y,z
1/2+x,-y,-z
-x,y,-z
-x,-y,-z
1/2+x,y,-z
1/2-x,y,z
x,-y,z
loop_
_atom_site_type_symbol
_atom_site_label
_atom_site_fract_x
_atom_site_fract_y
_atom_site_fract_z
Si Si1 0.676988 0.213523 0.064054
Si Si2 0.036838 0.296460 0.253021
Si Si3 0.558832 0.711059 0.939740
Si Si4 0.610598 0.208886 0.243770
Si Si5 0.322524 0.286190 0.572458
Si Si6 0.063603 0.282987 0.446080
O O1 0.750000 0.277548 0.050566
O O2 0.647817 0.275466 0.157402
O O3 0.679595 0.000000 0.068037
O O4 0.626041 0.261400 0.988920
O O5 0.059684 0.500000 0.252966
O O6 0.057130 0.215886 0.159443
O O7 0.060176 0.218858 0.345625
O O8 0.959185 0.295121 0.254389
O O9 0.547615 0.500000 0.931864
O O10 0.500000 0.781374 0.000000
O O11 0.652025 0.235974 0.331208
O O12 0.598982 0.000000 0.232073
O O13 0.250000 0.222167 0.558526
O O14 0.321853 0.500000 0.569076
O O15 0.373642 0.225781 0.499659
O O16 0.062628 0.500000 0.444400
O O17 0.000000 0.228922 0.500000
#
# Coordination Sequence:
#
# PCOD9401992 Si02
#       6
#     8   8   8   8   8   8
#     4  10  22  38  54  75 107 145 180 215 262 321
#     4  10  19  34  55  80 109 137 173 217 264 311
#     4  10  20  34  55  82 110 137 173 223 269 311
#     4  11  21  33  53  80 110 138 171 217 267 313
#     4  10  20  34  53  77 103 136 176 214 258 312
#     4   9  16  30  54  77 102 136 171 209 253 305
#
# _framework density 20.134233999999999
#
# number of rings (size 3 to 8) (size 9 to 14) (size 15 to 20)
#    0.000    2.000    3.333    1.000    0.000    3.000 
#    0.000    2.500    0.000    3.000    0.000    0.000 
#    0.000    0.000    0.000    0.000    0.000    0.000 
#
# Total GULP energy -268086.387176 kJ/mol
# GULP energy per Si atom -5585.133066 kJ/mol
# Density = 2.008841 g / cm^3
# Si number density = 20.134234 Si / 1000 Ang^3
#
#
#
# Elastic Constant Matrix: (Units=GPa)
#
#
# Indices 1 2 3 4 5 6 
#
# 1 135.2210 -12.1684 102.0475 0.0000 0.0000 0.0000
# 2 -12.1684 48.6492 2.0707 0.0000 0.0000 0.0000
# 3 102.0475 2.0707 221.1482 0.0000 0.0000 0.0000
# 4 0.0000 0.0000 0.0000 7.6468 0.0000 0.0000
# 5 0.0000 0.0000 0.0000 0.0000 16.5841 0.0000
# 6 0.0000 0.0000 0.0000 0.0000 0.0000 23.5749
#
#
#
# Elastic Compliance Matrix: (Units=1/GPa)
#
#
# Indices 1 2 3 4 5 6 
#
# 1 0.011822 0.003190 -0.005485 0.000000 0.000000 0.000000
# 2 0.003190 0.021424 -0.001673 0.000000 0.000000 0.000000
# 3 -0.005485 -0.001673 0.007069 0.000000 0.000000 0.000000
# 4 0.000000 0.000000 0.000000 0.130773 0.000000 0.000000
# 5 0.000000 0.000000 0.000000 0.000000 0.060299 0.000000
# 6 0.000000 0.000000 0.000000 0.000000 0.000000 0.042418
#
#
# Mechanical properties :
#
#
# Convention : Reuss Voigt Hill
#
# Bulk Modulus (GPa) = 30.88323 65.43534 48.15929
# Shear Modulus (GPa) = 17.09212 30.43241 23.76226
#
# Velocity S-wave (km/s) = 2.91676 3.89199 3.43912
# Velocity P-wave (km/s) = 5.16869 7.26408 6.30405
#
# Compressibility (1/GPa) = 0.03238003
#
# Stress axis : x y z
#
# Youngs Moduli (GPa) = 84.59002 46.67554 141.47258
#
# Poissons Ratio (x) = -0.14891 0.77597
# Poissons Ratio (y) = -0.26987 0.23665
# Poissons Ratio (z) = 0.46397 0.07808
#
# Static dielectric constant tensor:
#      x y z
#    x 1.669020 0.000000 0.000000 
#    y 0.000000 1.758700 0.000000 
#    z 0.000000 0.000000 1.708920 
# 
# From -- ./inp_files/24791.got.cif
#   From: 2010.05.17/outbox.cif.g08.bks.cpg/sg51_13_cif.got.tgz:24791.got - 2010.06.03 11:52:47.
