data_PCOD9401138
_publ_section_title
;
Structure prediction by ZEFSAII (Michael W. Deem and Ramdas Pophale) SiO2 
 PCOD9401138
Probable space group: P M M A
;
_chemical_formula_sum "Si O2"
_cell_formula_units_Z 48
_cell_length_a 32.078420
_cell_length_b 9.355725
_cell_length_c 9.085997
_cell_angle_alpha 90.000000
_cell_angle_beta 90.000000
_cell_angle_gamma 90.000000
_cell_volume 2726.861035
_symmetry_space_group_name_H-M "P M M A"
_symmetry_group_IT_number 51
_symmetry_cell_setting 'orthorhombic'
loop_
_space_group_symop_operation_xyz
x,y,z
1/2-x,-y,z
1/2+x,-y,-z
-x,y,-z
-x,-y,-z
1/2+x,y,-z
1/2-x,y,z
x,-y,z
loop_
_atom_site_type_symbol
_atom_site_label
_atom_site_fract_x
_atom_site_fract_y
_atom_site_fract_z
Si Si1 0.330115 0.328377 0.178056
Si Si2 0.415391 0.665039 0.836178
Si Si3 0.497214 0.835896 0.820439
Si Si4 0.332705 0.171147 0.867147
Si Si5 0.750000 0.670316 0.625478
Si Si6 0.750000 0.830485 0.319198
Si Si7 0.422331 0.336822 0.194558
O O1 0.329550 0.500000 0.145600
O O2 0.326594 0.239525 0.028221
O O3 0.291480 0.294188 0.282283
O O4 0.375786 0.298238 0.246445
O O5 0.412432 0.500000 0.789835
O O6 0.457136 0.741484 0.779968
O O7 0.373922 0.754271 0.801310
O O8 0.418867 0.665190 0.015478
O O9 0.540156 0.767040 0.764164
O O10 0.492407 0.000000 0.775225
O O11 0.500000 0.834119 0.000000
O O12 0.338495 0.000000 0.877366
O O13 0.291544 0.202477 0.773198
O O14 0.750000 0.500000 0.603339
O O15 0.750000 0.747971 0.471106
O O16 0.750000 0.000000 0.346862
O O17 0.432038 0.500000 0.237351
#
# Coordination Sequence:
#
# PCOD9401138 Si02
#       7
#     8   8   8   8   4   4   8
#     4   9  18  32  50  74 100 126 161 204 245 285
#     4   9  16  26  41  63  92 125 158 194 238 282
#     4   9  15  22  35  59  91 124 157 191 228 277
#     4  10  19  32  50  72  98 129 164 200 240 288
#     4  10  21  36  54  74  96 126 165 204 242 290
#     4  10  23  38  50  70 100 130 161 200 246 292
#     4   8  14  24  38  59  91 125 153 188 235 281
#
# _framework density 17.602657000000001
#
# number of rings (size 3 to 8) (size 9 to 14) (size 15 to 20)
#    0.000    2.833    0.000    3.000    0.000    8.000 
#    0.000    0.000    0.000    0.000    0.000    1.167 
#    0.000    9.333    0.000    0.000    0.000    0.000 
#
# Total GULP energy -267552.131915 kJ/mol
# GULP energy per Si atom -5574.002748 kJ/mol
# Density = 1.756259 g / cm^3
# Si number density = 17.602657 Si / 1000 Ang^3
#
#
#
# Elastic Constant Matrix: (Units=GPa)
#
#
# Indices 1 2 3 4 5 6 
#
# 1 188.9976 104.1936 46.2267 0.0000 0.0000 0.0000
# 2 104.1936 106.8636 38.3880 0.0000 0.0000 0.0000
# 3 46.2267 38.3880 30.7147 0.0000 0.0000 0.0000
# 4 0.0000 0.0000 0.0000 17.9806 0.0000 0.0000
# 5 0.0000 0.0000 0.0000 0.0000 -4.3736 0.0000
# 6 0.0000 0.0000 0.0000 0.0000 0.0000 34.1121
#
#
#
# Elastic Compliance Matrix: (Units=1/GPa)
#
#
# Indices 1 2 3 4 5 6 
#
# 1 0.012072 -0.009516 -0.006275 0.000000 0.000000 0.000000
# 2 -0.009516 0.024484 -0.016278 0.000000 0.000000 0.000000
# 3 -0.006275 -0.016278 0.062347 0.000000 0.000000 0.000000
# 4 0.000000 0.000000 0.000000 0.055616 0.000000 0.000000
# 5 0.000000 0.000000 0.000000 0.000000 -0.228643 0.000000
# 6 0.000000 0.000000 0.000000 0.000000 0.000000 0.029315
#
#
# Mechanical properties :
#
#
# Convention : Reuss Voigt Hill
#
# Bulk Modulus (GPa) = 28.76577 78.24359 53.50468
# Shear Modulus (GPa) = 161.72110 18.72834 90.22472
#
# Velocity S-wave (km/s) = 9.59545 3.26536 7.16712
# Velocity P-wave (km/s) = 11.79579 7.66571 9.94746
#
# Compressibility (1/GPa) = 0.03476353
#
# Stress axis : x y z
#
# Youngs Moduli (GPa) = 82.83413 40.84341 16.03932
#
# Poissons Ratio (x) = 0.38868 0.10065
# Poissons Ratio (y) = 0.78828 0.26109
# Poissons Ratio (z) = 0.51982 0.66484
#
# Static dielectric constant tensor:
#      x y z
#    x 1.614250 0.000000 0.000000 
#    y 0.000000 1.592530 0.000000 
#    z 0.000000 0.000000 1.561390 
# 
# From -- ./inp_files/12936.got.cif
#   From: 2010.05.17/outbox.cif.g08.bks.cpg/sg51_7_cif.got.tgz:12936.got - 2010.06.03 11:52:47.
