data_PCOD9401599
_publ_section_title
;
Structure prediction by ZEFSAII (Michael W. Deem and Ramdas Pophale) SiO2 
 PCOD9401599
Probable space group: P M M A
;
_chemical_formula_sum "Si O2"
_cell_formula_units_Z 52
_cell_length_a 8.675967
_cell_length_b 16.120226
_cell_length_c 22.131261
_cell_angle_alpha 90.000000
_cell_angle_beta 90.000000
_cell_angle_gamma 90.000000
_cell_volume 3095.246047
_symmetry_space_group_name_H-M "P M M A"
_symmetry_group_IT_number 51
_symmetry_cell_setting 'orthorhombic'
loop_
_space_group_symop_operation_xyz
x,y,z
1/2-x,-y,z
1/2+x,-y,-z
-x,y,-z
-x,-y,-z
1/2+x,y,-z
1/2-x,y,z
x,-y,z
loop_
_atom_site_type_symbol
_atom_site_label
_atom_site_fract_x
_atom_site_fract_y
_atom_site_fract_z
Si Si1 0.935353 0.500000 0.354975
Si Si2 0.429305 0.249204 0.325150
Si Si3 0.934345 0.349231 0.566978
Si Si4 0.929868 0.153470 0.143314
Si Si5 0.423522 0.095808 0.718949
Si Si6 0.934415 0.000000 0.932471
Si Si7 0.063407 0.679724 0.196742
Si Si8 0.564453 0.500000 0.212244
O O1 0.750000 0.500000 0.359056
O O2 0.977219 0.500000 0.284051
O O3 0.005594 0.423253 0.391005
O O4 0.250000 0.271187 0.324995
O O5 0.487344 0.272428 0.391387
O O6 0.454849 0.153351 0.313209
O O7 0.493706 0.295369 0.265113
O O8 0.750000 0.352951 0.561586
O O9 0.000000 0.351607 0.500000
O O10 0.750000 0.163384 0.126645
O O11 0.936875 0.111734 0.209622
O O12 0.004667 0.245135 0.153364
O O13 0.007633 0.084950 0.100109
O O14 0.250000 0.122279 0.701491
O O15 0.442454 0.000000 0.706080
O O16 0.750000 0.000000 0.932168
O O17 0.000000 0.000000 0.000000
O O18 0.250000 0.679705 0.195611
O O19 0.001652 0.586510 0.185369
O O20 0.750000 0.500000 0.207205
#
# Coordination Sequence:
#
# PCOD9401599 Si02
#       8
#     4   8   8   8   8   4   8   4
#     4  11  22  34  49  69  94 127 167 207 256 317
#     4   9  19  32  47  69  95 125 162 208 261 312
#     4  11  22  36  50  66  91 124 164 210 260 316
#     4  10  19  35  54  79 114 148 183 223 264 316
#     4   9  17  30  50  75 102 131 162 202 254 307
#     4  12  24  38  58  86 120 160 195 226 265 310
#     4  10  19  33  52  76 106 141 179 223 273 323
#     4  11  21  32  50  77 106 141 180 221 274 327
#
# _framework density 16.799958
#
# number of rings (size 3 to 8) (size 9 to 14) (size 15 to 20)
#    0.000    1.846    2.308    2.769    0.000    3.385 
#    0.000    0.000    0.000    0.462    0.000    0.538 
#    0.000    0.000    0.000    0.000    0.000    0.000 
#
# Total GULP energy -289663.633004 kJ/mol
# GULP energy per Si atom -5570.454481 kJ/mol
# Density = 1.676172 g / cm^3
# Si number density = 16.799958 Si / 1000 Ang^3
#
#
#
# Elastic Constant Matrix: (Units=GPa)
#
#
# Indices 1 2 3 4 5 6 
#
# 1 80.0796 50.8167 38.9197 0.0000 0.0000 0.0000
# 2 50.8167 106.1674 47.6923 0.0000 0.0000 0.0000
# 3 38.9197 47.6923 65.9796 0.0000 0.0000 0.0000
# 4 0.0000 0.0000 0.0000 15.4711 0.0000 0.0000
# 5 0.0000 0.0000 0.0000 0.0000 12.2832 0.0000
# 6 0.0000 0.0000 0.0000 0.0000 0.0000 39.7339
#
#
#
# Elastic Compliance Matrix: (Units=1/GPa)
#
#
# Indices 1 2 3 4 5 6 
#
# 1 0.020022 -0.006335 -0.007231 0.000000 0.000000 0.000000
# 2 -0.006335 0.015953 -0.007794 0.000000 0.000000 0.000000
# 3 -0.007231 -0.007794 0.025056 0.000000 0.000000 0.000000
# 4 0.000000 0.000000 0.000000 0.064636 0.000000 0.000000
# 5 0.000000 0.000000 0.000000 0.000000 0.081412 0.000000
# 6 0.000000 0.000000 0.000000 0.000000 0.000000 0.025167
#
#
# Mechanical properties :
#
#
# Convention : Reuss Voigt Hill
#
# Bulk Modulus (GPa) = 54.61724 58.56487 56.59106
# Shear Modulus (GPa) = 17.78909 21.15083 19.46996
#
# Velocity S-wave (km/s) = 3.25757 3.55206 3.40800
# Velocity P-wave (km/s) = 6.83593 7.19435 7.01743
#
# Compressibility (1/GPa) = 0.01830924
#
# Stress axis : x y z
#
# Youngs Moduli (GPa) = 49.94442 62.68549 39.91104
#
# Poissons Ratio (x) = 0.39712 0.28861
# Poissons Ratio (y) = 0.31640 0.31107
# Poissons Ratio (z) = 0.36117 0.48858
#
# Static dielectric constant tensor:
#      x y z
#    x 1.592570 0.000000 0.000000 
#    y 0.000000 1.632000 0.000000 
#    z 0.000000 0.000000 1.552500 
# 
# From -- ./inp_files/31833.got.cif
#   From: 2010.05.17/outbox.cif.g08.bks.cpg/sg51_16_cif.got.tgz:31833.got - 2010.06.03 11:52:47.
