data_PCOD9401188
_publ_section_title
;
Structure prediction by ZEFSAII (Michael W. Deem and Ramdas Pophale) SiO2 
 PCOD9401188
Probable space group: P M M A
;
_chemical_formula_sum "Si O2"
_cell_formula_units_Z 40
_cell_length_a 21.577461
_cell_length_b 8.504290
_cell_length_c 12.045428
_cell_angle_alpha 90.000000
_cell_angle_beta 90.000000
_cell_angle_gamma 90.000000
_cell_volume 2210.347912
_symmetry_space_group_name_H-M "P M M A"
_symmetry_group_IT_number 51
_symmetry_cell_setting 'orthorhombic'
loop_
_space_group_symop_operation_xyz
x,y,z
1/2-x,-y,z
1/2+x,-y,-z
-x,y,-z
-x,-y,-z
1/2+x,y,-z
1/2-x,y,z
x,-y,z
loop_
_atom_site_type_symbol
_atom_site_label
_atom_site_fract_x
_atom_site_fract_y
_atom_site_fract_z
Si Si1 0.411459 0.318033 0.965308
Si Si2 0.527948 0.186077 0.832220
Si Si3 0.055989 0.808068 0.418458
Si Si4 0.678837 0.192068 0.456139
Si Si5 0.323938 0.179846 0.794151
O O1 0.415780 0.500000 0.993695
O O2 0.468427 0.270402 0.884951
O O3 0.351700 0.279782 0.892928
O O4 0.418241 0.220210 0.078472
O O5 0.543218 0.240240 0.708109
O O6 0.515567 0.000000 0.829191
O O7 0.123502 0.757181 0.463073
O O8 0.000000 0.758713 0.500000
O O9 0.056418 0.000000 0.419786
O O10 0.750000 0.242787 0.480167
O O11 0.661027 0.238206 0.330039
O O12 0.680243 0.000000 0.455923
O O13 0.250000 0.175503 0.799396
O O14 0.347575 0.000000 0.804385
#
# Coordination Sequence:
#
# PCOD9401188 Si02
#       5
#     8   8   8   8   8
#     4  11  21  33  49  69  98 131 162 201 247 291
#     4  10  19  32  51  72  96 127 163 202 242 288
#     4   9  16  26  45  73  99 123 156 200 247 292
#     4   8  14  26  46  73 101 124 151 195 247 292
#     4   9  17  31  53  77  98 124 161 201 239 285
#
# _framework density 18.096699999999998
#
# number of rings (size 3 to 8) (size 9 to 14) (size 15 to 20)
#    0.000    2.600    0.000    6.000    0.000    3.600 
#    0.000    1.000    0.000   14.400    0.000    0.000 
#    0.000    0.000    0.000    0.000    0.000    0.000 
#
# Total GULP energy -222985.528570 kJ/mol
# GULP energy per Si atom -5574.638214 kJ/mol
# Density = 1.805551 g / cm^3
# Si number density = 18.096700 Si / 1000 Ang^3
#
#
#
# Elastic Constant Matrix: (Units=GPa)
#
#
# Indices 1 2 3 4 5 6 
#
# 1 56.8598 0.3095 54.1872 0.0000 0.0000 0.0000
# 2 0.3095 13.3280 -0.7065 0.0000 0.0000 0.0000
# 3 54.1872 -0.7065 137.3495 0.0000 0.0000 0.0000
# 4 0.0000 0.0000 0.0000 -10.0374 0.0000 0.0000
# 5 0.0000 0.0000 0.0000 0.0000 28.3543 0.0000
# 6 0.0000 0.0000 0.0000 0.0000 0.0000 0.3336
#
#
#
# Elastic Compliance Matrix: (Units=1/GPa)
#
#
# Indices 1 2 3 4 5 6 
#
# 1 0.028204 -0.001245 -0.011133 0.000000 0.000000 0.000000
# 2 -0.001245 0.075105 0.000878 0.000000 0.000000 0.000000
# 3 -0.011133 0.000878 0.011678 0.000000 0.000000 0.000000
# 4 0.000000 0.000000 0.000000 -0.099627 0.000000 0.000000
# 5 0.000000 0.000000 0.000000 0.000000 0.035268 0.000000
# 6 0.000000 0.000000 0.000000 0.000000 0.000000 2.997592
#
#
# Mechanical properties :
#
#
# Convention : Reuss Voigt Hill
#
# Bulk Modulus (GPa) = 10.87137 35.01308 22.94222
# Shear Modulus (GPa) = 1.61192 13.97991 7.79592
#
# Velocity S-wave (km/s) = 0.94481 2.78242 2.07780
# Velocity P-wave (km/s) = 2.68526 5.45090 4.29668
#
# Compressibility (1/GPa) = 0.09198473
#
# Stress axis : x y z
#
# Youngs Moduli (GPa) = 35.45592 13.31465 85.63409
#
# Poissons Ratio (x) = 0.01658 0.95340
# Poissons Ratio (y) = 0.04415 -0.07515
# Poissons Ratio (z) = 0.39475 -0.01168
#
# Static dielectric constant tensor:
#      x y z
#    x 1.642660 0.000000 0.000000 
#    y 0.000000 1.630450 0.000000 
#    z 0.000000 0.000000 1.620690 
# 
# From -- ./inp_files/17890.got.cif
#   From: 2010.05.17/outbox.cif.g08.bks.cpg/sg51_9_cif.got.tgz:17890.got - 2010.06.03 11:52:47.
