data_PCOD9401049
_publ_section_title
;
Structure prediction by ZEFSAII (Michael W. Deem and Ramdas Pophale) SiO2 
 PCOD9401049
Probable space group: P M M A
;
_chemical_formula_sum "Si O2"
_cell_formula_units_Z 64
_cell_length_a 17.565609
_cell_length_b 17.618939
_cell_length_c 11.188853
_cell_angle_alpha 90.000000
_cell_angle_beta 90.000000
_cell_angle_gamma 90.000000
_cell_volume 3462.808951
_symmetry_space_group_name_H-M "P M M A"
_symmetry_group_IT_number 51
_symmetry_cell_setting 'orthorhombic'
loop_
_space_group_symop_operation_xyz
x,y,z
1/2-x,-y,z
1/2+x,-y,-z
-x,y,-z
-x,-y,-z
1/2+x,y,-z
1/2-x,y,z
x,-y,z
loop_
_atom_site_type_symbol
_atom_site_label
_atom_site_fract_x
_atom_site_fract_y
_atom_site_fract_z
Si Si1 0.163453 0.697523 0.266482
Si Si2 0.447958 0.414246 0.880486
Si Si3 0.417228 0.785758 0.058731
Si Si4 0.163815 0.149876 0.423071
Si Si5 0.337386 0.725947 0.848972
Si Si6 0.564127 0.796053 0.355568
Si Si7 0.522920 0.364732 0.631115
Si Si8 0.446761 0.086457 0.241604
O O1 0.250000 0.673956 0.234774
O O2 0.111073 0.722531 0.153879
O O3 0.169562 0.773902 0.344019
O O4 0.113453 0.640020 0.345612
O O5 0.417489 0.500000 0.884479
O O6 0.384414 0.349465 0.880954
O O7 0.489306 0.403196 0.751165
O O8 0.500000 0.405911 0.000000
O O9 0.422307 0.865738 0.125638
O O10 0.500000 0.769785 0.000000
O O11 0.355190 0.784055 0.955462
O O12 0.250000 0.128876 0.459893
O O13 0.106456 0.171053 0.529441
O O14 0.121939 0.090398 0.337137
O O15 0.250000 0.708585 0.836177
O O16 0.371508 0.763848 0.731565
O O17 0.509629 0.722321 0.371095
O O18 0.514686 0.862672 0.296548
O O19 0.500000 0.396366 0.500000
O O20 0.468074 0.000000 0.217694
#
# Coordination Sequence:
#
# PCOD9401049 Si02
#       8
#     8   8   8   8   8   8   8   8
#     4  10  19  31  54  86 116 147 191 248 302 345
#     4  10  23  40  60  87 124 161 194 239 300 368
#     4  11  19  37  57  83 111 146 197 252 287 353
#     4  10  20  34  54  81 114 147 191 249 299 343
#     4  11  22  36  62  89 114 148 191 244 299 349
#     4  11  19  37  56  85 115 149 198 248 288 352
#     4  11  18  34  61  88 117 155 205 253 291 344
#     4  11  23  37  58  81 111 156 198 240 298 363
#
# _framework density 18.482106000000002
#
# number of rings (size 3 to 8) (size 9 to 14) (size 15 to 20)
#    0.000    1.375    5.000    3.000    0.000    2.500 
#    0.000    0.000    0.000    3.000    0.000    0.000 
#    0.000    0.000    0.000    0.000    0.000    0.000 
#
# Total GULP energy -356913.214206 kJ/mol
# GULP energy per Si atom -5576.768972 kJ/mol
# Density = 1.844004 g / cm^3
# Si number density = 18.482106 Si / 1000 Ang^3
#
#
#
# Elastic Constant Matrix: (Units=GPa)
#
#
# Indices 1 2 3 4 5 6 
#
# 1 108.3841 31.9103 34.2888 0.0000 0.0000 0.0000
# 2 31.9103 79.3860 33.3651 0.0000 0.0000 0.0000
# 3 34.2888 33.3651 103.3084 0.0000 0.0000 0.0000
# 4 0.0000 0.0000 0.0000 3.0841 0.0000 0.0000
# 5 0.0000 0.0000 0.0000 0.0000 15.4462 0.0000
# 6 0.0000 0.0000 0.0000 0.0000 0.0000 8.3873
#
#
#
# Elastic Compliance Matrix: (Units=1/GPa)
#
#
# Indices 1 2 3 4 5 6 
#
# 1 0.011028 -0.003349 -0.002579 0.000000 0.000000 0.000000
# 2 -0.003349 0.015592 -0.003924 0.000000 0.000000 0.000000
# 3 -0.002579 -0.003924 0.011803 0.000000 0.000000 0.000000
# 4 0.000000 0.000000 0.000000 0.324245 0.000000 0.000000
# 5 0.000000 0.000000 0.000000 0.000000 0.064741 0.000000
# 6 0.000000 0.000000 0.000000 0.000000 0.000000 0.119227
#
#
# Mechanical properties :
#
#
# Convention : Reuss Voigt Hill
#
# Bulk Modulus (GPa) = 53.42028 54.46743 53.94385
# Shear Modulus (GPa) = 8.73239 18.15114 13.44176
#
# Velocity S-wave (km/s) = 2.17601 3.13724 2.69975
# Velocity P-wave (km/s) = 5.93969 6.53126 6.24249
#
# Compressibility (1/GPa) = 0.01871948
#
# Stress axis : x y z
#
# Youngs Moduli (GPa) = 90.67571 64.13465 84.72411
#
# Poissons Ratio (x) = 0.21480 0.21848
# Poissons Ratio (y) = 0.30369 0.33247
# Poissons Ratio (z) = 0.23383 0.25167
#
# Static dielectric constant tensor:
#      x y z
#    x 1.694750 0.000000 0.000000 
#    y 0.000000 1.611490 0.000000 
#    z 0.000000 0.000000 1.695550 
# 
# From -- ./inp_files/17711.got.cif
#   From: 2010.05.17/outbox.cif.g08.bks.cpg/sg51_9_cif.got.tgz:17711.got - 2010.06.03 11:52:47.
