data_PCOD9401458
_publ_section_title
;
Structure prediction by ZEFSAII (Michael W. Deem and Ramdas Pophale) SiO2 
 PCOD9401458
Probable space group: P M M A
;
_chemical_formula_sum "Si O2"
_cell_formula_units_Z 56
_cell_length_a 8.709531
_cell_length_b 15.017017
_cell_length_c 23.623324
_cell_angle_alpha 90.000000
_cell_angle_beta 90.000000
_cell_angle_gamma 90.000000
_cell_volume 3089.722305
_symmetry_space_group_name_H-M "P M M A"
_symmetry_group_IT_number 51
_symmetry_cell_setting 'orthorhombic'
loop_
_space_group_symop_operation_xyz
x,y,z
1/2-x,-y,z
1/2+x,-y,-z
-x,y,-z
-x,-y,-z
1/2+x,y,-z
1/2-x,y,z
x,-y,z
loop_
_atom_site_type_symbol
_atom_site_label
_atom_site_fract_x
_atom_site_fract_y
_atom_site_fract_z
Si Si1 0.566991 0.500000 0.062266
Si Si2 0.577027 0.399310 0.244491
Si Si3 0.428819 0.659427 0.134135
Si Si4 0.571386 0.742399 0.345090
Si Si5 0.936204 0.600814 0.436673
Si Si6 0.567297 0.147857 0.147538
Si Si7 0.567017 0.103245 0.728045
Si Si8 0.066283 0.000000 0.063866
O O1 0.750000 0.500000 0.062760
O O2 0.503394 0.586886 0.093629
O O3 0.500000 0.500000 0.000000
O O4 0.750000 0.391880 0.218910
O O5 0.562032 0.500000 0.265846
O O6 0.453134 0.378725 0.197162
O O7 0.567799 0.328366 0.293885
O O8 0.250000 0.672123 0.121587
O O9 0.517230 0.752372 0.132881
O O10 0.750000 0.765572 0.355904
O O11 0.511240 0.683625 0.397828
O O12 0.487005 0.829404 0.321112
O O13 0.750000 0.603141 0.436802
O O14 0.979493 0.500000 0.416618
O O15 0.000000 0.609855 0.500000
O O16 0.750000 0.137306 0.146223
O O17 0.509614 0.126955 0.211409
O O18 0.491520 0.083331 0.101233
O O19 0.750000 0.111757 0.735275
O O20 0.530988 0.000000 0.714967
O O21 0.250000 0.000000 0.060911
O O22 0.000000 0.000000 0.000000
#
# Coordination Sequence:
#
# PCOD9401458 Si02
#       8
#     4   8   8   8   8   8   8   4
#     4  12  26  46  66  86 114 154 201 246 295 358
#     4  10  19  32  53  82 117 153 189 233 289 351
#     4  12  24  39  60  88 119 153 193 242 295 351
#     4  10  20  34  56  86 119 156 202 247 296 355
#     4   9  18  34  56  85 122 165 206 248 295 353
#     4  12  24  41  65  91 119 157 198 241 298 363
#     4  11  23  38  58  86 121 156 193 245 306 362
#     4  12  26  46  68  94 122 152 193 246 303 364
#
# _framework density 18.124606
#
# number of rings (size 3 to 8) (size 9 to 14) (size 15 to 20)
#    0.000    1.143    2.857    4.714    0.000    3.714 
#    0.000    2.857    0.000    3.000    0.000    0.000 
#    0.000    0.000    0.000    0.000    0.000    0.000 
#
# Total GULP energy -312799.879371 kJ/mol
# GULP energy per Si atom -5585.712132 kJ/mol
# Density = 1.808335 g / cm^3
# Si number density = 18.124606 Si / 1000 Ang^3
#
#
#
# Elastic Constant Matrix: (Units=GPa)
#
#
# Indices 1 2 3 4 5 6 
#
# 1 101.2381 54.3720 40.5800 0.0000 0.0000 0.0000
# 2 54.3720 160.9848 62.3919 0.0000 0.0000 0.0000
# 3 40.5800 62.3919 99.3332 0.0000 0.0000 0.0000
# 4 0.0000 0.0000 0.0000 -227.9467 0.0000 0.0000
# 5 0.0000 0.0000 0.0000 0.0000 27.9874 0.0000
# 6 0.0000 0.0000 0.0000 0.0000 0.0000 27.1462
#
#
#
# Elastic Compliance Matrix: (Units=1/GPa)
#
#
# Indices 1 2 3 4 5 6 
#
# 1 0.012852 -0.003048 -0.003336 0.000000 0.000000 0.000000
# 2 -0.003048 0.008933 -0.004366 0.000000 0.000000 0.000000
# 3 -0.003336 -0.004366 0.014172 0.000000 0.000000 0.000000
# 4 0.000000 0.000000 0.000000 -0.004387 0.000000 0.000000
# 5 0.000000 0.000000 0.000000 0.000000 0.035730 0.000000
# 6 0.000000 0.000000 0.000000 0.000000 0.000000 0.036838
#
#
# Mechanical properties :
#
#
# Convention : Reuss Voigt Hill
#
# Bulk Modulus (GPa) = 69.16617 75.13820 72.15219
# Shear Modulus (GPa) = 38.32691 -20.94848 8.68922
#
# Velocity S-wave (km/s) = 4.60350 -3.40340 2.19193
# Velocity P-wave (km/s) = 8.15479 5.10904 6.80452
#
# Compressibility (1/GPa) = 0.01445793
#
# Stress axis : x y z
#
# Youngs Moduli (GPa) = 77.81061 111.94191 70.56063
#
# Poissons Ratio (x) = 0.34117 0.23539
# Poissons Ratio (y) = 0.23715 0.30806
# Poissons Ratio (z) = 0.25957 0.48873
#
# Static dielectric constant tensor:
#      x y z
#    x 1.620570 0.000000 0.000000 
#    y 0.000000 1.453350 0.000000 
#    z 0.000000 0.000000 1.603380 
# 
# From -- ./inp_files/32140.got.cif
#   From: 2010.05.17/outbox.cif.g08.bks.cpg/sg51_17_cif.got.tgz:32140.got - 2010.06.03 11:52:47.
