data_PCOD9401912
_publ_section_title
;
Structure prediction by ZEFSAII (Michael W. Deem and Ramdas Pophale) SiO2 
 PCOD9401912
Probable space group: P M M A
;
_chemical_formula_sum "Si O2"
_cell_formula_units_Z 64
_cell_length_a 24.537751
_cell_length_b 7.752257
_cell_length_c 16.078853
_cell_angle_alpha 90.000000
_cell_angle_beta 90.000000
_cell_angle_gamma 90.000000
_cell_volume 3058.566882
_symmetry_space_group_name_H-M "P M M A"
_symmetry_group_IT_number 51
_symmetry_cell_setting 'orthorhombic'
loop_
_space_group_symop_operation_xyz
x,y,z
1/2-x,-y,z
1/2+x,-y,-z
-x,y,-z
-x,-y,-z
1/2+x,y,-z
1/2-x,y,z
x,-y,z
loop_
_atom_site_type_symbol
_atom_site_label
_atom_site_fract_x
_atom_site_fract_y
_atom_site_fract_z
Si Si1 0.379790 0.795833 0.408557
Si Si2 0.188011 0.207643 0.250834
Si Si3 0.500903 0.289373 0.843518
Si Si4 0.117329 0.292342 0.090332
Si Si5 0.618165 0.204917 0.409182
Si Si6 0.117253 0.288600 0.905857
Si Si7 0.998368 0.293478 0.651089
Si Si8 0.188648 0.294433 0.751072
O O1 0.346672 0.724591 0.329599
O O2 0.366300 0.723763 0.499817
O O3 0.444064 0.774538 0.392200
O O4 0.368240 0.000000 0.411265
O O5 0.250000 0.272065 0.251554
O O6 0.157600 0.247182 0.164917
O O7 0.189701 0.000000 0.257454
O O8 0.501297 0.500000 0.844276
O O9 0.556413 0.230419 0.886890
O O10 0.445015 0.236071 0.887292
O O11 0.500595 0.234587 0.747205
O O12 0.114658 0.500000 0.087039
O O13 0.133761 0.232541 0.998304
O O14 0.554783 0.243356 0.391770
O O15 0.654182 0.268854 0.332598
O O16 0.624684 0.000000 0.411300
O O17 0.117930 0.500000 0.904171
O O18 0.155650 0.226876 0.831072
O O19 0.994908 0.500000 0.651078
O O20 0.250000 0.224597 0.744572
O O21 0.192600 0.500000 0.763004
#
# Coordination Sequence:
#
# PCOD9401912 Si02
#       8
#     8   8   8   8   8   8   8   8
#     4  10  22  39  58  81 111 147 188 231 276 333
#     4  10  22  40  58  76 106 149 189 228 277 328
#     4   9  16  29  53  84 113 141 174 218 271 324
#     4  10  19  33  58  88 112 140 182 229 273 324
#     4  11  23  38  58  84 113 147 188 232 278 333
#     4   9  17  32  56  84 115 146 179 223 275 331
#     4  11  20  34  59  87 116 147 180 224 280 338
#     4  10  21  38  58  81 111 148 191 236 282 331
#
# _framework density 20.924834000000001
#
# number of rings (size 3 to 8) (size 9 to 14) (size 15 to 20)
#    0.000    2.000    2.500    1.500    0.000    5.500 
#    0.000    3.125    0.000    0.750    0.000    0.000 
#    0.000    0.000    0.000    0.000    0.000    0.000 
#
# Total GULP energy -357506.805955 kJ/mol
# GULP energy per Si atom -5586.043843 kJ/mol
# Density = 2.087721 g / cm^3
# Si number density = 20.924834 Si / 1000 Ang^3
#
#
#
# Elastic Constant Matrix: (Units=GPa)
#
#
# Indices 1 2 3 4 5 6 
#
# 1 166.0028 -1.9847 101.6880 0.0000 0.0000 0.0000
# 2 -1.9847 30.1356 3.7307 0.0000 0.0000 0.0000
# 3 101.6880 3.7307 223.8741 0.0000 0.0000 0.0000
# 4 0.0000 0.0000 0.0000 17.8652 0.0000 0.0000
# 5 0.0000 0.0000 0.0000 0.0000 -11.2169 0.0000
# 6 0.0000 0.0000 0.0000 0.0000 0.0000 19.7595
#
#
#
# Elastic Compliance Matrix: (Units=1/GPa)
#
#
# Indices 1 2 3 4 5 6 
#
# 1 0.008378 0.001025 -0.003822 0.000000 0.000000 0.000000
# 2 0.001025 0.033377 -0.001022 0.000000 0.000000 0.000000
# 3 -0.003822 -0.001022 0.006220 0.000000 0.000000 0.000000
# 4 0.000000 0.000000 0.000000 0.055975 0.000000 0.000000
# 5 0.000000 0.000000 0.000000 0.000000 -0.089151 0.000000
# 6 0.000000 0.000000 0.000000 0.000000 0.000000 0.050609
#
#
# Mechanical properties :
#
#
# Convention : Reuss Voigt Hill
#
# Bulk Modulus (GPa) = 24.79134 69.65340 47.22237
# Shear Modulus (GPa) = 57.80925 26.38677 42.09801
#
# Velocity S-wave (km/s) = 5.26185 3.55495 4.49025
# Velocity P-wave (km/s) = 6.98496 7.08589 7.03561
#
# Compressibility (1/GPa) = 0.04033666
#
# Stress axis : x y z
#
# Youngs Moduli (GPa) = 119.36391 29.96044 160.77063
#
# Poissons Ratio (x) = -0.03071 0.61453
# Poissons Ratio (y) = -0.12234 0.16427
# Poissons Ratio (z) = 0.45626 0.03061
#
# Static dielectric constant tensor:
#      x y z
#    x 1.693820 0.000000 0.000000 
#    y 0.000000 1.785860 0.000000 
#    z 0.000000 0.000000 1.703530 
# 
# From -- ./inp_files/26351.got.cif
#   From: 2010.05.17/outbox.cif.g08.bks.cpg/sg51_14_cif.got.tgz:26351.got - 2010.06.03 11:52:47.
