data_PCOD9401019
_publ_section_title
;
Structure prediction by ZEFSAII (Michael W. Deem and Ramdas Pophale) SiO2 
 PCOD9401019
Probable space group: P M M A
;
_chemical_formula_sum "Si O2"
_cell_formula_units_Z 56
_cell_length_a 20.264634
_cell_length_b 16.496752
_cell_length_c 10.003014
_cell_angle_alpha 90.000000
_cell_angle_beta 90.000000
_cell_angle_gamma 90.000000
_cell_volume 3344.013997
_symmetry_space_group_name_H-M "P M M A"
_symmetry_group_IT_number 51
_symmetry_cell_setting 'orthorhombic'
loop_
_space_group_symop_operation_xyz
x,y,z
1/2-x,-y,z
1/2+x,-y,-z
-x,y,-z
-x,-y,-z
1/2+x,y,-z
1/2-x,y,z
x,-y,z
loop_
_atom_site_type_symbol
_atom_site_label
_atom_site_fract_x
_atom_site_fract_y
_atom_site_fract_z
Si Si1 0.827933 0.224604 0.544629
Si Si2 0.671370 0.594830 0.042036
Si Si3 0.393761 0.673888 0.217222
Si Si4 0.490782 0.414898 0.656418
Si Si5 0.559192 0.904593 0.599715
Si Si6 0.385688 0.284079 0.734098
Si Si7 0.502043 0.817103 0.847409
O O1 0.750000 0.208542 0.558417
O O2 0.851378 0.287316 0.661376
O O3 0.875668 0.147398 0.568383
O O4 0.843089 0.255869 0.393589
O O5 0.750000 0.591873 0.040624
O O6 0.648370 0.500000 0.054958
O O7 0.650157 0.657499 0.159205
O O8 0.646173 0.635857 0.904947
O O9 0.439741 0.604000 0.277071
O O10 0.445806 0.741980 0.164406
O O11 0.500000 0.420176 0.500000
O O12 0.463533 0.500000 0.708567
O O13 0.442650 0.341274 0.677464
O O14 0.500000 0.878941 0.500000
O O15 0.531175 0.882613 0.745508
O O16 0.570861 0.000000 0.584382
O O17 0.428761 0.212461 0.802768
O O18 0.500000 0.844111 0.000000
#
# Coordination Sequence:
#
# PCOD9401019 Si02
#       7
#     8   8   8   8   8   8   8
#     4  11  22  37  60  84 111 149 188 228 278 338
#     4  11  23  37  51  72 110 154 192 236 288 334
#     4  10  20  35  54  79 108 141 192 234 279 332
#     4  10  19  31  52  76 104 140 182 239 290 323
#     4  10  21  38  62  90 117 142 177 227 279 333
#     4  11  20  36  53  81 109 144 191 235 273 334
#     4  10  19  34  59  85 110 147 178 226 278 333
#
# _framework density 16.746341000000001
#
# number of rings (size 3 to 8) (size 9 to 14) (size 15 to 20)
#    0.000    1.571    4.286    1.714    0.000    0.571 
#    0.000    2.143    0.000    3.429    0.000    0.000 
#    0.000    0.000    0.000    0.000    0.000    0.000 
#
# Total GULP energy -312027.976007 kJ/mol
# GULP energy per Si atom -5571.928143 kJ/mol
# Density = 1.670823 g / cm^3
# Si number density = 16.746341 Si / 1000 Ang^3
#
#
#
# Elastic Constant Matrix: (Units=GPa)
#
#
# Indices 1 2 3 4 5 6 
#
# 1 89.7685 21.9360 43.5717 0.0000 0.0000 0.0000
# 2 21.9360 43.6271 23.6799 0.0000 0.0000 0.0000
# 3 43.5717 23.6799 129.1256 0.0000 0.0000 0.0000
# 4 0.0000 0.0000 0.0000 21.7466 0.0000 0.0000
# 5 0.0000 0.0000 0.0000 0.0000 21.2202 0.0000
# 6 0.0000 0.0000 0.0000 0.0000 0.0000 19.4270
#
#
#
# Elastic Compliance Matrix: (Units=1/GPa)
#
#
# Indices 1 2 3 4 5 6 
#
# 1 0.014262 -0.005063 -0.003884 0.000000 0.000000 0.000000
# 2 -0.005063 0.027253 -0.003289 0.000000 0.000000 0.000000
# 3 -0.003884 -0.003289 0.009658 0.000000 0.000000 0.000000
# 4 0.000000 0.000000 0.000000 0.045984 0.000000 0.000000
# 5 0.000000 0.000000 0.000000 0.000000 0.047125 0.000000
# 6 0.000000 0.000000 0.000000 0.000000 0.000000 0.051475
#
#
# Mechanical properties :
#
#
# Convention : Reuss Voigt Hill
#
# Bulk Modulus (GPa) = 37.45274 48.98848 43.22061
# Shear Modulus (GPa) = 21.82170 24.03434 22.92802
#
# Velocity S-wave (km/s) = 3.61373 3.79251 3.70420
# Velocity P-wave (km/s) = 6.31073 6.96378 6.64528
#
# Compressibility (1/GPa) = 0.02670032
#
# Stress axis : x y z
#
# Youngs Moduli (GPa) = 70.11527 36.69372 103.53829
#
# Poissons Ratio (x) = 0.18578 0.40216
# Poissons Ratio (y) = 0.35499 0.34057
# Poissons Ratio (z) = 0.27234 0.12070
#
# Static dielectric constant tensor:
#      x y z
#    x 1.547850 0.000000 0.000000 
#    y 0.000000 1.572190 0.000000 
#    z 0.000000 0.000000 1.541640 
# 
# From -- ./inp_files/11155.got.cif
#   From: 2010.05.17/outbox.cif.g08.bks.cpg/sg51_6_cif.got.tgz:11155.got - 2010.06.03 11:52:47.
