data_PCOD9401230
_publ_section_title
;
Structure prediction by ZEFSAII (Michael W. Deem and Ramdas Pophale) SiO2 
 PCOD9401230
Probable space group: P M M A
;
_chemical_formula_sum "Si O2"
_cell_formula_units_Z 36
_cell_length_a 8.567410
_cell_length_b 16.403008
_cell_length_c 13.757867
_cell_angle_alpha 90.000000
_cell_angle_beta 90.000000
_cell_angle_gamma 90.000000
_cell_volume 1933.410863
_symmetry_space_group_name_H-M "P M M A"
_symmetry_group_IT_number 51
_symmetry_cell_setting 'orthorhombic'
loop_
_space_group_symop_operation_xyz
x,y,z
1/2-x,-y,z
1/2+x,-y,-z
-x,y,-z
-x,-y,-z
1/2+x,y,-z
1/2-x,y,z
x,-y,z
loop_
_atom_site_type_symbol
_atom_site_label
_atom_site_fract_x
_atom_site_fract_y
_atom_site_fract_z
Si Si1 0.060446 0.589847 0.805724
Si Si2 0.937117 0.670431 0.395723
Si Si3 0.063609 0.000000 0.609485
Si Si4 0.063603 0.166424 0.301162
Si Si5 0.062250 0.240706 0.895132
O O1 0.250000 0.588501 0.809035
O O2 0.003006 0.500000 0.832993
O O3 0.017491 0.612597 0.694678
O O4 0.010771 0.665891 0.871797
O O5 0.750000 0.674485 0.398242
O O6 0.000000 0.643780 0.500000
O O7 0.002086 0.759843 0.368877
O O8 0.000000 0.000000 0.500000
O O9 0.002563 0.080986 0.662273
O O10 0.250000 0.000000 0.608169
O O11 0.250000 0.165576 0.303685
O O12 0.003986 0.187269 0.192999
O O13 0.250000 0.237698 0.892513
O O14 0.000000 0.215944 0.000000
#
# Coordination Sequence:
#
# PCOD9401230 Si02
#       5
#     8   8   4   8   8
#     4   8  16  31  50  74 106 142 182 228 274 322
#     4  10  19  32  51  75 106 145 185 225 273 326
#     4  12  24  40  61  88 119 148 180 218 264 316
#     4  11  22  38  58  82 111 143 182 225 270 320
#     4  10  20  36  58  82 109 144 183 225 275 326
#
# _framework density 18.619942999999999
#
# number of rings (size 3 to 8) (size 9 to 14) (size 15 to 20)
#    0.000    2.000    0.000    6.333    0.000    0.889 
#    0.000    0.556    0.000   22.667    0.000    0.000 
#    0.000    0.000    0.000    0.000    0.000    0.000 
#
# Total GULP energy -201061.257944 kJ/mol
# GULP energy per Si atom -5585.034943 kJ/mol
# Density = 1.857756 g / cm^3
# Si number density = 18.619943 Si / 1000 Ang^3
#
#
#
# Elastic Constant Matrix: (Units=GPa)
#
#
# Indices 1 2 3 4 5 6 
#
# 1 99.8930 21.6952 25.6753 0.0000 0.0000 0.0000
# 2 21.6952 98.4714 22.0145 0.0000 0.0000 0.0000
# 3 25.6753 22.0145 99.9718 0.0000 0.0000 0.0000
# 4 0.0000 0.0000 0.0000 1.1099 0.0000 0.0000
# 5 0.0000 0.0000 0.0000 0.0000 31.4023 0.0000
# 6 0.0000 0.0000 0.0000 0.0000 0.0000 16.3965
#
#
#
# Elastic Compliance Matrix: (Units=1/GPa)
#
#
# Indices 1 2 3 4 5 6 
#
# 1 0.011044 -0.001892 -0.002420 0.000000 0.000000 0.000000
# 2 -0.001892 0.011005 -0.001937 0.000000 0.000000 0.000000
# 3 -0.002420 -0.001937 0.011051 0.000000 0.000000 0.000000
# 4 0.000000 0.000000 0.000000 0.900962 0.000000 0.000000
# 5 0.000000 0.000000 0.000000 0.000000 0.031845 0.000000
# 6 0.000000 0.000000 0.000000 0.000000 0.000000 0.060989
#
#
# Mechanical properties :
#
#
# Convention : Reuss Voigt Hill
#
# Bulk Modulus (GPa) = 48.54086 48.56735 48.55410
# Shear Modulus (GPa) = 4.77892 25.04515 14.91204
#
# Velocity S-wave (km/s) = 1.60379 3.67150 2.83302
# Velocity P-wave (km/s) = 5.43649 6.64179 6.06913
#
# Compressibility (1/GPa) = 0.02060120
#
# Stress axis : x y z
#
# Youngs Moduli (GPa) = 90.55041 90.86555 90.49058
#
# Poissons Ratio (x) = 0.17194 0.21895
# Poissons Ratio (y) = 0.17134 0.17532
# Poissons Ratio (z) = 0.21909 0.17605
#
# Static dielectric constant tensor:
#      x y z
#    x 1.625510 0.000000 0.000000 
#    y 0.000000 1.634000 0.000000 
#    z 0.000000 0.000000 1.620260 
# 
# From -- ./inp_files/20364.got.cif
#   From: 2010.05.17/outbox.cif.g08.bks.cpg/sg51_11_cif.got.tgz:20364.got - 2010.06.03 11:52:47.
