data_PCOD9401106
_publ_section_title
;
Structure prediction by ZEFSAII (Michael W. Deem and Ramdas Pophale) SiO2 
 PCOD9401106
Probable space group: P M M A
;
_chemical_formula_sum "Si O2"
_cell_formula_units_Z 64
_cell_length_a 9.603313
_cell_length_b 14.640626
_cell_length_c 29.450962
_cell_angle_alpha 90.000000
_cell_angle_beta 90.000000
_cell_angle_gamma 90.000000
_cell_volume 4140.761493
_symmetry_space_group_name_H-M "P M M A"
_symmetry_group_IT_number 51
_symmetry_cell_setting 'orthorhombic'
loop_
_space_group_symop_operation_xyz
x,y,z
1/2-x,-y,z
1/2+x,-y,-z
-x,y,-z
-x,-y,-z
1/2+x,y,-z
1/2-x,y,z
x,-y,z
loop_
_atom_site_type_symbol
_atom_site_label
_atom_site_fract_x
_atom_site_fract_y
_atom_site_fract_z
Si Si1 0.909663 0.888589 0.043632
Si Si2 0.406912 0.889699 0.127586
Si Si3 0.583146 0.108357 0.766246
Si Si4 0.593235 0.861971 0.541363
Si Si5 0.410247 0.641360 0.456334
Si Si6 0.585629 0.393095 0.648158
Si Si7 0.400549 0.901051 0.622247
Si Si8 0.088261 0.244308 0.701596
O O1 0.750000 0.858572 0.040463
O O2 0.983897 0.857664 0.090054
O O3 0.908443 0.000000 0.043886
O O4 0.000000 0.860923 0.000000
O O5 0.250000 0.856532 0.117693
O O6 0.439882 0.872106 0.180201
O O7 0.402670 0.000000 0.123883
O O8 0.750000 0.117203 0.757367
O O9 0.495169 0.182237 0.737972
O O10 0.548204 0.000000 0.757989
O O11 0.500000 0.893511 0.500000
O O12 0.750000 0.892218 0.536503
O O13 0.590491 0.751554 0.542044
O O14 0.524720 0.893877 0.587555
O O15 0.500000 0.610397 0.500000
O O16 0.250000 0.609830 0.460716
O O17 0.459160 0.616982 0.405148
O O18 0.750000 0.365545 0.649619
O O19 0.576113 0.500000 0.659601
O O20 0.495964 0.332155 0.682905
O O21 0.250000 0.894388 0.597815
O O22 0.406469 0.821294 0.657920
O O23 0.405243 0.000000 0.645374
O O24 0.250000 0.263633 0.714828
#
# Coordination Sequence:
#
# PCOD9401106 Si02
#       8
#     8   8   8   8   8   8   8   8
#     4   9  15  21  31  49  75 110 151 195 240 281
#     4   8  14  25  39  56  80 111 150 195 236 274
#     4   9  18  32  50  70  93 124 160 196 236 282
#     4  10  19  32  50  69  90 115 143 174 209 252
#     4   9  18  32  51  74  96 116 140 170 209 258
#     4  10  21  38  57  75  96 121 149 180 217 267
#     4  10  21  35  49  67  91 118 147 178 214 256
#     4  11  22  35  52  72  96 120 147 187 231 272
#
# _framework density 15.456094
#
# number of rings (size 3 to 8) (size 9 to 14) (size 15 to 20)
#    0.000    2.500    1.250    2.250    0.000    5.250 
#    0.000    1.250    0.000    0.000    0.000    0.000 
#    0.000    0.000    0.000    0.000    0.000    0.625 
#
# Total GULP energy -356499.351711 kJ/mol
# GULP energy per Si atom -5570.302370 kJ/mol
# Density = 1.542091 g / cm^3
# Si number density = 15.456094 Si / 1000 Ang^3
#
#
#
# Elastic Constant Matrix: (Units=GPa)
#
#
# Indices 1 2 3 4 5 6 
#
# 1 120.1444 32.9768 73.2858 0.0000 0.0000 0.0000
# 2 32.9768 60.1574 24.6065 0.0000 0.0000 0.0000
# 3 73.2858 24.6065 88.9609 0.0000 0.0000 0.0000
# 4 0.0000 0.0000 0.0000 5.3427 0.0000 0.0000
# 5 0.0000 0.0000 0.0000 0.0000 27.8524 0.0000
# 6 0.0000 0.0000 0.0000 0.0000 0.0000 11.3000
#
#
#
# Elastic Compliance Matrix: (Units=1/GPa)
#
#
# Indices 1 2 3 4 5 6 
#
# 1 0.017622 -0.004197 -0.013356 0.000000 0.000000 0.000000
# 2 -0.004197 0.019743 -0.002004 0.000000 0.000000 0.000000
# 3 -0.013356 -0.002004 0.022798 0.000000 0.000000 0.000000
# 4 0.000000 0.000000 0.000000 0.187170 0.000000 0.000000
# 5 0.000000 0.000000 0.000000 0.000000 0.035904 0.000000
# 6 0.000000 0.000000 0.000000 0.000000 0.000000 0.088495
#
#
# Mechanical properties :
#
#
# Convention : Reuss Voigt Hill
#
# Bulk Modulus (GPa) = 47.50614 59.00009 53.25311
# Shear Modulus (GPa) = 11.96564 18.12528 15.04546
#
# Velocity S-wave (km/s) = 2.78541 3.42818 3.12337
# Velocity P-wave (km/s) = 6.41464 7.34340 6.89467
#
# Compressibility (1/GPa) = 0.02104991
#
# Stress axis : x y z
#
# Youngs Moduli (GPa) = 56.74575 50.65033 43.86332
#
# Poissons Ratio (x) = 0.21258 0.58586
# Poissons Ratio (y) = 0.23816 0.08788
# Poissons Ratio (z) = 0.75792 0.10148
#
# Static dielectric constant tensor:
#      x y z
#    x 1.569830 0.000000 0.000000 
#    y 0.000000 1.512560 0.000000 
#    z 0.000000 0.000000 1.507760 
# 
# From -- ./inp_files/37618.got.cif
#   From: 2010.05.17/outbox.cif.g08.bks.cpg/sg51_19_cif.got.tgz:37618.got - 2010.06.03 11:52:47.
