data_PCOD9401405
_publ_section_title
;
Structure prediction by ZEFSAII (Michael W. Deem and Ramdas Pophale) SiO2 
 PCOD9401405
Probable space group: P M M A
;
_chemical_formula_sum "Si O2"
_cell_formula_units_Z 64
_cell_length_a 24.363585
_cell_length_b 7.414265
_cell_length_c 15.361656
_cell_angle_alpha 90.000000
_cell_angle_beta 90.000000
_cell_angle_gamma 90.000000
_cell_volume 2774.899977
_symmetry_space_group_name_H-M "P M M A"
_symmetry_group_IT_number 51
_symmetry_cell_setting 'orthorhombic'
loop_
_space_group_symop_operation_xyz
x,y,z
1/2-x,-y,z
1/2+x,-y,-z
-x,y,-z
-x,-y,-z
1/2+x,y,-z
1/2-x,y,z
x,-y,z
loop_
_atom_site_type_symbol
_atom_site_label
_atom_site_fract_x
_atom_site_fract_y
_atom_site_fract_z
Si Si1 0.894275 0.220055 0.645585
Si Si2 0.132160 0.784409 0.682443
Si Si3 0.187530 0.715478 0.867858
Si Si4 0.489970 0.221212 0.714882
Si Si5 0.190530 0.217385 0.210120
Si Si6 0.687695 0.220511 0.493639
Si Si7 0.133433 0.708834 0.042065
Si Si8 0.983830 0.795961 0.907651
O O1 0.957171 0.277446 0.658606
O O2 0.858858 0.279453 0.729016
O O3 0.859103 0.276808 0.561948
O O4 0.894977 0.000000 0.644594
O O5 0.159155 0.747576 0.775630
O O6 0.169158 0.719776 0.602442
O O7 0.069278 0.719339 0.681004
O O8 0.129371 0.000000 0.673157
O O9 0.250000 0.784824 0.868753
O O10 0.190582 0.500000 0.880553
O O11 0.151659 0.784315 0.948992
O O12 0.497717 0.281839 0.815412
O O13 0.490704 0.000000 0.716278
O O14 0.250000 0.274854 0.243908
O O15 0.182129 0.277684 0.111382
O O16 0.189474 0.000000 0.211144
O O17 0.750000 0.277968 0.514085
O O18 0.688567 0.000000 0.495579
O O19 0.117999 0.500000 0.031468
O O20 0.081788 0.802367 0.087155
O O21 0.006852 0.000000 0.909230
O O22 0.000000 0.709844 0.000000
#
# Coordination Sequence:
#
# PCOD9401405 Si02
#       8
#     8   8   8   8   8   8   8   8
#     4   9  16  29  50  76 110 143 173 213 264 323
#     4  10  20  34  55  82 108 136 175 224 272 312
#     4  10  22  39  55  73 103 143 180 215 265 325
#     4   9  17  30  49  76 109 142 175 214 264 318
#     4  10  19  32  53  78 104 139 181 218 259 319
#     4   9  17  29  48  79 113 139 170 220 275 317
#     4  11  22  35  52  76 107 140 176 222 273 323
#     4  10  19  33  53  75 105 143 183 226 265 311
#
# _framework density 23.063894000000001
#
# number of rings (size 3 to 8) (size 9 to 14) (size 15 to 20)
#    0.000    2.250    1.250    2.250    0.000    5.750 
#    0.000    3.125    0.000    0.750    0.000    0.875 
#    0.000    0.000    0.000    0.000    0.000    0.000 
#
# Total GULP energy -357583.337736 kJ/mol
# GULP energy per Si atom -5587.239652 kJ/mol
# Density = 2.301140 g / cm^3
# Si number density = 23.063894 Si / 1000 Ang^3
#
#
#
# Elastic Constant Matrix: (Units=GPa)
#
#
# Indices 1 2 3 4 5 6 
#
# 1 90.4724 3.5109 12.4956 0.0000 0.0000 0.0000
# 2 3.5109 76.5313 -3.2365 0.0000 0.0000 0.0000
# 3 12.4956 -3.2365 103.7690 0.0000 0.0000 0.0000
# 4 0.0000 0.0000 0.0000 12.9983 0.0000 0.0000
# 5 0.0000 0.0000 0.0000 0.0000 39.0102 0.0000
# 6 0.0000 0.0000 0.0000 0.0000 0.0000 1.2720
#
#
#
# Elastic Compliance Matrix: (Units=1/GPa)
#
#
# Indices 1 2 3 4 5 6 
#
# 1 0.011265 -0.000575 -0.001374 0.000000 0.000000 0.000000
# 2 -0.000575 0.013113 0.000478 0.000000 0.000000 0.000000
# 3 -0.001374 0.000478 0.009817 0.000000 0.000000 0.000000
# 4 0.000000 0.000000 0.000000 0.076933 0.000000 0.000000
# 5 0.000000 0.000000 0.000000 0.000000 0.025634 0.000000
# 6 0.000000 0.000000 0.000000 0.000000 0.000000 0.786157
#
#
# Mechanical properties :
#
#
# Convention : Reuss Voigt Hill
#
# Bulk Modulus (GPa) = 31.99667 32.92365 32.46016
# Shear Modulus (GPa) = 5.34028 27.85627 16.59828
#
# Velocity S-wave (km/s) = 1.52330 3.47909 2.68557
# Velocity P-wave (km/s) = 4.12276 5.51768 4.87041
#
# Compressibility (1/GPa) = 0.03125325
#
# Stress axis : x y z
#
# Youngs Moduli (GPa) = 88.76864 76.25938 101.86185
#
# Poissons Ratio (x) = 0.04384 0.14001
# Poissons Ratio (y) = 0.05104 -0.04871
# Poissons Ratio (z) = 0.12201 -0.03647
#
# Static dielectric constant tensor:
#      x y z
#    x 1.885770 0.000000 0.000000 
#    y 0.000000 1.880550 0.000000 
#    z 0.000000 0.000000 1.839670 
# 
# From -- ./inp_files/26271.got.cif
#   From: 2010.05.17/outbox.cif.g08.bks.cpg/sg51_14_cif.got.tgz:26271.got - 2010.06.03 11:52:47.
