data_PCOD9401950
_publ_section_title
;
Structure prediction by ZEFSAII (Michael W. Deem and Ramdas Pophale) SiO2 
 PCOD9401950
Probable space group: P M M A
;
_chemical_formula_sum "Si O2"
_cell_formula_units_Z 48
_cell_length_a 31.867949
_cell_length_b 7.385736
_cell_length_c 9.242760
_cell_angle_alpha 90.000000
_cell_angle_beta 90.000000
_cell_angle_gamma 90.000000
_cell_volume 2175.452322
_symmetry_space_group_name_H-M "P M M A"
_symmetry_group_IT_number 51
_symmetry_cell_setting 'orthorhombic'
loop_
_space_group_symop_operation_xyz
x,y,z
1/2-x,-y,z
1/2+x,-y,-z
-x,y,-z
-x,-y,-z
1/2+x,y,-z
1/2-x,y,z
x,-y,z
loop_
_atom_site_type_symbol
_atom_site_label
_atom_site_fract_x
_atom_site_fract_y
_atom_site_fract_z
Si Si1 0.499407 0.779143 0.166734
Si Si2 0.335762 0.209372 0.152600
Si Si3 0.750000 0.781187 0.351159
Si Si4 0.083028 0.220831 0.665979
Si Si5 0.750000 0.290772 0.691451
Si Si6 0.331717 0.778452 0.825259
Si Si7 0.084833 0.221578 0.332781
O O1 0.540957 0.720920 0.252025
O O2 0.457113 0.723535 0.248486
O O3 0.499563 0.000000 0.166455
O O4 0.500000 0.721199 0.000000
O O5 0.292362 0.213417 0.239681
O O6 0.373738 0.285405 0.248159
O O7 0.347468 0.000000 0.129210
O O8 0.330205 0.284600 0.991341
O O9 0.750000 0.729377 0.518904
O O10 0.708413 0.719200 0.267329
O O11 0.750000 0.000000 0.348102
O O12 0.124917 0.276255 0.750164
O O13 0.084113 0.279513 0.499441
O O14 0.082692 0.000000 0.666011
O O15 0.750000 0.500000 0.729981
O O16 0.330421 0.000000 0.824735
O O17 0.085413 0.000000 0.335806
#
# Coordination Sequence:
#
# PCOD9401950 Si02
#       7
#     8   8   4   8   4   8   8
#     4   9  15  22  33  55  93 135 167 199 243 291
#     4  10  19  34  55  76  99 129 167 207 249 297
#     4  10  19  34  54  74  98 128 165 206 248 294
#     4   9  15  23  36  60  97 133 164 201 247 294
#     4  12  25  38  52  74 102 130 163 202 250 302
#     4   9  17  29  49  75  99 129 169 210 249 294
#     4   9  16  25  41  65  93 129 167 201 242 293
#
# _framework density 22.064378999999999
#
# number of rings (size 3 to 8) (size 9 to 14) (size 15 to 20)
#    0.000    2.500    0.000    3.750    0.000   10.000 
#    0.000    1.667    0.000    0.000    0.000    0.000 
#    0.000   16.667    0.000    0.000    0.000    0.167 
#
# Total GULP energy -268338.616630 kJ/mol
# GULP energy per Si atom -5590.387846 kJ/mol
# Density = 2.201416 g / cm^3
# Si number density = 22.064379 Si / 1000 Ang^3
#
#
#
# Elastic Constant Matrix: (Units=GPa)
#
#
# Indices 1 2 3 4 5 6 
#
# 1 235.7864 -9.9627 143.9927 0.0000 0.0000 0.0000
# 2 -9.9627 72.8711 -6.6249 0.0000 0.0000 0.0000
# 3 143.9927 -6.6249 253.0149 0.0000 0.0000 0.0000
# 4 0.0000 0.0000 0.0000 -35.6774 0.0000 0.0000
# 5 0.0000 0.0000 0.0000 0.0000 55.2697 0.0000
# 6 0.0000 0.0000 0.0000 0.0000 0.0000 -31.1591
#
#
#
# Elastic Compliance Matrix: (Units=1/GPa)
#
#
# Indices 1 2 3 4 5 6 
#
# 1 0.006523 0.000556 -0.003698 0.000000 0.000000 0.000000
# 2 0.000556 0.013803 0.000045 0.000000 0.000000 0.000000
# 3 -0.003698 0.000045 0.006058 0.000000 0.000000 0.000000
# 4 0.000000 0.000000 0.000000 -0.028029 0.000000 0.000000
# 5 0.000000 0.000000 0.000000 0.000000 0.018093 0.000000
# 6 0.000000 0.000000 0.000000 0.000000 0.000000 -0.032093
#
#
# Mechanical properties :
#
#
# Convention : Reuss Voigt Hill
#
# Bulk Modulus (GPa) = 49.52958 90.72030 70.12494
# Shear Modulus (GPa) = -1836.66013 26.63780 -905.01116
#
# Velocity S-wave (km/s) = -28.88281 3.47836 -20.27459
# Velocity P-wave (km/s) = 33.01200 7.57215 22.72064
#
# Compressibility (1/GPa) = 0.02018996
#
# Stress axis : x y z
#
# Youngs Moduli (GPa) = 153.31165 72.44838 165.07584
#
# Poissons Ratio (x) = -0.04025 0.61038
# Poissons Ratio (y) = -0.08518 -0.00746
# Poissons Ratio (z) = 0.56688 -0.00328
#
# Static dielectric constant tensor:
#      x y z
#    x 1.751850 0.000000 0.000000 
#    y 0.000000 1.836080 0.000000 
#    z 0.000000 0.000000 1.747140 
# 
# From -- ./inp_files/12927.got.cif
#   From: 2010.05.17/outbox.cif.g08.bks.cpg/sg51_7_cif.got.tgz:12927.got - 2010.06.03 11:52:47.
