data_PCOD9401588
_publ_section_title
;
Structure prediction by ZEFSAII (Michael W. Deem and Ramdas Pophale) SiO2 
 PCOD9401588
Probable space group: P M M A
;
_chemical_formula_sum "Si O2"
_cell_formula_units_Z 48
_cell_length_a 8.560756
_cell_length_b 32.765094
_cell_length_c 9.322660
_cell_angle_alpha 90.000000
_cell_angle_beta 90.000000
_cell_angle_gamma 90.000000
_cell_volume 2614.949961
_symmetry_space_group_name_H-M "P M M A"
_symmetry_group_IT_number 51
_symmetry_cell_setting 'orthorhombic'
loop_
_space_group_symop_operation_xyz
x,y,z
1/2-x,-y,z
1/2+x,-y,-z
-x,y,-z
-x,-y,-z
1/2+x,y,-z
1/2-x,y,z
x,-y,z
loop_
_atom_site_type_symbol
_atom_site_label
_atom_site_fract_x
_atom_site_fract_y
_atom_site_fract_z
Si Si1 0.062502 0.665152 0.162348
Si Si2 0.561931 0.843361 0.836630
Si Si3 0.937491 0.588785 0.337680
Si Si4 0.938122 0.753861 0.837258
Si Si5 0.937466 0.079933 0.338743
Si Si6 0.438613 0.000000 0.838427
Si Si7 0.561713 0.500000 0.336936
O O1 0.250000 0.663784 0.160019
O O2 0.013068 0.709814 0.224550
O O3 0.000003 0.626960 0.249967
O O4 0.000000 0.662847 0.000000
O O5 0.750000 0.845433 0.839984
O O6 0.513713 0.798210 0.778793
O O7 0.496734 0.879464 0.739882
O O8 0.500000 0.847348 0.000000
O O9 0.750000 0.590155 0.339941
O O10 0.987009 0.544109 0.275750
O O11 0.000000 0.591107 0.500000
O O12 0.750000 0.753886 0.839729
O O13 0.000000 0.753664 0.000000
O O14 0.750000 0.080258 0.341918
O O15 0.989213 0.040429 0.247250
O O16 0.000000 0.077515 0.500000
O O17 0.250000 0.000000 0.842916
O O18 0.500000 0.000000 0.000000
O O19 0.750000 0.500000 0.339706
O O20 0.500000 0.500000 0.500000
#
# Coordination Sequence:
#
# PCOD9401588 Si02
#       7
#     8   8   8   8   8   4   4
#     4  10  19  33  52  76 104 136 171 211 257 308
#     4  10  19  34  56  82 108 138 176 219 259 305
#     4  10  19  33  52  75 100 130 167 210 256 307
#     4   8  16  30  50  74 102 134 171 211 255 303
#     4  11  23  39  57  81 111 145 179 217 265 315
#     4  10  23  40  60  84 110 140 179 220 261 308
#     4   8  16  30  49  70  95 126 164 206 252 304
#
# _framework density 18.355991
#
# number of rings (size 3 to 8) (size 9 to 14) (size 15 to 20)
#    0.000    2.333    0.000    2.750    0.000    4.667 
#    0.000    1.250    0.000    0.000    0.000    0.000 
#    0.000    0.000    0.000    0.000    0.000    0.000 
#
# Total GULP energy -267528.899062 kJ/mol
# GULP energy per Si atom -5573.518730 kJ/mol
# Density = 1.831421 g / cm^3
# Si number density = 18.355991 Si / 1000 Ang^3
#
#
#
# Elastic Constant Matrix: (Units=GPa)
#
#
# Indices 1 2 3 4 5 6 
#
# 1 42.2780 49.1819 24.0330 0.0000 0.0000 0.0000
# 2 49.1819 250.5318 88.8899 0.0000 0.0000 0.0000
# 3 24.0330 88.8899 83.4879 0.0000 0.0000 0.0000
# 4 0.0000 0.0000 0.0000 78.5260 0.0000 0.0000
# 5 0.0000 0.0000 0.0000 0.0000 30.3481 0.0000
# 6 0.0000 0.0000 0.0000 0.0000 0.0000 28.4995
#
#
#
# Elastic Compliance Matrix: (Units=1/GPa)
#
#
# Indices 1 2 3 4 5 6 
#
# 1 0.031458 -0.004761 -0.003986 0.000000 0.000000 0.000000
# 2 -0.004761 0.007135 -0.006227 0.000000 0.000000 0.000000
# 3 -0.003986 -0.006227 0.019755 0.000000 0.000000 0.000000
# 4 0.000000 0.000000 0.000000 0.012735 0.000000 0.000000
# 5 0.000000 0.000000 0.000000 0.000000 0.032951 0.000000
# 6 0.000000 0.000000 0.000000 0.000000 0.000000 0.035088
#
#
# Mechanical properties :
#
#
# Convention : Reuss Voigt Hill
#
# Bulk Modulus (GPa) = 35.21148 77.83413 56.52280
# Shear Modulus (GPa) = 28.00557 41.75424 34.87990
#
# Velocity S-wave (km/s) = 3.91025 4.77455 4.36385
# Velocity P-wave (km/s) = 6.29372 8.53755 7.50002
#
# Compressibility (1/GPa) = 0.02839983
#
# Stress axis : x y z
#
# Youngs Moduli (GPa) = 31.78890 140.14724 50.62090
#
# Poissons Ratio (x) = 0.66725 0.20179
# Poissons Ratio (y) = 0.15135 0.31519
# Poissons Ratio (z) = 0.12672 0.87263
#
# Static dielectric constant tensor:
#      x y z
#    x 1.626260 0.000000 0.000000 
#    y 0.000000 1.695140 0.000000 
#    z 0.000000 0.000000 1.580280 
# 
# From -- ./inp_files/6102.got.cif
#   From: 2010.05.17/outbox.cif.g08.bks.cpg/sg51_4_cif.got.tgz:6102.got - 2010.06.03 11:52:47.
