data_PCOD9401257
_publ_section_title
;
Structure prediction by ZEFSAII (Michael W. Deem and Ramdas Pophale) SiO2 
 PCOD9401257
Probable space group: P M M A
;
_chemical_formula_sum "Si O2"
_cell_formula_units_Z 64
_cell_length_a 15.439827
_cell_length_b 18.820102
_cell_length_c 13.023249
_cell_angle_alpha 90.000000
_cell_angle_beta 90.000000
_cell_angle_gamma 90.000000
_cell_volume 3784.284221
_symmetry_space_group_name_H-M "P M M A"
_symmetry_group_IT_number 51
_symmetry_cell_setting 'orthorhombic'
loop_
_space_group_symop_operation_xyz
x,y,z
1/2-x,-y,z
1/2+x,-y,-z
-x,y,-z
-x,-y,-z
1/2+x,y,-z
1/2-x,y,z
x,-y,z
loop_
_atom_site_type_symbol
_atom_site_label
_atom_site_fract_x
_atom_site_fract_y
_atom_site_fract_z
Si Si1 0.492064 0.579685 0.745304
Si Si2 0.148178 0.219771 0.244222
Si Si3 0.355426 0.080069 0.120364
Si Si4 0.853776 0.221309 0.223621
Si Si5 0.494858 0.721153 0.621412
Si Si6 0.344002 0.630121 0.139335
Si Si7 0.855343 0.920970 0.115025
Si Si8 0.912531 0.340667 0.067974
O O1 0.473203 0.500000 0.712188
O O2 0.492172 0.638673 0.656684
O O3 0.584965 0.586047 0.800613
O O4 0.430765 0.606213 0.838023
O O5 0.250000 0.214318 0.275027
O O6 0.120008 0.146087 0.191431
O O7 0.080783 0.242404 0.331219
O O8 0.143011 0.285922 0.164821
O O9 0.250000 0.080154 0.119575
O O10 0.382452 0.000000 0.151325
O O11 0.383693 0.091881 0.002552
O O12 0.750000 0.225361 0.241721
O O13 0.879898 0.141918 0.190393
O O14 0.877177 0.270968 0.125305
O O15 0.911583 0.245509 0.320151
O O16 0.500000 0.728365 0.500000
O O17 0.250000 0.609620 0.176562
O O18 0.351460 0.625208 0.017273
O O19 0.750000 0.921086 0.112599
O O20 0.883952 0.000000 0.145351
O O21 0.000000 0.326993 0.000000
#
# Coordination Sequence:
#
# PCOD9401257 Si02
#       8
#     8   8   8   8   8   8   8   8
#     4   9  19  34  49  68  94 121 152 194 243 292
#     4   9  17  31  51  73  99 129 162 204 248 287
#     4   8  13  23  44  75 107 136 163 190 226 278
#     4  10  19  32  52  74 100 134 169 208 248 287
#     4  10  22  38  55  73  89 115 163 215 260 303
#     4   9  16  26  44  71 100 130 160 187 221 276
#     4   8  14  25  44  73 106 137 165 190 224 277
#     4   9  17  28  46  71 102 136 164 188 222 280
#
# _framework density 16.912049
#
# number of rings (size 3 to 8) (size 9 to 14) (size 15 to 20)
#    0.000    3.000    0.000    2.625    0.000    5.250 
#    0.000    0.625    0.000   12.375    0.000    8.750 
#    0.000    0.000    0.000    0.000    0.000    0.000 
#
# Total GULP energy -356413.993041 kJ/mol
# GULP energy per Si atom -5568.968641 kJ/mol
# Density = 1.687356 g / cm^3
# Si number density = 16.912049 Si / 1000 Ang^3
#
#
#
# Elastic Constant Matrix: (Units=GPa)
#
#
# Indices 1 2 3 4 5 6 
#
# 1 58.5140 33.9899 30.9606 0.0000 0.0000 0.0000
# 2 33.9899 124.1123 48.9486 0.0000 0.0000 0.0000
# 3 30.9606 48.9486 89.8113 0.0000 0.0000 0.0000
# 4 0.0000 0.0000 0.0000 5.5373 0.0000 0.0000
# 5 0.0000 0.0000 0.0000 0.0000 11.2766 0.0000
# 6 0.0000 0.0000 0.0000 0.0000 0.0000 11.0563
#
#
#
# Elastic Compliance Matrix: (Units=1/GPa)
#
#
# Indices 1 2 3 4 5 6 
#
# 1 0.022304 -0.003918 -0.005554 0.000000 0.000000 0.000000
# 2 -0.003918 0.010952 -0.004618 0.000000 0.000000 0.000000
# 3 -0.005554 -0.004618 0.015566 0.000000 0.000000 0.000000
# 4 0.000000 0.000000 0.000000 0.180594 0.000000 0.000000
# 5 0.000000 0.000000 0.000000 0.000000 0.088679 0.000000
# 6 0.000000 0.000000 0.000000 0.000000 0.000000 0.090446
#
#
# Mechanical properties :
#
#
# Convention : Reuss Voigt Hill
#
# Bulk Modulus (GPa) = 48.44418 55.58174 52.01296
# Shear Modulus (GPa) = 11.27139 16.14329 13.70734
#
# Velocity S-wave (km/s) = 2.58441 3.09292 2.85003
# Velocity P-wave (km/s) = 6.13291 6.75954 6.45383
#
# Compressibility (1/GPa) = 0.02064232
#
# Stress axis : x y z
#
# Youngs Moduli (GPa) = 44.83437 91.31111 64.24318
#
# Poissons Ratio (x) = 0.35777 0.35678
# Poissons Ratio (y) = 0.17567 0.29668
# Poissons Ratio (z) = 0.24899 0.42168
#
# Static dielectric constant tensor:
#      x y z
#    x 1.618830 0.000000 0.000000 
#    y 0.000000 1.589020 0.000000 
#    z 0.000000 0.000000 1.529730 
# 
# From -- ./inp_files/17699.got.cif
#   From: 2010.05.17/outbox.cif.g08.bks.cpg/sg51_9_cif.got.tgz:17699.got - 2010.06.03 11:52:47.
