data_PCOD9401158
_publ_section_title
;
Structure prediction by ZEFSAII (Michael W. Deem and Ramdas Pophale) SiO2 
 PCOD9401158
Probable space group: P M M A
;
_chemical_formula_sum "Si O2"
_cell_formula_units_Z 44
_cell_length_a 8.558601
_cell_length_b 30.226066
_cell_length_c 9.409454
_cell_angle_alpha 90.000000
_cell_angle_beta 90.000000
_cell_angle_gamma 90.000000
_cell_volume 2434.158366
_symmetry_space_group_name_H-M "P M M A"
_symmetry_group_IT_number 51
_symmetry_cell_setting 'orthorhombic'
loop_
_space_group_symop_operation_xyz
x,y,z
1/2-x,-y,z
1/2+x,-y,-z
-x,y,-z
-x,-y,-z
1/2+x,y,-z
1/2-x,y,z
x,-y,z
loop_
_atom_site_type_symbol
_atom_site_label
_atom_site_fract_x
_atom_site_fract_y
_atom_site_fract_z
Si Si1 0.561445 0.584737 0.339237
Si Si2 0.937293 0.318036 0.338186
Si Si3 0.064316 0.773794 0.339222
Si Si4 0.061990 0.855784 0.838681
Si Si5 0.061386 0.047492 0.837996
Si Si6 0.560807 0.500000 0.159376
O O1 0.500000 0.580161 0.500000
O O2 0.750000 0.583779 0.345827
O O3 0.517164 0.633505 0.280416
O O4 0.508226 0.543924 0.243382
O O5 0.750000 0.314631 0.339301
O O6 0.000000 0.318831 0.500000
O O7 0.005888 0.273018 0.274648
O O8 0.250000 0.773324 0.344315
O O9 0.000000 0.776793 0.500000
O O10 0.004405 0.815526 0.251408
O O11 0.250000 0.853520 0.840023
O O12 0.013751 0.904500 0.778978
O O13 0.000000 0.852909 0.000000
O O14 0.250000 0.047449 0.840762
O O15 0.010623 0.000000 0.773552
O O16 0.000000 0.047360 0.000000
O O17 0.750000 0.500000 0.158026
O O18 0.500000 0.500000 0.000000
#
# Coordination Sequence:
#
# PCOD9401158 Si02
#       6
#     8   8   8   8   8   4
#     4   9  18  32  53  77 100 125 161 205 244 285
#     4   9  16  29  49  73  98 125 159 203 247 288
#     4  11  21  34  52  74 100 132 168 206 249 298
#     4  10  19  32  50  74 103 132 164 204 247 294
#     4   8  14  25  43  67  94 124 158 197 241 287
#     4  10  21  36  50  72 104 136 165 196 238 288
#
# _framework density 18.076063000000001
#
# number of rings (size 3 to 8) (size 9 to 14) (size 15 to 20)
#    0.000    2.545    0.000    4.091    0.000    2.182 
#    0.000    0.909    0.000    2.727    0.000    0.000 
#    0.000    0.000    0.000    0.000    0.000    0.000 
#
# Total GULP energy -245061.807100 kJ/mol
# GULP energy per Si atom -5569.586525 kJ/mol
# Density = 1.803492 g / cm^3
# Si number density = 18.076063 Si / 1000 Ang^3
#
#
#
# Elastic Constant Matrix: (Units=GPa)
#
#
# Indices 1 2 3 4 5 6 
#
# 1 60.4936 53.4714 16.0540 0.0000 0.0000 0.0000
# 2 53.4714 248.8798 67.1859 0.0000 0.0000 0.0000
# 3 16.0540 67.1859 46.0495 0.0000 0.0000 0.0000
# 4 0.0000 0.0000 0.0000 28.4789 0.0000 0.0000
# 5 0.0000 0.0000 0.0000 0.0000 22.9843 0.0000
# 6 0.0000 0.0000 0.0000 0.0000 0.0000 36.8338
#
#
#
# Elastic Compliance Matrix: (Units=1/GPa)
#
#
# Indices 1 2 3 4 5 6 
#
# 1 0.020445 -0.004072 -0.001186 0.000000 0.000000 0.000000
# 2 -0.004072 0.007440 -0.009435 0.000000 0.000000 0.000000
# 3 -0.001186 -0.009435 0.035895 0.000000 0.000000 0.000000
# 4 0.000000 0.000000 0.000000 0.035114 0.000000 0.000000
# 5 0.000000 0.000000 0.000000 0.000000 0.043508 0.000000
# 6 0.000000 0.000000 0.000000 0.000000 0.000000 0.027149
#
#
# Mechanical properties :
#
#
# Convention : Reuss Voigt Hill
#
# Bulk Modulus (GPa) = 29.07573 69.87171 49.47372
# Shear Modulus (GPa) = 23.76399 32.24018 28.00208
#
# Velocity S-wave (km/s) = 3.62977 4.22783 3.94016
# Velocity P-wave (km/s) = 5.80406 7.91018 6.93751
#
# Compressibility (1/GPa) = 0.03439294
#
# Stress axis : x y z
#
# Youngs Moduli (GPa) = 48.91145 134.40841 27.85894
#
# Poissons Ratio (x) = 0.54737 0.03304
# Poissons Ratio (y) = 0.19919 0.26285
# Poissons Ratio (z) = 0.05801 1.26817
#
# Static dielectric constant tensor:
#      x y z
#    x 1.604030 0.000000 0.000000 
#    y 0.000000 1.703440 0.000000 
#    z 0.000000 0.000000 1.565480 
# 
# From -- ./inp_files/5779.got.cif
#   From: 2010.05.17/outbox.cif.g08.bks.cpg/sg51_3_cif.got.tgz:5779.got - 2010.06.03 11:52:47.
