data_PCOD9401080
_publ_section_title
;
Structure prediction by ZEFSAII (Michael W. Deem and Ramdas Pophale) SiO2 
 PCOD9401080
Probable space group: P M M A
;
_chemical_formula_sum "Si O2"
_cell_formula_units_Z 44
_cell_length_a 8.015214
_cell_length_b 15.978312
_cell_length_c 17.955545
_cell_angle_alpha 90.000000
_cell_angle_beta 90.000000
_cell_angle_gamma 90.000000
_cell_volume 2299.559287
_symmetry_space_group_name_H-M "P M M A"
_symmetry_group_IT_number 51
_symmetry_cell_setting 'orthorhombic'
loop_
_space_group_symop_operation_xyz
x,y,z
1/2-x,-y,z
1/2+x,-y,-z
-x,y,-z
-x,-y,-z
1/2+x,y,-z
1/2-x,y,z
x,-y,z
loop_
_atom_site_type_symbol
_atom_site_label
_atom_site_fract_x
_atom_site_fract_y
_atom_site_fract_z
Si Si1 0.451900 0.906571 0.086170
Si Si2 0.057676 0.174512 0.653427
Si Si3 0.954247 0.407051 0.740686
Si Si4 0.051297 0.000000 0.414161
Si Si5 0.050852 0.661277 0.419534
Si Si6 0.942802 0.761982 0.807404
O O1 0.250000 0.906936 0.092015
O O2 0.517283 0.829311 0.135411
O O3 0.509408 0.000000 0.110268
O O4 0.500000 0.896457 0.000000
O O5 0.250000 0.180942 0.675673
O O6 0.020771 0.245429 0.592036
O O7 0.949529 0.196429 0.725732
O O8 0.018667 0.083299 0.623471
O O9 0.750000 0.404682 0.741767
O O10 0.007178 0.500000 0.762619
O O11 0.003445 0.388549 0.654730
O O12 0.015081 0.330726 0.792566
O O13 0.000000 0.000000 0.500000
O O14 0.250000 0.000000 0.407746
O O15 0.250000 0.666078 0.417464
O O16 0.000000 0.626888 0.500000
O O17 0.750000 0.749860 0.829769
#
# Coordination Sequence:
#
# PCOD9401080 Si02
#       6
#     8   8   8   4   8   8
#     4   9  18  32  51  77 106 136 167 201 245 298
#     4  11  22  35  50  72  98 129 170 211 254 304
#     4   8  15  29  49  72  97 127 169 215 258 306
#     4  12  24  38  52  68  95 130 171 216 258 300
#     4  10  19  32  49  69  95 129 167 211 264 311
#     4   9  18  33  53  76 101 134 169 206 254 302
#
# _framework density 19.134101000000001
#
# number of rings (size 3 to 8) (size 9 to 14) (size 15 to 20)
#    0.000    2.364    0.000    4.636    1.273    1.091 
#    0.000    0.000    0.000   13.636    0.000    0.000 
#    0.000    0.000    0.000    0.000    0.000    0.000 
#
# Total GULP energy -245394.464139 kJ/mol
# GULP energy per Si atom -5577.146912 kJ/mol
# Density = 1.909055 g / cm^3
# Si number density = 19.134101 Si / 1000 Ang^3
#
#
#
# Elastic Constant Matrix: (Units=GPa)
#
#
# Indices 1 2 3 4 5 6 
#
# 1 35.4038 2.5290 -7.6214 0.0000 0.0000 0.0000
# 2 2.5290 178.9212 65.2991 0.0000 0.0000 0.0000
# 3 -7.6214 65.2991 67.6118 0.0000 0.0000 0.0000
# 4 0.0000 0.0000 0.0000 23.2918 0.0000 0.0000
# 5 0.0000 0.0000 0.0000 0.0000 21.5389 0.0000
# 6 0.0000 0.0000 0.0000 0.0000 0.0000 -1.6186
#
#
#
# Elastic Compliance Matrix: (Units=1/GPa)
#
#
# Indices 1 2 3 4 5 6 
#
# 1 0.029673 -0.002533 0.005791 0.000000 0.000000 0.000000
# 2 -0.002533 0.008848 -0.008831 0.000000 0.000000 0.000000
# 3 0.005791 -0.008831 0.023972 0.000000 0.000000 0.000000
# 4 0.000000 0.000000 0.000000 0.042933 0.000000 0.000000
# 5 0.000000 0.000000 0.000000 0.000000 0.046428 0.000000
# 6 0.000000 0.000000 0.000000 0.000000 0.000000 -0.617801
#
#
# Mechanical properties :
#
#
# Convention : Reuss Voigt Hill
#
# Bulk Modulus (GPa) = 19.47508 44.70560 32.09034
# Shear Modulus (GPa) = -11.42369 23.42441 6.00036
#
# Velocity S-wave (km/s) = -2.44608 3.50269 1.77278
# Velocity P-wave (km/s) = 1.49083 6.30662 4.58236
#
# Compressibility (1/GPa) = 0.05134766
#
# Stress axis : x y z
#
# Youngs Moduli (GPa) = 33.70054 113.02436 41.71602
#
# Poissons Ratio (x) = 0.28629 -0.24158
# Poissons Ratio (y) = 0.08536 0.36837
# Poissons Ratio (z) = -0.19516 0.99807
#
# Static dielectric constant tensor:
#      x y z
#    x 1.676460 0.000000 0.000000 
#    y 0.000000 1.690990 0.000000 
#    z 0.000000 0.000000 1.642460 
# 
# From -- ./inp_files/27352.got.cif
#   From: 2010.05.17/outbox.cif.g08.bks.cpg/sg51_14_cif.got.tgz:27352.got - 2010.06.03 11:52:47.
