data_PCOD9401058
_publ_section_title
;
Structure prediction by ZEFSAII (Michael W. Deem and Ramdas Pophale) SiO2 
 PCOD9401058
Probable space group: P M M A
;
_chemical_formula_sum "Si O2"
_cell_formula_units_Z 44
_cell_length_a 9.893657
_cell_length_b 17.022314
_cell_length_c 15.746306
_cell_angle_alpha 90.000000
_cell_angle_beta 90.000000
_cell_angle_gamma 90.000000
_cell_volume 2651.881626
_symmetry_space_group_name_H-M "P M M A"
_symmetry_group_IT_number 51
_symmetry_cell_setting 'orthorhombic'
loop_
_space_group_symop_operation_xyz
x,y,z
1/2-x,-y,z
1/2+x,-y,-z
-x,y,-z
-x,-y,-z
1/2+x,y,-z
1/2-x,y,z
x,-y,z
loop_
_atom_site_type_symbol
_atom_site_label
_atom_site_fract_x
_atom_site_fract_y
_atom_site_fract_z
Si Si1 0.409072 0.134918 0.784751
Si Si2 0.902167 0.000000 0.077865
Si Si3 0.904550 0.913543 0.632537
Si Si4 0.410908 0.715001 0.228590
Si Si5 0.409231 0.592706 0.080530
Si Si6 0.094357 0.262815 0.424405
O O1 0.250000 0.149381 0.767725
O O2 0.483216 0.094363 0.705047
O O3 0.493615 0.213854 0.800212
O O4 0.419886 0.075876 0.863036
O O5 0.750000 0.000000 0.045171
O O6 0.000000 0.000000 0.000000
O O7 0.750000 0.910761 0.667887
O O8 0.916437 0.832749 0.580529
O O9 0.917552 0.000000 0.591168
O O10 0.250000 0.734631 0.222958
O O11 0.435766 0.642124 0.166010
O O12 0.438852 0.705717 0.329644
O O13 0.250000 0.602575 0.059910
O O14 0.433847 0.500000 0.095093
O O15 0.500000 0.617572 0.000000
O O16 0.250000 0.282002 0.441975
O O17 0.000000 0.291379 0.500000
#
# Coordination Sequence:
#
# PCOD9401058 Si02
#       6
#     8   4   8   8   8   8
#     4  10  19  32  47  67  93 122 164 212 250 287
#     4  10  22  34  44  62  89 122 163 208 249 292
#     4   9  17  30  48  66  88 123 163 204 254 307
#     4   9  19  35  53  74 101 135 169 199 246 308
#     4   9  18  34  57  83 109 134 161 199 248 302
#     4   9  18  31  46  68  97 130 170 211 248 295
#
# _framework density 16.591992999999999
#
# number of rings (size 3 to 8) (size 9 to 14) (size 15 to 20)
#    0.000    2.727    0.909    1.636    0.000    6.182 
#    0.000    3.636    0.000    0.545    0.000    0.000 
#    0.000    0.000    0.000    0.000    0.000    0.364 
#
# Total GULP energy -244954.870411 kJ/mol
# GULP energy per Si atom -5567.156146 kJ/mol
# Density = 1.655423 g / cm^3
# Si number density = 16.591993 Si / 1000 Ang^3
#
#
#
# Elastic Constant Matrix: (Units=GPa)
#
#
# Indices 1 2 3 4 5 6 
#
# 1 103.8273 39.4159 83.8186 0.0000 0.0000 0.0000
# 2 39.4159 60.2934 48.3514 0.0000 0.0000 0.0000
# 3 83.8186 48.3514 106.6965 0.0000 0.0000 0.0000
# 4 0.0000 0.0000 0.0000 3.9197 0.0000 0.0000
# 5 0.0000 0.0000 0.0000 0.0000 34.1270 0.0000
# 6 0.0000 0.0000 0.0000 0.0000 0.0000 12.1306
#
#
#
# Elastic Compliance Matrix: (Units=1/GPa)
#
#
# Indices 1 2 3 4 5 6 
#
# 1 0.026366 -0.000984 -0.020267 0.000000 0.000000 0.000000
# 2 -0.000984 0.026091 -0.011051 0.000000 0.000000 0.000000
# 3 -0.020267 -0.011051 0.030301 0.000000 0.000000 0.000000
# 4 0.000000 0.000000 0.000000 0.255122 0.000000 0.000000
# 5 0.000000 0.000000 0.000000 0.000000 0.029302 0.000000
# 6 0.000000 0.000000 0.000000 0.000000 0.000000 0.082436
#
#
# Mechanical properties :
#
#
# Convention : Reuss Voigt Hill
#
# Bulk Modulus (GPa) = 55.07935 68.22101 61.65018
# Shear Modulus (GPa) = 9.61035 16.65087 13.13061
#
# Velocity S-wave (km/s) = 2.40930 3.17132 2.81620
# Velocity P-wave (km/s) = 6.40375 7.39025 6.91462
#
# Compressibility (1/GPa) = 0.01815563
#
# Stress axis : x y z
#
# Youngs Moduli (GPa) = 37.92757 38.32811 33.00178
#
# Poissons Ratio (x) = 0.03770 0.66884
# Poissons Ratio (y) = 0.03731 0.36469
# Poissons Ratio (z) = 0.76867 0.42355
#
# Static dielectric constant tensor:
#      x y z
#    x 1.557950 0.000000 0.000000 
#    y 0.000000 1.566570 0.000000 
#    z 0.000000 0.000000 1.546380 
# 
# From -- ./inp_files/20945.got.cif
#   From: 2010.05.17/outbox.cif.g08.bks.cpg/sg51_11_cif.got.tgz:20945.got - 2010.06.03 11:52:47.
