data_PCOD9401179
_publ_section_title
;
Structure prediction by ZEFSAII (Michael W. Deem and Ramdas Pophale) SiO2 
 PCOD9401179
Probable space group: P M M A
;
_chemical_formula_sum "Si O2"
_cell_formula_units_Z 48
_cell_length_a 8.596701
_cell_length_b 17.176376
_cell_length_c 16.344336
_cell_angle_alpha 90.000000
_cell_angle_beta 90.000000
_cell_angle_gamma 90.000000
_cell_volume 2413.407412
_symmetry_space_group_name_H-M "P M M A"
_symmetry_group_IT_number 51
_symmetry_cell_setting 'orthorhombic'
loop_
_space_group_symop_operation_xyz
x,y,z
1/2-x,-y,z
1/2+x,-y,-z
-x,y,-z
-x,-y,-z
1/2+x,y,-z
1/2-x,y,z
x,-y,z
loop_
_atom_site_type_symbol
_atom_site_label
_atom_site_fract_x
_atom_site_fract_y
_atom_site_fract_z
Si Si1 0.435891 0.500000 0.408092
Si Si2 0.937848 0.173953 0.086920
Si Si3 0.438626 0.334251 0.841271
Si Si4 0.434497 0.181135 0.414037
Si Si5 0.438790 0.500000 0.908329
Si Si6 0.936602 0.663159 0.345993
Si Si7 0.563048 0.091581 0.256015
O O1 0.250000 0.500000 0.408064
O O2 0.500000 0.500000 0.500000
O O3 0.498955 0.421871 0.366113
O O4 0.750000 0.172306 0.084288
O O5 0.991050 0.263384 0.101755
O O6 0.986554 0.127115 0.168351
O O7 0.000000 0.144955 0.000000
O O8 0.250000 0.335415 0.845125
O O9 0.492912 0.420126 0.866026
O O10 0.479225 0.316986 0.747597
O O11 0.500000 0.149790 0.500000
O O12 0.250000 0.180944 0.417267
O O13 0.495275 0.269340 0.402330
O O14 0.491078 0.133899 0.334527
O O15 0.250000 0.500000 0.907312
O O16 0.500000 0.500000 0.000000
O O17 0.750000 0.662331 0.353280
O O18 0.750000 0.102659 0.260969
O O19 0.529077 0.000000 0.258051
#
# Coordination Sequence:
#
# PCOD9401179 Si02
#       7
#     4   8   8   8   4   8   8
#     4  12  25  40  56  86 124 162 211 263 313 368
#     4  10  20  37  60  90 124 164 207 256 311 374
#     4   9  18  34  57  81 114 157 205 249 305 367
#     4  12  25  42  66  96 129 165 206 258 316 380
#     4  10  19  32  50  78 112 154 199 245 295 355
#     4  11  21  40  65  88 119 165 213 260 313 372
#     4  10  22  43  68  92 124 166 210 258 315 380
#
# _framework density 19.888891999999998
#
# number of rings (size 3 to 8) (size 9 to 14) (size 15 to 20)
#    0.000    1.500    1.667    4.250    0.000    3.000 
#    0.000    2.500    0.000    0.000    0.000    0.000 
#    0.000    0.000    0.000    0.000    0.000    0.000 
#
# Total GULP energy -268251.212345 kJ/mol
# GULP energy per Si atom -5588.566924 kJ/mol
# Density = 1.984362 g / cm^3
# Si number density = 19.888892 Si / 1000 Ang^3
#
#
#
# Elastic Constant Matrix: (Units=GPa)
#
#
# Indices 1 2 3 4 5 6 
#
# 1 51.3114 57.1657 47.4254 0.0000 0.0000 0.0000
# 2 57.1657 95.3103 62.4021 0.0000 0.0000 0.0000
# 3 47.4254 62.4021 167.4555 0.0000 0.0000 0.0000
# 4 0.0000 0.0000 0.0000 7.1342 0.0000 0.0000
# 5 0.0000 0.0000 0.0000 0.0000 35.2801 0.0000
# 6 0.0000 0.0000 0.0000 0.0000 0.0000 18.5917
#
#
#
# Elastic Compliance Matrix: (Units=1/GPa)
#
#
# Indices 1 2 3 4 5 6 
#
# 1 0.061596 -0.033760 -0.004864 0.000000 0.000000 0.000000
# 2 -0.033760 0.032381 -0.002506 0.000000 0.000000 0.000000
# 3 -0.004864 -0.002506 0.008283 0.000000 0.000000 0.000000
# 4 0.000000 0.000000 0.000000 0.140171 0.000000 0.000000
# 5 0.000000 0.000000 0.000000 0.000000 0.028345 0.000000
# 6 0.000000 0.000000 0.000000 0.000000 0.000000 0.053787
#
#
# Mechanical properties :
#
#
# Convention : Reuss Voigt Hill
#
# Bulk Modulus (GPa) = 49.99715 72.00707 61.00211
# Shear Modulus (GPa) = 12.09224 22.00680 17.04952
#
# Velocity S-wave (km/s) = 2.46842 3.33000 2.93104
# Velocity P-wave (km/s) = 5.77208 7.14622 6.49559
#
# Compressibility (1/GPa) = 0.02000114
#
# Stress axis : x y z
#
# Youngs Moduli (GPa) = 16.23485 30.88232 120.72821
#
# Poissons Ratio (x) = 1.04257 0.58725
# Poissons Ratio (y) = 0.54808 0.30250
# Poissons Ratio (z) = 0.07897 0.07738
#
# Static dielectric constant tensor:
#      x y z
#    x 1.674440 0.000000 0.000000 
#    y 0.000000 1.725280 0.000000 
#    z 0.000000 0.000000 1.695200 
# 
# From -- ./inp_files/21136.got.cif
#   From: 2010.05.17/outbox.cif.g08.bks.cpg/sg51_11_cif.got.tgz:21136.got - 2010.06.03 11:52:47.
