data_PCOD9401518
_publ_section_title
;
Structure prediction by ZEFSAII (Michael W. Deem and Ramdas Pophale) SiO2 
 PCOD9401518
Probable space group: P M M A
;
_chemical_formula_sum "Si O2"
_cell_formula_units_Z 64
_cell_length_a 15.905731
_cell_length_b 14.944459
_cell_length_c 12.859569
_cell_angle_alpha 90.000000
_cell_angle_beta 90.000000
_cell_angle_gamma 90.000000
_cell_volume 3056.752276
_symmetry_space_group_name_H-M "P M M A"
_symmetry_group_IT_number 51
_symmetry_cell_setting 'orthorhombic'
loop_
_space_group_symop_operation_xyz
x,y,z
1/2-x,-y,z
1/2+x,-y,-z
-x,y,-z
-x,-y,-z
1/2+x,y,-z
1/2-x,y,z
x,-y,z
loop_
_atom_site_type_symbol
_atom_site_label
_atom_site_fract_x
_atom_site_fract_y
_atom_site_fract_z
Si Si1 0.559079 0.598815 0.896732
Si Si2 0.648339 0.895024 0.739987
Si Si3 0.406391 0.600308 0.746475
Si Si4 0.148951 0.781249 0.063230
Si Si5 0.849705 0.100100 0.358685
Si Si6 0.150303 0.400617 0.513182
Si Si7 0.092158 0.217139 0.452088
Si Si8 0.150873 0.213980 0.832360
O O1 0.599577 0.500000 0.897563
O O2 0.498877 0.604687 0.796112
O O3 0.618754 0.683654 0.901293
O O4 0.500000 0.602725 0.000000
O O5 0.750000 0.883602 0.725294
O O6 0.625603 0.855431 0.852410
O O7 0.600888 0.837681 0.653229
O O8 0.630221 0.000000 0.730899
O O9 0.373345 0.500000 0.771129
O O10 0.398846 0.610324 0.622438
O O11 0.358660 0.682948 0.798308
O O12 0.250000 0.780314 0.057451
O O13 0.114545 0.798883 0.947259
O O14 0.750000 0.091598 0.342077
O O15 0.859184 0.161210 0.459704
O O16 0.885920 0.151533 0.258300
O O17 0.884905 0.000000 0.372889
O O18 0.250000 0.397103 0.537296
O O19 0.131410 0.500000 0.471236
O O20 0.127767 0.317145 0.441881
O O21 0.000000 0.223366 0.500000
O O22 0.250000 0.194407 0.838397
#
# Coordination Sequence:
#
# PCOD9401518 Si02
#       8
#     8   8   8   8   8   8   8   8
#     4  10  20  35  55  83 122 164 202 243 297 356
#     4  10  23  44  66  85 114 163 214 254 300 364
#     4  10  19  32  56  87 118 155 191 235 300 364
#     4  10  22  38  60  88 121 163 209 249 294 361
#     4  10  21  38  61  87 116 151 195 254 317 363
#     4  10  21  39  64  93 122 153 194 244 301 364
#     4  12  25  39  62  91 123 159 199 250 302 360
#     4  10  19  33  56  89 121 148 189 247 304 359
#
# _framework density 20.937255
#
# number of rings (size 3 to 8) (size 9 to 14) (size 15 to 20)
#    0.000    1.750    2.500    1.875    1.750    3.750 
#    0.000    4.375    0.000    1.125    0.000    0.000 
#    0.000    0.000    0.000    0.000    0.000    0.000 
#
# Total GULP energy -357483.021016 kJ/mol
# GULP energy per Si atom -5585.672203 kJ/mol
# Density = 2.088960 g / cm^3
# Si number density = 20.937255 Si / 1000 Ang^3
#
#
#
# Elastic Constant Matrix: (Units=GPa)
#
#
# Indices 1 2 3 4 5 6 
#
# 1 6.5362 19.3158 11.0007 0.0000 0.0000 0.0000
# 2 19.3158 144.4998 56.2107 0.0000 0.0000 0.0000
# 3 11.0007 56.2107 46.4746 0.0000 0.0000 0.0000
# 4 0.0000 0.0000 0.0000 -5.9996 0.0000 0.0000
# 5 0.0000 0.0000 0.0000 0.0000 -47.7656 0.0000
# 6 0.0000 0.0000 0.0000 0.0000 0.0000 -224.5443
#
#
#
# Elastic Compliance Matrix: (Units=1/GPa)
#
#
# Indices 1 2 3 4 5 6 
#
# 1 0.289007 -0.022703 -0.040950 0.000000 0.000000 0.000000
# 2 -0.022703 0.014853 -0.012591 0.000000 0.000000 0.000000
# 3 -0.040950 -0.012591 0.046439 0.000000 0.000000 0.000000
# 4 0.000000 0.000000 0.000000 -0.166677 0.000000 0.000000
# 5 0.000000 0.000000 0.000000 0.000000 -0.020936 0.000000
# 6 0.000000 0.000000 0.000000 0.000000 0.000000 -0.004453
#
#
# Mechanical properties :
#
#
# Convention : Reuss Voigt Hill
#
# Bulk Modulus (GPa) = 5.05534 41.17389 23.11461
# Shear Modulus (GPa) = 13.27467 -48.26302 -17.49417
#
# Velocity S-wave (km/s) = 2.52071 -4.80638 -2.89373
# Velocity P-wave (km/s) = 3.30026 3.33072 0.31776
#
# Compressibility (1/GPa) = 0.19781054
#
# Stress axis : x y z
#
# Youngs Moduli (GPa) = 3.46013 67.32639 21.53375
#
# Poissons Ratio (x) = 1.52849 0.88182
# Poissons Ratio (y) = 0.07855 0.27113
# Poissons Ratio (z) = 0.14169 0.84769
#
# Static dielectric constant tensor:
#      x y z
#    x 1.758180 0.000000 0.000000 
#    y 0.000000 1.744840 0.000000 
#    z 0.000000 0.000000 1.749830 
# 
# From -- ./inp_files/17610.got.cif
#   From: 2010.05.17/outbox.cif.g08.bks.cpg/sg51_9_cif.got.tgz:17610.got - 2010.06.03 11:52:47.
