data_PCOD9401695
_publ_section_title
;
Structure prediction by ZEFSAII (Michael W. Deem and Ramdas Pophale) SiO2 
 PCOD9401695
Probable space group: P M M A
;
_chemical_formula_sum "Si O2"
_cell_formula_units_Z 48
_cell_length_a 9.373199
_cell_length_b 7.990790
_cell_length_c 35.226069
_cell_angle_alpha 90.000000
_cell_angle_beta 90.000000
_cell_angle_gamma 90.000000
_cell_volume 2638.406671
_symmetry_space_group_name_H-M "P M M A"
_symmetry_group_IT_number 51
_symmetry_cell_setting 'orthorhombic'
loop_
_space_group_symop_operation_xyz
x,y,z
1/2-x,-y,z
1/2+x,-y,-z
-x,y,-z
-x,-y,-z
1/2+x,y,-z
1/2-x,y,z
x,-y,z
loop_
_atom_site_type_symbol
_atom_site_label
_atom_site_fract_x
_atom_site_fract_y
_atom_site_fract_z
Si Si1 0.586532 0.303526 0.327596
Si Si2 0.586149 0.801299 0.745242
Si Si3 0.921779 0.000000 0.040103
Si Si4 0.076500 0.184376 0.591597
Si Si5 0.086229 0.701261 0.172079
Si Si6 0.578857 0.695235 0.095679
Si Si7 0.923295 0.500000 0.459673
O O1 0.750000 0.247628 0.321346
O O2 0.589021 0.500000 0.337003
O O3 0.500149 0.276032 0.289296
O O4 0.527807 0.212480 0.365009
O O5 0.750000 0.739446 0.744596
O O6 0.529120 0.762855 0.787390
O O7 0.586625 0.000000 0.740021
O O8 0.959355 0.832362 0.063956
O O9 0.750000 0.000000 0.035048
O O10 0.000000 0.000000 0.000000
O O11 0.250000 0.189957 0.593239
O O12 0.034293 0.335730 0.564393
O O13 0.033521 0.000000 0.578186
O O14 0.250000 0.761948 0.168005
O O15 0.088957 0.500000 0.173734
O O16 0.994804 0.745642 0.135275
O O17 0.750000 0.699503 0.100150
O O18 0.539596 0.500000 0.086978
O O19 0.750000 0.500000 0.463754
O O20 0.000000 0.500000 0.500000
#
# Coordination Sequence:
#
# PCOD9401695 Si02
#       7
#     8   8   4   8   8   8   4
#     4  10  19  33  54  78 102 134 182 229 267 316
#     4  10  21  34  48  73 109 145 179 220 269 320
#     4  10  22  38  56  82 110 138 174 218 268 320
#     4   9  17  32  55  79 105 138 174 217 267 317
#     4   9  18  33  52  74 101 136 178 217 259 313
#     4   9  19  36  56  78 107 140 174 217 266 313
#     4  10  20  36  56  80 108 138 176 218 266 324
#
# _framework density 18.192798
#
# number of rings (size 3 to 8) (size 9 to 14) (size 15 to 20)
#    0.000    2.500    0.833    1.000    1.167    4.000 
#    0.000    2.500    0.000    1.000    0.000    0.000 
#    0.000    0.000    0.000    0.000    0.000    0.000 
#
# Total GULP energy -267661.819915 kJ/mol
# GULP energy per Si atom -5576.287915 kJ/mol
# Density = 1.815139 g / cm^3
# Si number density = 18.192798 Si / 1000 Ang^3
#
#
#
# Elastic Constant Matrix: (Units=GPa)
#
#
# Indices 1 2 3 4 5 6 
#
# 1 22.0071 24.3639 42.5798 0.0000 0.0000 0.0000
# 2 24.3639 101.7890 72.7393 0.0000 0.0000 0.0000
# 3 42.5798 72.7393 154.2860 0.0000 0.0000 0.0000
# 4 0.0000 0.0000 0.0000 3.3741 0.0000 0.0000
# 5 0.0000 0.0000 0.0000 0.0000 35.6911 0.0000
# 6 0.0000 0.0000 0.0000 0.0000 0.0000 14.5125
#
#
#
# Elastic Compliance Matrix: (Units=1/GPa)
#
#
# Indices 1 2 3 4 5 6 
#
# 1 0.100166 -0.006366 -0.024643 0.000000 0.000000 0.000000
# 2 -0.006366 0.015220 -0.005419 0.000000 0.000000 0.000000
# 3 -0.024643 -0.005419 0.015837 0.000000 0.000000 0.000000
# 4 0.000000 0.000000 0.000000 0.296373 0.000000 0.000000
# 5 0.000000 0.000000 0.000000 0.000000 0.028018 0.000000
# 6 0.000000 0.000000 0.000000 0.000000 0.000000 0.068906
#
#
# Mechanical properties :
#
#
# Convention : Reuss Voigt Hill
#
# Bulk Modulus (GPa) = 17.13231 61.93869 39.53550
# Shear Modulus (GPa) = 8.10594 19.94217 14.02405
#
# Velocity S-wave (km/s) = 2.11311 3.31442 2.77944
# Velocity P-wave (km/s) = 3.92316 6.98332 5.66383
#
# Compressibility (1/GPa) = 0.05836924
#
# Stress axis : x y z
#
# Youngs Moduli (GPa) = 9.98340 65.70159 63.14257
#
# Poissons Ratio (x) = 0.41823 1.55601
# Poissons Ratio (y) = 0.06355 0.34217
# Poissons Ratio (z) = 0.24602 0.35604
#
# Static dielectric constant tensor:
#      x y z
#    x 1.619170 0.000000 0.000000 
#    y 0.000000 1.653720 0.000000 
#    z 0.000000 0.000000 1.596270 
# 
# From -- ./inp_files/37174.got.cif
#   From: 2010.05.17/outbox.cif.g08.bks.cpg/sg51_19_cif.got.tgz:37174.got - 2010.06.03 11:52:47.
