data_PCOD9401874
_publ_section_title
;
Structure prediction by ZEFSAII (Michael W. Deem and Ramdas Pophale) SiO2 
 PCOD9401874
Probable space group: P M M A
;
_chemical_formula_sum "Si O2"
_cell_formula_units_Z 56
_cell_length_a 16.977024
_cell_length_b 7.604022
_cell_length_c 18.887454
_cell_angle_alpha 90.000000
_cell_angle_beta 90.000000
_cell_angle_gamma 90.000000
_cell_volume 2438.250640
_symmetry_space_group_name_H-M "P M M A"
_symmetry_group_IT_number 51
_symmetry_cell_setting 'orthorhombic'
loop_
_space_group_symop_operation_xyz
x,y,z
1/2-x,-y,z
1/2+x,-y,-z
-x,y,-z
-x,-y,-z
1/2+x,y,-z
1/2-x,y,z
x,-y,z
loop_
_atom_site_type_symbol
_atom_site_label
_atom_site_fract_x
_atom_site_fract_y
_atom_site_fract_z
Si Si1 0.250000 0.206636 0.788760
Si Si2 0.506021 0.289816 0.579437
Si Si3 0.334918 0.705700 0.165920
Si Si4 0.410762 0.710589 0.708092
Si Si5 0.583304 0.797287 0.020879
Si Si6 0.504479 0.286295 0.155527
Si Si7 0.750000 0.782670 0.048219
Si Si8 0.837980 0.789683 0.668600
O O1 0.173501 0.251503 0.742143
O O2 0.250000 0.279806 0.869493
O O3 0.250000 0.000000 0.799113
O O4 0.500000 0.217825 0.500000
O O5 0.495277 0.500000 0.574330
O O6 0.437701 0.220424 0.631974
O O7 0.590209 0.262411 0.617872
O O8 0.250000 0.787141 0.148291
O O9 0.332391 0.500000 0.148054
O O10 0.416773 0.775289 0.134534
O O11 0.344659 0.716950 0.251318
O O12 0.416248 0.500000 0.704719
O O13 0.475506 0.769930 0.765278
O O14 0.571336 0.791705 0.105792
O O15 0.669989 0.722520 0.009617
O O16 0.582318 0.000000 0.998239
O O17 0.500000 0.709300 0.000000
O O18 0.507143 0.500000 0.152011
O O19 0.750000 0.000000 0.047131
O O20 0.750000 0.737290 0.642651
O O21 0.839301 0.000000 0.674994
#
# Coordination Sequence:
#
# PCOD9401874 Si02
#       8
#     4   8   8   8   8   8   4   8
#     4  11  21  35  59  87 113 148 187 230 284 344
#     4  10  21  39  60  80 106 146 192 234 282 339
#     4   9  17  32  54  78 106 141 179 218 263 322
#     4  10  20  36  57  84 113 140 182 240 288 331
#     4  10  21  38  58  79 109 150 189 230 280 336
#     4  10  19  33  56  83 111 140 178 231 283 328
#     4   9  18  35  57  81 109 142 189 230 268 334
#     4  10  20  33  52  79 110 141 175 220 270 324
#
# _framework density 22.967286999999999
#
# number of rings (size 3 to 8) (size 9 to 14) (size 15 to 20)
#    0.000    2.143    2.857    0.643    0.000    2.571 
#    2.571    0.357    0.000    0.000    0.000    0.000 
#    0.000    0.000    0.000    0.000    0.000    0.000 
#
# Total GULP energy -312686.759628 kJ/mol
# GULP energy per Si atom -5583.692136 kJ/mol
# Density = 2.291501 g / cm^3
# Si number density = 22.967287 Si / 1000 Ang^3
#
#
#
# Elastic Constant Matrix: (Units=GPa)
#
#
# Indices 1 2 3 4 5 6 
#
# 1 202.7240 -2.3173 42.6983 0.0000 0.0000 0.0000
# 2 -2.3173 59.8578 18.0007 0.0000 0.0000 0.0000
# 3 42.6983 18.0007 92.2194 0.0000 0.0000 0.0000
# 4 0.0000 0.0000 0.0000 36.1339 0.0000 0.0000
# 5 0.0000 0.0000 0.0000 0.0000 85.1489 0.0000
# 6 0.0000 0.0000 0.0000 0.0000 0.0000 9.3715
#
#
#
# Elastic Compliance Matrix: (Units=1/GPa)
#
#
# Indices 1 2 3 4 5 6 
#
# 1 0.005527 0.001045 -0.002763 0.000000 0.000000 0.000000
# 2 0.001045 0.017946 -0.003987 0.000000 0.000000 0.000000
# 3 -0.002763 -0.003987 0.012901 0.000000 0.000000 0.000000
# 4 0.000000 0.000000 0.000000 0.027675 0.000000 0.000000
# 5 0.000000 0.000000 0.000000 0.000000 0.011744 0.000000
# 6 0.000000 0.000000 0.000000 0.000000 0.000000 0.106707
#
#
# Mechanical properties :
#
#
# Convention : Reuss Voigt Hill
#
# Bulk Modulus (GPa) = 40.05764 52.39608 46.22686
# Shear Modulus (GPa) = 24.72435 45.89215 35.30825
#
# Velocity S-wave (km/s) = 3.28457 4.47492 3.92513
# Velocity P-wave (km/s) = 5.64478 7.04008 6.38069
#
# Compressibility (1/GPa) = 0.02496403
#
# Stress axis : x y z
#
# Youngs Moduli (GPa) = 180.94071 55.72406 77.51290
#
# Poissons Ratio (x) = -0.05822 0.21416
# Poissons Ratio (y) = -0.18905 0.30901
# Poissons Ratio (z) = 0.49991 0.22215
#
# Static dielectric constant tensor:
#      x y z
#    x 1.878050 0.000000 0.000000 
#    y 0.000000 1.832230 0.000000 
#    z 0.000000 0.000000 1.910150 
# 
# From -- ./inp_files/33561.got.cif
#   From: 2010.05.17/outbox.cif.g08.bks.cpg/sg51_17_cif.got.tgz:33561.got - 2010.06.03 11:52:47.
