data_PCOD9401534
_publ_section_title
;
Structure prediction by ZEFSAII (Michael W. Deem and Ramdas Pophale) SiO2 
 PCOD9401534
Probable space group: P M M A
;
_chemical_formula_sum "Si O2"
_cell_formula_units_Z 64
_cell_length_a 7.675092
_cell_length_b 33.076969
_cell_length_c 14.648284
_cell_angle_alpha 90.000000
_cell_angle_beta 90.000000
_cell_angle_gamma 90.000000
_cell_volume 3718.741990
_symmetry_space_group_name_H-M "P M M A"
_symmetry_group_IT_number 51
_symmetry_cell_setting 'orthorhombic'
loop_
_space_group_symop_operation_xyz
x,y,z
1/2-x,-y,z
1/2+x,-y,-z
-x,y,-z
-x,-y,-z
1/2+x,y,-z
1/2-x,y,z
x,-y,z
loop_
_atom_site_type_symbol
_atom_site_label
_atom_site_fract_x
_atom_site_fract_y
_atom_site_fract_z
Si Si1 0.541780 0.124478 0.106704
Si Si2 0.545592 0.956401 0.203036
Si Si3 0.459213 0.165086 0.398925
Si Si4 0.045086 0.204300 0.216868
Si Si5 0.459779 0.456452 0.108445
Si Si6 0.960336 0.281144 0.892548
Si Si7 0.040681 0.630529 0.108090
Si Si8 0.457757 0.927944 0.398507
O O1 0.750000 0.125961 0.118870
O O2 0.472163 0.083882 0.155849
O O3 0.469911 0.164833 0.153369
O O4 0.500000 0.123446 0.000000
O O5 0.750000 0.957187 0.179083
O O6 0.531113 0.951345 0.312027
O O7 0.469320 0.000000 0.176244
O O8 0.500000 0.180481 0.500000
O O9 0.250000 0.162820 0.390226
O O10 0.528588 0.191590 0.315400
O O11 0.523801 0.118626 0.392939
O O12 0.250000 0.212581 0.230554
O O13 0.971048 0.243535 0.166012
O O14 0.250000 0.456475 0.118224
O O15 0.524947 0.500000 0.144387
O O16 0.525052 0.412925 0.144548
O O17 0.500000 0.456443 0.000000
O O18 0.750000 0.281530 0.886193
O O19 0.024183 0.325513 0.860244
O O20 0.000000 0.275902 0.000000
O O21 0.250000 0.630380 0.119090
O O22 0.000000 0.630405 0.000000
O O23 0.500000 0.943315 0.500000
O O24 0.250000 0.927880 0.388869
#
# Coordination Sequence:
#
# PCOD9401534 Si02
#       8
#     8   8   8   8   8   8   8   8
#     4  11  23  37  54  72  91 115 143 176 211 244
#     4  10  22  39  55  72  94 118 145 175 207 246
#     4   9  18  31  49  71  93 113 135 165 200 242
#     4  10  19  33  50  69  91 113 140 173 207 245
#     4   8  12  17  26  40  59  85 121 164 204 239
#     4   9  17  27  40  57  81 110 140 173 207 242
#     4   8  13  21  31  45  66  95 129 165 204 241
#     4  10  19  33  54  77  99 121 143 169 204 245
#
# _framework density 17.210121999999998
#
# number of rings (size 3 to 8) (size 9 to 14) (size 15 to 20)
#    0.000    2.625    1.250    1.125    0.000    3.750 
#    0.000    0.000    0.000    0.000    0.000    0.000 
#    0.000    0.000    0.000    0.000    0.000    0.625 
#
# Total GULP energy -356551.902754 kJ/mol
# GULP energy per Si atom -5571.123481 kJ/mol
# Density = 1.717095 g / cm^3
# Si number density = 17.210122 Si / 1000 Ang^3
#
#
#
# Elastic Constant Matrix: (Units=GPa)
#
#
# Indices 1 2 3 4 5 6 
#
# 1 32.7452 -1.7320 -9.9744 0.0000 0.0000 0.0000
# 2 -1.7320 167.6620 49.4978 0.0000 0.0000 0.0000
# 3 -9.9744 49.4978 68.7696 0.0000 0.0000 0.0000
# 4 0.0000 0.0000 0.0000 20.9689 0.0000 0.0000
# 5 0.0000 0.0000 0.0000 0.0000 14.2003 0.0000
# 6 0.0000 0.0000 0.0000 0.0000 0.0000 8.3290
#
#
#
# Elastic Compliance Matrix: (Units=1/GPa)
#
#
# Indices 1 2 3 4 5 6 
#
# 1 0.032182 -0.001328 0.005623 0.000000 0.000000 0.000000
# 2 -0.001328 0.007629 -0.005683 0.000000 0.000000 0.000000
# 3 0.005623 -0.005683 0.019448 0.000000 0.000000 0.000000
# 4 0.000000 0.000000 0.000000 0.047690 0.000000 0.000000
# 5 0.000000 0.000000 0.000000 0.000000 0.070421 0.000000
# 6 0.000000 0.000000 0.000000 0.000000 0.000000 0.120063
#
#
# Mechanical properties :
#
#
# Convention : Reuss Voigt Hill
#
# Bulk Modulus (GPa) = 17.70470 38.30662 28.00566
# Shear Modulus (GPa) = 15.67232 24.12532 19.89882
#
# Velocity S-wave (km/s) = 3.02096 3.74814 3.40402
# Velocity P-wave (km/s) = 4.74110 6.40608 5.63542
#
# Compressibility (1/GPa) = 0.05648218
#
# Stress axis : x y z
#
# Youngs Moduli (GPa) = 31.07373 131.08728 51.42039
#
# Poissons Ratio (x) = 0.17404 -0.28915
# Poissons Ratio (y) = 0.04126 0.29224
# Poissons Ratio (z) = -0.17474 0.74501
#
# Static dielectric constant tensor:
#      x y z
#    x 1.632150 0.000000 0.000000 
#    y 0.000000 1.663240 0.000000 
#    z 0.000000 0.000000 1.555730 
# 
# From -- ./inp_files/22603.got.cif
#   From: 2010.05.17/outbox.cif.g08.bks.cpg/sg51_12_cif.got.tgz:22603.got - 2010.06.03 11:52:47.
