data_PCOD9401693
_publ_section_title
;
Structure prediction by ZEFSAII (Michael W. Deem and Ramdas Pophale) SiO2 
 PCOD9401693
Probable space group: P M M A
;
_chemical_formula_sum "Si O2"
_cell_formula_units_Z 64
_cell_length_a 16.698285
_cell_length_b 23.903622
_cell_length_c 9.213201
_cell_angle_alpha 90.000000
_cell_angle_beta 90.000000
_cell_angle_gamma 90.000000
_cell_volume 3677.444505
_symmetry_space_group_name_H-M "P M M A"
_symmetry_group_IT_number 51
_symmetry_cell_setting 'orthorhombic'
loop_
_space_group_symop_operation_xyz
x,y,z
1/2-x,-y,z
1/2+x,-y,-z
-x,y,-z
-x,-y,-z
1/2+x,y,-z
1/2-x,y,z
x,-y,z
loop_
_atom_site_type_symbol
_atom_site_label
_atom_site_fract_x
_atom_site_fract_y
_atom_site_fract_z
Si Si1 0.343517 0.440273 0.571843
Si Si2 0.845383 0.261211 0.648375
Si Si3 0.952346 0.671473 0.850420
Si Si4 0.655425 0.565534 0.778042
Si Si5 0.003973 0.065962 0.830253
Si Si6 0.570034 0.335693 0.401353
Si Si7 0.340722 0.065327 0.644272
Si Si8 0.420227 0.858489 0.405740
O O1 0.250000 0.443282 0.602251
O O2 0.381698 0.500000 0.609038
O O3 0.350555 0.431419 0.397960
O O4 0.377310 0.386860 0.651321
O O5 0.750000 0.265832 0.644004
O O6 0.880468 0.288431 0.795799
O O7 0.881968 0.294503 0.508106
O O8 0.875563 0.197913 0.636894
O O9 0.909782 0.609960 0.837224
O O10 0.020872 0.687715 0.732392
O O11 0.000000 0.677066 0.000000
O O12 0.750000 0.578525 0.813073
O O13 0.641585 0.500000 0.817879
O O14 0.948204 0.104898 0.731544
O O15 0.093930 0.073935 0.769711
O O16 0.983632 0.000000 0.810124
O O17 0.000000 0.078915 0.000000
O O18 0.500000 0.362062 0.500000
O O19 0.250000 0.076631 0.690937
O O20 0.365447 0.103701 0.509871
O O21 0.346441 0.000000 0.601192
O O22 0.500000 0.844805 0.500000
#
# Coordination Sequence:
#
# PCOD9401693 Si02
#       8
#     8   8   8   8   8   8   8   8
#     4   9  16  28  50  78 103 129 167 214 261 307
#     4  11  22  39  59  76 101 137 181 226 272 319
#     4  11  23  37  54  79 110 140 174 216 269 322
#     4   9  17  32  55  79 106 142 176 209 260 321
#     4   9  18  33  54  80 113 151 182 212 258 314
#     4  10  19  33  54  77  98 129 172 219 261 307
#     4   9  17  31  52  80 112 143 178 221 266 310
#     4  10  19  33  56  82 106 136 178 224 269 313
#
# _framework density 17.403389000000001
#
# number of rings (size 3 to 8) (size 9 to 14) (size 15 to 20)
#    0.000    2.250    2.500    3.375    0.000    3.000 
#    0.000    3.750    0.000    4.500    0.000    0.000 
#    0.000    0.000    0.000    0.000    0.000    0.000 
#
# Total GULP energy -356350.470829 kJ/mol
# GULP energy per Si atom -5567.976107 kJ/mol
# Density = 1.736378 g / cm^3
# Si number density = 17.403389 Si / 1000 Ang^3
#
#
#
# Elastic Constant Matrix: (Units=GPa)
#
#
# Indices 1 2 3 4 5 6 
#
# 1 107.4466 64.5278 41.1775 0.0000 0.0000 0.0000
# 2 64.5278 95.0315 40.6657 0.0000 0.0000 0.0000
# 3 41.1775 40.6657 53.0888 0.0000 0.0000 0.0000
# 4 0.0000 0.0000 0.0000 0.5279 0.0000 0.0000
# 5 0.0000 0.0000 0.0000 0.0000 14.8961 0.0000
# 6 0.0000 0.0000 0.0000 0.0000 0.0000 28.8389
#
#
#
# Elastic Compliance Matrix: (Units=1/GPa)
#
#
# Indices 1 2 3 4 5 6 
#
# 1 0.017101 -0.008830 -0.006500 0.000000 0.000000 0.000000
# 2 -0.008830 0.020214 -0.008634 0.000000 0.000000 0.000000
# 3 -0.006500 -0.008634 0.030492 0.000000 0.000000 0.000000
# 4 0.000000 0.000000 0.000000 1.894310 0.000000 0.000000
# 5 0.000000 0.000000 0.000000 0.000000 0.067132 0.000000
# 6 0.000000 0.000000 0.000000 0.000000 0.000000 0.034675
#
#
# Mechanical properties :
#
#
# Convention : Reuss Voigt Hill
#
# Bulk Modulus (GPa) = 50.30974 60.92320 55.61647
# Shear Modulus (GPa) = 2.36018 16.13230 9.24624
#
# Velocity S-wave (km/s) = 1.16581 3.04791 2.30747
# Velocity P-wave (km/s) = 5.54823 6.88976 6.25507
#
# Compressibility (1/GPa) = 0.01987687
#
# Stress axis : x y z
#
# Youngs Moduli (GPa) = 58.47520 49.47158 32.79542
#
# Poissons Ratio (x) = 0.43686 0.21318
# Poissons Ratio (y) = 0.51636 0.28317
# Poissons Ratio (z) = 0.38010 0.42715
#
# Static dielectric constant tensor:
#      x y z
#    x 1.612000 0.000000 0.000000 
#    y 0.000000 1.610030 0.000000 
#    z 0.000000 0.000000 1.582080 
# 
# From -- ./inp_files/8737.got.cif
#   From: 2010.05.17/outbox.cif.g08.bks.cpg/sg51_5_cif.got.tgz:8737.got - 2010.06.03 11:52:47.
