data_PCOD9401722
_publ_section_title
;
Structure prediction by ZEFSAII (Michael W. Deem and Ramdas Pophale) SiO2 
 PCOD9401722
Probable space group: P M M A
;
_chemical_formula_sum "Si O2"
_cell_formula_units_Z 64
_cell_length_a 8.421070
_cell_length_b 22.854764
_cell_length_c 16.737195
_cell_angle_alpha 90.000000
_cell_angle_beta 90.000000
_cell_angle_gamma 90.000000
_cell_volume 3221.266785
_symmetry_space_group_name_H-M "P M M A"
_symmetry_group_IT_number 51
_symmetry_cell_setting 'orthorhombic'
loop_
_space_group_symop_operation_xyz
x,y,z
1/2-x,-y,z
1/2+x,-y,-z
-x,y,-z
-x,-y,-z
1/2+x,y,-z
1/2-x,y,z
x,-y,z
loop_
_atom_site_type_symbol
_atom_site_label
_atom_site_fract_x
_atom_site_fract_y
_atom_site_fract_z
Si Si1 0.935235 0.189394 0.297870
Si Si2 0.439749 0.063230 0.745196
Si Si3 0.935696 0.593472 0.412349
Si Si4 0.058499 0.351174 0.914360
Si Si5 0.557183 0.434150 0.233067
Si Si6 0.433514 0.722156 0.419798
Si Si7 0.933635 0.905757 0.916549
Si Si8 0.064992 0.225717 0.132890
O O1 0.750000 0.191317 0.321897
O O2 0.996845 0.122583 0.297009
O O3 0.038347 0.232345 0.350513
O O4 0.953539 0.213607 0.208525
O O5 0.250000 0.063286 0.735258
O O6 0.476019 0.071246 0.838919
O O7 0.502662 0.000000 0.718498
O O8 0.750000 0.579440 0.413364
O O9 0.000418 0.572838 0.325465
O O10 0.000000 0.574059 0.500000
O O11 0.965784 0.663137 0.408928
O O12 0.250000 0.349332 0.914721
O O13 0.006520 0.387820 0.835114
O O14 0.989934 0.285516 0.907381
O O15 0.000000 0.375776 0.000000
O O16 0.750000 0.429036 0.237179
O O17 0.517870 0.500000 0.206837
O O18 0.500000 0.750705 0.500000
O O19 0.250000 0.705440 0.427579
O O20 0.750000 0.921416 0.907545
O O21 0.944700 0.834796 0.915760
O O22 0.000000 0.927665 0.000000
O O23 0.250000 0.231737 0.157356
#
# Coordination Sequence:
#
# PCOD9401722 Si02
#       8
#     8   8   8   8   8   8   8   8
#     4  10  19  33  54  79 108 139 172 213 263 315
#     4   9  19  35  53  72  96 131 173 213 254 303
#     4  10  19  34  58  86 115 145 177 216 268 327
#     4  11  22  36  56  79 105 140 183 231 282 330
#     4   9  20  38  57  77 105 144 186 224 266 322
#     4  11  21  34  54  81 113 142 172 210 256 312
#     4  10  20  32  48  71  99 132 167 209 259 310
#     4  10  20  34  53  78 106 135 173 217 265 321
#
# _framework density 19.867958999999999
#
# number of rings (size 3 to 8) (size 9 to 14) (size 15 to 20)
#    0.000    2.000    0.000    4.875    0.000    5.000 
#    0.000    1.875    0.000    5.625    0.000    0.000 
#    0.000    0.000    0.000    0.000    0.000    0.000 
#
# Total GULP energy -356954.675747 kJ/mol
# GULP energy per Si atom -5577.416809 kJ/mol
# Density = 1.982274 g / cm^3
# Si number density = 19.867959 Si / 1000 Ang^3
#
#
#
# Elastic Constant Matrix: (Units=GPa)
#
#
# Indices 1 2 3 4 5 6 
#
# 1 28.8246 5.4346 7.5140 0.0000 0.0000 0.0000
# 2 5.4346 87.6959 30.5823 0.0000 0.0000 0.0000
# 3 7.5140 30.5823 66.9274 0.0000 0.0000 0.0000
# 4 0.0000 0.0000 0.0000 5.9977 0.0000 0.0000
# 5 0.0000 0.0000 0.0000 0.0000 28.7245 0.0000
# 6 0.0000 0.0000 0.0000 0.0000 0.0000 0.4238
#
#
#
# Elastic Compliance Matrix: (Units=1/GPa)
#
#
# Indices 1 2 3 4 5 6 
#
# 1 0.035808 -0.000972 -0.003576 0.000000 0.000000 0.000000
# 2 -0.000972 0.013591 -0.006101 0.000000 0.000000 0.000000
# 3 -0.003576 -0.006101 0.018131 0.000000 0.000000 0.000000
# 4 0.000000 0.000000 0.000000 0.166730 0.000000 0.000000
# 5 0.000000 0.000000 0.000000 0.000000 0.034814 0.000000
# 6 0.000000 0.000000 0.000000 0.000000 0.000000 2.359549
#
#
# Mechanical properties :
#
#
# Convention : Reuss Voigt Hill
#
# Bulk Modulus (GPa) = 21.63027 30.05663 25.84345
# Shear Modulus (GPa) = 1.87594 16.35700 9.11647
#
# Velocity S-wave (km/s) = 0.97276 2.87241 2.14441
# Velocity P-wave (km/s) = 3.48888 5.11488 4.37803
#
# Compressibility (1/GPa) = 0.04623150
#
# Stress axis : x y z
#
# Youngs Moduli (GPa) = 27.92662 73.57829 55.15422
#
# Poissons Ratio (x) = 0.07152 0.19724
# Poissons Ratio (y) = 0.02714 0.33651
# Poissons Ratio (z) = 0.09987 0.44892
#
# Static dielectric constant tensor:
#      x y z
#    x 1.799590 0.000000 0.000000 
#    y 0.000000 1.717960 0.000000 
#    z 0.000000 0.000000 1.856070 
# 
# From -- ./inp_files/22337.got.cif
#   From: 2010.05.17/outbox.cif.g08.bks.cpg/sg51_12_cif.got.tgz:22337.got - 2010.06.03 11:52:47.
