data_PCOD9401958
_publ_section_title
;
Structure prediction by ZEFSAII (Michael W. Deem and Ramdas Pophale) SiO2 
 PCOD9401958
Probable space group: P M M A
;
_chemical_formula_sum "Si O2"
_cell_formula_units_Z 64
_cell_length_a 19.436075
_cell_length_b 20.020363
_cell_length_c 9.505269
_cell_angle_alpha 90.000000
_cell_angle_beta 90.000000
_cell_angle_gamma 90.000000
_cell_volume 3698.664388
_symmetry_space_group_name_H-M "P M M A"
_symmetry_group_IT_number 51
_symmetry_cell_setting 'orthorhombic'
loop_
_space_group_symop_operation_xyz
x,y,z
1/2-x,-y,z
1/2+x,-y,-z
-x,y,-z
-x,-y,-z
1/2+x,y,-z
1/2-x,y,z
x,-y,z
loop_
_atom_site_type_symbol
_atom_site_label
_atom_site_fract_x
_atom_site_fract_y
_atom_site_fract_z
Si Si1 0.033667 0.078559 0.153926
Si Si2 0.828410 0.689999 0.989799
Si Si3 0.828687 0.809487 0.216122
Si Si4 0.328287 0.078635 0.014992
Si Si5 0.028529 0.579715 0.652807
Si Si6 0.472082 0.192406 0.657038
Si Si7 0.172274 0.420705 0.779623
Si Si8 0.033322 0.311137 0.154619
O O1 0.998418 0.124967 0.268004
O O2 0.026804 0.000000 0.186584
O O3 0.113934 0.095626 0.129297
O O4 0.000000 0.089931 0.000000
O O5 0.750000 0.692469 0.938129
O O6 0.885520 0.695540 0.870869
O O7 0.836917 0.749336 0.103736
O O8 0.838551 0.622130 0.079341
O O9 0.750000 0.807184 0.269408
O O10 0.837731 0.876530 0.123278
O O11 0.889386 0.804802 0.328551
O O12 0.250000 0.089411 0.064197
O O13 0.337072 0.000000 0.981689
O O14 0.019815 0.500000 0.668218
O O15 0.109639 0.595102 0.674651
O O16 0.000000 0.599239 0.500000
O O17 0.987832 0.619997 0.771498
O O18 0.500000 0.196697 0.500000
O O19 0.502773 0.252691 0.749559
O O20 0.250000 0.404789 0.728523
O O21 0.169598 0.500000 0.807855
O O22 0.000000 0.306947 0.000000
#
# Coordination Sequence:
#
# PCOD9401958 Si02
#       8
#     8   8   8   8   8   8   8   8
#     4  10  19  34  57  81 108 139 179 226 269 314
#     4  10  20  34  54  82 108 134 175 228 274 312
#     4  10  19  34  54  76 105 141 180 219 263 321
#     4   9  17  30  53  83 108 135 176 225 271 313
#     4  10  21  36  54  81 114 145 180 220 266 322
#     4  12  24  37  54  81 113 146 180 221 269 324
#     4   9  17  31  52  77 106 141 179 217 263 321
#     4  12  21  36  59  82 105 140 180 228 271 313
#
# _framework density 17.303543000000001
#
# number of rings (size 3 to 8) (size 9 to 14) (size 15 to 20)
#    0.000    1.750    3.750    1.500    0.000    1.000 
#    0.000    1.875    0.000    0.750    0.000    0.000 
#    0.000    0.000    0.000    0.000    0.000    0.000 
#
# Total GULP energy -357077.998325 kJ/mol
# GULP energy per Si atom -5579.343724 kJ/mol
# Density = 1.726416 g / cm^3
# Si number density = 17.303543 Si / 1000 Ang^3
#
#
#
# Elastic Constant Matrix: (Units=GPa)
#
#
# Indices 1 2 3 4 5 6 
#
# 1 160.8766 38.7942 60.4688 0.0000 0.0000 0.0000
# 2 38.7942 43.4191 36.8454 0.0000 0.0000 0.0000
# 3 60.4688 36.8454 94.1446 0.0000 0.0000 0.0000
# 4 0.0000 0.0000 0.0000 13.9645 0.0000 0.0000
# 5 0.0000 0.0000 0.0000 0.0000 24.2133 0.0000
# 6 0.0000 0.0000 0.0000 0.0000 0.0000 24.2848
#
#
#
# Elastic Compliance Matrix: (Units=1/GPa)
#
#
# Indices 1 2 3 4 5 6 
#
# 1 0.008761 -0.004570 -0.003838 0.000000 0.000000 0.000000
# 2 -0.004570 0.036869 -0.011494 0.000000 0.000000 0.000000
# 3 -0.003838 -0.011494 0.017586 0.000000 0.000000 0.000000
# 4 0.000000 0.000000 0.000000 0.071610 0.000000 0.000000
# 5 0.000000 0.000000 0.000000 0.000000 0.041300 0.000000
# 6 0.000000 0.000000 0.000000 0.000000 0.000000 0.041178
#
#
# Mechanical properties :
#
#
# Convention : Reuss Voigt Hill
#
# Bulk Modulus (GPa) = 42.71669 63.40635 53.06152
# Shear Modulus (GPa) = 18.87429 23.31464 21.09447
#
# Velocity S-wave (km/s) = 3.30627 3.67467 3.49533
# Velocity P-wave (km/s) = 6.27021 7.39779 6.85722
#
# Compressibility (1/GPa) = 0.02341006
#
# Stress axis : x y z
#
# Youngs Moduli (GPa) = 114.14516 27.12342 56.86483
#
# Poissons Ratio (x) = 0.12397 0.21826
# Poissons Ratio (y) = 0.52169 0.65359
# Poissons Ratio (z) = 0.43812 0.31175
#
# Static dielectric constant tensor:
#      x y z
#    x 1.635200 0.000000 0.000000 
#    y 0.000000 1.606670 0.000000 
#    z 0.000000 0.000000 1.527800 
# 
# From -- ./inp_files/10077.got.cif
#   From: 2010.05.17/outbox.cif.g08.bks.cpg/sg51_6_cif.got.tgz:10077.got - 2010.06.03 11:52:47.
