data_PCOD9401030
_publ_section_title
;
Structure prediction by ZEFSAII (Michael W. Deem and Ramdas Pophale) SiO2 
 PCOD9401030
Probable space group: P M M A
;
_chemical_formula_sum "Si O2"
_cell_formula_units_Z 44
_cell_length_a 9.379167
_cell_length_b 8.079818
_cell_length_c 30.895490
_cell_angle_alpha 90.000000
_cell_angle_beta 90.000000
_cell_angle_gamma 90.000000
_cell_volume 2341.320860
_symmetry_space_group_name_H-M "P M M A"
_symmetry_group_IT_number 51
_symmetry_cell_setting 'orthorhombic'
loop_
_space_group_symop_operation_xyz
x,y,z
1/2-x,-y,z
1/2+x,-y,-z
-x,y,-z
-x,-y,-z
1/2+x,y,-z
1/2-x,y,z
x,-y,z
loop_
_atom_site_type_symbol
_atom_site_label
_atom_site_fract_x
_atom_site_fract_y
_atom_site_fract_z
Si Si1 0.422273 0.500000 0.454194
Si Si2 0.414170 0.200184 0.874089
Si Si3 0.579378 0.815959 0.604115
Si Si4 0.916763 0.693976 0.313917
Si Si5 0.587690 0.300283 0.958286
Si Si6 0.423161 0.192453 0.779686
O O1 0.250000 0.500000 0.459546
O O2 0.500000 0.500000 0.500000
O O3 0.462223 0.664784 0.427172
O O4 0.250000 0.256169 0.880436
O O5 0.509549 0.252943 0.914084
O O6 0.468418 0.258308 0.826785
O O7 0.411473 0.000000 0.871903
O O8 0.750000 0.805888 0.609619
O O9 0.505353 0.790923 0.650401
O O10 0.544682 0.000000 0.587142
O O11 0.750000 0.744354 0.315733
O O12 0.925629 0.500000 0.324180
O O13 0.967227 0.720280 0.264554
O O14 0.750000 0.239170 0.959257
O O15 0.591147 0.500000 0.960592
O O16 0.500000 0.239531 0.000000
O O17 0.250000 0.199146 0.781399
O O18 0.464248 0.000000 0.776042
#
# Coordination Sequence:
#
# PCOD9401030 Si02
#       6
#     4   8   8   8   8   8
#     4  10  22  40  60  84 116 148 186 236 281 332
#     4   9  18  33  53  76 102 133 169 210 259 314
#     4  10  21  38  59  82 112 152 190 227 280 336
#     4  10  19  31  52  83 114 144 184 230 272 318
#     4  10  21  36  53  73  97 127 166 211 260 315
#     4   8  15  29  48  72 104 139 174 214 260 310
#
# _framework density 18.792811
#
# number of rings (size 3 to 8) (size 9 to 14) (size 15 to 20)
#    0.000    2.545    0.909    2.182    0.000    4.727 
#    0.000    2.727    0.000    1.091    0.000    0.000 
#    0.000    0.000    0.000    0.000    0.000    0.000 
#
# Total GULP energy -245378.042775 kJ/mol
# GULP energy per Si atom -5576.773699 kJ/mol
# Density = 1.875004 g / cm^3
# Si number density = 18.792811 Si / 1000 Ang^3
#
#
#
# Elastic Constant Matrix: (Units=GPa)
#
#
# Indices 1 2 3 4 5 6 
#
# 1 51.7722 29.6915 55.5441 0.0000 0.0000 0.0000
# 2 29.6915 70.4038 54.6124 0.0000 0.0000 0.0000
# 3 55.5441 54.6124 159.5439 0.0000 0.0000 0.0000
# 4 0.0000 0.0000 0.0000 -185.7244 0.0000 0.0000
# 5 0.0000 0.0000 0.0000 0.0000 30.6791 0.0000
# 6 0.0000 0.0000 0.0000 0.0000 0.0000 17.1014
#
#
#
# Elastic Compliance Matrix: (Units=1/GPa)
#
#
# Indices 1 2 3 4 5 6 
#
# 1 0.033080 -0.006831 -0.009178 0.000000 0.000000 0.000000
# 2 -0.006831 0.020749 -0.004724 0.000000 0.000000 0.000000
# 3 -0.009178 -0.004724 0.011080 0.000000 0.000000 0.000000
# 4 0.000000 0.000000 0.000000 -0.005384 0.000000 0.000000
# 5 0.000000 0.000000 0.000000 0.000000 0.032595 0.000000
# 6 0.000000 0.000000 0.000000 0.000000 0.000000 0.058475
#
#
# Mechanical properties :
#
#
# Convention : Reuss Voigt Hill
#
# Bulk Modulus (GPa) = 42.65830 62.37955 52.51893
# Shear Modulus (GPa) = 25.01532 -18.13066 3.44233
#
# Velocity S-wave (km/s) = 3.65240 -3.10944 1.35488
# Velocity P-wave (km/s) = 6.36673 4.51375 5.51856
#
# Compressibility (1/GPa) = 0.02344210
#
# Stress axis : x y z
#
# Youngs Moduli (GPa) = 30.22967 48.19404 90.24990
#
# Poissons Ratio (x) = 0.32923 0.82833
# Poissons Ratio (y) = 0.20651 0.42637
# Poissons Ratio (z) = 0.27745 0.22768
#
# Static dielectric constant tensor:
#      x y z
#    x 1.632630 0.000000 0.000000 
#    y 0.000000 1.677820 0.000000 
#    z 0.000000 0.000000 1.642070 
# 
# From -- ./inp_files/36783.got.cif
#   From: 2010.05.17/outbox.cif.g08.bks.cpg/sg51_19_cif.got.tgz:36783.got - 2010.06.03 11:52:47.
