data_PCOD9401316
_publ_section_title
;
Structure prediction by ZEFSAII (Michael W. Deem and Ramdas Pophale) SiO2 
 PCOD9401316
Probable space group: P M M A
;
_chemical_formula_sum "Si O2"
_cell_formula_units_Z 36
_cell_length_a 8.464452
_cell_length_b 24.537966
_cell_length_c 9.612121
_cell_angle_alpha 90.000000
_cell_angle_beta 90.000000
_cell_angle_gamma 90.000000
_cell_volume 1996.441717
_symmetry_space_group_name_H-M "P M M A"
_symmetry_group_IT_number 51
_symmetry_cell_setting 'orthorhombic'
loop_
_space_group_symop_operation_xyz
x,y,z
1/2-x,-y,z
1/2+x,-y,-z
-x,y,-z
-x,-y,-z
1/2+x,y,-z
1/2-x,y,z
x,-y,z
loop_
_atom_site_type_symbol
_atom_site_label
_atom_site_fract_x
_atom_site_fract_y
_atom_site_fract_z
Si Si1 0.940477 0.278109 0.158812
Si Si2 0.439420 0.840456 0.841824
Si Si3 0.058712 0.500000 0.657585
Si Si4 0.439065 0.939040 0.343226
Si Si5 0.941229 0.602596 0.158826
O O1 0.750000 0.278150 0.160158
O O2 0.991660 0.219211 0.216895
O O3 0.991998 0.337348 0.213860
O O4 0.000000 0.277886 0.000000
O O5 0.250000 0.841430 0.843607
O O6 0.499853 0.890877 0.753146
O O7 0.500000 0.844610 0.000000
O O8 0.250000 0.500000 0.656338
O O9 0.005547 0.553535 0.742700
O O10 0.000000 0.500000 0.500000
O O11 0.500000 0.931514 0.500000
O O12 0.250000 0.937938 0.344114
O O13 0.490214 0.000000 0.297091
O O14 0.750000 0.601646 0.154519
O O15 0.000000 0.595849 0.000000
#
# Coordination Sequence:
#
# PCOD9401316 Si02
#       5
#     8   8   4   8   8
#     4   8  15  28  47  71  99 127 157 197 242 286
#     4  10  19  32  52  77 104 133 164 202 247 293
#     4  10  21  34  48  68  98 132 163 200 244 288
#     4  10  21  37  55  74  98 130 167 206 248 295
#     4   9  17  31  51  74  97 124 162 203 241 286
#
# _framework density 18.032080000000001
#
# number of rings (size 3 to 8) (size 9 to 14) (size 15 to 20)
#    0.000    2.667    0.000    1.667    0.000    3.556 
#    0.000    1.111    0.000    2.667    0.000    0.000 
#    0.000    0.000    0.000    0.000    0.000    0.000 
#
# Total GULP energy -200520.510962 kJ/mol
# GULP energy per Si atom -5570.014193 kJ/mol
# Density = 1.799104 g / cm^3
# Si number density = 18.032080 Si / 1000 Ang^3
#
#
#
# Elastic Constant Matrix: (Units=GPa)
#
#
# Indices 1 2 3 4 5 6 
#
# 1 22.0237 37.4971 15.4127 0.0000 0.0000 0.0000
# 2 37.4971 245.7975 96.2544 0.0000 0.0000 0.0000
# 3 15.4127 96.2544 71.1193 0.0000 0.0000 0.0000
# 4 0.0000 0.0000 0.0000 -11.2339 0.0000 0.0000
# 5 0.0000 0.0000 0.0000 0.0000 28.7969 0.0000
# 6 0.0000 0.0000 0.0000 0.0000 0.0000 -93.3054
#
#
#
# Elastic Compliance Matrix: (Units=1/GPa)
#
#
# Indices 1 2 3 4 5 6 
#
# 1 0.061397 -0.008842 -0.001339 0.000000 0.000000 0.000000
# 2 -0.008842 0.009930 -0.011523 0.000000 0.000000 0.000000
# 3 -0.001339 -0.011523 0.029946 0.000000 0.000000 0.000000
# 4 0.000000 0.000000 0.000000 -0.089017 0.000000 0.000000
# 5 0.000000 0.000000 0.000000 0.000000 0.034726 0.000000
# 6 0.000000 0.000000 0.000000 0.000000 0.000000 -0.010717
#
#
# Mechanical properties :
#
#
# Convention : Reuss Voigt Hill
#
# Bulk Modulus (GPa) = 17.28143 70.80767 44.04455
# Shear Modulus (GPa) = 50.52562 -2.49674 24.01444
#
# Velocity S-wave (km/s) = 5.29912 -1.17797 3.65329
# Velocity P-wave (km/s) = 6.85897 6.12395 6.50185
#
# Compressibility (1/GPa) = 0.05786557
#
# Stress axis : x y z
#
# Youngs Moduli (GPa) = 16.28748 100.70969 33.39346
#
# Poissons Ratio (x) = 0.89048 0.04471
# Poissons Ratio (y) = 0.14401 0.38478
# Poissons Ratio (z) = 0.02181 1.16044
#
# Static dielectric constant tensor:
#      x y z
#    x 1.618060 0.000000 0.000000 
#    y 0.000000 1.688080 0.000000 
#    z 0.000000 0.000000 1.552820 
# 
# From -- ./inp_files/5204.got.cif
#   From: 2010.05.17/outbox.cif.g08.bks.cpg/sg51_3_cif.got.tgz:5204.got - 2010.06.03 11:52:47.
