data_PCOD9401057
_publ_section_title
;
Structure prediction by ZEFSAII (Michael W. Deem and Ramdas Pophale) SiO2 
 PCOD9401057
Probable space group: P M M A
;
_chemical_formula_sum "Si O2"
_cell_formula_units_Z 64
_cell_length_a 26.252244
_cell_length_b 8.784479
_cell_length_c 17.496426
_cell_angle_alpha 90.000000
_cell_angle_beta 90.000000
_cell_angle_gamma 90.000000
_cell_volume 4034.890799
_symmetry_space_group_name_H-M "P M M A"
_symmetry_group_IT_number 51
_symmetry_cell_setting 'orthorhombic'
loop_
_space_group_symop_operation_xyz
x,y,z
1/2-x,-y,z
1/2+x,-y,-z
-x,y,-z
-x,-y,-z
1/2+x,y,-z
1/2-x,y,z
x,-y,z
loop_
_atom_site_type_symbol
_atom_site_label
_atom_site_fract_x
_atom_site_fract_y
_atom_site_fract_z
Si Si1 0.692608 0.814862 0.416257
Si Si2 0.441431 0.316762 0.836715
Si Si3 0.099068 0.318182 0.313661
Si Si4 0.561790 0.324171 0.994563
Si Si5 0.501653 0.683299 0.410595
Si Si6 0.403531 0.182973 0.682511
Si Si7 0.555100 0.819740 0.836830
Si Si8 0.808986 0.183255 0.592496
O O1 0.750000 0.764319 0.396443
O O2 0.648110 0.765595 0.359703
O O3 0.681679 0.770750 0.504070
O O4 0.693061 0.000000 0.415550
O O5 0.443408 0.500000 0.834429
O O6 0.409509 0.252162 0.766654
O O7 0.499116 0.255427 0.828141
O O8 0.421422 0.271961 0.921141
O O9 0.099367 0.500000 0.305562
O O10 0.051079 0.277092 0.368186
O O11 0.089279 0.242772 0.231728
O O12 0.150541 0.261354 0.352889
O O13 0.576898 0.500000 0.982707
O O14 0.575519 0.227531 0.920437
O O15 0.500000 0.321891 0.000000
O O16 0.500000 0.725025 0.500000
O O17 0.508092 0.500000 0.405482
O O18 0.548382 0.761751 0.367349
O O19 0.404083 0.000000 0.686851
O O20 0.549774 0.000000 0.831710
O O21 0.750000 0.219432 0.610222
O O22 0.814557 0.000000 0.596955
#
# Coordination Sequence:
#
# PCOD9401057 Si02
#       8
#     8   8   8   8   8   8   8   8
#     4   8  16  32  51  71  96 126 162 206 253 292
#     4  10  19  32  47  66  98 134 161 193 239 293
#     4  11  21  32  48  69  99 134 162 196 243 294
#     4   8  16  30  47  65  91 129 163 190 235 290
#     4  10  21  34  46  63  94 134 165 194 240 293
#     4  11  20  29  48  74  96 126 165 205 243 286
#     4  11  20  30  47  71  98 126 161 202 238 283
#     4   9  18  34  54  72  93 124 164 211 253 286
#
# _framework density 15.861644
#
# number of rings (size 3 to 8) (size 9 to 14) (size 15 to 20)
#    0.000    2.250    1.250    4.500    0.000    3.750 
#    0.000    0.625    0.000    3.000    0.000    0.875 
#    0.000    3.000    0.000    0.000    0.000    0.000 
#
# Total GULP energy -356977.202364 kJ/mol
# GULP energy per Si atom -5577.768787 kJ/mol
# Density = 1.582554 g / cm^3
# Si number density = 15.861644 Si / 1000 Ang^3
#
#
#
# Elastic Constant Matrix: (Units=GPa)
#
#
# Indices 1 2 3 4 5 6 
#
# 1 83.6556 34.7090 73.0247 0.0000 0.0000 0.0000
# 2 34.7090 47.6453 51.4680 0.0000 0.0000 0.0000
# 3 73.0247 51.4680 155.6631 0.0000 0.0000 0.0000
# 4 0.0000 0.0000 0.0000 25.7890 0.0000 0.0000
# 5 0.0000 0.0000 0.0000 0.0000 16.9324 0.0000
# 6 0.0000 0.0000 0.0000 0.0000 0.0000 -15.5909
#
#
#
# Elastic Compliance Matrix: (Units=1/GPa)
#
#
# Indices 1 2 3 4 5 6 
#
# 1 0.021856 -0.007539 -0.007760 0.000000 0.000000 0.000000
# 2 -0.007539 0.035250 -0.008118 0.000000 0.000000 0.000000
# 3 -0.007760 -0.008118 0.012749 0.000000 0.000000 0.000000
# 4 0.000000 0.000000 0.000000 0.038776 0.000000 0.000000
# 5 0.000000 0.000000 0.000000 0.000000 0.059058 0.000000
# 6 0.000000 0.000000 0.000000 0.000000 0.000000 -0.064140
#
#
# Mechanical properties :
#
#
# Convention : Reuss Voigt Hill
#
# Bulk Modulus (GPa) = 43.44084 67.26303 55.35194
# Shear Modulus (GPa) = 31.63401 13.94359 22.78880
#
# Velocity S-wave (km/s) = 4.47068 2.96814 3.79453
# Velocity P-wave (km/s) = 7.35501 7.36509 7.36005
#
# Compressibility (1/GPa) = 0.02301981
#
# Stress axis : x y z
#
# Youngs Moduli (GPa) = 45.75439 28.36874 78.43758
#
# Poissons Ratio (x) = 0.21386 0.60871
# Poissons Ratio (y) = 0.34492 0.63679
# Poissons Ratio (z) = 0.35508 0.23031
#
# Static dielectric constant tensor:
#      x y z
#    x 1.504470 0.000000 0.000000 
#    y 0.000000 1.530550 0.000000 
#    z 0.000000 0.000000 1.543250 
# 
# From -- ./inp_files/30903.got.cif
#   From: 2010.05.17/outbox.cif.g08.bks.cpg/sg51_16_cif.got.tgz:30903.got - 2010.06.03 11:52:47.
