data_PCOD9401913
_publ_section_title
;
Structure prediction by ZEFSAII (Michael W. Deem and Ramdas Pophale) SiO2 
 PCOD9401913
Probable space group: P M M A
;
_chemical_formula_sum "Si O2"
_cell_formula_units_Z 64
_cell_length_a 9.490901
_cell_length_b 24.330216
_cell_length_c 14.524483
_cell_angle_alpha 90.000000
_cell_angle_beta 90.000000
_cell_angle_gamma 90.000000
_cell_volume 3353.930743
_symmetry_space_group_name_H-M "P M M A"
_symmetry_group_IT_number 51
_symmetry_cell_setting 'orthorhombic'
loop_
_space_group_symop_operation_xyz
x,y,z
1/2-x,-y,z
1/2+x,-y,-z
-x,y,-z
-x,-y,-z
1/2+x,y,-z
1/2-x,y,z
x,-y,z
loop_
_atom_site_type_symbol
_atom_site_label
_atom_site_fract_x
_atom_site_fract_y
_atom_site_fract_z
Si Si1 0.583802 0.935111 0.792633
Si Si2 0.910728 0.254299 0.233140
Si Si3 0.413451 0.236345 0.410134
Si Si4 0.584475 0.434143 0.793127
Si Si5 0.413521 0.103213 0.410541
Si Si6 0.587158 0.647108 0.088590
Si Si7 0.581736 0.153341 0.094193
Si Si8 0.412468 0.567071 0.412823
O O1 0.750000 0.919176 0.801904
O O2 0.540556 0.921260 0.687406
O O3 0.487979 0.900933 0.862287
O O4 0.573084 0.000000 0.808171
O O5 0.750000 0.248939 0.268657
O O6 0.918250 0.306294 0.166340
O O7 0.939923 0.201266 0.169602
O O8 0.016800 0.258504 0.317447
O O9 0.500000 0.253784 0.500000
O O10 0.250000 0.251275 0.417675
O O11 0.423251 0.169596 0.404361
O O12 0.750000 0.419463 0.803666
O O13 0.575181 0.500000 0.798429
O O14 0.488987 0.405749 0.868756
O O15 0.538610 0.416965 0.689502
O O16 0.500000 0.085271 0.500000
O O17 0.250000 0.088459 0.423377
O O18 0.750000 0.636712 0.064983
O O19 0.500000 0.665608 0.000000
O O20 0.750000 0.147922 0.078602
O O21 0.500000 0.166653 0.000000
O O22 0.500000 0.587135 0.500000
O O23 0.250000 0.583354 0.422367
O O24 0.416159 0.500000 0.414106
#
# Coordination Sequence:
#
# PCOD9401913 Si02
#       8
#     8   8   8   8   8   8   8   8
#     4  10  21  38  57  80 114 151 190 236 283 337
#     4  10  22  40  61  87 116 147 187 236 285 339
#     4  10  19  33  58  88 119 153 189 231 280 337
#     4   9  19  37  59  84 117 156 196 236 281 336
#     4   9  18  32  52  81 113 148 187 227 275 331
#     4  11  24  41  61  86 115 147 188 238 291 344
#     4  11  23  39  61  84 109 142 186 237 290 347
#     4   8  14  26  47  76 109 144 182 224 268 317
#
# _framework density 19.082087000000001
#
# number of rings (size 3 to 8) (size 9 to 14) (size 15 to 20)
#    0.000    2.250    1.250    2.250    0.000    4.250 
#    0.000    1.875    0.000    1.500    0.000    0.000 
#    0.000    0.000    0.000    0.000    0.000    0.000 
#
# Total GULP energy -357344.619607 kJ/mol
# GULP energy per Si atom -5583.509681 kJ/mol
# Density = 1.903866 g / cm^3
# Si number density = 19.082087 Si / 1000 Ang^3
#
#
#
# Elastic Constant Matrix: (Units=GPa)
#
#
# Indices 1 2 3 4 5 6 
#
# 1 109.2572 25.2575 75.1525 0.0000 0.0000 0.0000
# 2 25.2575 22.7373 13.4280 0.0000 0.0000 0.0000
# 3 75.1525 13.4280 95.7353 0.0000 0.0000 0.0000
# 4 0.0000 0.0000 0.0000 7.8402 0.0000 0.0000
# 5 0.0000 0.0000 0.0000 0.0000 43.0917 0.0000
# 6 0.0000 0.0000 0.0000 0.0000 0.0000 13.8169
#
#
#
# Elastic Compliance Matrix: (Units=1/GPa)
#
#
# Indices 1 2 3 4 5 6 
#
# 1 0.025077 -0.017697 -0.017203 0.000000 0.000000 0.000000
# 2 -0.017697 0.060441 0.005414 0.000000 0.000000 0.000000
# 3 -0.017203 0.005414 0.023191 0.000000 0.000000 0.000000
# 4 0.000000 0.000000 0.000000 0.127548 0.000000 0.000000
# 5 0.000000 0.000000 0.000000 0.000000 0.023206 0.000000
# 6 0.000000 0.000000 0.000000 0.000000 0.000000 0.072375
#
#
# Mechanical properties :
#
#
# Convention : Reuss Voigt Hill
#
# Bulk Modulus (GPa) = 20.10552 50.60066 35.35309
# Shear Modulus (GPa) = 12.27328 20.54256 16.40792
#
# Velocity S-wave (km/s) = 2.53886 3.28462 2.93552
# Velocity P-wave (km/s) = 4.37648 6.39999 5.48240
#
# Compressibility (1/GPa) = 0.04973758
#
# Stress axis : x y z
#
# Youngs Moduli (GPa) = 39.87698 16.54498 43.12066
#
# Poissons Ratio (x) = 0.29279 0.74182
# Poissons Ratio (y) = 0.70570 -0.23348
# Poissons Ratio (z) = 0.68602 -0.08958
#
# Static dielectric constant tensor:
#      x y z
#    x 1.641950 0.000000 0.000000 
#    y 0.000000 1.666340 0.000000 
#    z 0.000000 0.000000 1.648370 
# 
# From -- ./inp_files/22368.got.cif
#   From: 2010.05.17/outbox.cif.g08.bks.cpg/sg51_12_cif.got.tgz:22368.got - 2010.06.03 11:52:47.
