data_PCOD9401686
_publ_section_title
;
Structure prediction by ZEFSAII (Michael W. Deem and Ramdas Pophale) SiO2 
 PCOD9401686
Probable space group: P M M A
;
_chemical_formula_sum "Si O2"
_cell_formula_units_Z 48
_cell_length_a 8.821002
_cell_length_b 14.932515
_cell_length_c 19.622920
_cell_angle_alpha 90.000000
_cell_angle_beta 90.000000
_cell_angle_gamma 90.000000
_cell_volume 2584.726012
_symmetry_space_group_name_H-M "P M M A"
_symmetry_group_IT_number 51
_symmetry_cell_setting 'orthorhombic'
loop_
_space_group_symop_operation_xyz
x,y,z
1/2-x,-y,z
1/2+x,-y,-z
-x,y,-z
-x,-y,-z
1/2+x,y,-z
1/2-x,y,z
x,-y,z
loop_
_atom_site_type_symbol
_atom_site_label
_atom_site_fract_x
_atom_site_fract_y
_atom_site_fract_z
Si Si1 0.926832 0.900045 0.717480
Si Si2 0.432183 0.102923 0.075416
Si Si3 0.927234 0.765398 0.185609
Si Si4 0.430480 0.354213 0.427686
Si Si5 0.428084 0.858735 0.432142
Si Si6 0.068374 0.398149 0.720319
O O1 0.750000 0.867434 0.722650
O O2 0.971356 0.901391 0.638817
O O3 0.042287 0.836613 0.754907
O O4 0.928185 0.000000 0.745463
O O5 0.250000 0.105566 0.074130
O O6 0.490210 0.184074 0.123074
O O7 0.475705 0.000000 0.096962
O O8 0.500000 0.114361 0.000000
O O9 0.750000 0.755200 0.169053
O O10 0.982760 0.672999 0.221688
O O11 0.500000 0.387910 0.500000
O O12 0.250000 0.369895 0.428833
O O13 0.460466 0.247361 0.426886
O O14 0.496858 0.387101 0.355339
O O15 0.500000 0.895190 0.500000
O O16 0.250000 0.869510 0.438860
O O17 0.250000 0.385164 0.712528
O O18 0.039949 0.500000 0.742692
#
# Coordination Sequence:
#
# PCOD9401686 Si02
#       6
#     8   8   8   8   8   8
#     4  10  20  34  51  73 104 142 181 221 269 326
#     4  10  21  38  62  92 125 157 186 218 258 310
#     4  11  22  36  57  83 113 146 181 225 275 324
#     4  10  19  33  54  77 103 137 181 236 294 348
#     4   9  18  31  47  68  96 132 175 222 271 324
#     4  10  22  39  57  79 108 144 188 236 286 338
#
# _framework density 18.570633999999998
#
# number of rings (size 3 to 8) (size 9 to 14) (size 15 to 20)
#    0.000    2.000    1.667    2.000    0.000    6.333 
#    0.000    0.000    0.000    0.500    0.000    0.000 
#    0.000    0.000    0.000    0.000    0.000    0.000 
#
# Total GULP energy -267544.136013 kJ/mol
# GULP energy per Si atom -5573.836167 kJ/mol
# Density = 1.852837 g / cm^3
# Si number density = 18.570634 Si / 1000 Ang^3
#
#
#
# Elastic Constant Matrix: (Units=GPa)
#
#
# Indices 1 2 3 4 5 6 
#
# 1 61.8330 18.4837 68.4006 0.0000 0.0000 0.0000
# 2 18.4837 121.4335 38.9062 0.0000 0.0000 0.0000
# 3 68.4006 38.9062 172.8877 0.0000 0.0000 0.0000
# 4 0.0000 0.0000 0.0000 71.0478 0.0000 0.0000
# 5 0.0000 0.0000 0.0000 0.0000 36.2784 0.0000
# 6 0.0000 0.0000 0.0000 0.0000 0.0000 39.8174
#
#
#
# Elastic Compliance Matrix: (Units=1/GPa)
#
#
# Indices 1 2 3 4 5 6 
#
# 1 0.028830 -0.000791 -0.011228 0.000000 0.000000 0.000000
# 2 -0.000791 0.008897 -0.001689 0.000000 0.000000 0.000000
# 3 -0.011228 -0.001689 0.010606 0.000000 0.000000 0.000000
# 4 0.000000 0.000000 0.000000 0.014075 0.000000 0.000000
# 5 0.000000 0.000000 0.000000 0.000000 0.027565 0.000000
# 6 0.000000 0.000000 0.000000 0.000000 0.000000 0.025115
#
#
# Mechanical properties :
#
#
# Convention : Reuss Voigt Hill
#
# Bulk Modulus (GPa) = 47.80922 67.52613 57.66768
# Shear Modulus (GPa) = 33.45031 44.78629 39.11830
#
# Velocity S-wave (km/s) = 4.24872 4.91621 4.59460
# Velocity P-wave (km/s) = 7.06181 8.28651 7.69855
#
# Compressibility (1/GPa) = 0.02091647
#
# Stress axis : x y z
#
# Youngs Moduli (GPa) = 34.68642 112.40340 94.28208
#
# Poissons Ratio (x) = 0.08890 1.05861
# Poissons Ratio (y) = 0.02743 0.15926
# Poissons Ratio (z) = 0.38946 0.18987
#
# Static dielectric constant tensor:
#      x y z
#    x 1.633020 0.000000 0.000000 
#    y 0.000000 1.663790 0.000000 
#    z 0.000000 0.000000 1.663610 
# 
# From -- ./inp_files/27592.got.cif
#   From: 2010.05.17/outbox.cif.g08.bks.cpg/sg51_14_cif.got.tgz:27592.got - 2010.06.03 11:52:47.
