data_PCOD9401099
_publ_section_title
;
Structure prediction by ZEFSAII (Michael W. Deem and Ramdas Pophale) SiO2 
 PCOD9401099
Probable space group: P M M A
;
_chemical_formula_sum "Si O2"
_cell_formula_units_Z 64
_cell_length_a 18.250843
_cell_length_b 13.983151
_cell_length_c 15.626782
_cell_angle_alpha 90.000000
_cell_angle_beta 90.000000
_cell_angle_gamma 90.000000
_cell_volume 3988.021861
_symmetry_space_group_name_H-M "P M M A"
_symmetry_group_IT_number 51
_symmetry_cell_setting 'orthorhombic'
loop_
_space_group_symop_operation_xyz
x,y,z
1/2-x,-y,z
1/2+x,-y,-z
-x,y,-z
-x,-y,-z
1/2+x,y,-z
1/2-x,y,z
x,-y,z
loop_
_atom_site_type_symbol
_atom_site_label
_atom_site_fract_x
_atom_site_fract_y
_atom_site_fract_z
Si Si1 0.835617 0.768544 0.993894
Si Si2 0.460481 0.234829 0.589198
Si Si3 0.088408 0.111958 0.332318
Si Si4 0.050112 0.107191 0.914667
Si Si5 0.667762 0.611839 0.136373
Si Si6 0.531480 0.613782 0.262016
Si Si7 0.663881 0.110496 0.487399
Si Si8 0.933221 0.763424 0.824270
O O1 0.750000 0.787061 0.977595
O O2 0.881713 0.756837 0.906982
O O3 0.873579 0.850098 0.052110
O O4 0.843061 0.674070 0.051733
O O5 0.500000 0.260283 0.500000
O O6 0.511515 0.154313 0.633533
O O7 0.458040 0.325648 0.651316
O O8 0.383831 0.185236 0.566225
O O9 0.143382 0.123053 0.412314
O O10 0.106366 0.175908 0.249998
O O11 0.083681 0.000000 0.310733
O O12 0.005937 0.176337 0.851220
O O13 0.057055 0.000000 0.880067
O O14 0.000000 0.103486 0.000000
O O15 0.750000 0.633475 0.169748
O O16 0.665120 0.500000 0.114790
O O17 0.603911 0.629390 0.204367
O O18 0.521797 0.500000 0.274601
O O19 0.463269 0.663395 0.212592
O O20 0.750000 0.122225 0.474385
O O21 0.643457 0.000000 0.466433
#
# Coordination Sequence:
#
# PCOD9401099 Si02
#       8
#     8   8   8   8   8   8   8   8
#     4  10  20  33  49  70  99 132 166 207 252 300
#     4   9  18  32  50  74 100 130 160 195 245 303
#     4   9  17  30  49  72  99 130 165 200 237 287
#     4   9  17  30  47  67  94 128 164 200 238 284
#     4   9  18  33  51  71  96 125 160 205 254 296
#     4  10  20  33  52  76  97 125 165 211 252 292
#     4   9  17  30  50  76 103 129 160 201 245 290
#     4  10  19  32  49  73  98 131 170 204 249 296
#
# _framework density 16.048057
#
# number of rings (size 3 to 8) (size 9 to 14) (size 15 to 20)
#    0.000    2.625    1.250    0.750    0.000    4.000 
#    0.000    1.250    0.000    0.000    0.000    0.000 
#    0.000    0.000    0.000    0.000    0.000    0.000 
#
# Total GULP energy -356530.909182 kJ/mol
# GULP energy per Si atom -5570.795456 kJ/mol
# Density = 1.601153 g / cm^3
# Si number density = 16.048057 Si / 1000 Ang^3
#
#
#
# Elastic Constant Matrix: (Units=GPa)
#
#
# Indices 1 2 3 4 5 6 
#
# 1 81.3094 47.1070 34.4179 0.0000 0.0000 0.0000
# 2 47.1070 91.3776 37.0482 0.0000 0.0000 0.0000
# 3 34.4179 37.0482 56.3198 0.0000 0.0000 0.0000
# 4 0.0000 0.0000 0.0000 23.7716 0.0000 0.0000
# 5 0.0000 0.0000 0.0000 0.0000 14.5999 0.0000
# 6 0.0000 0.0000 0.0000 0.0000 0.0000 16.4776
#
#
#
# Elastic Compliance Matrix: (Units=1/GPa)
#
#
# Indices 1 2 3 4 5 6 
#
# 1 0.019477 -0.007112 -0.007224 0.000000 0.000000 0.000000
# 2 -0.007112 0.017521 -0.007179 0.000000 0.000000 0.000000
# 3 -0.007224 -0.007179 0.026893 0.000000 0.000000 0.000000
# 4 0.000000 0.000000 0.000000 0.042067 0.000000 0.000000
# 5 0.000000 0.000000 0.000000 0.000000 0.068493 0.000000
# 6 0.000000 0.000000 0.000000 0.000000 0.000000 0.060689
#
#
# Mechanical properties :
#
#
# Convention : Reuss Voigt Hill
#
# Bulk Modulus (GPa) = 47.93853 51.79477 49.86665
# Shear Modulus (GPa) = 17.53622 18.33207 17.93414
#
# Velocity S-wave (km/s) = 3.30923 3.38349 3.34657
# Velocity P-wave (km/s) = 6.67369 6.89992 6.78775
#
# Compressibility (1/GPa) = 0.02086005
#
# Stress axis : x y z
#
# Youngs Moduli (GPa) = 51.34272 57.07567 37.18386
#
# Poissons Ratio (x) = 0.40590 0.26863
# Poissons Ratio (y) = 0.36513 0.26695
# Poissons Ratio (z) = 0.37092 0.40976
#
# Static dielectric constant tensor:
#      x y z
#    x 1.533560 0.000000 0.000000 
#    y 0.000000 1.533190 0.000000 
#    z 0.000000 0.000000 1.534690 
# 
# From -- ./inp_files/25308.got.cif
#   From: 2010.05.17/outbox.cif.g08.bks.cpg/sg51_13_cif.got.tgz:25308.got - 2010.06.03 11:52:47.
