data_PCOD9401899
_publ_section_title
;
Structure prediction by ZEFSAII (Michael W. Deem and Ramdas Pophale) SiO2 
 PCOD9401899
Probable space group: P M M A
;
_chemical_formula_sum "Si O2"
_cell_formula_units_Z 64
_cell_length_a 14.780157
_cell_length_b 24.291885
_cell_length_c 9.430694
_cell_angle_alpha 90.000000
_cell_angle_beta 90.000000
_cell_angle_gamma 90.000000
_cell_volume 3385.976325
_symmetry_space_group_name_H-M "P M M A"
_symmetry_group_IT_number 51
_symmetry_cell_setting 'orthorhombic'
loop_
_space_group_symop_operation_xyz
x,y,z
1/2-x,-y,z
1/2+x,-y,-z
-x,y,-z
-x,-y,-z
1/2+x,y,-z
1/2-x,y,z
x,-y,z
loop_
_atom_site_type_symbol
_atom_site_label
_atom_site_fract_x
_atom_site_fract_y
_atom_site_fract_z
Si Si1 0.357858 0.442183 0.481462
Si Si2 0.855027 0.266321 0.626230
Si Si3 0.978144 0.669999 0.853731
Si Si4 0.642298 0.563075 0.857198
Si Si5 0.982444 0.064261 0.835591
Si Si6 0.641405 0.335078 0.353003
Si Si7 0.347954 0.060714 0.632417
Si Si8 0.409802 0.857945 0.401952
O O1 0.250000 0.443002 0.505483
O O2 0.396162 0.500000 0.535116
O O3 0.368371 0.438672 0.313462
O O4 0.390095 0.388989 0.560798
O O5 0.750000 0.281166 0.651944
O O6 0.915945 0.298148 0.740359
O O7 0.874926 0.286009 0.465100
O O8 0.870482 0.201399 0.633684
O O9 0.923988 0.613503 0.896021
O O10 0.075894 0.664465 0.780147
O O11 0.000000 0.700776 0.000000
O O12 0.750000 0.573440 0.887576
O O13 0.622070 0.500000 0.908638
O O14 0.924240 0.106669 0.741477
O O15 0.076870 0.067161 0.750961
O O16 0.950918 0.000000 0.829423
O O17 0.000000 0.078282 0.000000
O O18 0.750000 0.336864 0.322231
O O19 0.250000 0.062273 0.701016
O O20 0.352318 0.105142 0.509361
O O21 0.362475 0.000000 0.566799
O O22 0.500000 0.849973 0.500000
#
# Coordination Sequence:
#
# PCOD9401899 Si02
#       8
#     8   8   8   8   8   8   8   8
#     4   8  14  28  54  84 107 132 174 225 273 320
#     4  11  23  41  62  81 107 144 191 240 287 334
#     4  12  25  38  57  84 117 149 186 226 283 344
#     4   9  18  35  59  85 114 149 186 225 275 334
#     4   9  18  33  54  81 116 155 188 220 267 329
#     4  10  21  38  59  83 110 143 188 237 282 333
#     4   9  17  31  52  80 113 146 183 230 280 325
#     4  10  19  33  57  84 109 141 186 233 280 329
#
# _framework density 18.901491
#
# number of rings (size 3 to 8) (size 9 to 14) (size 15 to 20)
#    0.000    2.250    1.250    3.000    0.000    3.750 
#    0.000    2.500    0.000    4.500    0.000    0.000 
#    0.000    0.000    0.000    0.000    0.000    0.000 
#
# Total GULP energy -356522.460620 kJ/mol
# GULP energy per Si atom -5570.663447 kJ/mol
# Density = 1.885847 g / cm^3
# Si number density = 18.901491 Si / 1000 Ang^3
#
#
#
# Elastic Constant Matrix: (Units=GPa)
#
#
# Indices 1 2 3 4 5 6 
#
# 1 76.1708 25.7926 24.4307 0.0000 0.0000 0.0000
# 2 25.7926 91.4496 31.4211 0.0000 0.0000 0.0000
# 3 24.4307 31.4211 74.7615 0.0000 0.0000 0.0000
# 4 0.0000 0.0000 0.0000 -4.4352 0.0000 0.0000
# 5 0.0000 0.0000 0.0000 0.0000 14.3927 0.0000
# 6 0.0000 0.0000 0.0000 0.0000 0.0000 26.9758
#
#
#
# Elastic Compliance Matrix: (Units=1/GPa)
#
#
# Indices 1 2 3 4 5 6 
#
# 1 0.015359 -0.003048 -0.003738 0.000000 0.000000 0.000000
# 2 -0.003048 0.013385 -0.004630 0.000000 0.000000 0.000000
# 3 -0.003738 -0.004630 0.016543 0.000000 0.000000 0.000000
# 4 0.000000 0.000000 0.000000 -0.225469 0.000000 0.000000
# 5 0.000000 0.000000 0.000000 0.000000 0.069480 0.000000
# 6 0.000000 0.000000 0.000000 0.000000 0.000000 0.037070
#
#
# Mechanical properties :
#
#
# Convention : Reuss Voigt Hill
#
# Bulk Modulus (GPa) = 44.53014 45.07454 44.80234
# Shear Modulus (GPa) = -115.43500 18.10248 -48.66626
#
# Velocity S-wave (km/s) = -7.82333 3.09808 -5.07969
# Velocity P-wave (km/s) = 7.61550 6.05774 3.26340
#
# Compressibility (1/GPa) = 0.02245670
#
# Stress axis : x y z
#
# Youngs Moduli (GPa) = 65.10693 74.70909 60.44747
#
# Poissons Ratio (x) = 0.22768 0.22597
# Poissons Ratio (y) = 0.19842 0.27986
# Poissons Ratio (z) = 0.24339 0.34588
#
# Static dielectric constant tensor:
#      x y z
#    x 1.698670 0.000000 0.000000 
#    y 0.000000 1.690340 0.000000 
#    z 0.000000 0.000000 1.614430 
# 
# From -- ./inp_files/8738.got.cif
#   From: 2010.05.17/outbox.cif.g08.bks.cpg/sg51_5_cif.got.tgz:8738.got - 2010.06.03 11:52:47.
