data_PCOD9401699
_publ_section_title
;
Structure prediction by ZEFSAII (Michael W. Deem and Ramdas Pophale) SiO2 
 PCOD9401699
Probable space group: P M M A
;
_chemical_formula_sum "Si O2"
_cell_formula_units_Z 44
_cell_length_a 8.216257
_cell_length_b 29.839750
_cell_length_c 9.522061
_cell_angle_alpha 90.000000
_cell_angle_beta 90.000000
_cell_angle_gamma 90.000000
_cell_volume 2334.533739
_symmetry_space_group_name_H-M "P M M A"
_symmetry_group_IT_number 51
_symmetry_cell_setting 'orthorhombic'
loop_
_space_group_symop_operation_xyz
x,y,z
1/2-x,-y,z
1/2+x,-y,-z
-x,y,-z
-x,-y,-z
1/2+x,y,-z
1/2-x,y,z
x,-y,z
loop_
_atom_site_type_symbol
_atom_site_label
_atom_site_fract_x
_atom_site_fract_y
_atom_site_fract_z
Si Si1 0.056010 0.634032 0.659699
Si Si2 0.053027 0.914403 0.162243
Si Si3 0.946945 0.000000 0.660829
Si Si4 0.945068 0.718939 0.838039
Si Si5 0.446780 0.449500 0.840470
Si Si6 0.946202 0.183369 0.837546
O O1 0.250000 0.631590 0.661517
O O2 0.992178 0.589403 0.738028
O O3 0.000000 0.636226 0.500000
O O4 0.005504 0.677992 0.745465
O O5 0.250000 0.914630 0.163379
O O6 0.995419 0.955630 0.256736
O O7 0.997579 0.865213 0.216968
O O8 0.000000 0.919661 0.000000
O O9 0.000000 0.000000 0.500000
O O10 0.750000 0.000000 0.665253
O O11 0.750000 0.718766 0.836742
O O12 0.002537 0.768080 0.782917
O O13 0.000000 0.713984 0.000000
O O14 0.250000 0.449537 0.837203
O O15 0.502324 0.500000 0.803766
O O16 0.500000 0.440164 0.000000
O O17 0.750000 0.183393 0.830180
O O18 0.000000 0.183320 0.000000
#
# Coordination Sequence:
#
# PCOD9401699 Si02
#       6
#     8   8   4   8   8   8
#     4  11  23  37  53  75 105 139 174 212 254 301
#     4   9  17  31  51  75  99 125 161 204 248 294
#     4  10  21  34  48  68  98 132 165 202 244 294
#     4  10  19  33  54  78 104 135 170 209 252 299
#     4   9  19  36  57  80 104 131 166 207 251 300
#     4   8  15  28  48  73 100 127 159 202 248 293
#
# _framework density 18.847446000000001
#
# number of rings (size 3 to 8) (size 9 to 14) (size 15 to 20)
#    0.000    2.545    0.000    1.909    0.000    4.727 
#    0.000    0.909    0.000    2.182    0.000    0.000 
#    0.000    0.000    0.000    0.000    0.000    0.000 
#
# Total GULP energy -245267.314479 kJ/mol
# GULP energy per Si atom -5574.257147 kJ/mol
# Density = 1.880455 g / cm^3
# Si number density = 18.847446 Si / 1000 Ang^3
#
#
#
# Elastic Constant Matrix: (Units=GPa)
#
#
# Indices 1 2 3 4 5 6 
#
# 1 16.9778 24.0770 10.5361 0.0000 0.0000 0.0000
# 2 24.0770 229.4615 114.4276 0.0000 0.0000 0.0000
# 3 10.5361 114.4276 102.7704 0.0000 0.0000 0.0000
# 4 0.0000 0.0000 0.0000 -4.0112 0.0000 0.0000
# 5 0.0000 0.0000 0.0000 0.0000 27.5464 0.0000
# 6 0.0000 0.0000 0.0000 0.0000 0.0000 10.2130
#
#
#
# Elastic Compliance Matrix: (Units=1/GPa)
#
#
# Indices 1 2 3 4 5 6 
#
# 1 0.069424 -0.008398 0.002234 0.000000 0.000000 0.000000
# 2 -0.008398 0.010815 -0.011180 0.000000 0.000000 0.000000
# 3 0.002234 -0.011180 0.021950 0.000000 0.000000 0.000000
# 4 0.000000 0.000000 0.000000 -0.249299 0.000000 0.000000
# 5 0.000000 0.000000 0.000000 0.000000 0.036302 0.000000
# 6 0.000000 0.000000 0.000000 0.000000 0.000000 0.097914
#
#
# Mechanical properties :
#
#
# Convention : Reuss Voigt Hill
#
# Bulk Modulus (GPa) = 14.81510 71.92124 43.36817
# Shear Modulus (GPa) = 112.87546 20.09423 66.48485
#
# Velocity S-wave (km/s) = 7.74719 3.26874 5.94574
# Velocity P-wave (km/s) = 9.37566 7.24491 8.37830
#
# Compressibility (1/GPa) = 0.06749868
#
# Stress axis : x y z
#
# Youngs Moduli (GPa) = 14.40415 92.46700 45.55814
#
# Poissons Ratio (x) = 0.77658 -0.10176
# Poissons Ratio (y) = 0.12097 0.50936
# Poissons Ratio (z) = -0.03217 1.03381
#
# Static dielectric constant tensor:
#      x y z
#    x 1.688590 0.000000 0.000000 
#    y 0.000000 1.720490 0.000000 
#    z 0.000000 0.000000 1.587160 
# 
# From -- ./inp_files/5886.got.cif
#   From: 2010.05.17/outbox.cif.g08.bks.cpg/sg51_3_cif.got.tgz:5886.got - 2010.06.03 11:52:47.
