data_PCOD9401024
_publ_section_title
;
Structure prediction by ZEFSAII (Michael W. Deem and Ramdas Pophale) SiO2 
 PCOD9401024
Probable space group: P M M A
;
_chemical_formula_sum "Si O2"
_cell_formula_units_Z 64
_cell_length_a 17.996246
_cell_length_b 18.862619
_cell_length_c 8.081425
_cell_angle_alpha 90.000000
_cell_angle_beta 90.000000
_cell_angle_gamma 90.000000
_cell_volume 2743.290886
_symmetry_space_group_name_H-M "P M M A"
_symmetry_group_IT_number 51
_symmetry_cell_setting 'orthorhombic'
loop_
_space_group_symop_operation_xyz
x,y,z
1/2-x,-y,z
1/2+x,-y,-z
-x,y,-z
-x,-y,-z
1/2+x,y,-z
1/2-x,y,z
x,-y,z
loop_
_atom_site_type_symbol
_atom_site_label
_atom_site_fract_x
_atom_site_fract_y
_atom_site_fract_z
Si Si1 0.667755 0.414093 0.635086
Si Si2 0.949639 0.419291 0.863731
Si Si3 0.663400 0.813413 0.588833
Si Si4 0.585820 0.920170 0.360781
Si Si5 0.055681 0.356335 0.626152
Si Si6 0.832833 0.883446 0.042758
Si Si7 0.956834 0.163624 0.832668
Si Si8 0.831089 0.736373 0.231942
O O1 0.750000 0.386222 0.625883
O O2 0.668080 0.500000 0.640206
O O3 0.626853 0.387808 0.800761
O O4 0.621679 0.389790 0.478276
O O5 0.934384 0.500000 0.916825
O O6 0.002897 0.415840 0.704189
O O7 0.000000 0.383961 0.000000
O O8 0.750000 0.818463 0.645562
O O9 0.627520 0.886066 0.517422
O O10 0.602087 0.789474 0.725446
O O11 0.665608 0.767147 0.420434
O O12 0.645374 0.921208 0.212041
O O13 0.519133 0.870261 0.288709
O O14 0.560800 0.000000 0.388475
O O15 0.095966 0.311170 0.766836
O O16 0.000000 0.315862 0.500000
O O17 0.750000 0.901646 0.987451
O O18 0.833856 0.800660 0.102146
O O19 0.898361 0.893026 0.911026
O O20 0.000000 0.190273 0.000000
O O21 0.750000 0.701059 0.211852
#
# Coordination Sequence:
#
# PCOD9401024 Si02
#       8
#     8   8   8   8   8   8   8   8
#     4   9  17  31  52  77 105 138 177 221 268 317
#     4   9  18  34  53  75 107 144 179 218 266 318
#     4  10  21  38  59  79 101 137 182 220 259 314
#     4  10  21  37  56  80 109 138 172 218 267 310
#     4  10  19  31  52  79 105 136 177 222 266 317
#     4   9  19  36  56  78 106 142 179 214 259 314
#     4  10  21  35  55  80 108 138 169 211 266 320
#     4   9  19  36  55  76 105 138 175 222 267 307
#
# _framework density 23.329644999999999
#
# number of rings (size 3 to 8) (size 9 to 14) (size 15 to 20)
#    0.000    2.500    0.000    2.625    0.000    8.750 
#    0.000    6.875    0.000    8.250    0.000    0.000 
#    0.000    0.000    0.000    0.000    0.000    0.000 
#
# Total GULP energy -356700.449365 kJ/mol
# GULP energy per Si atom -5573.444521 kJ/mol
# Density = 2.327655 g / cm^3
# Si number density = 23.329645 Si / 1000 Ang^3
#
#
#
# Elastic Constant Matrix: (Units=GPa)
#
#
# Indices 1 2 3 4 5 6 
#
# 1 175.3674 13.3611 38.6162 0.0000 0.0000 0.0000
# 2 13.3611 42.3872 -0.3616 0.0000 0.0000 0.0000
# 3 38.6162 -0.3616 69.1504 0.0000 0.0000 0.0000
# 4 0.0000 0.0000 0.0000 -11.6537 0.0000 0.0000
# 5 0.0000 0.0000 0.0000 0.0000 37.0618 0.0000
# 6 0.0000 0.0000 0.0000 0.0000 0.0000 -2.8026
#
#
#
# Elastic Compliance Matrix: (Units=1/GPa)
#
#
# Indices 1 2 3 4 5 6 
#
# 1 0.006691 -0.002141 -0.003748 0.000000 0.000000 0.000000
# 2 -0.002141 0.024278 0.001323 0.000000 0.000000 0.000000
# 3 -0.003748 0.001323 0.016561 0.000000 0.000000 0.000000
# 4 0.000000 0.000000 0.000000 -0.085810 0.000000 0.000000
# 5 0.000000 0.000000 0.000000 0.000000 0.026982 0.000000
# 6 0.000000 0.000000 0.000000 0.000000 0.000000 -0.356809
#
#
# Mechanical properties :
#
#
# Convention : Reuss Voigt Hill
#
# Bulk Modulus (GPa) = 26.04310 43.34849 34.69579
# Shear Modulus (GPa) = -14.44353 20.20705 2.88176
#
# Velocity S-wave (km/s) = -2.49088 2.94624 1.11262
# Velocity P-wave (km/s) = 1.70724 5.49500 4.06876
#
# Compressibility (1/GPa) = 0.03839789
#
# Stress axis : x y z
#
# Youngs Moduli (GPa) = 149.46250 41.18924 60.38317
#
# Poissons Ratio (x) = 0.08818 0.22629
# Poissons Ratio (y) = 0.31999 -0.07986
# Poissons Ratio (z) = 0.56011 -0.05447
#
# Static dielectric constant tensor:
#      x y z
#    x 1.908520 0.000000 0.000000 
#    y 0.000000 1.928630 0.000000 
#    z 0.000000 0.000000 1.959320 
# 
# From -- ./inp_files/8678.got.cif
#   From: 2010.05.17/outbox.cif.g08.bks.cpg/sg51_5_cif.got.tgz:8678.got - 2010.06.03 11:52:47.
