data_PCOD9401835
_publ_section_title
;
Structure prediction by ZEFSAII (Michael W. Deem and Ramdas Pophale) SiO2 
 PCOD9401835
Probable space group: P M M A
;
_chemical_formula_sum "Si O2"
_cell_formula_units_Z 48
_cell_length_a 31.768885
_cell_length_b 7.662655
_cell_length_c 9.173748
_cell_angle_alpha 90.000000
_cell_angle_beta 90.000000
_cell_angle_gamma 90.000000
_cell_volume 2233.202221
_symmetry_space_group_name_H-M "P M M A"
_symmetry_group_IT_number 51
_symmetry_cell_setting 'orthorhombic'
loop_
_space_group_symop_operation_xyz
x,y,z
1/2-x,-y,z
1/2+x,-y,-z
-x,y,-z
-x,-y,-z
1/2+x,y,-z
1/2-x,y,z
x,-y,z
loop_
_atom_site_type_symbol
_atom_site_label
_atom_site_fract_x
_atom_site_fract_y
_atom_site_fract_z
Si Si1 0.165373 0.798356 0.196554
Si Si2 0.665799 0.294805 0.136580
Si Si3 0.080065 0.703248 0.345984
Si Si4 0.500148 0.286400 0.167561
Si Si5 0.750000 0.786230 0.647340
Si Si6 0.250000 0.209511 0.689480
Si Si7 0.413387 0.286374 0.674851
O O1 0.122749 0.712616 0.253847
O O2 0.207705 0.726524 0.271176
O O3 0.161972 0.000000 0.240526
O O4 0.168911 0.787604 0.022733
O O5 0.658835 0.500000 0.111114
O O6 0.708465 0.270685 0.226815
O O7 0.626669 0.226579 0.231670
O O8 0.069439 0.500000 0.368932
O O9 0.040755 0.776959 0.255686
O O10 0.087115 0.776297 0.507912
O O11 0.499059 0.500000 0.164871
O O12 0.543088 0.236479 0.248187
O O13 0.500000 0.228526 0.000000
O O14 0.750000 0.732528 0.478745
O O15 0.750000 0.000000 0.653068
O O16 0.250000 0.000000 0.690280
O O17 0.411330 0.500000 0.673621
#
# Coordination Sequence:
#
# PCOD9401835 Si02
#       7
#     8   8   8   8   4   4   8
#     4  11  22  38  58  80 109 146 187 228 275 328
#     4  11  22  37  57  83 112 142 182 228 271 317
#     4  10  19  33  55  82 111 143 182 229 280 332
#     4   9  16  28  50  80 112 145 181 224 276 332
#     4   9  21  39  58  78 104 143 184 219 260 322
#     4  11  22  39  60  82 110 143 178 217 270 328
#     4   9  18  32  53  82 112 143 183 231 278 326
#
# _framework density 21.4938
#
# number of rings (size 3 to 8) (size 9 to 14) (size 15 to 20)
#    0.000    2.000    0.000    4.250    0.000    5.333 
#    0.000    4.583    0.000    7.500    0.000    0.000 
#    0.000    0.000    0.000    0.000    0.000    0.000 
#
# Total GULP energy -268329.670043 kJ/mol
# GULP energy per Si atom -5590.201459 kJ/mol
# Density = 2.144488 g / cm^3
# Si number density = 21.493800 Si / 1000 Ang^3
#
#
#
# Elastic Constant Matrix: (Units=GPa)
#
#
# Indices 1 2 3 4 5 6 
#
# 1 192.7589 -17.5732 101.6912 0.0000 0.0000 0.0000
# 2 -17.5732 38.1719 -14.4248 0.0000 0.0000 0.0000
# 3 101.6912 -14.4248 191.1062 0.0000 0.0000 0.0000
# 4 0.0000 0.0000 0.0000 14.2611 0.0000 0.0000
# 5 0.0000 0.0000 0.0000 0.0000 36.2671 0.0000
# 6 0.0000 0.0000 0.0000 0.0000 0.0000 2198.4846
#
#
#
# Elastic Compliance Matrix: (Units=1/GPa)
#
#
# Indices 1 2 3 4 5 6 
#
# 1 0.007353 0.001962 -0.003764 0.000000 0.000000 0.000000
# 2 0.001962 0.027490 0.001031 0.000000 0.000000 0.000000
# 3 -0.003764 0.001031 0.007314 0.000000 0.000000 0.000000
# 4 0.000000 0.000000 0.000000 0.070121 0.000000 0.000000
# 5 0.000000 0.000000 0.000000 0.000000 0.027573 0.000000
# 6 0.000000 0.000000 0.000000 0.000000 0.000000 0.000455
#
#
# Mechanical properties :
#
#
# Convention : Reuss Voigt Hill
#
# Bulk Modulus (GPa) = 24.62203 62.38037 43.50120
# Shear Modulus (GPa) = 32.17802 473.29215 252.73509
#
# Velocity S-wave (km/s) = 3.87341 14.85522 10.85543
# Velocity P-wave (km/s) = 5.61113 17.98116 13.31929
#
# Compressibility (1/GPa) = 0.04061404
#
# Stress axis : x y z
#
# Youngs Moduli (GPa) = 136.00551 36.37659 136.73202
#
# Poissons Ratio (x) = -0.07139 0.51471
# Poissons Ratio (y) = -0.26690 -0.14094
# Poissons Ratio (z) = 0.51197 -0.03749
#
# Static dielectric constant tensor:
#      x y z
#    x 1.738160 0.000000 0.000000 
#    y 0.000000 1.828450 0.000000 
#    z 0.000000 0.000000 1.733770 
# 
# From -- ./inp_files/12958.got.cif
#   From: 2010.05.17/outbox.cif.g08.bks.cpg/sg51_7_cif.got.tgz:12958.got - 2010.06.03 11:52:47.
