data_PCOD9401969
_publ_section_title
;
Structure prediction by ZEFSAII (Michael W. Deem and Ramdas Pophale) SiO2 
 PCOD9401969
Probable space group: P M M A
;
_chemical_formula_sum "Si O2"
_cell_formula_units_Z 64
_cell_length_a 17.818347
_cell_length_b 21.425782
_cell_length_c 9.024646
_cell_angle_alpha 90.000000
_cell_angle_beta 90.000000
_cell_angle_gamma 90.000000
_cell_volume 3445.357319
_symmetry_space_group_name_H-M "P M M A"
_symmetry_group_IT_number 51
_symmetry_cell_setting 'orthorhombic'
loop_
_space_group_symop_operation_xyz
x,y,z
1/2-x,-y,z
1/2+x,-y,-z
-x,y,-z
-x,-y,-z
1/2+x,y,-z
1/2-x,y,z
x,-y,z
loop_
_atom_site_type_symbol
_atom_site_label
_atom_site_fract_x
_atom_site_fract_y
_atom_site_fract_z
Si Si1 0.160972 0.929875 0.732976
Si Si2 0.661555 0.312853 0.789322
Si Si3 0.905961 0.193977 0.632683
Si Si4 0.661751 0.065976 0.624906
Si Si5 0.919925 0.681407 0.087460
Si Si6 0.660917 0.426705 0.259371
Si Si7 0.659635 0.568511 0.610986
Si Si8 0.919494 0.195870 0.293684
O O1 0.250000 0.922293 0.763890
O O2 0.152171 0.932305 0.553679
O O3 0.115848 0.867269 0.776794
O O4 0.138684 0.000000 0.786909
O O5 0.750000 0.309762 0.763091
O O6 0.623604 0.252905 0.719493
O O7 0.630566 0.375118 0.709832
O O8 0.642561 0.313977 0.960767
O O9 0.871206 0.129131 0.685769
O O10 0.885039 0.204371 0.459057
O O11 0.993673 0.186974 0.665000
O O12 0.750000 0.065564 0.653693
O O13 0.628819 0.000000 0.678182
O O14 0.896246 0.619822 0.178817
O O15 0.914946 0.742663 0.192037
O O16 0.000000 0.678573 0.000000
O O17 0.750000 0.411926 0.231302
O O18 0.650580 0.500000 0.220178
O O19 0.648304 0.420927 0.436323
O O20 0.750000 0.566363 0.631717
O O21 0.629522 0.500000 0.651199
#
# Coordination Sequence:
#
# PCOD9401969 Si02
#       8
#     8   8   8   8   8   8   8   8
#     4   8  15  29  51  80 109 137 177 230 280 329
#     4  11  22  36  57  82 109 147 189 230 277 326
#     4  10  19  34  54  80 108 147 188 231 275 332
#     4   8  14  26  47  78 112 139 171 225 286 335
#     4  12  24  39  53  77 118 155 188 230 278 330
#     4   9  19  38  63  87 110 141 184 231 277 331
#     4   8  16  34  60  88 112 134 173 229 279 326
#     4  10  21  35  55  78 112 149 186 227 282 331
#
# _framework density 18.575721999999999
#
# number of rings (size 3 to 8) (size 9 to 14) (size 15 to 20)
#    0.000    2.500    1.250    3.000    0.000    2.750 
#    0.000    3.750    0.000    2.625    0.000    1.750 
#    0.000    0.000    0.000    0.000    0.000    0.000 
#
# Total GULP energy -356467.490157 kJ/mol
# GULP energy per Si atom -5569.804534 kJ/mol
# Density = 1.853344 g / cm^3
# Si number density = 18.575722 Si / 1000 Ang^3
#
#
#
# Elastic Constant Matrix: (Units=GPa)
#
#
# Indices 1 2 3 4 5 6 
#
# 1 29.1135 43.5460 7.7156 0.0000 0.0000 0.0000
# 2 43.5460 181.9388 57.6024 0.0000 0.0000 0.0000
# 3 7.7156 57.6024 36.3337 0.0000 0.0000 0.0000
# 4 0.0000 0.0000 0.0000 -30.9537 0.0000 0.0000
# 5 0.0000 0.0000 0.0000 0.0000 19.1636 0.0000
# 6 0.0000 0.0000 0.0000 0.0000 0.0000 65.9663
#
#
#
# Elastic Compliance Matrix: (Units=1/GPa)
#
#
# Indices 1 2 3 4 5 6 
#
# 1 0.060045 -0.020749 0.020145 0.000000 0.000000 0.000000
# 2 -0.020749 0.018206 -0.024456 0.000000 0.000000 0.000000
# 3 0.020145 -0.024456 0.062017 0.000000 0.000000 0.000000
# 4 0.000000 0.000000 0.000000 -0.032306 0.000000 0.000000
# 5 0.000000 0.000000 0.000000 0.000000 0.052182 0.000000
# 6 0.000000 0.000000 0.000000 0.000000 0.000000 0.015159
#
#
# Mechanical properties :
#
#
# Convention : Reuss Voigt Hill
#
# Bulk Modulus (GPa) = 11.09314 51.67934 31.38624
# Shear Modulus (GPa) = 19.57146 20.07003 19.82075
#
# Velocity S-wave (km/s) = 3.24945 3.29058 3.27008
# Velocity P-wave (km/s) = 4.47921 6.50527 5.58488
#
# Compressibility (1/GPa) = 0.09014578
#
# Stress axis : x y z
#
# Youngs Moduli (GPa) = 16.65417 54.92832 16.12449
#
# Poissons Ratio (x) = 1.13972 -0.32482
# Poissons Ratio (y) = 0.34556 0.39435
# Poissons Ratio (z) = -0.33549 1.34335
#
# Static dielectric constant tensor:
#      x y z
#    x 1.638620 0.000000 0.000000 
#    y 0.000000 1.663440 0.000000 
#    z 0.000000 0.000000 1.632550 
# 
# From -- ./inp_files/10080.got.cif
#   From: 2010.05.17/outbox.cif.g08.bks.cpg/sg51_6_cif.got.tgz:10080.got - 2010.06.03 11:52:47.
