data_PCOD9401868
_publ_section_title
;
Structure prediction by ZEFSAII (Michael W. Deem and Ramdas Pophale) SiO2 
 PCOD9401868
Probable space group: P M M A
;
_chemical_formula_sum "Si O2"
_cell_formula_units_Z 64
_cell_length_a 18.004291
_cell_length_b 7.950539
_cell_length_c 22.228735
_cell_angle_alpha 90.000000
_cell_angle_beta 90.000000
_cell_angle_gamma 90.000000
_cell_volume 3181.905992
_symmetry_space_group_name_H-M "P M M A"
_symmetry_group_IT_number 51
_symmetry_cell_setting 'orthorhombic'
loop_
_space_group_symop_operation_xyz
x,y,z
1/2-x,-y,z
1/2+x,-y,-z
-x,y,-z
-x,-y,-z
1/2+x,y,-z
1/2-x,y,z
x,-y,z
loop_
_atom_site_type_symbol
_atom_site_label
_atom_site_fract_x
_atom_site_fract_y
_atom_site_fract_z
Si Si1 0.058236 0.196749 0.396284
Si Si2 0.607637 0.305428 0.378376
Si Si3 0.983674 0.205989 0.067587
Si Si4 0.096982 0.701185 0.753691
Si Si5 0.558852 0.198245 0.811441
Si Si6 0.830672 0.203052 0.125212
Si Si7 0.168196 0.198324 0.496497
Si Si8 0.835429 0.697419 0.709798
O O1 0.103710 0.266155 0.453432
O O2 0.112828 0.212072 0.339219
O O3 0.981233 0.290912 0.386155
O O4 0.039173 0.000000 0.405919
O O5 0.630440 0.500000 0.380361
O O6 0.622244 0.236475 0.311583
O O7 0.646926 0.217789 0.434131
O O8 0.901429 0.261670 0.087295
O O9 0.039594 0.259889 0.121015
O O10 0.984949 0.000000 0.068283
O O11 0.000000 0.261033 0.000000
O O12 0.087367 0.500000 0.749686
O O13 0.153830 0.744187 0.806387
O O14 0.017474 0.775204 0.773879
O O15 0.625459 0.280634 0.774524
O O16 0.573892 0.000000 0.814516
O O17 0.750000 0.262828 0.104817
O O18 0.831319 0.000000 0.122995
O O19 0.250000 0.270847 0.484439
O O20 0.171434 0.000000 0.482296
O O21 0.750000 0.756871 0.709162
O O22 0.835916 0.500000 0.694620
#
# Coordination Sequence:
#
# PCOD9401868 Si02
#       8
#     8   8   8   8   8   8   8   8
#     4  11  22  38  61  83 106 140 185 232 278 330
#     4  11  23  37  56  82 110 142 181 224 275 335
#     4   8  15  30  53  81 111 143 182 228 276 321
#     4  10  20  34  53  77 108 142 176 220 273 325
#     4  10  19  33  56  82 108 141 181 223 267 320
#     4   9  18  32  52  79 109 143 186 231 275 324
#     4  10  23  41  57  77 107 142 182 230 281 329
#     4  11  23  37  55  81 113 147 181 224 279 330
#
# _framework density 20.11373
#
# number of rings (size 3 to 8) (size 9 to 14) (size 15 to 20)
#    0.000    2.000    1.250    3.375    0.000    6.500 
#    0.000    3.125    0.000   11.625    0.000    0.000 
#    0.000    0.000    0.000    0.000    0.000    0.000 
#
# Total GULP energy -357360.177123 kJ/mol
# GULP energy per Si atom -5583.752768 kJ/mol
# Density = 2.006795 g / cm^3
# Si number density = 20.113730 Si / 1000 Ang^3
#
#
#
# Elastic Constant Matrix: (Units=GPa)
#
#
# Indices 1 2 3 4 5 6 
#
# 1 41.7665 -10.6417 2.9031 0.0000 0.0000 0.0000
# 2 -10.6417 21.2485 -11.3795 0.0000 0.0000 0.0000
# 3 2.9031 -11.3795 106.3965 0.0000 0.0000 0.0000
# 4 0.0000 0.0000 0.0000 47.7674 0.0000 0.0000
# 5 0.0000 0.0000 0.0000 0.0000 12.5377 0.0000
# 6 0.0000 0.0000 0.0000 0.0000 0.0000 -2.1604
#
#
#
# Elastic Compliance Matrix: (Units=1/GPa)
#
#
# Indices 1 2 3 4 5 6 
#
# 1 0.027504 0.014185 0.000767 0.000000 0.000000 0.000000
# 2 0.014185 0.057237 0.005735 0.000000 0.000000 0.000000
# 3 0.000767 0.005735 0.009991 0.000000 0.000000 0.000000
# 4 0.000000 0.000000 0.000000 0.020935 0.000000 0.000000
# 5 0.000000 0.000000 0.000000 0.000000 0.079760 0.000000
# 6 0.000000 0.000000 0.000000 0.000000 0.000000 -0.462870
#
#
# Mechanical properties :
#
#
# Convention : Reuss Voigt Hill
#
# Bulk Modulus (GPa) = 7.34729 14.57504 10.96116
# Shear Modulus (GPa) = -18.97912 24.19758 2.60923
#
# Velocity S-wave (km/s) = -3.07512 3.47225 1.14020
# Velocity P-wave (km/s) = 2.99127 4.83088 2.68232
#
# Compressibility (1/GPa) = 0.13610470
#
# Stress axis : x y z
#
# Youngs Moduli (GPa) = 36.35898 17.47111 100.08781
#
# Poissons Ratio (x) = -0.24783 -0.07674
# Poissons Ratio (y) = -0.51575 -0.57397
# Poissons Ratio (z) = -0.02788 -0.10019
#
# Static dielectric constant tensor:
#      x y z
#    x 1.705200 0.000000 0.000000 
#    y 0.000000 1.718030 0.000000 
#    z 0.000000 0.000000 1.709630 
# 
# From -- ./inp_files/33789.got.cif
#   From: 2010.05.17/outbox.cif.g08.bks.cpg/sg51_17_cif.got.tgz:33789.got - 2010.06.03 11:52:47.
