data_PCOD9401298
_publ_section_title
;
Structure prediction by ZEFSAII (Michael W. Deem and Ramdas Pophale) SiO2 
 PCOD9401298
Probable space group: P M M A
;
_chemical_formula_sum "Si O2"
_cell_formula_units_Z 64
_cell_length_a 17.022889
_cell_length_b 23.938779
_cell_length_c 9.037520
_cell_angle_alpha 90.000000
_cell_angle_beta 90.000000
_cell_angle_gamma 90.000000
_cell_volume 3682.854269
_symmetry_space_group_name_H-M "P M M A"
_symmetry_group_IT_number 51
_symmetry_cell_setting 'orthorhombic'
loop_
_space_group_symop_operation_xyz
x,y,z
1/2-x,-y,z
1/2+x,-y,-z
-x,y,-z
-x,-y,-z
1/2+x,y,-z
1/2-x,y,z
x,-y,z
loop_
_atom_site_type_symbol
_atom_site_label
_atom_site_fract_x
_atom_site_fract_y
_atom_site_fract_z
Si Si1 0.486401 0.368893 0.672380
Si Si2 0.604975 0.935598 0.346810
Si Si3 0.660232 0.566948 0.189400
Si Si4 0.077209 0.160813 0.099266
Si Si5 0.578634 0.437004 0.898011
Si Si6 0.515261 0.763570 0.327068
Si Si7 0.838896 0.174149 0.193972
Si Si8 0.084779 0.935902 0.314035
O O1 0.500000 0.379069 0.500000
O O2 0.405518 0.398325 0.723753
O O3 0.557076 0.395575 0.767305
O O4 0.484191 0.302620 0.698422
O O5 0.645900 0.889845 0.245095
O O6 0.617293 0.923749 0.521602
O O7 0.510552 0.931741 0.323986
O O8 0.627751 0.000000 0.317833
O O9 0.750000 0.579193 0.231135
O O10 0.646329 0.500000 0.208414
O O11 0.646064 0.578374 0.014500
O O12 0.108343 0.108024 0.190393
O O13 0.047100 0.205886 0.219228
O O14 0.139375 0.180788 0.978501
O O15 0.000000 0.145674 0.000000
O O16 0.591783 0.500000 0.842481
O O17 0.500000 0.438151 0.000000
O O18 0.500000 0.775114 0.500000
O O19 0.598945 0.789349 0.284199
O O20 0.750000 0.189811 0.223892
O O21 0.104099 0.000000 0.277813
#
# Coordination Sequence:
#
# PCOD9401298 Si02
#       8
#     8   8   8   8   8   8   8   8
#     4  10  20  33  54  81 105 133 173 224 266 302
#     4   9  17  31  53  78 104 134 169 206 249 307
#     4   9  18  33  53  78 110 146 178 208 249 305
#     4  10  19  32  52  76 102 130 167 212 256 308
#     4   8  15  29  50  76 105 137 173 205 242 297
#     4  10  21  39  58  74  98 136 182 218 256 309
#     4  11  23  36  52  78 107 133 166 215 270 312
#     4   9  16  29  53  80 100 129 174 211 242 300
#
# _framework density 17.377825999999999
#
# number of rings (size 3 to 8) (size 9 to 14) (size 15 to 20)
#    0.000    2.500    2.500    2.625    0.000    7.000 
#    0.000    3.125    0.000    3.750    0.000    0.000 
#    0.000    0.000    0.000    0.000    0.000    0.000 
#
# Total GULP energy -356767.865890 kJ/mol
# GULP energy per Si atom -5574.497905 kJ/mol
# Density = 1.733827 g / cm^3
# Si number density = 17.377826 Si / 1000 Ang^3
#
#
#
# Elastic Constant Matrix: (Units=GPa)
#
#
# Indices 1 2 3 4 5 6 
#
# 1 61.5971 38.8703 37.6054 0.0000 0.0000 0.0000
# 2 38.8703 91.8270 81.0235 0.0000 0.0000 0.0000
# 3 37.6054 81.0235 109.1490 0.0000 0.0000 0.0000
# 4 0.0000 0.0000 0.0000 49.9127 0.0000 0.0000
# 5 0.0000 0.0000 0.0000 0.0000 11.1671 0.0000
# 6 0.0000 0.0000 0.0000 0.0000 0.0000 6.5106
#
#
#
# Elastic Compliance Matrix: (Units=1/GPa)
#
#
# Indices 1 2 3 4 5 6 
#
# 1 0.022295 -0.007709 -0.001959 0.000000 0.000000 0.000000
# 2 -0.007709 0.034230 -0.022753 0.000000 0.000000 0.000000
# 3 -0.001959 -0.022753 0.026727 0.000000 0.000000 0.000000
# 4 0.000000 0.000000 0.000000 0.020035 0.000000 0.000000
# 5 0.000000 0.000000 0.000000 0.000000 0.089548 0.000000
# 6 0.000000 0.000000 0.000000 0.000000 0.000000 0.153595
#
#
# Mechanical properties :
#
#
# Convention : Reuss Voigt Hill
#
# Bulk Modulus (GPa) = 54.32059 64.17462 59.24761
# Shear Modulus (GPa) = 11.97865 20.52302 16.25084
#
# Velocity S-wave (km/s) = 2.62831 3.44028 3.06134
# Velocity P-wave (km/s) = 6.36688 7.26567 6.83107
#
# Compressibility (1/GPa) = 0.01840922
#
# Stress axis : x y z
#
# Youngs Moduli (GPa) = 44.85269 29.21423 37.41553
#
# Poissons Ratio (x) = 0.22522 0.07328
# Poissons Ratio (y) = 0.34579 0.85133
# Poissons Ratio (z) = 0.08785 0.66472
#
# Static dielectric constant tensor:
#      x y z
#    x 1.591840 0.000000 0.000000 
#    y 0.000000 1.592460 0.000000 
#    z 0.000000 0.000000 1.596700 
# 
# From -- ./inp_files/10100.got.cif
#   From: 2010.05.17/outbox.cif.g08.bks.cpg/sg51_6_cif.got.tgz:10100.got - 2010.06.03 11:52:47.
