data_PCOD9401824
_publ_section_title
;
Structure prediction by ZEFSAII (Michael W. Deem and Ramdas Pophale) SiO2 
 PCOD9401824
Probable space group: P M M A
;
_chemical_formula_sum "Si O2"
_cell_formula_units_Z 64
_cell_length_a 19.303369
_cell_length_b 7.784330
_cell_length_c 20.615176
_cell_angle_alpha 90.000000
_cell_angle_beta 90.000000
_cell_angle_gamma 90.000000
_cell_volume 3097.714568
_symmetry_space_group_name_H-M "P M M A"
_symmetry_group_IT_number 51
_symmetry_cell_setting 'orthorhombic'
loop_
_space_group_symop_operation_xyz
x,y,z
1/2-x,-y,z
1/2+x,-y,-z
-x,y,-z
-x,-y,-z
1/2+x,y,-z
1/2-x,y,z
x,-y,z
loop_
_atom_site_type_symbol
_atom_site_label
_atom_site_fract_x
_atom_site_fract_y
_atom_site_fract_z
Si Si1 0.416788 0.789817 0.838900
Si Si2 0.171080 0.710771 0.476443
Si Si3 0.076838 0.703941 0.595081
Si Si4 0.828693 0.296380 0.892207
Si Si5 0.921309 0.792156 0.015089
Si Si6 0.828678 0.208102 0.283129
Si Si7 0.436457 0.200753 0.217196
Si Si8 0.926890 0.295915 0.634724
O O1 0.402909 0.733719 0.912329
O O2 0.360524 0.737613 0.785776
O O3 0.492363 0.729435 0.814320
O O4 0.418008 0.000000 0.840342
O O5 0.250000 0.768989 0.485025
O O6 0.172897 0.500000 0.478394
O O7 0.120297 0.770643 0.533974
O O8 0.137120 0.766503 0.408467
O O9 0.069119 0.500000 0.583907
O O10 0.121936 0.730342 0.659512
O O11 0.000088 0.775719 0.608087
O O12 0.750000 0.228886 0.893718
O O13 0.825701 0.500000 0.882399
O O14 0.874622 0.224065 0.833582
O O15 0.868739 0.263185 0.959368
O O16 0.921917 0.000000 0.014388
O O17 0.000000 0.735482 0.000000
O O18 0.750000 0.267373 0.292067
O O19 0.828935 0.000000 0.284386
O O20 0.421465 0.271030 0.288474
O O21 0.448801 0.000000 0.226777
O O22 0.929454 0.500000 0.624106
#
# Coordination Sequence:
#
# PCOD9401824 Si02
#       8
#     8   8   8   8   8   8   8   8
#     4   9  18  34  56  82 112 144 183 229 276 331
#     4   9  18  33  53  77 109 148 188 233 286 341
#     4  10  19  33  55  81 109 144 187 232 279 340
#     4  11  25  42  59  86 123 156 190 238 293 344
#     4  10  19  36  62  89 113 146 192 238 281 335
#     4  10  20  34  53  79 112 148 183 224 279 336
#     4  11  21  38  62  85 113 150 193 239 282 336
#     4  10  20  34  55  84 112 144 189 239 290 341
#
# _framework density 20.660392000000002
#
# number of rings (size 3 to 8) (size 9 to 14) (size 15 to 20)
#    0.000    2.000    2.500    1.500    0.000    4.500 
#    0.000    3.750    0.000    2.250    0.000    0.000 
#    0.000    0.000    0.000    0.000    0.000    0.000 
#
# Total GULP energy -357458.352235 kJ/mol
# GULP energy per Si atom -5585.286754 kJ/mol
# Density = 2.061337 g / cm^3
# Si number density = 20.660392 Si / 1000 Ang^3
#
#
#
# Elastic Constant Matrix: (Units=GPa)
#
#
# Indices 1 2 3 4 5 6 
#
# 1 74.1699 -5.8326 31.1710 0.0000 0.0000 0.0000
# 2 -5.8326 22.4310 -10.3560 0.0000 0.0000 0.0000
# 3 31.1710 -10.3560 128.9355 0.0000 0.0000 0.0000
# 4 0.0000 0.0000 0.0000 26.9954 0.0000 0.0000
# 5 0.0000 0.0000 0.0000 0.0000 28.6411 0.0000
# 6 0.0000 0.0000 0.0000 0.0000 0.0000 14.8996
#
#
#
# Elastic Compliance Matrix: (Units=1/GPa)
#
#
# Indices 1 2 3 4 5 6 
#
# 1 0.015124 0.002331 -0.003469 0.000000 0.000000 0.000000
# 2 0.002331 0.046657 0.003184 0.000000 0.000000 0.000000
# 3 -0.003469 0.003184 0.008850 0.000000 0.000000 0.000000
# 4 0.000000 0.000000 0.000000 0.037043 0.000000 0.000000
# 5 0.000000 0.000000 0.000000 0.000000 0.034915 0.000000
# 6 0.000000 0.000000 0.000000 0.000000 0.000000 0.067116
#
#
# Mechanical properties :
#
#
# Convention : Reuss Voigt Hill
#
# Bulk Modulus (GPa) = 13.38277 28.38902 20.88589
# Shear Modulus (GPa) = 21.68996 28.14415 24.91705
#
# Velocity S-wave (km/s) = 3.24363 3.69484 3.47656
# Velocity P-wave (km/s) = 4.52987 5.65447 5.12312
#
# Compressibility (1/GPa) = 0.07472294
#
# Stress axis : x y z
#
# Youngs Moduli (GPa) = 66.12100 21.43289 112.99160
#
# Poissons Ratio (x) = -0.04996 0.39197
# Poissons Ratio (y) = -0.15412 -0.35976
# Poissons Ratio (z) = 0.22938 -0.06824
#
# Static dielectric constant tensor:
#      x y z
#    x 1.726290 0.000000 0.000000 
#    y 0.000000 1.779970 0.000000 
#    z 0.000000 0.000000 1.705110 
# 
# From -- ./inp_files/33979.got.cif
#   From: 2010.05.17/outbox.cif.g08.bks.cpg/sg51_17_cif.got.tgz:33979.got - 2010.06.03 11:52:47.
