data_PCOD9401118
_publ_section_title
;
Structure prediction by ZEFSAII (Michael W. Deem and Ramdas Pophale) SiO2 
 PCOD9401118
Probable space group: P M M A
;
_chemical_formula_sum "Si O2"
_cell_formula_units_Z 48
_cell_length_a 9.397322
_cell_length_b 14.717290
_cell_length_c 18.787723
_cell_angle_alpha 90.000000
_cell_angle_beta 90.000000
_cell_angle_gamma 90.000000
_cell_volume 2598.400579
_symmetry_space_group_name_H-M "P M M A"
_symmetry_group_IT_number 51
_symmetry_cell_setting 'orthorhombic'
loop_
_space_group_symop_operation_xyz
x,y,z
1/2-x,-y,z
1/2+x,-y,-z
-x,y,-z
-x,-y,-z
1/2+x,y,-z
1/2-x,y,z
x,-y,z
loop_
_atom_site_type_symbol
_atom_site_label
_atom_site_fract_x
_atom_site_fract_y
_atom_site_fract_z
Si Si1 0.909596 0.638848 0.566217
Si Si2 0.581835 0.893717 0.733340
Si Si3 0.084273 0.743453 0.820180
Si Si4 0.585905 0.858355 0.570312
Si Si5 0.403754 0.401557 0.696012
Si Si6 0.078718 0.394982 0.076145
O O1 0.750000 0.609681 0.557535
O O2 0.915158 0.748730 0.568283
O O3 0.000000 0.607224 0.500000
O O4 0.973842 0.605674 0.639373
O O5 0.750000 0.866787 0.734697
O O6 0.493767 0.832803 0.789069
O O7 0.533837 0.883340 0.650119
O O8 0.571689 0.000000 0.751305
O O9 0.250000 0.759406 0.842396
O O10 0.088542 0.677242 0.752340
O O11 0.993739 0.684510 0.876912
O O12 0.500000 0.889285 0.500000
O O13 0.750000 0.889140 0.564856
O O14 0.250000 0.393996 0.658206
O O15 0.408553 0.500000 0.731827
O O16 0.250000 0.381487 0.070412
O O17 0.058047 0.500000 0.103090
O O18 0.000000 0.391780 0.000000
#
# Coordination Sequence:
#
# PCOD9401118 Si02
#       6
#     8   8   8   8   8   8
#     4  10  19  32  50  70  97 134 179 229 281 337
#     4  10  21  38  58  81 112 150 194 243 295 351
#     4  11  22  37  59  85 118 153 188 233 284 337
#     4   9  18  32  51  75 103 137 182 237 297 354
#     4  10  21  35  51  74 104 140 182 226 275 331
#     4  10  21  38  63  95 129 162 195 229 269 324
#
# _framework density 18.472902000000001
#
# number of rings (size 3 to 8) (size 9 to 14) (size 15 to 20)
#    0.000    2.000    1.667    2.000    0.000    5.000 
#    0.000    0.000    0.000    0.500    0.000    0.000 
#    0.000    0.000    0.000    0.000    0.000    0.000 
#
# Total GULP energy -267632.989185 kJ/mol
# GULP energy per Si atom -5575.687275 kJ/mol
# Density = 1.843086 g / cm^3
# Si number density = 18.472902 Si / 1000 Ang^3
#
#
#
# Elastic Constant Matrix: (Units=GPa)
#
#
# Indices 1 2 3 4 5 6 
#
# 1 131.0441 45.4574 61.7335 0.0000 0.0000 0.0000
# 2 45.4574 97.8206 34.7449 0.0000 0.0000 0.0000
# 3 61.7335 34.7449 81.3735 0.0000 0.0000 0.0000
# 4 0.0000 0.0000 0.0000 7.8668 0.0000 0.0000
# 5 0.0000 0.0000 0.0000 0.0000 32.9709 0.0000
# 6 0.0000 0.0000 0.0000 0.0000 0.0000 17.5869
#
#
#
# Elastic Compliance Matrix: (Units=1/GPa)
#
#
# Indices 1 2 3 4 5 6 
#
# 1 0.012529 -0.002883 -0.008274 0.000000 0.000000 0.000000
# 2 -0.002883 0.012714 -0.003241 0.000000 0.000000 0.000000
# 3 -0.008274 -0.003241 0.019950 0.000000 0.000000 0.000000
# 4 0.000000 0.000000 0.000000 0.127117 0.000000 0.000000
# 5 0.000000 0.000000 0.000000 0.000000 0.030330 0.000000
# 6 0.000000 0.000000 0.000000 0.000000 0.000000 0.056861
#
#
# Mechanical properties :
#
#
# Convention : Reuss Voigt Hill
#
# Bulk Modulus (GPa) = 60.99076 66.01219 63.50147
# Shear Modulus (GPa) = 17.02060 22.90507 19.96283
#
# Velocity S-wave (km/s) = 3.03872 3.52508 3.29090
# Velocity P-wave (km/s) = 6.73794 7.23743 6.99215
#
# Compressibility (1/GPa) = 0.01639593
#
# Stress axis : x y z
#
# Youngs Moduli (GPa) = 79.81510 78.65377 50.12584
#
# Poissons Ratio (x) = 0.22679 0.41473
# Poissons Ratio (y) = 0.23014 0.16246
# Poissons Ratio (z) = 0.66038 0.25493
#
# Static dielectric constant tensor:
#      x y z
#    x 1.644760 0.000000 0.000000 
#    y 0.000000 1.656500 0.000000 
#    z 0.000000 0.000000 1.609910 
# 
# From -- ./inp_files/27561.got.cif
#   From: 2010.05.17/outbox.cif.g08.bks.cpg/sg51_14_cif.got.tgz:27561.got - 2010.06.03 11:52:47.
