data_PCOD9401253
_publ_section_title
;
Structure prediction by ZEFSAII (Michael W. Deem and Ramdas Pophale) SiO2 
 PCOD9401253
Probable space group: P M M A
;
_chemical_formula_sum "Si O2"
_cell_formula_units_Z 40
_cell_length_a 8.603660
_cell_length_b 26.683443
_cell_length_c 9.885501
_cell_angle_alpha 90.000000
_cell_angle_beta 90.000000
_cell_angle_gamma 90.000000
_cell_volume 2269.466573
_symmetry_space_group_name_H-M "P M M A"
_symmetry_group_IT_number 51
_symmetry_cell_setting 'orthorhombic'
loop_
_space_group_symop_operation_xyz
x,y,z
1/2-x,-y,z
1/2+x,-y,-z
-x,y,-z
-x,-y,-z
1/2+x,y,-z
1/2-x,y,z
x,-y,z
loop_
_atom_site_type_symbol
_atom_site_label
_atom_site_fract_x
_atom_site_fract_y
_atom_site_fract_z
Si Si1 0.435647 0.249790 0.651405
Si Si2 0.563763 0.442479 0.151183
Si Si3 0.937465 0.053755 0.846512
Si Si4 0.435371 0.358408 0.349436
Si Si5 0.437381 0.835965 0.153622
O O1 0.500000 0.240890 0.500000
O O2 0.250000 0.250643 0.647181
O O3 0.497539 0.304484 0.694770
O O4 0.494860 0.207218 0.752440
O O5 0.750000 0.437345 0.151112
O O6 0.525581 0.500000 0.190261
O O7 0.490057 0.402355 0.251244
O O8 0.500000 0.434701 0.000000
O O9 0.750000 0.053687 0.849906
O O10 0.983866 0.108358 0.791840
O O11 0.987403 0.000000 0.784288
O O12 0.000000 0.053419 0.000000
O O13 0.500000 0.367654 0.500000
O O14 0.250000 0.355467 0.354093
O O15 0.250000 0.832859 0.151139
O O16 0.500000 0.831448 0.000000
#
# Coordination Sequence:
#
# PCOD9401253 Si02
#       5
#     8   8   8   8   8
#     4  11  22  38  57  77 104 138 176 217 266 318
#     4  10  21  38  59  84 114 146 179 216 261 311
#     4   8  14  25  43  68  99 133 167 207 255 305
#     4  11  22  38  59  82 108 139 178 220 263 311
#     4  10  19  32  51  78 108 137 174 217 261 310
#
# _framework density 17.625287
#
# number of rings (size 3 to 8) (size 9 to 14) (size 15 to 20)
#    0.000    2.000    0.000    6.000    0.000    3.200 
#    0.000    4.000    0.000    0.600    0.000    0.000 
#    0.000    0.000    0.000    0.000    0.000    0.000 
#
# Total GULP energy -223117.536107 kJ/mol
# GULP energy per Si atom -5577.938403 kJ/mol
# Density = 1.758517 g / cm^3
# Si number density = 17.625287 Si / 1000 Ang^3
#
#
#
# Elastic Constant Matrix: (Units=GPa)
#
#
# Indices 1 2 3 4 5 6 
#
# 1 120.2648 80.9491 42.4465 0.0000 0.0000 0.0000
# 2 80.9491 209.0327 99.2375 0.0000 0.0000 0.0000
# 3 42.4465 99.2375 60.9511 0.0000 0.0000 0.0000
# 4 0.0000 0.0000 0.0000 -35.4460 0.0000 0.0000
# 5 0.0000 0.0000 0.0000 0.0000 28.9788 0.0000
# 6 0.0000 0.0000 0.0000 0.0000 0.0000 51.9944
#
#
#
# Elastic Compliance Matrix: (Units=1/GPa)
#
#
# Indices 1 2 3 4 5 6 
#
# 1 0.011396 -0.002843 -0.003307 0.000000 0.000000 0.000000
# 2 -0.002843 0.021780 -0.033481 0.000000 0.000000 0.000000
# 3 -0.003307 -0.033481 0.073222 0.000000 0.000000 0.000000
# 4 0.000000 0.000000 0.000000 -0.028212 0.000000 0.000000
# 5 0.000000 0.000000 0.000000 0.000000 0.034508 0.000000
# 6 0.000000 0.000000 0.000000 0.000000 0.000000 0.019233
#
#
# Mechanical properties :
#
#
# Convention : Reuss Voigt Hill
#
# Bulk Modulus (GPa) = 36.85271 92.83500 64.84385
# Shear Modulus (GPa) = 22.70302 20.27980 21.49141
#
# Velocity S-wave (km/s) = 3.59290 3.39574 3.49571
# Velocity P-wave (km/s) = 6.17788 8.25594 7.29132
#
# Compressibility (1/GPa) = 0.02713504
#
# Stress axis : x y z
#
# Youngs Moduli (GPa) = 87.75116 45.91374 13.65705
#
# Poissons Ratio (x) = 0.13053 0.04517
# Poissons Ratio (y) = 0.24947 0.45725
# Poissons Ratio (z) = 0.29022 1.53725
#
# Static dielectric constant tensor:
#      x y z
#    x 1.589380 0.000000 0.000000 
#    y 0.000000 1.634630 0.000000 
#    z 0.000000 0.000000 1.651820 
# 
# From -- ./inp_files/5257.got.cif
#   From: 2010.05.17/outbox.cif.g08.bks.cpg/sg51_3_cif.got.tgz:5257.got - 2010.06.03 11:52:47.
