data_PCOD9401140
_publ_section_title
;
Structure prediction by ZEFSAII (Michael W. Deem and Ramdas Pophale) SiO2 
 PCOD9401140
Probable space group: P M M A
;
_chemical_formula_sum "Si O2"
_cell_formula_units_Z 56
_cell_length_a 8.997263
_cell_length_b 18.926773
_cell_length_c 19.391009
_cell_angle_alpha 90.000000
_cell_angle_beta 90.000000
_cell_angle_gamma 90.000000
_cell_volume 3302.078526
_symmetry_space_group_name_H-M "P M M A"
_symmetry_group_IT_number 51
_symmetry_cell_setting 'orthorhombic'
loop_
_space_group_symop_operation_xyz
x,y,z
1/2-x,-y,z
1/2+x,-y,-z
-x,y,-z
-x,-y,-z
1/2+x,y,-z
1/2-x,y,z
x,-y,z
loop_
_atom_site_type_symbol
_atom_site_label
_atom_site_fract_x
_atom_site_fract_y
_atom_site_fract_z
Si Si1 0.928159 0.708630 0.786785
Si Si2 0.573185 0.583237 0.286501
Si Si3 0.928701 0.082361 0.427124
Si Si4 0.579583 0.414051 0.569676
Si Si5 0.928731 0.840156 0.287156
Si Si6 0.572497 0.214255 0.927249
Si Si7 0.071866 0.081066 0.160663
O O1 0.750000 0.710002 0.780531
O O2 0.968046 0.734151 0.863948
O O3 0.992728 0.632627 0.768369
O O4 0.998330 0.765954 0.734484
O O5 0.750000 0.593126 0.284531
O O6 0.541532 0.500000 0.276503
O O7 0.510850 0.604112 0.361799
O O8 0.750000 0.085046 0.433072
O O9 0.972063 0.130921 0.362462
O O10 0.000000 0.103169 0.500000
O O11 0.969829 0.000000 0.413588
O O12 0.500000 0.389105 0.500000
O O13 0.750000 0.389958 0.573819
O O14 0.582050 0.500000 0.566639
O O15 0.750000 0.834873 0.284127
O O16 0.986758 0.894919 0.229377
O O17 0.750000 0.216522 0.934819
O O18 0.531170 0.136049 0.899517
O O19 0.500000 0.230671 0.000000
O O20 0.250000 0.089016 0.172678
O O21 0.041104 0.000000 0.143591
#
# Coordination Sequence:
#
# PCOD9401140 Si02
#       7
#     8   8   8   8   8   8   8
#     4  10  21  37  55  76 102 132 167 204 248 305
#     4  10  20  34  54  80 106 132 167 211 256 303
#     4   9  18  31  47  69  97 130 170 215 259 300
#     4   9  16  27  45  70 101 135 167 200 241 289
#     4  10  19  32  50  72  99 130 169 215 257 300
#     4   9  19  34  52  75 102 133 167 203 245 296
#     4   9  18  32  49  72 103 136 169 205 247 297
#
# _framework density 16.959015000000001
#
# number of rings (size 3 to 8) (size 9 to 14) (size 15 to 20)
#    0.000    2.571    0.000    3.000    0.000    7.714 
#    0.000    2.143    0.000    2.143    0.000    0.000 
#    0.000    0.000    0.000    0.000    0.000    0.000 
#
# Total GULP energy -312308.641014 kJ/mol
# GULP energy per Si atom -5576.940018 kJ/mol
# Density = 1.692042 g / cm^3
# Si number density = 16.959015 Si / 1000 Ang^3
#
#
#
# Elastic Constant Matrix: (Units=GPa)
#
#
# Indices 1 2 3 4 5 6 
#
# 1 57.3837 45.7200 54.1485 0.0000 0.0000 0.0000
# 2 45.7200 75.6058 64.2152 0.0000 0.0000 0.0000
# 3 54.1485 64.2152 140.2391 0.0000 0.0000 0.0000
# 4 0.0000 0.0000 0.0000 10.8748 0.0000 0.0000
# 5 0.0000 0.0000 0.0000 0.0000 32.9717 0.0000
# 6 0.0000 0.0000 0.0000 0.0000 0.0000 25.7047
#
#
#
# Elastic Compliance Matrix: (Units=1/GPa)
#
#
# Indices 1 2 3 4 5 6 
#
# 1 0.037039 -0.016776 -0.006620 0.000000 0.000000 0.000000
# 2 -0.016776 0.029242 -0.006913 0.000000 0.000000 0.000000
# 3 -0.006620 -0.006913 0.012852 0.000000 0.000000 0.000000
# 4 0.000000 0.000000 0.000000 0.091956 0.000000 0.000000
# 5 0.000000 0.000000 0.000000 0.000000 0.030329 0.000000
# 6 0.000000 0.000000 0.000000 0.000000 0.000000 0.038903
#
#
# Mechanical properties :
#
#
# Convention : Reuss Voigt Hill
#
# Bulk Modulus (GPa) = 54.00420 66.82178 60.41299
# Shear Modulus (GPa) = 16.28086 21.18658 18.73372
#
# Velocity S-wave (km/s) = 3.10177 3.53835 3.32723
# Velocity P-wave (km/s) = 6.68887 7.49538 7.10358
#
# Compressibility (1/GPa) = 0.01851708
#
# Stress axis : x y z
#
# Youngs Moduli (GPa) = 26.99864 34.19727 77.80910
#
# Poissons Ratio (x) = 0.57368 0.51508
# Poissons Ratio (y) = 0.45292 0.53786
# Poissons Ratio (z) = 0.17873 0.23639
#
# Static dielectric constant tensor:
#      x y z
#    x 1.565270 0.000000 0.000000 
#    y 0.000000 1.582510 0.000000 
#    z 0.000000 0.000000 1.551880 
# 
# From -- ./inp_files/28230.got.cif
#   From: 2010.05.17/outbox.cif.g08.bks.cpg/sg51_15_cif.got.tgz:28230.got - 2010.06.03 11:52:47.
