data_PCOD9401468
_publ_section_title
;
Structure prediction by ZEFSAII (Michael W. Deem and Ramdas Pophale) SiO2 
 PCOD9401468
Probable space group: P M M A
;
_chemical_formula_sum "Si O2"
_cell_formula_units_Z 48
_cell_length_a 25.458471
_cell_length_b 13.591067
_cell_length_c 7.535262
_cell_angle_alpha 90.000000
_cell_angle_beta 90.000000
_cell_angle_gamma 90.000000
_cell_volume 2607.259315
_symmetry_space_group_name_H-M "P M M A"
_symmetry_group_IT_number 51
_symmetry_cell_setting 'orthorhombic'
loop_
_space_group_symop_operation_xyz
x,y,z
1/2-x,-y,z
1/2+x,-y,-z
-x,y,-z
-x,-y,-z
1/2+x,y,-z
1/2-x,y,z
x,-y,z
loop_
_atom_site_type_symbol
_atom_site_label
_atom_site_fract_x
_atom_site_fract_y
_atom_site_fract_z
Si Si1 0.362377 0.611470 0.250711
Si Si2 0.888659 0.112421 0.973788
Si Si3 0.310126 0.810376 0.312045
Si Si4 0.809631 0.116370 0.298152
Si Si5 0.059517 0.310142 0.961468
Si Si6 0.556837 0.616224 0.424549
O O1 0.342324 0.500000 0.252314
O O2 0.319423 0.696963 0.259414
O O3 0.400316 0.626251 0.421054
O O4 0.399162 0.629349 0.079555
O O5 0.850760 0.132851 0.142051
O O6 0.932317 0.196866 0.980300
O O7 0.907374 0.000000 0.981546
O O8 0.851918 0.128521 0.802194
O O9 0.250000 0.840979 0.277018
O O10 0.320094 0.825751 0.520837
O O11 0.750000 0.139362 0.238237
O O12 0.811185 0.000000 0.341639
O O13 0.069796 0.325684 0.753791
O O14 0.000000 0.342348 0.000000
O O15 0.500000 0.647068 0.500000
O O16 0.553049 0.500000 0.379012
#
# Coordination Sequence:
#
# PCOD9401468 Si02
#       6
#     8   8   8   8   8   8
#     4  10  21  35  52  77 106 136 170 209 255 305
#     4  10  21  35  52  75 104 136 172 213 258 307
#     4  10  20  34  54  78 104 135 170 210 255 305
#     4   9  17  31  53  77  99 126 164 210 255 300
#     4  11  21  34  53  75 103 137 173 213 257 305
#     4  10  19  32  54  79 102 132 172 215 256 303
#
# _framework density 18.410136999999999
#
# number of rings (size 3 to 8) (size 9 to 14) (size 15 to 20)
#    0.000    2.000    1.667    2.500    0.000    3.000 
#    0.000    0.000    0.000    0.500    0.000    4.667 
#    0.000    0.000    0.000    0.000    0.000    0.000 
#
# Total GULP energy -267912.193897 kJ/mol
# GULP energy per Si atom -5581.504040 kJ/mol
# Density = 1.836824 g / cm^3
# Si number density = 18.410137 Si / 1000 Ang^3
#
#
#
# Elastic Constant Matrix: (Units=GPa)
#
#
# Indices 1 2 3 4 5 6 
#
# 1 16.4145 -12.2626 -6.0934 0.0000 0.0000 0.0000
# 2 -12.2626 43.9814 -4.4884 0.0000 0.0000 0.0000
# 3 -6.0934 -4.4884 54.9631 0.0000 0.0000 0.0000
# 4 0.0000 0.0000 0.0000 21.4861 0.0000 0.0000
# 5 0.0000 0.0000 0.0000 0.0000 17.1167 0.0000
# 6 0.0000 0.0000 0.0000 0.0000 0.0000 136.9261
#
#
#
# Elastic Compliance Matrix: (Units=1/GPa)
#
#
# Indices 1 2 3 4 5 6 
#
# 1 0.083293 0.024369 0.011224 0.000000 0.000000 0.000000
# 2 0.024369 0.030057 0.005156 0.000000 0.000000 0.000000
# 3 0.011224 0.005156 0.019859 0.000000 0.000000 0.000000
# 4 0.000000 0.000000 0.000000 0.046542 0.000000 0.000000
# 5 0.000000 0.000000 0.000000 0.000000 0.058422 0.000000
# 6 0.000000 0.000000 0.000000 0.000000 0.000000 0.007303
#
#
# Mechanical properties :
#
#
# Convention : Reuss Voigt Hill
#
# Bulk Modulus (GPa) = 4.65747 7.74112 6.19930
# Shear Modulus (GPa) = 21.22702 44.31934 32.77318
#
# Velocity S-wave (km/s) = 3.39928 4.91178 4.22378
# Velocity P-wave (km/s) = 4.23582 6.03170 5.21170
#
# Compressibility (1/GPa) = 0.21470881
#
# Stress axis : x y z
#
# Youngs Moduli (GPa) = 12.00574 33.26959 50.35389
#
# Poissons Ratio (x) = -0.81074 -0.56518
# Poissons Ratio (y) = -0.29257 -0.25963
# Poissons Ratio (z) = -0.13475 -0.17154
#
# Static dielectric constant tensor:
#      x y z
#    x 1.608880 0.000000 0.000000 
#    y 0.000000 1.642170 0.000000 
#    z 0.000000 0.000000 1.618900 
# 
# From -- ./inp_files/3521.got.cif
#   From: 2010.05.17/outbox.cif.g08.bks.cpg/sg51_2_cif.got.tgz:3521.got - 2010.06.03 11:52:47.
