data_PCOD9401499
_publ_section_title
;
Structure prediction by ZEFSAII (Michael W. Deem and Ramdas Pophale) SiO2 
 PCOD9401499
Probable space group: P M M A
;
_chemical_formula_sum "Si O2"
_cell_formula_units_Z 58
_cell_length_a 27.663846
_cell_length_b 7.455128
_cell_length_c 12.293587
_cell_angle_alpha 90.000000
_cell_angle_beta 90.000000
_cell_angle_gamma 90.000000
_cell_volume 2535.398808
_symmetry_space_group_name_H-M "P M M A"
_symmetry_group_IT_number 51
_symmetry_cell_setting 'orthorhombic'
loop_
_space_group_symop_operation_xyz
x,y,z
1/2-x,-y,z
1/2+x,-y,-z
-x,y,-z
-x,-y,-z
1/2+x,y,-z
1/2-x,y,z
x,-y,z
loop_
_atom_site_type_symbol
_atom_site_label
_atom_site_fract_x
_atom_site_fract_y
_atom_site_fract_z
Si Si1 0.103654 0.285483 0.333207
Si Si2 0.046784 0.205994 0.944584
Si Si3 0.196712 0.785404 0.186118
Si Si4 0.998326 0.717067 0.280200
Si Si5 0.585796 0.717011 0.423726
Si Si6 0.344492 0.780766 0.956877
Si Si7 0.176896 0.206863 0.713864
Si Si8 0.250000 0.500000 0.635926
O O1 0.099357 0.500000 0.338589
O O2 0.152500 0.249891 0.267543
O O3 0.053806 0.220694 0.277748
O O4 0.102142 0.219369 0.457442
O O5 0.099889 0.282733 0.963471
O O6 0.032878 0.209465 0.818815
O O7 0.049603 0.000000 0.984364
O O8 0.000000 0.292982 0.000000
O O9 0.250000 0.719055 0.220219
O O10 0.199565 0.000000 0.178776
O O11 0.183565 0.721151 0.064433
O O12 0.998257 0.500000 0.271471
O O13 0.968648 0.764571 0.388705
O O14 0.588000 0.500000 0.423382
O O15 0.622869 0.784445 0.332995
O O16 0.322495 0.730622 0.840097
O O17 0.345128 0.000000 0.955495
O O18 0.208390 0.342429 0.644020
O O19 0.192971 0.000000 0.709574
#
# Coordination Sequence:
#
# PCOD9401499 Si02
#       8
#     8   8   8   8   8   8   8   2
#     4  10  22  40  61  90 126 167 215 264 324 392
#     4  10  19  32  54  85 122 161 200 250 317 382
#     4  10  22  42  64  86 118 164 216 270 327 385
#     4  10  20  35  60  90 124 167 211 257 323 391
#     4  10  20  40  64  90 128 169 214 271 330 389
#     4   9  19  37  61  87 120 160 206 264 322 383
#     4  11  23  42  67  97 131 169 215 270 334 395
#     4  12  26  44  64  98 130 168 218 272 334 396
#
# _framework density 22.876085
#
# number of rings (size 3 to 8) (size 9 to 14) (size 15 to 20)
#    0.000    1.931    2.069    1.448    0.966    4.414 
#    2.483    0.000    0.000    2.483    0.000    0.000 
#    0.000    0.000    0.000    0.000    0.000    0.000 
#
# Total GULP energy -323536.018970 kJ/mol
# GULP energy per Si atom -5578.207224 kJ/mol
# Density = 2.282402 g / cm^3
# Si number density = 22.876085 Si / 1000 Ang^3
#
#
#
# Elastic Constant Matrix: (Units=GPa)
#
#
# Indices 1 2 3 4 5 6 
#
# 1 149.6519 8.1754 21.3942 0.0000 0.0000 0.0000
# 2 8.1754 88.1495 -10.0701 0.0000 0.0000 0.0000
# 3 21.3942 -10.0701 39.9490 0.0000 0.0000 0.0000
# 4 0.0000 0.0000 0.0000 15.7117 0.0000 0.0000
# 5 0.0000 0.0000 0.0000 0.0000 -7.0788 0.0000
# 6 0.0000 0.0000 0.0000 0.0000 0.0000 65.9181
#
#
#
# Elastic Compliance Matrix: (Units=1/GPa)
#
#
# Indices 1 2 3 4 5 6 
#
# 1 0.007351 -0.001165 -0.004230 0.000000 0.000000 0.000000
# 2 -0.001165 0.011865 0.003615 0.000000 0.000000 0.000000
# 3 -0.004230 0.003615 0.028209 0.000000 0.000000 0.000000
# 4 0.000000 0.000000 0.000000 0.063647 0.000000 0.000000
# 5 0.000000 0.000000 0.000000 0.000000 -0.141267 0.000000
# 6 0.000000 0.000000 0.000000 0.000000 0.000000 0.015170
#
#
# Mechanical properties :
#
#
# Convention : Reuss Voigt Hill
#
# Bulk Modulus (GPa) = 22.79780 35.19437 28.99608
# Shear Modulus (GPa) = 1584.26183 32.12695 808.19439
#
# Velocity S-wave (km/s) = 26.34472 3.75158 18.81646
# Velocity P-wave (km/s) = 30.58397 5.84671 22.01776
#
# Compressibility (1/GPa) = 0.04386389
#
# Stress axis : x y z
#
# Youngs Moduli (GPa) = 136.04406 84.27887 35.45026
#
# Poissons Ratio (x) = 0.09818 0.14996
# Poissons Ratio (y) = 0.15849 -0.12815
# Poissons Ratio (z) = 0.57549 -0.30466
#
# Static dielectric constant tensor:
#      x y z
#    x 1.829780 0.000000 0.000000 
#    y 0.000000 1.875190 0.000000 
#    z 0.000000 0.000000 1.866520 
# 
# From -- ./inp_files/19157.got.cif
#   From: 2010.05.17/outbox.cif.g08.bks.cpg/sg51_10_cif.got.tgz:19157.got - 2010.06.03 11:52:47.
