data_PCOD9401731
_publ_section_title
;
Structure prediction by ZEFSAII (Michael W. Deem and Ramdas Pophale) SiO2 
 PCOD9401731
Probable space group: P M M A
;
_chemical_formula_sum "Si O2"
_cell_formula_units_Z 56
_cell_length_a 16.825719
_cell_length_b 18.052551
_cell_length_c 9.403565
_cell_angle_alpha 90.000000
_cell_angle_beta 90.000000
_cell_angle_gamma 90.000000
_cell_volume 2856.306072
_symmetry_space_group_name_H-M "P M M A"
_symmetry_group_IT_number 51
_symmetry_cell_setting 'orthorhombic'
loop_
_space_group_symop_operation_xyz
x,y,z
1/2-x,-y,z
1/2+x,-y,-z
-x,y,-z
-x,-y,-z
1/2+x,y,-z
1/2-x,y,z
x,-y,z
loop_
_atom_site_type_symbol
_atom_site_label
_atom_site_fract_x
_atom_site_fract_y
_atom_site_fract_z
Si Si1 0.441049 0.303580 0.113449
Si Si2 0.337259 0.142867 0.687416
Si Si3 0.499758 0.143250 0.833134
Si Si4 0.839097 0.706017 0.147218
Si Si5 0.153073 0.416184 0.645128
Si Si6 0.845227 0.588297 0.682003
Si Si7 0.913655 0.915142 0.576281
O O1 0.486326 0.232794 0.181455
O O2 0.397641 0.359262 0.218384
O O3 0.500000 0.341970 0.000000
O O4 0.377281 0.270397 0.001276
O O5 0.250000 0.109970 0.718663
O O6 0.415523 0.114711 0.770372
O O7 0.334642 0.226894 0.742109
O O8 0.356049 0.134179 0.520590
O O9 0.569302 0.108386 0.737469
O O10 0.500000 0.126814 0.000000
O O11 0.750000 0.681734 0.110931
O O12 0.877961 0.639087 0.235299
O O13 0.250000 0.414860 0.648471
O O14 0.127241 0.500000 0.672597
O O15 0.132814 0.396431 0.482848
O O16 0.750000 0.601819 0.700040
O O17 0.857509 0.500000 0.707208
O O18 0.000000 0.909625 0.500000
O O19 0.886913 0.000000 0.567785
#
# Coordination Sequence:
#
# PCOD9401731 Si02
#       7
#     8   8   8   8   8   8   8
#     4  11  21  35  51  78 113 151 188 241 288 349
#     4  10  20  37  60  86 117 154 197 243 290 347
#     4  10  20  39  59  87 123 158 196 240 293 355
#     4  10  19  33  54  80 107 144 192 237 291 346
#     4   8  16  32  53  77 103 133 181 240 289 343
#     4   9  19  36  56  78 106 144 192 245 303 360
#     4   9  20  38  62  89 116 150 189 231 284 346
#
# _framework density 19.605741999999999
#
# number of rings (size 3 to 8) (size 9 to 14) (size 15 to 20)
#    0.000    2.429    2.857    1.286    2.000    1.429 
#    0.000    3.571    0.000    1.714    0.000    0.000 
#    0.000    0.000    0.000    0.000    0.000    0.000 
#
# Total GULP energy -311744.333602 kJ/mol
# GULP energy per Si atom -5566.863100 kJ/mol
# Density = 1.956112 g / cm^3
# Si number density = 19.605742 Si / 1000 Ang^3
#
#
#
# Elastic Constant Matrix: (Units=GPa)
#
#
# Indices 1 2 3 4 5 6 
#
# 1 66.4074 7.7341 32.3426 0.0000 0.0000 0.0000
# 2 7.7341 16.0615 13.7989 0.0000 0.0000 0.0000
# 3 32.3426 13.7989 80.7797 0.0000 0.0000 0.0000
# 4 0.0000 0.0000 0.0000 8.6098 0.0000 0.0000
# 5 0.0000 0.0000 0.0000 0.0000 30.0945 0.0000
# 6 0.0000 0.0000 0.0000 0.0000 0.0000 11.1670
#
#
#
# Elastic Compliance Matrix: (Units=1/GPa)
#
#
# Indices 1 2 3 4 5 6 
#
# 1 0.018832 -0.003036 -0.007021 0.000000 0.000000 0.000000
# 2 -0.003036 0.073459 -0.011333 0.000000 0.000000 0.000000
# 3 -0.007021 -0.011333 0.017126 0.000000 0.000000 0.000000
# 4 0.000000 0.000000 0.000000 0.116146 0.000000 0.000000
# 5 0.000000 0.000000 0.000000 0.000000 0.033229 0.000000
# 6 0.000000 0.000000 0.000000 0.000000 0.000000 0.089550
#
#
# Mechanical properties :
#
#
# Convention : Reuss Voigt Hill
#
# Bulk Modulus (GPa) = 15.00669 30.11109 22.55889
# Shear Modulus (GPa) = 12.09677 17.26581 14.68129
#
# Velocity S-wave (km/s) = 2.48665 2.97080 2.73944
# Velocity P-wave (km/s) = 3.98941 5.21144 4.64083
#
# Compressibility (1/GPa) = 0.06663693
#
# Stress axis : x y z
#
# Youngs Moduli (GPa) = 53.10192 13.61310 58.38940
#
# Poissons Ratio (x) = 0.04133 0.40997
# Poissons Ratio (y) = 0.16121 0.66171
# Poissons Ratio (z) = 0.37284 0.15427
#
# Static dielectric constant tensor:
#      x y z
#    x 1.774970 0.000000 0.000000 
#    y 0.000000 1.687230 0.000000 
#    z 0.000000 0.000000 1.677360 
# 
# From -- ./inp_files/9982.got.cif
#   From: 2010.05.17/outbox.cif.g08.bks.cpg/sg51_5_cif.got.tgz:9982.got - 2010.06.03 11:52:47.
