data_PCOD9401207
_publ_section_title
;
Structure prediction by ZEFSAII (Michael W. Deem and Ramdas Pophale) SiO2 
 PCOD9401207
Probable space group: P M M A
;
_chemical_formula_sum "Si O2"
_cell_formula_units_Z 64
_cell_length_a 17.534744
_cell_length_b 8.810276
_cell_length_c 23.686470
_cell_angle_alpha 90.000000
_cell_angle_beta 90.000000
_cell_angle_gamma 90.000000
_cell_volume 3659.226447
_symmetry_space_group_name_H-M "P M M A"
_symmetry_group_IT_number 51
_symmetry_cell_setting 'orthorhombic'
loop_
_space_group_symop_operation_xyz
x,y,z
1/2-x,-y,z
1/2+x,-y,-z
-x,y,-z
-x,-y,-z
1/2+x,y,-z
1/2-x,y,z
x,-y,z
loop_
_atom_site_type_symbol
_atom_site_label
_atom_site_fract_x
_atom_site_fract_y
_atom_site_fract_z
Si Si1 0.012200 0.681614 0.634847
Si Si2 0.439523 0.679616 0.134207
Si Si3 0.083680 0.182384 0.928898
Si Si4 0.078297 0.173437 0.463735
Si Si5 0.511339 0.182506 0.242176
Si Si6 0.336688 0.316975 0.565730
Si Si7 0.667016 0.183146 0.184220
Si Si8 0.338696 0.180869 0.045039
O O1 0.012120 0.500000 0.638682
O O2 0.999235 0.754855 0.695583
O O3 0.095335 0.728884 0.608907
O O4 0.946558 0.735505 0.591715
O O5 0.441737 0.500000 0.140201
O O6 0.508669 0.736488 0.094050
O O7 0.453497 0.756484 0.194812
O O8 0.365110 0.734669 0.101151
O O9 0.147663 0.212775 0.881302
O O10 0.069921 0.000000 0.929184
O O11 0.111841 0.228137 0.990544
O O12 0.139905 0.250232 0.504763
O O13 0.000000 0.170759 0.500000
O O14 0.099336 0.000000 0.450524
O O15 0.595365 0.235566 0.220925
O O16 0.509682 0.000000 0.241834
O O17 0.250000 0.271513 0.581307
O O18 0.338872 0.500000 0.562527
O O19 0.750000 0.243871 0.200041
O O20 0.668874 0.000000 0.189925
O O21 0.250000 0.205683 0.032642
O O22 0.350597 0.000000 0.052559
#
# Coordination Sequence:
#
# PCOD9401207 Si02
#       8
#     8   8   8   8   8   8   8   8
#     4  10  19  32  51  74 101 134 171 208 248 296
#     4  11  22  35  51  72 101 135 169 207 252 302
#     4   9  17  31  52  75  99 129 166 205 247 300
#     4   9  17  30  49  73 100 131 169 208 241 277
#     4  10  20  34  52  72  96 130 173 215 250 290
#     4   9  18  32  50  75 109 143 168 196 242 296
#     4   8  14  26  45  69  96 126 161 202 246 290
#     4  10  20  34  54  78 101 127 162 206 256 308
#
# _framework density 17.490034000000001
#
# number of rings (size 3 to 8) (size 9 to 14) (size 15 to 20)
#    0.000    2.500    0.000    3.750    0.000    6.500 
#    0.000    0.000    0.000   12.750    0.000    0.000 
#    0.000    0.000    0.000    0.000    0.000    0.000 
#
# Total GULP energy -356846.430753 kJ/mol
# GULP energy per Si atom -5575.725481 kJ/mol
# Density = 1.745023 g / cm^3
# Si number density = 17.490034 Si / 1000 Ang^3
#
#
#
# Elastic Constant Matrix: (Units=GPa)
#
#
# Indices 1 2 3 4 5 6 
#
# 1 20.8896 15.6570 22.4370 0.0000 0.0000 0.0000
# 2 15.6570 51.7552 44.3594 0.0000 0.0000 0.0000
# 3 22.4370 44.3594 130.9941 0.0000 0.0000 0.0000
# 4 0.0000 0.0000 0.0000 23.4800 0.0000 0.0000
# 5 0.0000 0.0000 0.0000 0.0000 9.6856 0.0000
# 6 0.0000 0.0000 0.0000 0.0000 0.0000 -0.7711
#
#
#
# Elastic Compliance Matrix: (Units=1/GPa)
#
#
# Indices 1 2 3 4 5 6 
#
# 1 0.065452 -0.014359 -0.006348 0.000000 0.000000 0.000000
# 2 -0.014359 0.030373 -0.007826 0.000000 0.000000 0.000000
# 3 -0.006348 -0.007826 0.011371 0.000000 0.000000 0.000000
# 4 0.000000 0.000000 0.000000 0.042590 0.000000 0.000000
# 5 0.000000 0.000000 0.000000 0.000000 0.103246 0.000000
# 6 0.000000 0.000000 0.000000 0.000000 0.000000 -1.296851
#
#
# Mechanical properties :
#
#
# Convention : Reuss Voigt Hill
#
# Bulk Modulus (GPa) = 19.94842 40.94953 30.44898
# Shear Modulus (GPa) = -5.15442 14.55792 4.70175
#
# Velocity S-wave (km/s) = -1.71856 2.88819 1.64137
# Velocity P-wave (km/s) = 2.73723 5.88099 4.58685
#
# Compressibility (1/GPa) = 0.05012928
#
# Stress axis : x y z
#
# Youngs Moduli (GPa) = 15.27848 32.92347 87.93959
#
# Poissons Ratio (x) = 0.47276 0.55825
# Poissons Ratio (y) = 0.21939 0.68822
# Poissons Ratio (z) = 0.09699 0.25766
#
# Static dielectric constant tensor:
#      x y z
#    x 1.608680 0.000000 0.000000 
#    y 0.000000 1.590370 0.000000 
#    z 0.000000 0.000000 1.582750 
# 
# From -- ./inp_files/33948.got.cif
#   From: 2010.05.17/outbox.cif.g08.bks.cpg/sg51_17_cif.got.tgz:33948.got - 2010.06.03 11:52:47.
