data_PCOD9401236
_publ_section_title
;
Structure prediction by ZEFSAII (Michael W. Deem and Ramdas Pophale) SiO2 
 PCOD9401236
Probable space group: P M M A
;
_chemical_formula_sum "Si O2"
_cell_formula_units_Z 56
_cell_length_a 8.657444
_cell_length_b 23.152465
_cell_length_c 15.344164
_cell_angle_alpha 90.000000
_cell_angle_beta 90.000000
_cell_angle_gamma 90.000000
_cell_volume 3075.602173
_symmetry_space_group_name_H-M "P M M A"
_symmetry_group_IT_number 51
_symmetry_cell_setting 'orthorhombic'
loop_
_space_group_symop_operation_xyz
x,y,z
1/2-x,-y,z
1/2+x,-y,-z
-x,y,-z
-x,-y,-z
1/2+x,y,-z
1/2-x,y,z
x,-y,z
loop_
_atom_site_type_symbol
_atom_site_label
_atom_site_fract_x
_atom_site_fract_y
_atom_site_fract_z
Si Si1 0.434849 0.236007 0.592995
Si Si2 0.436235 0.433686 0.405426
Si Si3 0.064751 0.843635 0.094758
Si Si4 0.065654 0.893584 0.407554
Si Si5 0.062730 0.331609 0.278856
Si Si6 0.435595 0.709547 0.093756
Si Si7 0.065732 0.935629 0.770323
O O1 0.500000 0.257585 0.500000
O O2 0.250000 0.233425 0.589974
O O3 0.502573 0.171774 0.604522
O O4 0.492793 0.277861 0.668642
O O5 0.500000 0.415949 0.500000
O O6 0.250000 0.432864 0.409660
O O7 0.485566 0.500000 0.389458
O O8 0.484202 0.389466 0.330082
O O9 0.250000 0.846270 0.094516
O O10 0.018390 0.776645 0.109589
O O11 0.000222 0.886066 0.167715
O O12 0.000000 0.860237 0.000000
O O13 0.250000 0.892454 0.410758
O O14 0.000000 0.914754 0.500000
O O15 0.006492 0.928949 0.325233
O O16 0.250000 0.327308 0.282319
O O17 0.016027 0.327279 0.177800
O O18 0.250000 0.708332 0.088761
O O19 0.500000 0.691498 0.000000
O O20 0.250000 0.929335 0.763892
O O21 0.030877 0.000000 0.804600
#
# Coordination Sequence:
#
# PCOD9401236 Si02
#       7
#     8   8   8   8   8   8   8
#     4  11  21  33  51  77 108 138 170 210 260 316
#     4   9  18  32  50  73 104 143 183 221 261 307
#     4  10  20  36  58  81 106 136 171 213 267 325
#     4  11  22  38  58  78 104 138 175 215 262 314
#     4  10  19  32  51  76 106 138 176 220 265 312
#     4   9  19  34  53  77 103 132 166 210 260 313
#     4  11  24  40  57  79 106 136 174 218 262 313
#
# _framework density 18.207816999999999
#
# number of rings (size 3 to 8) (size 9 to 14) (size 15 to 20)
#    0.000    1.857    0.000    5.571    0.000    5.714 
#    0.000    0.000    0.000    0.429    0.000    0.000 
#    0.000    0.000    0.000    0.000    0.000    0.000 
#
# Total GULP energy -312827.975154 kJ/mol
# GULP energy per Si atom -5586.213842 kJ/mol
# Density = 1.816638 g / cm^3
# Si number density = 18.207817 Si / 1000 Ang^3
#
#
#
# Elastic Constant Matrix: (Units=GPa)
#
#
# Indices 1 2 3 4 5 6 
#
# 1 57.5258 24.7966 34.1378 0.0000 0.0000 0.0000
# 2 24.7966 61.6940 65.5838 0.0000 0.0000 0.0000
# 3 34.1378 65.5838 152.6411 0.0000 0.0000 0.0000
# 4 0.0000 0.0000 0.0000 -57.6687 0.0000 0.0000
# 5 0.0000 0.0000 0.0000 0.0000 33.6468 0.0000
# 6 0.0000 0.0000 0.0000 0.0000 0.0000 -5.9723
#
#
#
# Elastic Compliance Matrix: (Units=1/GPa)
#
#
# Indices 1 2 3 4 5 6 
#
# 1 0.021354 -0.006454 -0.002003 0.000000 0.000000 0.000000
# 2 -0.006454 0.031788 -0.012214 0.000000 0.000000 0.000000
# 3 -0.002003 -0.012214 0.012247 0.000000 0.000000 0.000000
# 4 0.000000 0.000000 0.000000 -0.017340 0.000000 0.000000
# 5 0.000000 0.000000 0.000000 0.000000 0.029721 0.000000
# 6 0.000000 0.000000 0.000000 0.000000 0.000000 -0.167440
#
#
# Mechanical properties :
#
#
# Convention : Reuss Voigt Hill
#
# Bulk Modulus (GPa) = 41.58552 57.87747 49.73149
# Shear Modulus (GPa) = -124.02896 3.82402 -60.10247
#
# Velocity S-wave (km/s) = -8.26235 1.45078 -5.75159
# Velocity P-wave (km/s) = 8.25427 5.88749 4.09087
#
# Compressibility (1/GPa) = 0.02404683
#
# Stress axis : x y z
#
# Youngs Moduli (GPa) = 46.82979 31.45888 81.65042
#
# Poissons Ratio (x) = 0.20302 0.16354
# Poissons Ratio (y) = 0.30222 0.99732
# Poissons Ratio (z) = 0.09380 0.38425
#
# Static dielectric constant tensor:
#      x y z
#    x 1.611120 0.000000 0.000000 
#    y 0.000000 1.623160 0.000000 
#    z 0.000000 0.000000 1.629200 
# 
# From -- ./inp_files/21723.got.cif
#   From: 2010.05.17/outbox.cif.g08.bks.cpg/sg51_11_cif.got.tgz:21723.got - 2010.06.03 11:52:47.
