data_PCOD9401321
_publ_section_title
;
Structure prediction by ZEFSAII (Michael W. Deem and Ramdas Pophale) SiO2 
 PCOD9401321
Probable space group: P M M A
;
_chemical_formula_sum "Si O2"
_cell_formula_units_Z 48
_cell_length_a 18.508494
_cell_length_b 7.450881
_cell_length_c 15.791435
_cell_angle_alpha 90.000000
_cell_angle_beta 90.000000
_cell_angle_gamma 90.000000
_cell_volume 2177.711310
_symmetry_space_group_name_H-M "P M M A"
_symmetry_group_IT_number 51
_symmetry_cell_setting 'orthorhombic'
loop_
_space_group_symop_operation_xyz
x,y,z
1/2-x,-y,z
1/2+x,-y,-z
-x,y,-z
-x,-y,-z
1/2+x,y,-z
1/2-x,y,z
x,-y,z
loop_
_atom_site_type_symbol
_atom_site_label
_atom_site_fract_x
_atom_site_fract_y
_atom_site_fract_z
Si Si1 0.167228 0.719299 0.996268
Si Si2 0.424019 0.280877 0.158918
Si Si3 0.332257 0.211547 0.648621
Si Si4 0.589377 0.283845 0.174498
Si Si5 0.578715 0.706790 0.515974
Si Si6 0.332893 0.280308 0.323035
O O1 0.250000 0.776062 0.008749
O O2 0.167329 0.500000 0.996455
O O3 0.136022 0.778220 0.905839
O O4 0.115166 0.776042 0.072622
O O5 0.425125 0.500000 0.158089
O O6 0.506729 0.220533 0.167376
O O7 0.376881 0.226415 0.239788
O O8 0.250000 0.280458 0.654003
O O9 0.373526 0.238006 0.736865
O O10 0.376013 0.291737 0.570276
O O11 0.329027 0.000000 0.632081
O O12 0.587218 0.500000 0.170148
O O13 0.500000 0.789640 0.500000
O O14 0.565045 0.500000 0.541590
O O15 0.625612 0.782808 0.592912
O O16 0.250000 0.220787 0.321393
O O17 0.331079 0.500000 0.323831
#
# Coordination Sequence:
#
# PCOD9401321 Si02
#       6
#     8   8   8   8   8   8
#     4   9  16  26  44  73 106 137 169 208 258 313
#     4   9  16  27  45  72 105 135 165 207 257 308
#     4  11  24  39  54  75 105 142 181 219 262 311
#     4  10  19  32  52  77 104 135 173 217 262 307
#     4  10  20  35  56  81 106 133 170 217 268 320
#     4   9  16  26  43  69 100 132 164 202 253 310
#
# _framework density 22.041491000000001
#
# number of rings (size 3 to 8) (size 9 to 14) (size 15 to 20)
#    0.000    2.333    0.000    3.500    0.000    9.667 
#    0.000    0.000    0.000    2.000    0.000    0.000 
#    0.000    6.667    0.000    0.000    0.000    0.000 
#
# Total GULP energy -268339.060834 kJ/mol
# GULP energy per Si atom -5590.397101 kJ/mol
# Density = 2.199132 g / cm^3
# Si number density = 22.041491 Si / 1000 Ang^3
#
#
#
# Elastic Constant Matrix: (Units=GPa)
#
#
# Indices 1 2 3 4 5 6 
#
# 1 136.0018 -2.1937 25.3908 0.0000 0.0000 0.0000
# 2 -2.1937 66.2857 -13.9599 0.0000 0.0000 0.0000
# 3 25.3908 -13.9599 114.3650 0.0000 0.0000 0.0000
# 4 0.0000 0.0000 0.0000 1797.0795 0.0000 0.0000
# 5 0.0000 0.0000 0.0000 0.0000 47.7968 0.0000
# 6 0.0000 0.0000 0.0000 0.0000 0.0000 -0.8037
#
#
#
# Elastic Compliance Matrix: (Units=1/GPa)
#
#
# Indices 1 2 3 4 5 6 
#
# 1 0.007672 -0.000108 -0.001716 0.000000 0.000000 0.000000
# 2 -0.000108 0.015486 0.001914 0.000000 0.000000 0.000000
# 3 -0.001716 0.001914 0.009359 0.000000 0.000000 0.000000
# 4 0.000000 0.000000 0.000000 0.000556 0.000000 0.000000
# 5 0.000000 0.000000 0.000000 0.000000 0.020922 0.000000
# 6 0.000000 0.000000 0.000000 0.000000 0.000000 -1.244284
#
#
# Mechanical properties :
#
#
# Convention : Reuss Voigt Hill
#
# Bulk Modulus (GPa) = 30.58439 37.23633 33.91036
# Shear Modulus (GPa) = -4.23883 389.30887 192.53502
#
# Velocity S-wave (km/s) = -1.38827 13.30447 9.35632
# Velocity P-wave (km/s) = 3.36693 15.90416 11.49518
#
# Compressibility (1/GPa) = 0.03269642
#
# Stress axis : x y z
#
# Youngs Moduli (GPa) = 130.35191 64.57542 106.85318
#
# Poissons Ratio (x) = 0.00695 0.18340
# Poissons Ratio (y) = 0.01402 -0.20453
# Poissons Ratio (z) = 0.22373 -0.12361
#
# Static dielectric constant tensor:
#      x y z
#    x 1.771780 0.000000 0.000000 
#    y 0.000000 1.886080 0.000000 
#    z 0.000000 0.000000 1.737530 
# 
# From -- ./inp_files/24789.got.cif
#   From: 2010.05.17/outbox.cif.g08.bks.cpg/sg51_13_cif.got.tgz:24789.got - 2010.06.03 11:52:47.
