data_PCOD9401980
_publ_section_title
;
Structure prediction by ZEFSAII (Michael W. Deem and Ramdas Pophale) SiO2 
 PCOD9401980
Probable space group: P M M A
;
_chemical_formula_sum "Si O2"
_cell_formula_units_Z 64
_cell_length_a 20.821087
_cell_length_b 15.470706
_cell_length_c 10.039452
_cell_angle_alpha 90.000000
_cell_angle_beta 90.000000
_cell_angle_gamma 90.000000
_cell_volume 3233.877312
_symmetry_space_group_name_H-M "P M M A"
_symmetry_group_IT_number 51
_symmetry_cell_setting 'orthorhombic'
loop_
_space_group_symop_operation_xyz
x,y,z
1/2-x,-y,z
1/2+x,-y,-z
-x,y,-z
-x,-y,-z
1/2+x,y,-z
1/2-x,y,z
x,-y,z
loop_
_atom_site_type_symbol
_atom_site_label
_atom_site_fract_x
_atom_site_fract_y
_atom_site_fract_z
Si Si1 0.588808 0.394794 0.601226
Si Si2 0.435310 0.099989 0.831133
Si Si3 0.427471 0.166450 0.118523
Si Si4 0.176917 0.894614 0.635456
Si Si5 0.555584 0.605015 0.311667
Si Si6 0.325398 0.895916 0.327844
Si Si7 0.071162 0.352292 0.979261
Si Si8 0.320424 0.399089 0.174094
O O1 0.589768 0.500000 0.599930
O O2 0.519404 0.373015 0.663564
O O3 0.591087 0.368614 0.447486
O O4 0.644231 0.360432 0.696694
O O5 0.503251 0.147842 0.816546
O O6 0.377428 0.133947 0.739488
O O7 0.446058 0.000000 0.795893
O O8 0.418886 0.106003 0.988232
O O9 0.371809 0.150748 0.224184
O O10 0.430007 0.260225 0.051791
O O11 0.250000 0.865821 0.666681
O O12 0.161649 0.871728 0.482148
O O13 0.178154 0.000000 0.640365
O O14 0.559827 0.500000 0.296687
O O15 0.580358 0.648810 0.178394
O O16 0.250000 0.879196 0.301667
O O17 0.335261 0.000000 0.316224
O O18 0.130413 0.396718 0.051886
O O19 0.000000 0.392693 0.000000
O O20 0.250000 0.361651 0.147213
O O21 0.312839 0.500000 0.205222
#
# Coordination Sequence:
#
# PCOD9401980 Si02
#       8
#     8   8   8   8   8   8   8   8
#     4   8  15  30  54  84 111 135 177 234 278 324
#     4  10  19  34  55  77 110 147 182 232 280 324
#     4  11  22  35  50  77 114 149 188 228 273 329
#     4   8  16  32  56  85 110 135 177 231 281 331
#     4   9  17  31  57  87 108 138 186 230 273 322
#     4   9  18  35  59  83 106 138 184 233 280 337
#     4  12  22  36  56  78 118 154 191 231 275 328
#     4  10  21  37  59  87 115 147 186 230 286 343
#
# _framework density 19.790485
#
# number of rings (size 3 to 8) (size 9 to 14) (size 15 to 20)
#    0.000    2.375    2.500    3.375    0.000    2.000 
#    0.000    5.000    2.750    2.250    0.000    0.000 
#    0.000    0.000    0.000    0.000    0.000    0.000 
#
# Total GULP energy -357014.891547 kJ/mol
# GULP energy per Si atom -5578.357680 kJ/mol
# Density = 1.974544 g / cm^3
# Si number density = 19.790485 Si / 1000 Ang^3
#
#
#
# Elastic Constant Matrix: (Units=GPa)
#
#
# Indices 1 2 3 4 5 6 
#
# 1 151.0828 25.7408 113.4620 0.0000 0.0000 0.0000
# 2 25.7408 42.8566 21.8772 0.0000 0.0000 0.0000
# 3 113.4620 21.8772 163.0052 0.0000 0.0000 0.0000
# 4 0.0000 0.0000 0.0000 17.9418 0.0000 0.0000
# 5 0.0000 0.0000 0.0000 0.0000 34.8385 0.0000
# 6 0.0000 0.0000 0.0000 0.0000 0.0000 4.2036
#
#
#
# Elastic Compliance Matrix: (Units=1/GPa)
#
#
# Indices 1 2 3 4 5 6 
#
# 1 0.014422 -0.003798 -0.009529 0.000000 0.000000 0.000000
# 2 -0.003798 0.026050 -0.000853 0.000000 0.000000 0.000000
# 3 -0.009529 -0.000853 0.012882 0.000000 0.000000 0.000000
# 4 0.000000 0.000000 0.000000 0.055736 0.000000 0.000000
# 5 0.000000 0.000000 0.000000 0.000000 0.028704 0.000000
# 6 0.000000 0.000000 0.000000 0.000000 0.000000 0.237891
#
#
# Mechanical properties :
#
#
# Convention : Reuss Voigt Hill
#
# Bulk Modulus (GPa) = 40.00793 75.45607 57.73200
# Shear Modulus (GPa) = 12.12487 24.45442 18.28965
#
# Velocity S-wave (km/s) = 2.47789 3.51902 3.04330
# Velocity P-wave (km/s) = 5.33350 7.39740 6.44855
#
# Compressibility (1/GPa) = 0.02499504
#
# Stress axis : x y z
#
# Youngs Moduli (GPa) = 69.33756 38.38763 77.62766
#
# Poissons Ratio (x) = 0.14580 0.73972
# Poissons Ratio (y) = 0.26335 0.06618
# Poissons Ratio (z) = 0.66072 0.03273
#
# Static dielectric constant tensor:
#      x y z
#    x 1.710130 0.000000 0.000000 
#    y 0.000000 1.756650 0.000000 
#    z 0.000000 0.000000 1.691580 
# 
# From -- ./inp_files/11198.got.cif
#   From: 2010.05.17/outbox.cif.g08.bks.cpg/sg51_6_cif.got.tgz:11198.got - 2010.06.03 11:52:47.
