data_PCOD9401735
_publ_section_title
;
Structure prediction by ZEFSAII (Michael W. Deem and Ramdas Pophale) SiO2 
 PCOD9401735
Probable space group: P M M A
;
_chemical_formula_sum "Si O2"
_cell_formula_units_Z 48
_cell_length_a 31.899810
_cell_length_b 7.863665
_cell_length_c 9.333287
_cell_angle_alpha 90.000000
_cell_angle_beta 90.000000
_cell_angle_gamma 90.000000
_cell_volume 2341.249625
_symmetry_space_group_name_H-M "P M M A"
_symmetry_group_IT_number 51
_symmetry_cell_setting 'orthorhombic'
loop_
_space_group_symop_operation_xyz
x,y,z
1/2-x,-y,z
1/2+x,-y,-z
-x,y,-z
-x,-y,-z
1/2+x,y,-z
1/2-x,y,z
x,-y,z
loop_
_atom_site_type_symbol
_atom_site_label
_atom_site_fract_x
_atom_site_fract_y
_atom_site_fract_z
Si Si1 0.250000 0.696484 0.673765
Si Si2 0.659126 0.292185 0.347685
Si Si3 0.924808 0.697535 0.837523
Si Si4 0.503457 0.197603 0.339671
Si Si5 0.250000 0.793420 0.343592
Si Si6 0.917912 0.699629 0.157329
Si Si7 0.157981 0.799030 0.317311
O O1 0.250000 0.500000 0.719356
O O2 0.204377 0.768733 0.711953
O O3 0.250000 0.709208 0.500447
O O4 0.659725 0.500000 0.351048
O O5 0.620754 0.231582 0.250371
O O6 0.654130 0.234131 0.512092
O O7 0.937990 0.500000 0.844823
O O8 0.959079 0.787628 0.739079
O O9 0.879129 0.709171 0.766862
O O10 0.923286 0.771421 0.997967
O O11 0.500000 0.269809 0.500000
O O12 0.539492 0.283085 0.246050
O O13 0.515540 0.000000 0.352246
O O14 0.205477 0.747267 0.274272
O O15 0.250000 0.000000 0.363163
O O16 0.908572 0.500000 0.136916
O O17 0.153663 0.000000 0.292490
#
# Coordination Sequence:
#
# PCOD9401735 Si02
#       7
#     4   8   8   8   4   8   8
#     4   8  14  26  49  78 104 134 174 216 257 304
#     4   9  17  32  54  79 107 139 176 218 262 307
#     4  11  23  38  55  78 109 143 177 214 261 315
#     4  11  24  40  59  83 106 132 172 219 264 313
#     4   8  16  30  49  74 106 140 174 218 265 306
#     4  10  22  38  55  78 109 143 176 213 261 315
#     4  10  19  33  54  80 108 140 180 222 264 310
#
# _framework density 20.501871999999999
#
# number of rings (size 3 to 8) (size 9 to 14) (size 15 to 20)
#    0.000    2.167    0.000    3.000    0.000    8.667 
#    0.000    0.833    0.000    2.000    0.000    3.500 
#    0.000    0.000    0.000    0.000    0.000    0.000 
#
# Total GULP energy -267871.359327 kJ/mol
# GULP energy per Si atom -5580.653319 kJ/mol
# Density = 2.045521 g / cm^3
# Si number density = 20.501872 Si / 1000 Ang^3
#
#
#
# Elastic Constant Matrix: (Units=GPa)
#
#
# Indices 1 2 3 4 5 6 
#
# 1 148.3333 -13.1384 66.4394 0.0000 0.0000 0.0000
# 2 -13.1384 25.1373 -6.7603 0.0000 0.0000 0.0000
# 3 66.4394 -6.7603 115.9691 0.0000 0.0000 0.0000
# 4 0.0000 0.0000 0.0000 25.1809 0.0000 0.0000
# 5 0.0000 0.0000 0.0000 0.0000 -21.5406 0.0000
# 6 0.0000 0.0000 0.0000 0.0000 0.0000 42.9351
#
#
#
# Elastic Compliance Matrix: (Units=1/GPa)
#
#
# Indices 1 2 3 4 5 6 
#
# 1 0.009363 0.003506 -0.005160 0.000000 0.000000 0.000000
# 2 0.003506 0.041728 0.000424 0.000000 0.000000 0.000000
# 3 -0.005160 0.000424 0.011604 0.000000 0.000000 0.000000
# 4 0.000000 0.000000 0.000000 0.039713 0.000000 0.000000
# 5 0.000000 0.000000 0.000000 0.000000 -0.046424 0.000000
# 6 0.000000 0.000000 0.000000 0.000000 0.000000 0.023291
#
#
# Mechanical properties :
#
#
# Convention : Reuss Voigt Hill
#
# Bulk Modulus (GPa) = 16.60155 42.50233 29.55194
# Shear Modulus (GPa) = 49.10969 25.50837 37.30903
#
# Velocity S-wave (km/s) = 4.89957 3.53114 4.27052
# Velocity P-wave (km/s) = 6.33426 6.11566 6.22592
#
# Compressibility (1/GPa) = 0.06023535
#
# Stress axis : x y z
#
# Youngs Moduli (GPa) = 106.80026 23.96469 86.17857
#
# Poissons Ratio (x) = -0.08402 0.44467
# Poissons Ratio (y) = -0.37446 -0.03652
# Poissons Ratio (z) = 0.55108 -0.01016
#
# Static dielectric constant tensor:
#      x y z
#    x 1.739050 0.000000 0.000000 
#    y 0.000000 1.750550 0.000000 
#    z 0.000000 0.000000 1.703680 
# 
# From -- ./inp_files/12915.got.cif
#   From: 2010.05.17/outbox.cif.g08.bks.cpg/sg51_7_cif.got.tgz:12915.got - 2010.06.03 11:52:47.
