data_PCOD9401361
_publ_section_title
;
Structure prediction by ZEFSAII (Michael W. Deem and Ramdas Pophale) SiO2 
 PCOD9401361
Probable space group: P M M A
;
_chemical_formula_sum "Si O2"
_cell_formula_units_Z 56
_cell_length_a 22.112177
_cell_length_b 15.008584
_cell_length_c 9.158927
_cell_angle_alpha 90.000000
_cell_angle_beta 90.000000
_cell_angle_gamma 90.000000
_cell_volume 3039.595689
_symmetry_space_group_name_H-M "P M M A"
_symmetry_group_IT_number 51
_symmetry_cell_setting 'orthorhombic'
loop_
_space_group_symop_operation_xyz
x,y,z
1/2-x,-y,z
1/2+x,-y,-z
-x,y,-z
-x,-y,-z
1/2+x,y,-z
1/2-x,y,z
x,-y,z
loop_
_atom_site_type_symbol
_atom_site_label
_atom_site_fract_x
_atom_site_fract_y
_atom_site_fract_z
Si Si1 0.908440 0.897781 0.585841
Si Si2 0.680996 0.397431 0.018508
Si Si3 0.507147 0.395868 0.674159
Si Si4 0.319199 0.756585 0.521050
Si Si5 0.530368 0.102472 0.261936
Si Si6 0.903739 0.270950 0.197329
Si Si7 0.146932 0.602063 0.312490
O O1 0.852761 0.831275 0.575921
O O2 0.938685 0.895934 0.423610
O O3 0.960858 0.872840 0.701226
O O4 0.890939 0.000000 0.614042
O O5 0.750000 0.381311 0.068581
O O6 0.664438 0.500000 0.060312
O O7 0.634623 0.324773 0.078917
O O8 0.678739 0.393794 0.843445
O O9 0.500000 0.385174 0.500000
O O10 0.496858 0.500000 0.710490
O O11 0.458778 0.333642 0.751308
O O12 0.576418 0.373261 0.709709
O O13 0.250000 0.779804 0.552034
O O14 0.357888 0.743832 0.667647
O O15 0.323656 0.665964 0.429840
O O16 0.565643 0.174987 0.165876
O O17 0.533106 0.000000 0.209819
O O18 0.147495 0.500000 0.365261
#
# Coordination Sequence:
#
# PCOD9401361 Si02
#       7
#     8   8   8   8   8   8   8
#     4   8  15  29  48  73 104 133 164 211 268 315
#     4  10  22  39  54  72 105 147 184 216 258 318
#     4  10  19  32  52  79 108 133 169 223 276 315
#     4  11  21  31  49  77 103 136 181 218 258 314
#     4   8  15  28  50  76 101 132 169 212 266 325
#     4  11  20  32  54  79 109 136 173 225 274 314
#     4  10  21  37  55  74 102 141 179 217 263 316
#
# _framework density 18.423501999999999
#
# number of rings (size 3 to 8) (size 9 to 14) (size 15 to 20)
#    0.000    2.286    1.429    3.000    2.000    2.286 
#    0.000    2.143    0.000    2.143    0.000    3.000 
#    0.000    0.000    0.000    0.000    0.000    0.000 
#
# Total GULP energy -312422.275221 kJ/mol
# GULP energy per Si atom -5578.969200 kJ/mol
# Density = 1.838157 g / cm^3
# Si number density = 18.423502 Si / 1000 Ang^3
#
#
#
# Elastic Constant Matrix: (Units=GPa)
#
#
# Indices 1 2 3 4 5 6 
#
# 1 89.6005 37.4024 4.9621 0.0000 0.0000 0.0000
# 2 37.4024 62.1610 8.9791 0.0000 0.0000 0.0000
# 3 4.9621 8.9791 10.1858 0.0000 0.0000 0.0000
# 4 0.0000 0.0000 0.0000 6.9939 0.0000 0.0000
# 5 0.0000 0.0000 0.0000 0.0000 -27.8598 0.0000
# 6 0.0000 0.0000 0.0000 0.0000 0.0000 18.7222
#
#
#
# Elastic Compliance Matrix: (Units=1/GPa)
#
#
# Indices 1 2 3 4 5 6 
#
# 1 0.014909 -0.009078 0.000739 0.000000 0.000000 0.000000
# 2 -0.009078 0.023962 -0.016701 0.000000 0.000000 0.000000
# 3 0.000739 -0.016701 0.112538 0.000000 0.000000 0.000000
# 4 0.000000 0.000000 0.000000 0.142983 0.000000 0.000000
# 5 0.000000 0.000000 0.000000 0.000000 -0.035894 0.000000
# 6 0.000000 0.000000 0.000000 0.000000 0.000000 0.053412
#
#
# Mechanical properties :
#
#
# Convention : Reuss Voigt Hill
#
# Bulk Modulus (GPa) = 9.86873 29.40382 19.63628
# Shear Modulus (GPa) = 12.63378 6.94483 9.78931
#
# Velocity S-wave (km/s) = 2.62151 1.94364 2.30760
# Velocity P-wave (km/s) = 3.81200 4.58602 4.21681
#
# Compressibility (1/GPa) = 0.10133015
#
# Stress axis : x y z
#
# Youngs Moduli (GPa) = 67.07348 41.73333 8.88591
#
# Poissons Ratio (x) = 0.37884 -0.00657
# Poissons Ratio (y) = 0.60886 0.14840
# Poissons Ratio (z) = -0.04958 0.69698
#
# Static dielectric constant tensor:
#      x y z
#    x 1.643550 0.000000 0.000000 
#    y 0.000000 1.653340 0.000000 
#    z 0.000000 0.000000 1.624000 
# 
# From -- ./inp_files/10971.got.cif
#   From: 2010.05.17/outbox.cif.g08.bks.cpg/sg51_6_cif.got.tgz:10971.got - 2010.06.03 11:52:47.
