data_PCOD9401314
_publ_section_title
;
Structure prediction by ZEFSAII (Michael W. Deem and Ramdas Pophale) SiO2 
 PCOD9401314
Probable space group: P M M A
;
_chemical_formula_sum "Si O2"
_cell_formula_units_Z 48
_cell_length_a 8.336776
_cell_length_b 32.374099
_cell_length_c 9.704006
_cell_angle_alpha 90.000000
_cell_angle_beta 90.000000
_cell_angle_gamma 90.000000
_cell_volume 2619.068634
_symmetry_space_group_name_H-M "P M M A"
_symmetry_group_IT_number 51
_symmetry_cell_setting 'orthorhombic'
loop_
_space_group_symop_operation_xyz
x,y,z
1/2-x,-y,z
1/2+x,-y,-z
-x,y,-z
-x,-y,-z
1/2+x,y,-z
1/2-x,y,z
x,-y,z
loop_
_atom_site_type_symbol
_atom_site_label
_atom_site_fract_x
_atom_site_fract_y
_atom_site_fract_z
Si Si1 0.556557 0.289344 0.341551
Si Si2 0.057999 0.620880 0.657544
Si Si3 0.441730 0.546169 0.155815
Si Si4 0.443743 0.047005 0.653834
Si Si5 0.055827 0.198959 0.658237
Si Si6 0.555930 0.877912 0.156725
O O1 0.500000 0.289530 0.500000
O O2 0.750000 0.289271 0.336925
O O3 0.502286 0.333985 0.285507
O O4 0.502684 0.244452 0.288143
O O5 0.250000 0.620924 0.657071
O O6 0.000000 0.617185 0.500000
O O7 0.999923 0.582537 0.746405
O O8 0.250000 0.546000 0.156494
O O9 0.498019 0.500000 0.198162
O O10 0.500000 0.553029 0.000000
O O11 0.500000 0.058207 0.500000
O O12 0.250000 0.046958 0.653954
O O13 0.498910 0.080638 0.764389
O O14 0.498422 0.000000 0.682538
O O15 0.250000 0.198447 0.656542
O O16 0.000440 0.161784 0.755249
O O17 0.000000 0.193786 0.500000
O O18 0.750000 0.877790 0.158101
O O19 0.500000 0.876508 0.000000
#
# Coordination Sequence:
#
# PCOD9401314 Si02
#       6
#     8   8   8   8   8   8
#     4   8  15  28  47  71  98 126 157 197 242 286
#     4  10  19  32  52  77 104 132 163 202 247 293
#     4  10  21  37  55  74  98 130 167 205 246 294
#     4   9  18  33  52  74  98 124 159 202 244 288
#     4   9  17  31  51  73  96 124 162 203 241 285
#     4  10  21  34  48  69  99 132 163 199 242 288
#
# _framework density 18.327127000000001
#
# number of rings (size 3 to 8) (size 9 to 14) (size 15 to 20)
#    0.000    2.667    0.000    1.500    0.000    3.667 
#    0.000    0.833    0.000    2.000    0.000    0.000 
#    0.000    0.000    0.000    0.000    0.000    0.000 
#
# Total GULP energy -267476.707979 kJ/mol
# GULP energy per Si atom -5572.431416 kJ/mol
# Density = 1.828541 g / cm^3
# Si number density = 18.327127 Si / 1000 Ang^3
#
#
#
# Elastic Constant Matrix: (Units=GPa)
#
#
# Indices 1 2 3 4 5 6 
#
# 1 14.2286 26.0623 13.0123 0.0000 0.0000 0.0000
# 2 26.0623 201.3424 112.1307 0.0000 0.0000 0.0000
# 3 13.0123 112.1307 99.7387 0.0000 0.0000 0.0000
# 4 0.0000 0.0000 0.0000 -7.1311 0.0000 0.0000
# 5 0.0000 0.0000 0.0000 0.0000 30.1410 0.0000
# 6 0.0000 0.0000 0.0000 0.0000 0.0000 -81.7333
#
#
#
# Elastic Compliance Matrix: (Units=1/GPa)
#
#
# Indices 1 2 3 4 5 6 
#
# 1 0.092639 -0.014070 0.003732 0.000000 0.000000 0.000000
# 2 -0.014070 0.015421 -0.015501 0.000000 0.000000 0.000000
# 3 0.003732 -0.015501 0.026966 0.000000 0.000000 0.000000
# 4 0.000000 0.000000 0.000000 -0.140230 0.000000 0.000000
# 5 0.000000 0.000000 0.000000 0.000000 0.033177 0.000000
# 6 0.000000 0.000000 0.000000 0.000000 0.000000 -0.012235
#
#
# Mechanical properties :
#
#
# Convention : Reuss Voigt Hill
#
# Bulk Modulus (GPa) = 11.99785 68.63560 40.31672
# Shear Modulus (GPa) = 52.52138 -0.80439 25.85850
#
# Velocity S-wave (km/s) = 5.35910 -0.66322 3.76032
# Velocity P-wave (km/s) = 6.69731 6.07825 6.39527
#
# Compressibility (1/GPa) = 0.08334828
#
# Stress axis : x y z
#
# Youngs Moduli (GPa) = 10.79455 64.84824 37.08346
#
# Poissons Ratio (x) = 0.91240 -0.13839
# Poissons Ratio (y) = 0.15188 0.57483
# Poissons Ratio (z) = -0.04028 1.00521
#
# Static dielectric constant tensor:
#      x y z
#    x 1.705130 0.000000 0.000000 
#    y 0.000000 1.693760 0.000000 
#    z 0.000000 0.000000 1.567760 
# 
# From -- ./inp_files/6080.got.cif
#   From: 2010.05.17/outbox.cif.g08.bks.cpg/sg51_4_cif.got.tgz:6080.got - 2010.06.03 11:52:47.
