data_PCOD9401700
_publ_section_title
;
Structure prediction by ZEFSAII (Michael W. Deem and Ramdas Pophale) SiO2 
 PCOD9401700
Probable space group: P M M A
;
_chemical_formula_sum "Si O2"
_cell_formula_units_Z 64
_cell_length_a 9.113408
_cell_length_b 28.448744
_cell_length_c 14.064694
_cell_angle_alpha 90.000000
_cell_angle_beta 90.000000
_cell_angle_gamma 90.000000
_cell_volume 3646.483047
_symmetry_space_group_name_H-M "P M M A"
_symmetry_group_IT_number 51
_symmetry_cell_setting 'orthorhombic'
loop_
_space_group_symop_operation_xyz
x,y,z
1/2-x,-y,z
1/2+x,-y,-z
-x,y,-z
-x,-y,-z
1/2+x,y,-z
1/2-x,y,z
x,-y,z
loop_
_atom_site_type_symbol
_atom_site_label
_atom_site_fract_x
_atom_site_fract_y
_atom_site_fract_z
Si Si1 0.417851 0.057211 0.406405
Si Si2 0.422923 0.443976 0.600555
Si Si3 0.923483 0.224370 0.232260
Si Si4 0.423458 0.275973 0.398207
Si Si5 0.427248 0.944821 0.193803
Si Si6 0.574615 0.860176 0.096666
Si Si7 0.424969 0.684042 0.897290
Si Si8 0.575096 0.631084 0.728524
O O1 0.500000 0.074344 0.500000
O O2 0.250000 0.072762 0.411232
O O3 0.475980 0.068611 0.301473
O O4 0.418003 0.000000 0.409376
O O5 0.500000 0.432680 0.500000
O O6 0.250000 0.432420 0.595869
O O7 0.437224 0.500000 0.615511
O O8 0.501983 0.414534 0.682326
O O9 0.750000 0.224610 0.254568
O O10 0.961645 0.175564 0.181964
O O11 0.948710 0.265797 0.155041
O O12 0.012871 0.237137 0.326186
O O13 0.500000 0.274926 0.500000
O O14 0.250000 0.270229 0.409279
O O15 0.450494 0.325868 0.345473
O O16 0.250000 0.939347 0.188815
O O17 0.508199 0.910806 0.121750
O O18 0.458663 0.000000 0.178766
O O19 0.750000 0.861869 0.085950
O O20 0.500000 0.842843 0.000000
O O21 0.250000 0.676643 0.904899
O O22 0.498768 0.646297 0.826687
O O23 0.500000 0.683636 0.000000
O O24 0.750000 0.625785 0.740427
#
# Coordination Sequence:
#
# PCOD9401700 Si02
#       8
#     8   8   8   8   8   8   8   8
#     4   8  14  26  46  71  97 124 154 190 232 277
#     4  10  20  33  50  74 105 142 183 225 269 317
#     4   9  20  37  55  77 105 136 171 210 253 305
#     4  10  20  33  53  80 110 143 176 213 257 308
#     4   9  19  36  55  76 104 136 170 208 249 295
#     4  11  23  38  57  79 102 131 167 208 255 305
#     4  10  19  33  54  78 105 135 170 216 265 314
#     4  10  20  33  51  77 107 141 181 222 267 316
#
# _framework density 17.551157
#
# number of rings (size 3 to 8) (size 9 to 14) (size 15 to 20)
#    0.000    2.375    0.000    3.375    0.000    5.750 
#    0.000    1.875    0.000    1.875    0.000    0.000 
#    0.000    0.000    0.000    0.000    0.000    0.000 
#
# Total GULP energy -357114.488525 kJ/mol
# GULP energy per Si atom -5579.913883 kJ/mol
# Density = 1.751121 g / cm^3
# Si number density = 17.551157 Si / 1000 Ang^3
#
#
#
# Elastic Constant Matrix: (Units=GPa)
#
#
# Indices 1 2 3 4 5 6 
#
# 1 80.0888 40.0433 68.2307 0.0000 0.0000 0.0000
# 2 40.0433 47.9274 30.5534 0.0000 0.0000 0.0000
# 3 68.2307 30.5534 119.9808 0.0000 0.0000 0.0000
# 4 0.0000 0.0000 0.0000 22.0425 0.0000 0.0000
# 5 0.0000 0.0000 0.0000 0.0000 37.5487 0.0000
# 6 0.0000 0.0000 0.0000 0.0000 0.0000 18.1645
#
#
#
# Elastic Compliance Matrix: (Units=1/GPa)
#
#
# Indices 1 2 3 4 5 6 
#
# 1 0.035102 -0.019820 -0.014915 0.000000 0.000000 0.000000
# 2 -0.019820 0.036099 0.002078 0.000000 0.000000 0.000000
# 3 -0.014915 0.002078 0.016287 0.000000 0.000000 0.000000
# 4 0.000000 0.000000 0.000000 0.045367 0.000000 0.000000
# 5 0.000000 0.000000 0.000000 0.000000 0.026632 0.000000
# 6 0.000000 0.000000 0.000000 0.000000 0.000000 0.055053
#
#
# Mechanical properties :
#
#
# Convention : Reuss Voigt Hill
#
# Bulk Modulus (GPa) = 45.09324 58.40577 51.74951
# Shear Modulus (GPa) = 17.40671 22.82909 20.11790
#
# Velocity S-wave (km/s) = 3.15265 3.61046 3.38929
# Velocity P-wave (km/s) = 6.24504 7.12252 6.69816
#
# Compressibility (1/GPa) = 0.02217627
#
# Stress axis : x y z
#
# Youngs Moduli (GPa) = 28.48809 27.70122 61.39793
#
# Poissons Ratio (x) = 0.54904 0.91574
# Poissons Ratio (y) = 0.56463 -0.12761
# Poissons Ratio (z) = 0.42490 -0.05757
#
# Static dielectric constant tensor:
#      x y z
#    x 1.582100 0.000000 0.000000 
#    y 0.000000 1.592520 0.000000 
#    z 0.000000 0.000000 1.590690 
# 
# From -- ./inp_files/14802.got.cif
#   From: 2010.05.17/outbox.cif.g08.bks.cpg/sg51_8_cif.got.tgz:14802.got - 2010.06.03 11:52:47.
