data_PCOD9401372
_publ_section_title
;
Structure prediction by ZEFSAII (Michael W. Deem and Ramdas Pophale) SiO2 
 PCOD9401372
Probable space group: P M M A
;
_chemical_formula_sum "Si O2"
_cell_formula_units_Z 64
_cell_length_a 11.640144
_cell_length_b 13.234026
_cell_length_c 19.077969
_cell_angle_alpha 90.000000
_cell_angle_beta 90.000000
_cell_angle_gamma 90.000000
_cell_volume 2938.884209
_symmetry_space_group_name_H-M "P M M A"
_symmetry_group_IT_number 51
_symmetry_cell_setting 'orthorhombic'
loop_
_space_group_symop_operation_xyz
x,y,z
1/2-x,-y,z
1/2+x,-y,-z
-x,y,-z
-x,-y,-z
1/2+x,y,-z
1/2-x,y,z
x,-y,z
loop_
_atom_site_type_symbol
_atom_site_label
_atom_site_fract_x
_atom_site_fract_y
_atom_site_fract_z
Si Si1 0.123377 0.669386 0.689873
Si Si2 0.021982 0.885067 0.684494
Si Si3 0.953388 0.612012 0.811685
Si Si4 0.879012 0.384287 0.470525
Si Si5 0.628360 0.831033 0.810447
Si Si6 0.122634 0.385043 0.943855
Si Si7 0.622547 0.173151 0.975912
Si Si8 0.384399 0.880501 0.454033
O O1 0.250000 0.647910 0.716903
O O2 0.034480 0.623128 0.744068
O O3 0.111156 0.623525 0.612991
O O4 0.107670 0.790500 0.680651
O O5 0.969459 0.877318 0.762288
O O6 0.923931 0.861697 0.626318
O O7 0.064095 0.000000 0.671282
O O8 0.901637 0.500000 0.814373
O O9 0.030814 0.625350 0.881784
O O10 0.874642 0.709490 0.804726
O O11 0.750000 0.344930 0.487842
O O12 0.875954 0.500000 0.493794
O O13 0.000000 0.344100 0.500000
O O14 0.750000 0.871452 0.785021
O O15 0.619800 0.846111 0.893165
O O16 0.250000 0.378658 0.911755
O O17 0.114002 0.500000 0.973827
O O18 0.118944 0.292191 0.999080
O O19 0.750000 0.137545 0.001016
O O20 0.500000 0.129917 0.000000
O O21 0.500000 0.853340 0.500000
O O22 0.250000 0.847295 0.466045
O O23 0.377657 0.000000 0.464065
#
# Coordination Sequence:
#
# PCOD9401372 Si02
#       8
#     8   8   8   8   8   8   8   8
#     4  10  21  36  56  84 114 149 195 249 305 360
#     4  10  22  40  60  83 113 153 201 251 304 365
#     4  10  19  32  52  79 115 151 189 233 290 355
#     4   9  18  35  59  86 119 161 207 249 292 349
#     4  10  21  36  55  81 111 150 199 244 291 349
#     4   9  17  28  46  74 108 147 188 226 275 347
#     4  10  19  33  52  78 111 148 189 238 292 347
#     4   9  18  34  58  86 114 144 180 227 285 349
#
# _framework density 21.776973000000002
#
# number of rings (size 3 to 8) (size 9 to 14) (size 15 to 20)
#    0.000    2.375    1.250    1.125    0.000    4.250 
#    0.000    6.875    0.000    3.375    0.000    0.000 
#    0.000    0.000    0.000    0.000    0.000    0.125 
#
# Total GULP energy -356312.579034 kJ/mol
# GULP energy per Si atom -5567.384047 kJ/mol
# Density = 2.172741 g / cm^3
# Si number density = 21.776973 Si / 1000 Ang^3
#
#
#
# Elastic Constant Matrix: (Units=GPa)
#
#
# Indices 1 2 3 4 5 6 
#
# 1 146.7043 -8.2625 42.3462 0.0000 0.0000 0.0000
# 2 -8.2625 61.8889 15.5210 0.0000 0.0000 0.0000
# 3 42.3462 15.5210 56.8693 0.0000 0.0000 0.0000
# 4 0.0000 0.0000 0.0000 19.3941 0.0000 0.0000
# 5 0.0000 0.0000 0.0000 0.0000 -3.8777 0.0000
# 6 0.0000 0.0000 0.0000 0.0000 0.0000 -17.5735
#
#
#
# Elastic Compliance Matrix: (Units=1/GPa)
#
#
# Indices 1 2 3 4 5 6 
#
# 1 0.009229 0.003173 -0.007738 0.000000 0.000000 0.000000
# 2 0.003173 0.018436 -0.007394 0.000000 0.000000 0.000000
# 3 -0.007738 -0.007394 0.025364 0.000000 0.000000 0.000000
# 4 0.000000 0.000000 0.000000 0.051562 0.000000 0.000000
# 5 0.000000 0.000000 0.000000 0.000000 -0.257884 0.000000
# 6 0.000000 0.000000 0.000000 0.000000 0.000000 -0.056904
#
#
# Mechanical properties :
#
#
# Convention : Reuss Voigt Hill
#
# Bulk Modulus (GPa) = 34.35231 40.51910 37.43570
# Shear Modulus (GPa) = -28.31647 13.97910 -7.16869
#
# Velocity S-wave (km/s) = -3.60987 2.53636 -1.81632
# Velocity P-wave (km/s) = 1.25142 5.21769 3.58178
#
# Compressibility (1/GPa) = 0.02911012
#
# Stress axis : x y z
#
# Youngs Moduli (GPa) = 108.35877 54.24206 39.42620
#
# Poissons Ratio (x) = -0.17209 0.30507
# Poissons Ratio (y) = -0.34378 0.29152
# Poissons Ratio (z) = 0.83845 0.40107
#
# Static dielectric constant tensor:
#      x y z
#    x 1.832610 0.000000 0.000000 
#    y 0.000000 1.813470 0.000000 
#    z 0.000000 0.000000 1.758910 
# 
# From -- ./inp_files/29137.got.cif
#   From: 2010.05.17/outbox.cif.g08.bks.cpg/sg51_15_cif.got.tgz:29137.got - 2010.06.03 11:52:47.
