data_PCOD9401455
_publ_section_title
;
Structure prediction by ZEFSAII (Michael W. Deem and Ramdas Pophale) SiO2 
 PCOD9401455
Probable space group: P M M A
;
_chemical_formula_sum "Si O2"
_cell_formula_units_Z 56
_cell_length_a 8.495690
_cell_length_b 15.119410
_cell_length_c 23.936452
_cell_angle_alpha 90.000000
_cell_angle_beta 90.000000
_cell_angle_gamma 90.000000
_cell_volume 3074.632959
_symmetry_space_group_name_H-M "P M M A"
_symmetry_group_IT_number 51
_symmetry_cell_setting 'orthorhombic'
loop_
_space_group_symop_operation_xyz
x,y,z
1/2-x,-y,z
1/2+x,-y,-z
-x,y,-z
-x,-y,-z
1/2+x,y,-z
1/2-x,y,z
x,-y,z
loop_
_atom_site_type_symbol
_atom_site_label
_atom_site_fract_x
_atom_site_fract_y
_atom_site_fract_z
Si Si1 0.436254 0.500000 0.063410
Si Si2 0.936557 0.646963 0.147195
Si Si3 0.442357 0.601234 0.726013
Si Si4 0.940874 0.099920 0.436848
Si Si5 0.566221 0.236207 0.345270
Si Si6 0.436969 0.000000 0.937758
Si Si7 0.566513 0.840131 0.865555
Si Si8 0.932969 0.898283 0.737759
O O1 0.250000 0.500000 0.059789
O O2 0.490784 0.416285 0.100366
O O3 0.500000 0.500000 0.000000
O O4 0.750000 0.631595 0.147223
O O5 0.993643 0.626093 0.210709
O O6 0.975417 0.748031 0.133678
O O7 0.250000 0.605803 0.726205
O O8 0.487095 0.500000 0.714292
O O9 0.499591 0.671890 0.679739
O O10 0.750000 0.101260 0.436008
O O11 0.000000 0.110504 0.500000
O O12 0.999686 0.180084 0.397640
O O13 0.988970 0.000000 0.418013
O O14 0.250000 0.251979 0.642528
O O15 0.545861 0.167508 0.294612
O O16 0.500004 0.086951 0.906906
O O17 0.250000 0.000000 0.936508
O O18 0.500000 0.000000 0.000000
O O19 0.750000 0.823371 0.877544
O O20 0.555303 0.880214 0.803397
O O21 0.750000 0.881784 0.721500
O O22 0.970611 0.000000 0.725967
#
# Coordination Sequence:
#
# PCOD9401455 Si02
#       8
#     4   8   8   8   8   4   8   8
#     4  12  26  44  64  88 114 148 187 236 295 350
#     4  11  21  38  62  89 116 147 187 232 283 347
#     4   9  17  31  54  83 112 142 178 224 280 339
#     4   9  18  32  50  75 109 148 191 235 279 331
#     4  10  19  32  53  82 110 142 187 234 277 330
#     4  12  26  44  64  84 108 148 195 238 285 340
#     4  11  22  39  59  84 117 150 185 230 281 341
#     4  10  20  33  50  77 113 147 176 217 274 331
#
# _framework density 18.213556000000001
#
# number of rings (size 3 to 8) (size 9 to 14) (size 15 to 20)
#    0.000    1.714    2.857    2.571    0.000    2.571 
#    0.000    4.286    0.000    0.429    0.000    0.000 
#    0.000    0.000    0.000    0.000    0.000    0.000 
#
# Total GULP energy -312512.578310 kJ/mol
# GULP energy per Si atom -5580.581756 kJ/mol
# Density = 1.817210 g / cm^3
# Si number density = 18.213556 Si / 1000 Ang^3
#
#
#
# Elastic Constant Matrix: (Units=GPa)
#
#
# Indices 1 2 3 4 5 6 
#
# 1 26.2794 8.1777 19.5118 0.0000 0.0000 0.0000
# 2 8.1777 151.1472 71.0741 0.0000 0.0000 0.0000
# 3 19.5118 71.0741 111.5046 0.0000 0.0000 0.0000
# 4 0.0000 0.0000 0.0000 -137.3673 0.0000 0.0000
# 5 0.0000 0.0000 0.0000 0.0000 23.6722 0.0000
# 6 0.0000 0.0000 0.0000 0.0000 0.0000 18.8922
#
#
#
# Elastic Compliance Matrix: (Units=1/GPa)
#
#
# Indices 1 2 3 4 5 6 
#
# 1 0.044065 0.001773 -0.008841 0.000000 0.000000 0.000000
# 2 0.001773 0.009519 -0.006378 0.000000 0.000000 0.000000
# 3 -0.008841 -0.006378 0.014581 0.000000 0.000000 0.000000
# 4 0.000000 0.000000 0.000000 -0.007280 0.000000 0.000000
# 5 0.000000 0.000000 0.000000 0.000000 0.042244 0.000000
# 6 0.000000 0.000000 0.000000 0.000000 0.000000 0.052932
#
#
# Mechanical properties :
#
#
# Convention : Reuss Voigt Hill
#
# Bulk Modulus (GPa) = 24.22866 54.05094 39.13980
# Shear Modulus (GPa) = 25.41810 -6.28275 9.56768
#
# Velocity S-wave (km/s) = 3.73977 -1.85929 2.29444
# Velocity P-wave (km/s) = 5.65502 5.01312 5.34372
#
# Compressibility (1/GPa) = 0.04127344
#
# Stress axis : x y z
#
# Youngs Moduli (GPa) = 22.69370 105.05052 68.58396
#
# Poissons Ratio (x) = -0.18628 0.60636
# Poissons Ratio (y) = -0.04024 0.43742
# Poissons Ratio (z) = 0.20064 0.67001
#
# Static dielectric constant tensor:
#      x y z
#    x 1.642270 0.000000 0.000000 
#    y 0.000000 1.624230 0.000000 
#    z 0.000000 0.000000 1.614810 
# 
# From -- ./inp_files/32144.got.cif
#   From: 2010.05.17/outbox.cif.g08.bks.cpg/sg51_17_cif.got.tgz:32144.got - 2010.06.03 11:52:47.
