data_PCOD9401611
_publ_section_title
;
Structure prediction by ZEFSAII (Michael W. Deem and Ramdas Pophale) SiO2 
 PCOD9401611
Probable space group: P M M A
;
_chemical_formula_sum "Si O2"
_cell_formula_units_Z 64
_cell_length_a 14.291427
_cell_length_b 21.303849
_cell_length_c 9.381544
_cell_angle_alpha 90.000000
_cell_angle_beta 90.000000
_cell_angle_gamma 90.000000
_cell_volume 2856.327428
_symmetry_space_group_name_H-M "P M M A"
_symmetry_group_IT_number 51
_symmetry_cell_setting 'orthorhombic'
loop_
_space_group_symop_operation_xyz
x,y,z
1/2-x,-y,z
1/2+x,-y,-z
-x,y,-z
-x,-y,-z
1/2+x,y,-z
1/2-x,y,z
x,-y,z
loop_
_atom_site_type_symbol
_atom_site_label
_atom_site_fract_x
_atom_site_fract_y
_atom_site_fract_z
Si Si1 0.635818 0.069885 0.756318
Si Si2 0.864446 0.929335 0.086266
Si Si3 0.144687 0.687106 0.256208
Si Si4 0.635850 0.430544 0.576334
Si Si5 0.360846 0.189906 0.737053
Si Si6 0.400319 0.307255 0.937778
Si Si7 0.365183 0.190940 0.413799
Si Si8 0.863528 0.428424 0.244234
O O1 0.750000 0.070312 0.755824
O O2 0.604293 0.125390 0.654311
O O3 0.606452 0.000000 0.712294
O O4 0.608322 0.080238 0.921153
O O5 0.750000 0.928725 0.088259
O O6 0.898251 0.872075 0.183330
O O7 0.892989 0.000000 0.129858
O O8 0.250000 0.687190 0.316128
O O9 0.100609 0.624289 0.321059
O O10 0.101715 0.751178 0.315736
O O11 0.152898 0.685907 0.086923
O O12 0.750000 0.433342 0.584128
O O13 0.601533 0.500000 0.616168
O O14 0.612754 0.418453 0.410971
O O15 0.250000 0.178700 0.721389
O O16 0.369719 0.251905 0.833231
O O17 0.396094 0.198839 0.576572
O O18 0.400999 0.372978 0.854423
O O19 0.500000 0.289672 0.000000
O O20 0.250000 0.189969 0.409878
O O21 0.750000 0.425065 0.234939
O O22 0.890271 0.500000 0.204662
#
# Coordination Sequence:
#
# PCOD9401611 Si02
#       8
#     8   8   8   8   8   8   8   8
#     4   8  13  22  37  63 101 133 155 193 255 314
#     4   8  14  25  45  75 107 136 166 205 255 308
#     4  10  19  33  54  76  99 129 169 213 254 299
#     4   8  15  30  55  84 106 125 158 205 251 299
#     4  10  19  33  53  74 101 136 175 217 259 308
#     4  12  25  37  50  73 107 142 177 215 256 303
#     4   9  17  28  47  74  98 127 169 215 258 301
#     4   9  18  36  61  83 104 133 168 207 255 309
#
# _framework density 22.406396000000001
#
# number of rings (size 3 to 8) (size 9 to 14) (size 15 to 20)
#    0.000    2.750    0.000    4.125    0.000    5.250 
#    0.000    6.250    0.000    1.875    0.000    0.000 
#    0.000    4.000    0.000    0.000    0.000    0.000 
#
# Total GULP energy -357489.079980 kJ/mol
# GULP energy per Si atom -5585.766875 kJ/mol
# Density = 2.235540 g / cm^3
# Si number density = 22.406396 Si / 1000 Ang^3
#
#
#
# Elastic Constant Matrix: (Units=GPa)
#
#
# Indices 1 2 3 4 5 6 
#
# 1 39.8844 -9.8361 -1.6652 0.0000 0.0000 0.0000
# 2 -9.8361 199.6962 134.6105 0.0000 0.0000 0.0000
# 3 -1.6652 134.6105 154.6227 0.0000 0.0000 0.0000
# 4 0.0000 0.0000 0.0000 78.3651 0.0000 0.0000
# 5 0.0000 0.0000 0.0000 0.0000 14.9345 0.0000
# 6 0.0000 0.0000 0.0000 0.0000 0.0000 -8.7174
#
#
#
# Elastic Compliance Matrix: (Units=1/GPa)
#
#
# Indices 1 2 3 4 5 6 
#
# 1 0.025632 0.002605 -0.001992 0.000000 0.000000 0.000000
# 2 0.002605 0.012385 -0.010754 0.000000 0.000000 0.000000
# 3 -0.001992 -0.010754 0.015808 0.000000 0.000000 0.000000
# 4 0.000000 0.000000 0.000000 0.012761 0.000000 0.000000
# 5 0.000000 0.000000 0.000000 0.000000 0.066959 0.000000
# 6 0.000000 0.000000 0.000000 0.000000 0.000000 -0.114713
#
#
# Mechanical properties :
#
#
# Convention : Reuss Voigt Hill
#
# Bulk Modulus (GPa) = 29.81219 71.15796 50.48507
# Shear Modulus (GPa) = 99.41423 34.98936 67.20180
#
# Velocity S-wave (km/s) = 6.66821 3.95597 5.48246
# Velocity P-wave (km/s) = 8.52178 7.25900 7.91561
#
# Compressibility (1/GPa) = 0.03354333
#
# Stress axis : x y z
#
# Youngs Moduli (GPa) = 39.01402 80.74358 63.25922
#
# Poissons Ratio (x) = -0.21036 0.12602
# Poissons Ratio (y) = -0.10165 0.68028
# Poissons Ratio (z) = 0.07772 0.86831
#
# Static dielectric constant tensor:
#      x y z
#    x 1.661100 0.000000 0.000000 
#    y 0.000000 1.710310 0.000000 
#    z 0.000000 0.000000 1.775040 
# 
# From -- ./inp_files/10047.got.cif
#   From: 2010.05.17/outbox.cif.g08.bks.cpg/sg51_6_cif.got.tgz:10047.got - 2010.06.03 11:52:47.
