data_PCOD9401625
_publ_section_title
;
Structure prediction by ZEFSAII (Michael W. Deem and Ramdas Pophale) SiO2 
 PCOD9401625
Probable space group: P M M A
;
_chemical_formula_sum "Si O2"
_cell_formula_units_Z 44
_cell_length_a 8.706210
_cell_length_b 29.660862
_cell_length_c 9.659858
_cell_angle_alpha 90.000000
_cell_angle_beta 90.000000
_cell_angle_gamma 90.000000
_cell_volume 2494.500809
_symmetry_space_group_name_H-M "P M M A"
_symmetry_group_IT_number 51
_symmetry_cell_setting 'orthorhombic'
loop_
_space_group_symop_operation_xyz
x,y,z
1/2-x,-y,z
1/2+x,-y,-z
-x,y,-z
-x,-y,-z
1/2+x,y,-z
1/2-x,y,z
x,-y,z
loop_
_atom_site_type_symbol
_atom_site_label
_atom_site_fract_x
_atom_site_fract_y
_atom_site_fract_z
Si Si1 0.933063 0.129770 0.344511
Si Si2 0.065225 0.598727 0.844051
Si Si3 0.434651 0.500000 0.844742
Si Si4 0.066035 0.222330 0.344036
Si Si5 0.066131 0.948227 0.154054
Si Si6 0.565947 0.677714 0.655494
O O1 0.750000 0.130616 0.351420
O O2 0.000000 0.126224 0.500000
O O3 0.993170 0.177256 0.281410
O O4 0.992034 0.087962 0.255563
O O5 0.250000 0.601182 0.849234
O O6 0.019922 0.548864 0.785720
O O7 0.000852 0.638536 0.750328
O O8 0.000000 0.602244 0.000000
O O9 0.250000 0.500000 0.850923
O O10 0.500000 0.500000 0.000000
O O11 0.250000 0.217402 0.348061
O O12 0.028368 0.272009 0.286694
O O13 0.000000 0.223597 0.500000
O O14 0.250000 0.942819 0.151993
O O15 0.031695 0.000000 0.196013
O O16 0.000000 0.942003 0.000000
O O17 0.500000 0.674204 0.500000
O O18 0.750000 0.674372 0.648612
#
# Coordination Sequence:
#
# PCOD9401625 Si02
#       6
#     8   8   4   8   8   8
#     4  11  21  34  55  81 108 137 173 216 258 301
#     4  10  19  33  53  76 103 133 169 212 256 305
#     4   8  16  30  49  72  97 130 168 206 252 304
#     4   9  17  31  51  74 102 134 170 210 254 306
#     4  10  21  38  58  79 106 140 175 211 256 310
#     4  10  20  34  53  77 104 136 172 210 255 306
#
# _framework density 17.638798999999999
#
# number of rings (size 3 to 8) (size 9 to 14) (size 15 to 20)
#    0.000    2.182    0.000    4.909    0.000    4.364 
#    0.000    1.364    0.000    4.364    0.000    0.000 
#    0.000    0.000    0.000    0.000    0.000    0.000 
#
# Total GULP energy -245302.167233 kJ/mol
# GULP energy per Si atom -5575.049255 kJ/mol
# Density = 1.759865 g / cm^3
# Si number density = 17.638799 Si / 1000 Ang^3
#
#
#
# Elastic Constant Matrix: (Units=GPa)
#
#
# Indices 1 2 3 4 5 6 
#
# 1 98.8502 85.9321 34.6018 0.0000 0.0000 0.0000
# 2 85.9321 216.5901 77.6932 0.0000 0.0000 0.0000
# 3 34.6018 77.6932 51.3504 0.0000 0.0000 0.0000
# 4 0.0000 0.0000 0.0000 42.4955 0.0000 0.0000
# 5 0.0000 0.0000 0.0000 0.0000 28.4408 0.0000
# 6 0.0000 0.0000 0.0000 0.0000 0.0000 29.8844
#
#
#
# Elastic Compliance Matrix: (Units=1/GPa)
#
#
# Indices 1 2 3 4 5 6 
#
# 1 0.015589 -0.005285 -0.002508 0.000000 0.000000 0.000000
# 2 -0.005285 0.011889 -0.014426 0.000000 0.000000 0.000000
# 3 -0.002508 -0.014426 0.042991 0.000000 0.000000 0.000000
# 4 0.000000 0.000000 0.000000 0.023532 0.000000 0.000000
# 5 0.000000 0.000000 0.000000 0.000000 0.035161 0.000000
# 6 0.000000 0.000000 0.000000 0.000000 0.000000 0.033462
#
#
# Mechanical properties :
#
#
# Convention : Reuss Voigt Hill
#
# Bulk Modulus (GPa) = 38.41732 84.80498 61.61115
# Shear Modulus (GPa) = 23.17619 31.40174 27.28897
#
# Velocity S-wave (km/s) = 3.62875 4.22390 3.93758
# Velocity P-wave (km/s) = 6.27570 8.48360 7.46176
#
# Compressibility (1/GPa) = 0.02602992
#
# Stress axis : x y z
#
# Youngs Moduli (GPa) = 64.14916 84.11211 23.26070
#
# Poissons Ratio (x) = 0.44456 0.05833
# Poissons Ratio (y) = 0.33905 0.33557
# Poissons Ratio (z) = 0.16085 1.21344
#
# Static dielectric constant tensor:
#      x y z
#    x 1.588240 0.000000 0.000000 
#    y 0.000000 1.653090 0.000000 
#    z 0.000000 0.000000 1.544590 
# 
# From -- ./inp_files/5750.got.cif
#   From: 2010.05.17/outbox.cif.g08.bks.cpg/sg51_3_cif.got.tgz:5750.got - 2010.06.03 11:52:47.
