data_PCOD9401772
_publ_section_title
;
Structure prediction by ZEFSAII (Michael W. Deem and Ramdas Pophale) SiO2 
 PCOD9401772
Probable space group: P M M A
;
_chemical_formula_sum "Si O2"
_cell_formula_units_Z 44
_cell_length_a 8.546284
_cell_length_b 29.427764
_cell_length_c 9.119771
_cell_angle_alpha 90.000000
_cell_angle_beta 90.000000
_cell_angle_gamma 90.000000
_cell_volume 2293.604428
_symmetry_space_group_name_H-M "P M M A"
_symmetry_group_IT_number 51
_symmetry_cell_setting 'orthorhombic'
loop_
_space_group_symop_operation_xyz
x,y,z
1/2-x,-y,z
1/2+x,-y,-z
-x,y,-z
-x,-y,-z
1/2+x,y,-z
1/2-x,y,z
x,-y,z
loop_
_atom_site_type_symbol
_atom_site_label
_atom_site_fract_x
_atom_site_fract_y
_atom_site_fract_z
Si Si1 0.938765 0.048727 0.667149
Si Si2 0.437206 0.588212 0.834631
Si Si3 0.063115 0.763962 0.835030
Si Si4 0.938884 0.148505 0.667462
Si Si5 0.562897 0.323741 0.665254
Si Si6 0.437241 0.500000 0.334589
O O1 0.750000 0.048683 0.664435
O O2 0.985729 0.098182 0.726752
O O3 0.000000 0.048532 0.500000
O O4 0.989884 0.000000 0.733908
O O5 0.250000 0.587309 0.835160
O O6 0.496261 0.633653 0.755101
O O7 0.501214 0.544568 0.748326
O O8 0.500000 0.587307 0.000000
O O9 0.250000 0.760886 0.834733
O O10 0.009455 0.811170 0.762555
O O11 0.993371 0.722594 0.741132
O O12 0.000000 0.760945 0.000000
O O13 0.750000 0.151769 0.666540
O O14 0.000000 0.152232 0.500000
O O15 0.500000 0.325579 0.500000
O O16 0.750000 0.325621 0.664794
O O17 0.750000 0.500000 0.664845
O O18 0.500000 0.500000 0.500000
#
# Coordination Sequence:
#
# PCOD9401772 Si02
#       6
#     8   8   8   8   8   4
#     4   8  14  25  44  72 106 142 181 227 279 334
#     4  12  25  44  67  96 130 168 208 252 303 358
#     4  12  25  42  61  84 114 151 193 240 293 351
#     4  10  19  33  54  82 114 149 189 235 286 342
#     4  12  25  44  67  94 124 158 198 244 295 351
#     4  12  25  44  67  96 130 170 214 260 307 356
#
# _framework density 19.183779999999999
#
# number of rings (size 3 to 8) (size 9 to 14) (size 15 to 20)
#    0.000    1.091    0.000    8.182    0.000    0.727 
#    0.000    0.000    0.000    0.545    0.000    0.000 
#    0.000    0.000    0.000    0.000    0.000    0.000 
#
# Total GULP energy -245973.348616 kJ/mol
# GULP energy per Si atom -5590.303378 kJ/mol
# Density = 1.914012 g / cm^3
# Si number density = 19.183780 Si / 1000 Ang^3
#
#
#
# Elastic Constant Matrix: (Units=GPa)
#
#
# Indices 1 2 3 4 5 6 
#
# 1 177.4543 76.0301 63.6426 0.0000 0.0000 0.0000
# 2 76.0301 216.2116 97.0770 0.0000 0.0000 0.0000
# 3 63.6426 97.0770 147.3936 0.0000 0.0000 0.0000
# 4 0.0000 0.0000 0.0000 -72.6525 0.0000 0.0000
# 5 0.0000 0.0000 0.0000 0.0000 35.3862 0.0000
# 6 0.0000 0.0000 0.0000 0.0000 0.0000 253.6341
#
#
#
# Elastic Compliance Matrix: (Units=1/GPa)
#
#
# Indices 1 2 3 4 5 6 
#
# 1 0.007026 -0.001574 -0.001997 0.000000 0.000000 0.000000
# 2 -0.001574 0.006920 -0.003878 0.000000 0.000000 0.000000
# 3 -0.001997 -0.003878 0.010201 0.000000 0.000000 0.000000
# 4 0.000000 0.000000 0.000000 -0.013764 0.000000 0.000000
# 5 0.000000 0.000000 0.000000 0.000000 0.028260 0.000000
# 6 0.000000 0.000000 0.000000 0.000000 0.000000 0.003943
#
#
# Mechanical properties :
#
#
# Convention : Reuss Voigt Hill
#
# Bulk Modulus (GPa) = 108.12280 112.72876 110.42578
# Shear Modulus (GPa) = 82.55575 63.56088 73.05831
#
# Velocity S-wave (km/s) = 6.56716 5.76234 6.17787
# Velocity P-wave (km/s) = 10.67649 10.15691 10.41994
#
# Compressibility (1/GPa) = 0.00924874
#
# Stress axis : x y z
#
# Youngs Moduli (GPa) = 142.33194 144.51478 98.03068
#
# Poissons Ratio (x) = 0.22746 0.19577
# Poissons Ratio (y) = 0.22403 0.38015
# Poissons Ratio (z) = 0.28424 0.56041
#
# Static dielectric constant tensor:
#      x y z
#    x 1.641310 0.000000 0.000000 
#    y 0.000000 1.683630 0.000000 
#    z 0.000000 0.000000 1.619060 
# 
# From -- ./inp_files/5820.got.cif
#   From: 2010.05.17/outbox.cif.g08.bks.cpg/sg51_3_cif.got.tgz:5820.got - 2010.06.03 11:52:47.
