data_PCOD9401345
_publ_section_title
;
Structure prediction by ZEFSAII (Michael W. Deem and Ramdas Pophale) SiO2 
 PCOD9401345
Probable space group: P M M A
;
_chemical_formula_sum "Si O2"
_cell_formula_units_Z 48
_cell_length_a 8.009110
_cell_length_b 33.135884
_cell_length_c 9.276008
_cell_angle_alpha 90.000000
_cell_angle_beta 90.000000
_cell_angle_gamma 90.000000
_cell_volume 2461.749930
_symmetry_space_group_name_H-M "P M M A"
_symmetry_group_IT_number 51
_symmetry_cell_setting 'orthorhombic'
loop_
_space_group_symop_operation_xyz
x,y,z
1/2-x,-y,z
1/2+x,-y,-z
-x,y,-z
-x,-y,-z
1/2+x,y,-z
1/2-x,y,z
x,-y,z
loop_
_atom_site_type_symbol
_atom_site_label
_atom_site_fract_x
_atom_site_fract_y
_atom_site_fract_z
Si Si1 0.451785 0.868861 0.667878
Si Si2 0.548529 0.043310 0.330914
Si Si3 0.550788 0.369049 0.832668
Si Si4 0.448074 0.710928 0.665574
Si Si5 0.548025 0.789568 0.166262
Si Si6 0.548402 0.456691 0.830879
O O1 0.500000 0.864694 0.500000
O O2 0.250000 0.869057 0.674437
O O3 0.511181 0.912966 0.723527
O O4 0.513327 0.830592 0.757750
O O5 0.500000 0.043285 0.500000
O O6 0.750000 0.043179 0.320793
O O7 0.487933 0.000000 0.270394
O O8 0.750000 0.370365 0.828517
O O9 0.495243 0.330898 0.741214
O O10 0.487414 0.412974 0.777081
O O11 0.500000 0.364317 0.000000
O O12 0.500000 0.711664 0.500000
O O13 0.250000 0.713955 0.671082
O O14 0.516505 0.749802 0.751262
O O15 0.750000 0.789746 0.175417
O O16 0.500000 0.788205 0.000000
O O17 0.750000 0.456891 0.820279
O O18 0.487733 0.500000 0.770330
O O19 0.500000 0.456744 0.000000
#
# Coordination Sequence:
#
# PCOD9401345 Si02
#       6
#     8   8   8   8   8   8
#     4   9  17  30  48  72  99 126 160 199 240 286
#     4   8  13  22  39  64  93 123 154 191 234 278
#     4  10  19  32  52  78 107 137 169 206 247 291
#     4  11  23  38  55  75  99 128 164 205 251 301
#     4  10  22  37  53  73  97 127 162 200 242 291
#     4   8  14  25  43  69 100 132 165 201 240 282
#
# _framework density 19.498325999999999
#
# number of rings (size 3 to 8) (size 9 to 14) (size 15 to 20)
#    0.000    2.667    0.000    2.000    0.000    4.000 
#    0.000    0.000    0.000    1.000    0.000    0.000 
#    0.000    0.000    0.000    0.000    0.000    0.000 
#
# Total GULP energy -267391.821780 kJ/mol
# GULP energy per Si atom -5570.662954 kJ/mol
# Density = 1.945395 g / cm^3
# Si number density = 19.498326 Si / 1000 Ang^3
#
#
#
# Elastic Constant Matrix: (Units=GPa)
#
#
# Indices 1 2 3 4 5 6 
#
# 1 20.5367 18.7828 3.1342 0.0000 0.0000 0.0000
# 2 18.7828 273.2561 94.5211 0.0000 0.0000 0.0000
# 3 3.1342 94.5211 81.6535 0.0000 0.0000 0.0000
# 4 0.0000 0.0000 0.0000 22.6299 0.0000 0.0000
# 5 0.0000 0.0000 0.0000 0.0000 23.5742 0.0000
# 6 0.0000 0.0000 0.0000 0.0000 0.0000 16.4708
#
#
#
# Elastic Compliance Matrix: (Units=1/GPa)
#
#
# Indices 1 2 3 4 5 6 
#
# 1 0.052591 -0.004865 0.003612 0.000000 0.000000 0.000000
# 2 -0.004865 0.006553 -0.007399 0.000000 0.000000 0.000000
# 3 0.003612 -0.007399 0.020674 0.000000 0.000000 0.000000
# 4 0.000000 0.000000 0.000000 0.044189 0.000000 0.000000
# 5 0.000000 0.000000 0.000000 0.000000 0.042419 0.000000
# 6 0.000000 0.000000 0.000000 0.000000 0.000000 0.060713
#
#
# Mechanical properties :
#
#
# Convention : Reuss Voigt Hill
#
# Bulk Modulus (GPa) = 15.99611 67.59138 41.79375
# Shear Modulus (GPa) = 18.84786 29.80219 24.32502
#
# Velocity S-wave (km/s) = 3.11246 3.91378 3.53589
# Velocity P-wave (km/s) = 4.59763 7.42725 6.17666
#
# Compressibility (1/GPa) = 0.06251519
#
# Stress axis : x y z
#
# Youngs Moduli (GPa) = 19.01460 152.59079 48.37045
#
# Poissons Ratio (x) = 0.74228 -0.17473
# Poissons Ratio (y) = 0.09250 0.35792
# Poissons Ratio (z) = -0.06869 1.12910
#
# Static dielectric constant tensor:
#      x y z
#    x 1.720920 0.000000 0.000000 
#    y 0.000000 1.786490 0.000000 
#    z 0.000000 0.000000 1.624540 
# 
# From -- ./inp_files/6075.got.cif
#   From: 2010.05.17/outbox.cif.g08.bks.cpg/sg51_4_cif.got.tgz:6075.got - 2010.06.03 11:52:47.
