data_PCOD9401758
_publ_section_title
;
Structure prediction by ZEFSAII (Michael W. Deem and Ramdas Pophale) SiO2 
 PCOD9401758
Probable space group: P M M A
;
_chemical_formula_sum "Si O2"
_cell_formula_units_Z 48
_cell_length_a 8.623935
_cell_length_b 32.655408
_cell_length_c 9.196714
_cell_angle_alpha 90.000000
_cell_angle_beta 90.000000
_cell_angle_gamma 90.000000
_cell_volume 2589.961270
_symmetry_space_group_name_H-M "P M M A"
_symmetry_group_IT_number 51
_symmetry_cell_setting 'orthorhombic'
loop_
_space_group_symop_operation_xyz
x,y,z
1/2-x,-y,z
1/2+x,-y,-z
-x,y,-z
-x,-y,-z
1/2+x,y,-z
1/2-x,y,z
x,-y,z
loop_
_atom_site_type_symbol
_atom_site_label
_atom_site_fract_x
_atom_site_fract_y
_atom_site_fract_z
Si Si1 0.935841 0.044556 0.165318
Si Si2 0.562962 0.456074 0.664970
Si Si3 0.562987 0.633780 0.665094
Si Si4 0.436385 0.789038 0.337282
Si Si5 0.564884 0.711350 0.162588
Si Si6 0.564518 0.870738 0.836029
O O1 0.750000 0.047270 0.160691
O O2 0.002920 0.086417 0.229468
O O3 0.978328 0.000000 0.230397
O O4 0.000000 0.044015 0.000000
O O5 0.500000 0.456229 0.500000
O O6 0.750000 0.456118 0.660439
O O7 0.513263 0.500000 0.731720
O O8 0.517231 0.411527 0.724965
O O9 0.500000 0.636978 0.500000
O O10 0.750000 0.636636 0.662281
O O11 0.494393 0.670278 0.759267
O O12 0.500000 0.788730 0.500000
O O13 0.250000 0.786396 0.338686
O O14 0.503206 0.750455 0.250707
O O15 0.481196 0.831231 0.256975
O O16 0.750000 0.711825 0.160513
O O17 0.500000 0.713053 0.000000
O O18 0.750000 0.872760 0.844158
O O19 0.500000 0.866517 0.000000
#
# Coordination Sequence:
#
# PCOD9401758 Si02
#       6
#     8   8   8   8   8   8
#     4   9  16  26  44  72 105 140 177 217 260 306
#     4   8  14  25  44  72 105 140 177 217 260 306
#     4  10  19  33  54  81 113 146 181 222 267 315
#     4  11  24  41  60  83 109 140 178 219 268 321
#     4  12  25  41  60  81 107 139 177 221 269 322
#     4  10  20  33  53  80 109 141 177 218 264 314
#
# _framework density 18.533097000000001
#
# number of rings (size 3 to 8) (size 9 to 14) (size 15 to 20)
#    0.000    2.000    0.000    5.500    0.000    5.667 
#    0.000    0.000    0.000    1.000    0.000    0.000 
#    0.000    0.000    0.000    0.000    0.000    0.000 
#
# Total GULP energy -267735.823398 kJ/mol
# GULP energy per Si atom -5577.829654 kJ/mol
# Density = 1.849091 g / cm^3
# Si number density = 18.533097 Si / 1000 Ang^3
#
#
#
# Elastic Constant Matrix: (Units=GPa)
#
#
# Indices 1 2 3 4 5 6 
#
# 1 74.1690 67.9605 32.7138 0.0000 0.0000 0.0000
# 2 67.9605 249.1446 83.7961 0.0000 0.0000 0.0000
# 3 32.7138 83.7961 83.1310 0.0000 0.0000 0.0000
# 4 0.0000 0.0000 0.0000 -1.0584 0.0000 0.0000
# 5 0.0000 0.0000 0.0000 0.0000 23.7901 0.0000
# 6 0.0000 0.0000 0.0000 0.0000 0.0000 25.1824
#
#
#
# Elastic Compliance Matrix: (Units=1/GPa)
#
#
# Indices 1 2 3 4 5 6 
#
# 1 0.018566 -0.003944 -0.003330 0.000000 0.000000 0.000000
# 2 -0.003944 0.006910 -0.005414 0.000000 0.000000 0.000000
# 3 -0.003330 -0.005414 0.018797 0.000000 0.000000 0.000000
# 4 0.000000 0.000000 0.000000 -0.944843 0.000000 0.000000
# 5 0.000000 0.000000 0.000000 0.000000 0.042034 0.000000
# 6 0.000000 0.000000 0.000000 0.000000 0.000000 0.039710
#
#
# Mechanical properties :
#
#
# Convention : Reuss Voigt Hill
#
# Bulk Modulus (GPa) = 52.91938 86.15394 69.53666
# Shear Modulus (GPa) = -6.35202 24.38110 9.01454
#
# Velocity S-wave (km/s) = -1.85333 3.63098 2.20785
# Velocity P-wave (km/s) = 4.90267 8.01038 6.64087
#
# Compressibility (1/GPa) = 0.01889667
#
# Stress axis : x y z
#
# Youngs Moduli (GPa) = 53.86302 144.71002 53.20119
#
# Poissons Ratio (x) = 0.57076 0.17717
# Poissons Ratio (y) = 0.21244 0.28801
# Poissons Ratio (z) = 0.17938 0.78339
#
# Static dielectric constant tensor:
#      x y z
#    x 1.622350 0.000000 0.000000 
#    y 0.000000 1.699480 0.000000 
#    z 0.000000 0.000000 1.576940 
# 
# From -- ./inp_files/6063.got.cif
#   From: 2010.05.17/outbox.cif.g08.bks.cpg/sg51_4_cif.got.tgz:6063.got - 2010.06.03 11:52:47.
