data_PCOD9401065
_publ_section_title
;
Structure prediction by ZEFSAII (Michael W. Deem and Ramdas Pophale) SiO2 
 PCOD9401065
Probable space group: P M M A
;
_chemical_formula_sum "Si O2"
_cell_formula_units_Z 64
_cell_length_a 8.492519
_cell_length_b 19.733929
_cell_length_c 24.432233
_cell_angle_alpha 90.000000
_cell_angle_beta 90.000000
_cell_angle_gamma 90.000000
_cell_volume 4094.616667
_symmetry_space_group_name_H-M "P M M A"
_symmetry_group_IT_number 51
_symmetry_cell_setting 'orthorhombic'
loop_
_space_group_symop_operation_xyz
x,y,z
1/2-x,-y,z
1/2+x,-y,-z
-x,y,-z
-x,-y,-z
1/2+x,y,-z
1/2-x,y,z
x,-y,z
loop_
_atom_site_type_symbol
_atom_site_label
_atom_site_fract_x
_atom_site_fract_y
_atom_site_fract_z
Si Si1 0.559833 0.078455 0.440293
Si Si2 0.938173 0.285593 0.059734
Si Si3 0.939720 0.718043 0.727258
Si Si4 0.440272 0.575298 0.887353
Si Si5 0.561820 0.796708 0.838028
Si Si6 0.559582 0.922302 0.223279
Si Si7 0.060292 0.843579 0.666963
Si Si8 0.940443 0.575080 0.763074
O O1 0.500000 0.099467 0.500000
O O2 0.750000 0.079461 0.440716
O O3 0.504570 0.125213 0.390298
O O4 0.510982 0.000000 0.431208
O O5 0.750000 0.286660 0.058784
O O6 0.995406 0.361197 0.076862
O O7 0.993174 0.234401 0.106825
O O8 0.000000 0.267596 0.000000
O O9 0.750000 0.720030 0.724685
O O10 0.987604 0.750246 0.785999
O O11 0.992056 0.639893 0.727907
O O12 0.004996 0.768029 0.681224
O O13 0.250000 0.576349 0.886356
O O14 0.490493 0.500000 0.906308
O O15 0.500269 0.583783 0.825261
O O16 0.750000 0.795176 0.840877
O O17 0.504585 0.871843 0.822842
O O18 0.750000 0.920719 0.221913
O O19 0.509462 0.891061 0.281999
O O20 0.508639 0.000000 0.217738
O O21 0.250000 0.844416 0.666446
O O22 0.750000 0.576085 0.764561
O O23 0.990853 0.500000 0.744333
#
# Coordination Sequence:
#
# PCOD9401065 Si02
#       8
#     8   8   8   8   8   8   8   8
#     4   9  17  29  44  63  90 125 162 194 222 256
#     4  11  22  34  49  66  87 115 148 184 222 266
#     4   9  17  28  43  65  91 117 147 185 225 263
#     4   9  18  31  46  65  88 114 146 183 219 259
#     4  10  19  32  48  67  91 115 144 181 222 268
#     4   9  17  30  49  71  93 118 147 180 220 265
#     4   9  17  28  44  66  92 123 156 188 220 258
#     4   9  16  27  44  64  88 119 150 179 217 266
#
# _framework density 15.630279
#
# number of rings (size 3 to 8) (size 9 to 14) (size 15 to 20)
#    0.000    2.625    1.250    1.125    0.000    4.000 
#    0.000    0.000    0.000    2.625    0.000    0.000 
#    0.000    0.500    0.000    1.125    0.000    1.750 
#
# Total GULP energy -356701.130403 kJ/mol
# GULP energy per Si atom -5573.455163 kJ/mol
# Density = 1.559470 g / cm^3
# Si number density = 15.630279 Si / 1000 Ang^3
#
#
#
# Elastic Constant Matrix: (Units=GPa)
#
#
# Indices 1 2 3 4 5 6 
#
# 1 9.1472 21.5332 18.2191 0.0000 0.0000 0.0000
# 2 21.5332 127.0623 71.1483 0.0000 0.0000 0.0000
# 3 18.2191 71.1483 111.0146 0.0000 0.0000 0.0000
# 4 0.0000 0.0000 0.0000 25.8597 0.0000 0.0000
# 5 0.0000 0.0000 0.0000 0.0000 20.8539 0.0000
# 6 0.0000 0.0000 0.0000 0.0000 0.0000 18.1396
#
#
#
# Elastic Compliance Matrix: (Units=1/GPa)
#
#
# Indices 1 2 3 4 5 6 
#
# 1 0.201426 -0.024372 -0.017437 0.000000 0.000000 0.000000
# 2 -0.024372 0.015224 -0.005757 0.000000 0.000000 0.000000
# 3 -0.017437 -0.005757 0.015559 0.000000 0.000000 0.000000
# 4 0.000000 0.000000 0.000000 0.038670 0.000000 0.000000
# 5 0.000000 0.000000 0.000000 0.000000 0.047953 0.000000
# 6 0.000000 0.000000 0.000000 0.000000 0.000000 0.055128
#
#
# Mechanical properties :
#
#
# Convention : Reuss Voigt Hill
#
# Bulk Modulus (GPa) = 7.29517 52.11393 29.70455
# Shear Modulus (GPa) = 9.71278 22.05887 15.88583
#
# Velocity S-wave (km/s) = 2.49551 3.76079 3.19148
# Velocity P-wave (km/s) = 3.60290 7.22994 5.71196
#
# Compressibility (1/GPa) = 0.13707699
#
# Stress axis : x y z
#
# Youngs Moduli (GPa) = 4.96460 65.68489 64.26993
#
# Poissons Ratio (x) = 1.60084 1.12070
# Poissons Ratio (y) = 0.12100 0.37002
# Poissons Ratio (z) = 0.08657 0.37817
#
# Static dielectric constant tensor:
#      x y z
#    x 1.533020 0.000000 0.000000 
#    y 0.000000 1.544010 0.000000 
#    z 0.000000 0.000000 1.489530 
# 
# From -- ./inp_files/32660.got.cif
#   From: 2010.05.17/outbox.cif.g08.bks.cpg/sg51_17_cif.got.tgz:32660.got - 2010.06.03 11:52:47.
