data_PCOD9401634
_publ_section_title
;
Structure prediction by ZEFSAII (Michael W. Deem and Ramdas Pophale) SiO2 
 PCOD9401634
Probable space group: P M M A
;
_chemical_formula_sum "Si O2"
_cell_formula_units_Z 36
_cell_length_a 8.518242
_cell_length_b 23.641159
_cell_length_c 10.226173
_cell_angle_alpha 90.000000
_cell_angle_beta 90.000000
_cell_angle_gamma 90.000000
_cell_volume 2059.358106
_symmetry_space_group_name_H-M "P M M A"
_symmetry_group_IT_number 51
_symmetry_cell_setting 'orthorhombic'
loop_
_space_group_symop_operation_xyz
x,y,z
1/2-x,-y,z
1/2+x,-y,-z
-x,y,-z
-x,-y,-z
1/2+x,y,-z
1/2-x,y,z
x,-y,z
loop_
_atom_site_type_symbol
_atom_site_label
_atom_site_fract_x
_atom_site_fract_y
_atom_site_fract_z
Si Si1 0.938211 0.285510 0.644822
Si Si2 0.060349 0.064325 0.145293
Si Si3 0.060447 0.844275 0.356117
Si Si4 0.938982 0.500000 0.148275
Si Si5 0.561339 0.624183 0.148912
O O1 0.750000 0.287174 0.643138
O O2 0.988583 0.220498 0.671993
O O3 0.000000 0.300384 0.500000
O O4 0.999829 0.327733 0.754938
O O5 0.250000 0.065385 0.143428
O O6 0.005184 0.110840 0.248795
O O7 0.011432 0.000000 0.179341
O O8 0.000000 0.076681 0.000000
O O9 0.250000 0.845186 0.357646
O O10 0.000000 0.859158 0.500000
O O11 0.750000 0.500000 0.148660
O O12 0.988870 0.438537 0.200753
O O13 0.000000 0.500000 0.000000
O O14 0.750000 0.626003 0.145031
O O15 0.500000 0.630769 0.000000
#
# Coordination Sequence:
#
# PCOD9401634 Si02
#       5
#     8   8   8   4   8
#     4  10  20  35  52  72 100 133 167 205 250 296
#     4   9  18  33  51  72  99 129 161 199 242 287
#     4   9  19  34  51  72  98 128 163 202 243 289
#     4   8  16  30  49  72  99 128 160 200 244 290
#     4  10  19  33  53  77 102 130 165 204 246 293
#
# _framework density 17.481176999999999
#
# number of rings (size 3 to 8) (size 9 to 14) (size 15 to 20)
#    0.000    2.667    0.000    1.333    0.000    4.000 
#    0.000    2.778    0.000    0.000    0.000    0.000 
#    0.000    0.000    0.000    0.000    0.000    0.000 
#
# Total GULP energy -200631.417296 kJ/mol
# GULP energy per Si atom -5573.094925 kJ/mol
# Density = 1.744139 g / cm^3
# Si number density = 17.481177 Si / 1000 Ang^3
#
#
#
# Elastic Constant Matrix: (Units=GPa)
#
#
# Indices 1 2 3 4 5 6 
#
# 1 23.3692 31.1811 27.7046 0.0000 0.0000 0.0000
# 2 31.1811 156.5111 123.7076 0.0000 0.0000 0.0000
# 3 27.7046 123.7076 125.2902 0.0000 0.0000 0.0000
# 4 0.0000 0.0000 0.0000 -84.1863 0.0000 0.0000
# 5 0.0000 0.0000 0.0000 0.0000 31.8734 0.0000
# 6 0.0000 0.0000 0.0000 0.0000 0.0000 21.9782
#
#
#
# Elastic Compliance Matrix: (Units=1/GPa)
#
#
# Indices 1 2 3 4 5 6 
#
# 1 0.059464 -0.006621 -0.006612 0.000000 0.000000 0.000000
# 2 -0.006621 0.029836 -0.027995 0.000000 0.000000 0.000000
# 3 -0.006612 -0.027995 0.037085 0.000000 0.000000 0.000000
# 4 0.000000 0.000000 0.000000 -0.011878 0.000000 0.000000
# 5 0.000000 0.000000 0.000000 0.000000 0.031374 0.000000
# 6 0.000000 0.000000 0.000000 0.000000 0.000000 0.045500
#
#
# Mechanical properties :
#
#
# Convention : Reuss Voigt Hill
#
# Bulk Modulus (GPa) = 22.76379 74.48414 48.62396
# Shear Modulus (GPa) = 17.33242 2.10486 9.71864
#
# Velocity S-wave (km/s) = 3.15221 1.09849 2.36041
# Velocity P-wave (km/s) = 5.12823 6.65655 5.94173
#
# Compressibility (1/GPa) = 0.04392942
#
# Stress axis : x y z
#
# Youngs Moduli (GPa) = 16.81703 33.51691 26.96536
#
# Poissons Ratio (x) = 0.22191 0.17828
# Poissons Ratio (y) = 0.11134 0.75489
# Poissons Ratio (z) = 0.11119 0.93830
#
# Static dielectric constant tensor:
#      x y z
#    x 1.598330 0.000000 0.000000 
#    y 0.000000 1.629160 0.000000 
#    z 0.000000 0.000000 1.542860 
# 
# From -- ./inp_files/5028.got.cif
#   From: 2010.05.17/outbox.cif.g08.bks.cpg/sg51_3_cif.got.tgz:5028.got - 2010.06.03 11:52:47.
