data_PCOD9401079
_publ_section_title
;
Structure prediction by ZEFSAII (Michael W. Deem and Ramdas Pophale) SiO2 
 PCOD9401079
Probable space group: P M M A
;
_chemical_formula_sum "Si O2"
_cell_formula_units_Z 64
_cell_length_a 8.936831
_cell_length_b 20.378727
_cell_length_c 20.549856
_cell_angle_alpha 90.000000
_cell_angle_beta 90.000000
_cell_angle_gamma 90.000000
_cell_volume 3742.565240
_symmetry_space_group_name_H-M "P M M A"
_symmetry_group_IT_number 51
_symmetry_cell_setting 'orthorhombic'
loop_
_space_group_symop_operation_xyz
x,y,z
1/2-x,-y,z
1/2+x,-y,-z
-x,y,-z
-x,-y,-z
1/2+x,y,-z
1/2-x,y,z
x,-y,z
loop_
_atom_site_type_symbol
_atom_site_label
_atom_site_fract_x
_atom_site_fract_y
_atom_site_fract_z
Si Si1 0.072100 0.883842 0.564505
Si Si2 0.070567 0.712802 0.747510
Si Si3 0.924096 0.603718 0.566946
Si Si4 0.069615 0.074962 0.070673
Si Si5 0.425368 0.248244 0.389581
Si Si6 0.429925 0.571666 0.704713
Si Si7 0.072185 0.925774 0.709551
Si Si8 0.571310 0.169818 0.812561
O O1 0.250000 0.880337 0.556450
O O2 0.040070 0.919399 0.632784
O O3 0.000000 0.913843 0.500000
O O4 0.003902 0.811332 0.574045
O O5 0.250000 0.717763 0.748204
O O6 0.026067 0.635852 0.746168
O O7 0.008011 0.740336 0.679013
O O8 0.002254 0.759030 0.802893
O O9 0.750000 0.585620 0.567502
O O10 0.934677 0.682976 0.572470
O O11 0.000000 0.582148 0.500000
O O12 0.002381 0.578330 0.632426
O O13 0.250000 0.076826 0.066106
O O14 0.023275 0.128678 0.123854
O O15 0.027749 0.000000 0.090151
O O16 0.000000 0.087338 0.000000
O O17 0.250000 0.233615 0.378674
O O18 0.250000 0.574169 0.698758
O O19 0.472074 0.500000 0.731402
O O20 0.250000 0.912610 0.717846
O O21 0.979983 0.874351 0.751455
O O22 0.040945 0.000000 0.730975
O O23 0.750000 0.176119 0.812904
#
# Coordination Sequence:
#
# PCOD9401079 Si02
#       8
#     8   8   8   8   8   8   8   8
#     4  11  22  34  49  67  90 121 161 210 264 318
#     4  10  19  32  52  76 101 129 165 208 253 301
#     4  10  20  31  45  66  90 119 156 198 249 311
#     4   9  19  35  54  80 114 150 184 215 248 291
#     4  10  19  32  49  69  92 119 156 204 258 311
#     4   9  19  35  52  69  93 126 162 204 255 308
#     4  10  22  38  53  71  96 128 169 214 260 310
#     4  11  21  34  55  81 109 139 175 213 251 298
#
# _framework density 17.100570999999999
#
# number of rings (size 3 to 8) (size 9 to 14) (size 15 to 20)
#    0.000    2.000    1.250    2.625    0.000    6.000 
#    0.000    1.250    0.000    0.000    0.000    0.000 
#    0.000    0.500    0.000    1.125    0.000    1.750 
#
# Total GULP energy -357269.423823 kJ/mol
# GULP energy per Si atom -5582.334747 kJ/mol
# Density = 1.706165 g / cm^3
# Si number density = 17.100571 Si / 1000 Ang^3
#
#
#
# Elastic Constant Matrix: (Units=GPa)
#
#
# Indices 1 2 3 4 5 6 
#
# 1 39.6643 37.1644 31.4562 0.0000 0.0000 0.0000
# 2 37.1644 118.3129 54.9557 0.0000 0.0000 0.0000
# 3 31.4562 54.9557 76.2970 0.0000 0.0000 0.0000
# 4 0.0000 0.0000 0.0000-2890.4877 0.0000 0.0000
# 5 0.0000 0.0000 0.0000 0.0000 24.4147 0.0000
# 6 0.0000 0.0000 0.0000 0.0000 0.0000 15.3271
#
#
#
# Elastic Compliance Matrix: (Units=1/GPa)
#
#
# Indices 1 2 3 4 5 6 
#
# 1 0.041628 -0.007671 -0.011638 0.000000 0.000000 0.000000
# 2 -0.007671 0.014115 -0.007005 0.000000 0.000000 0.000000
# 3 -0.011638 -0.007005 0.022950 0.000000 0.000000 0.000000
# 4 0.000000 0.000000 0.000000 -0.000346 0.000000 0.000000
# 5 0.000000 0.000000 0.000000 0.000000 0.040959 0.000000
# 6 0.000000 0.000000 0.000000 0.000000 0.000000 0.065244
#
#
# Mechanical properties :
#
#
# Convention : Reuss Voigt Hill
#
# Bulk Modulus (GPa) = 38.36158 53.49186 45.92672
# Shear Modulus (GPa) = 20.33638 -562.76931 -271.21647
#
# Velocity S-wave (km/s) = 3.45225 -18.16063 -12.60734
# Velocity P-wave (km/s) = 6.19454 20.20880 13.60190
#
# Compressibility (1/GPa) = 0.02606775
#
# Stress axis : x y z
#
# Youngs Moduli (GPa) = 24.02224 70.84561 43.57299
#
# Poissons Ratio (x) = 0.54343 0.50709
# Poissons Ratio (y) = 0.18426 0.30521
# Poissons Ratio (z) = 0.27956 0.49624
#
# Static dielectric constant tensor:
#      x y z
#    x 1.570570 0.000000 0.000000 
#    y 0.000000 1.616530 0.000000 
#    z 0.000000 0.000000 1.554610 
# 
# From -- ./inp_files/32618.got.cif
#   From: 2010.05.17/outbox.cif.g08.bks.cpg/sg51_17_cif.got.tgz:32618.got - 2010.06.03 11:52:47.
