data_PCOD9401357
_publ_section_title
;
Structure prediction by ZEFSAII (Michael W. Deem and Ramdas Pophale) SiO2 
 PCOD9401357
Probable space group: P M M A
;
_chemical_formula_sum "Si O2"
_cell_formula_units_Z 64
_cell_length_a 9.101310
_cell_length_b 28.881191
_cell_length_c 14.044994
_cell_angle_alpha 90.000000
_cell_angle_beta 90.000000
_cell_angle_gamma 90.000000
_cell_volume 3691.820388
_symmetry_space_group_name_H-M "P M M A"
_symmetry_group_IT_number 51
_symmetry_cell_setting 'orthorhombic'
loop_
_space_group_symop_operation_xyz
x,y,z
1/2-x,-y,z
1/2+x,-y,-z
-x,y,-z
-x,-y,-z
1/2+x,y,-z
1/2-x,y,z
x,-y,z
loop_
_atom_site_type_symbol
_atom_site_label
_atom_site_fract_x
_atom_site_fract_y
_atom_site_fract_z
Si Si1 0.424256 0.781758 0.728345
Si Si2 0.917724 0.943618 0.094888
Si Si3 0.925648 0.143097 0.599863
Si Si4 0.425112 0.729343 0.102786
Si Si5 0.424636 0.361877 0.230000
Si Si6 0.573311 0.446646 0.898689
Si Si7 0.576960 0.689391 0.397932
Si Si8 0.925664 0.052850 0.708856
O O1 0.250000 0.789716 0.740037
O O2 0.505409 0.825050 0.681572
O O3 0.499006 0.766108 0.826658
O O4 0.443683 0.738783 0.654934
O O5 0.750000 0.927653 0.096208
O O6 0.999535 0.931973 0.192490
O O7 0.916811 0.000000 0.091002
O O8 0.000000 0.927268 0.000000
O O9 0.750000 0.149438 0.594974
O O10 0.958499 0.089901 0.627579
O O11 0.000000 0.155156 0.500000
O O12 0.250000 0.737135 0.096096
O O13 0.447989 0.679420 0.153515
O O14 0.500000 0.729953 0.000000
O O15 0.250000 0.363637 0.249638
O O16 0.471451 0.409793 0.181132
O O17 0.508618 0.347972 0.325578
O O18 0.750000 0.443326 0.909008
O O19 0.536714 0.500000 0.875029
O O20 0.500000 0.435544 0.000000
O O21 0.500000 0.689356 0.500000
O O22 0.750000 0.681772 0.409377
O O23 0.750000 0.052733 0.723388
O O24 0.971625 0.000000 0.687127
#
# Coordination Sequence:
#
# PCOD9401357 Si02
#       8
#     8   8   8   8   8   8   8   8
#     4  10  21  37  56  78 104 134 168 206 251 302
#     4   9  16  27  47  74 101 129 160 195 236 281
#     4  11  23  38  57  79 103 133 168 206 250 298
#     4  10  19  32  52  78 109 142 174 209 252 303
#     4   9  18  31  48  72 103 138 174 214 258 303
#     4   9  17  29  46  70 101 137 175 214 256 302
#     4  10  20  33  52  76 100 128 164 209 258 307
#     4   9  19  36  55  76 104 135 167 204 244 288
#
# _framework density 17.335622000000001
#
# number of rings (size 3 to 8) (size 9 to 14) (size 15 to 20)
#    0.000    2.375    0.000    2.625    0.000    6.250 
#    0.000    0.625    0.000    3.375    0.000    0.000 
#    0.000    0.000    0.000    0.000    0.000    0.000 
#
# Total GULP energy -357117.251279 kJ/mol
# GULP energy per Si atom -5579.957051 kJ/mol
# Density = 1.729617 g / cm^3
# Si number density = 17.335622 Si / 1000 Ang^3
#
#
#
# Elastic Constant Matrix: (Units=GPa)
#
#
# Indices 1 2 3 4 5 6 
#
# 1 68.7866 42.3215 63.1519 0.0000 0.0000 0.0000
# 2 42.3215 60.8368 35.9478 0.0000 0.0000 0.0000
# 3 63.1519 35.9478 118.0072 0.0000 0.0000 0.0000
# 4 0.0000 0.0000 0.0000 22.1672 0.0000 0.0000
# 5 0.0000 0.0000 0.0000 0.0000 34.4292 0.0000
# 6 0.0000 0.0000 0.0000 0.0000 0.0000 19.3412
#
#
#
# Elastic Compliance Matrix: (Units=1/GPa)
#
#
# Indices 1 2 3 4 5 6 
#
# 1 0.041137 -0.019035 -0.016216 0.000000 0.000000 0.000000
# 2 -0.019035 0.028854 0.001397 0.000000 0.000000 0.000000
# 3 -0.016216 0.001397 0.016726 0.000000 0.000000 0.000000
# 4 0.000000 0.000000 0.000000 0.045112 0.000000 0.000000
# 5 0.000000 0.000000 0.000000 0.000000 0.029045 0.000000
# 6 0.000000 0.000000 0.000000 0.000000 0.000000 0.051703
#
#
# Mechanical properties :
#
#
# Convention : Reuss Voigt Hill
#
# Bulk Modulus (GPa) = 52.60619 58.94145 55.77382
# Shear Modulus (GPa) = 17.44458 22.26812 19.85635
#
# Velocity S-wave (km/s) = 3.17564 3.58792 3.38806
# Velocity P-wave (km/s) = 6.62253 7.15809 6.89551
#
# Compressibility (1/GPa) = 0.01900917
#
# Stress axis : x y z
#
# Youngs Moduli (GPa) = 24.30900 34.65735 59.78558
#
# Poissons Ratio (x) = 0.65972 0.96948
# Poissons Ratio (y) = 0.46273 -0.08354
# Poissons Ratio (z) = 0.39419 -0.04842
#
# Static dielectric constant tensor:
#      x y z
#    x 1.576220 0.000000 0.000000 
#    y 0.000000 1.597970 0.000000 
#    z 0.000000 0.000000 1.557580 
# 
# From -- ./inp_files/14847.got.cif
#   From: 2010.05.17/outbox.cif.g08.bks.cpg/sg51_8_cif.got.tgz:14847.got - 2010.06.03 11:52:47.
