data_PCOD9401755
_publ_section_title
;
Structure prediction by ZEFSAII (Michael W. Deem and Ramdas Pophale) SiO2 
 PCOD9401755
Probable space group: P M M A
;
_chemical_formula_sum "Si O2"
_cell_formula_units_Z 48
_cell_length_a 8.426767
_cell_length_b 32.911269
_cell_length_c 9.260090
_cell_angle_alpha 90.000000
_cell_angle_beta 90.000000
_cell_angle_gamma 90.000000
_cell_volume 2568.152575
_symmetry_space_group_name_H-M "P M M A"
_symmetry_group_IT_number 51
_symmetry_cell_setting 'orthorhombic'
loop_
_space_group_symop_operation_xyz
x,y,z
1/2-x,-y,z
1/2+x,-y,-z
-x,y,-z
-x,-y,-z
1/2+x,y,-z
1/2-x,y,z
x,-y,z
loop_
_atom_site_type_symbol
_atom_site_label
_atom_site_fract_x
_atom_site_fract_y
_atom_site_fract_z
Si Si1 0.558233 0.543615 0.333972
Si Si2 0.061435 0.789546 0.336951
Si Si3 0.940176 0.288436 0.162960
Si Si4 0.558375 0.043589 0.165862
Si Si5 0.557899 0.632266 0.334967
Si Si6 0.059063 0.132512 0.834615
O O1 0.500000 0.543555 0.500000
O O2 0.750000 0.543513 0.332776
O O3 0.504921 0.500000 0.269819
O O4 0.506415 0.587720 0.276216
O O5 0.250000 0.787798 0.336677
O O6 0.000000 0.788673 0.500000
O O7 0.996268 0.750768 0.250887
O O8 0.006396 0.830681 0.258673
O O9 0.750000 0.288910 0.162706
O O10 0.997723 0.329742 0.240699
O O11 0.000000 0.286357 0.000000
O O12 0.750000 0.043553 0.166463
O O13 0.507972 0.087744 0.223573
O O14 0.505195 0.000000 0.230404
O O15 0.500000 0.043434 0.000000
O O16 0.500000 0.636339 0.500000
O O17 0.750000 0.632827 0.337062
O O18 0.250000 0.134252 0.835062
O O19 0.000000 0.136168 0.000000
#
# Coordination Sequence:
#
# PCOD9401755 Si02
#       6
#     8   8   8   8   8   8
#     4   8  13  23  41  67  98 130 164 203 247 294
#     4  12  25  41  59  79 104 134 171 214 262 314
#     4  11  23  39  57  78 104 135 173 214 260 311
#     4   8  14  25  44  72 105 139 174 212 252 295
#     4   9  18  31  50  76 104 134 169 210 255 304
#     4  10  19  33  54  81 112 144 178 216 259 305
#
# _framework density 18.690479
#
# number of rings (size 3 to 8) (size 9 to 14) (size 15 to 20)
#    0.000    2.333    0.000    3.500    0.000    3.333 
#    0.000    0.000    0.000    1.000    0.000    0.000 
#    0.000    0.000    0.000    0.000    0.000    0.167 
#
# Total GULP energy -267501.461275 kJ/mol
# GULP energy per Si atom -5572.947110 kJ/mol
# Density = 1.864794 g / cm^3
# Si number density = 18.690479 Si / 1000 Ang^3
#
#
#
# Elastic Constant Matrix: (Units=GPa)
#
#
# Indices 1 2 3 4 5 6 
#
# 1 46.6290 37.3157 19.6449 0.0000 0.0000 0.0000
# 2 37.3157 250.7948 86.9843 0.0000 0.0000 0.0000
# 3 19.6449 86.9843 84.5320 0.0000 0.0000 0.0000
# 4 0.0000 0.0000 0.0000 -61.9981 0.0000 0.0000
# 5 0.0000 0.0000 0.0000 0.0000 23.4834 0.0000
# 6 0.0000 0.0000 0.0000 0.0000 0.0000 25.4360
#
#
#
# Elastic Compliance Matrix: (Units=1/GPa)
#
#
# Indices 1 2 3 4 5 6 
#
# 1 0.024844 -0.002634 -0.003063 0.000000 0.000000 0.000000
# 2 -0.002634 0.006479 -0.006055 0.000000 0.000000 0.000000
# 3 -0.003063 -0.006055 0.018773 0.000000 0.000000 0.000000
# 4 0.000000 0.000000 0.000000 -0.016130 0.000000 0.000000
# 5 0.000000 0.000000 0.000000 0.000000 0.042583 0.000000
# 6 0.000000 0.000000 0.000000 0.000000 0.000000 0.039314
#
#
# Mechanical properties :
#
#
# Convention : Reuss Voigt Hill
#
# Bulk Modulus (GPa) = 37.60619 74.42729 56.01674
# Shear Modulus (GPa) = 33.73056 13.25164 23.49110
#
# Velocity S-wave (km/s) = 4.25278 2.66560 3.54905
# Velocity P-wave (km/s) = 6.65425 7.02719 6.84326
#
# Compressibility (1/GPa) = 0.02659137
#
# Stress axis : x y z
#
# Youngs Moduli (GPa) = 40.25039 154.33479 53.26922
#
# Poissons Ratio (x) = 0.40655 0.16317
# Poissons Ratio (y) = 0.10603 0.32256
# Poissons Ratio (z) = 0.12329 0.93453
#
# Static dielectric constant tensor:
#      x y z
#    x 1.628710 0.000000 0.000000 
#    y 0.000000 1.724790 0.000000 
#    z 0.000000 0.000000 1.595820 
# 
# From -- ./inp_files/6073.got.cif
#   From: 2010.05.17/outbox.cif.g08.bks.cpg/sg51_4_cif.got.tgz:6073.got - 2010.06.03 11:52:47.
