data_PCOD9401478
_publ_section_title
;
Structure prediction by ZEFSAII (Michael W. Deem and Ramdas Pophale) SiO2 
 PCOD9401478
Probable space group: P M M A
;
_chemical_formula_sum "Si O2"
_cell_formula_units_Z 64
_cell_length_a 14.984892
_cell_length_b 37.943890
_cell_length_c 5.166249
_cell_angle_alpha 90.000000
_cell_angle_beta 90.000000
_cell_angle_gamma 90.000000
_cell_volume 2937.452172
_symmetry_space_group_name_H-M "P M M A"
_symmetry_group_IT_number 51
_symmetry_cell_setting 'orthorhombic'
loop_
_space_group_symop_operation_xyz
x,y,z
1/2-x,-y,z
1/2+x,-y,-z
-x,y,-z
-x,-y,-z
1/2+x,y,-z
1/2-x,y,z
x,-y,z
loop_
_atom_site_type_symbol
_atom_site_label
_atom_site_fract_x
_atom_site_fract_y
_atom_site_fract_z
Si Si1 0.640788 0.770779 0.624248
Si Si2 0.401778 0.581187 0.619105
Si Si3 0.937038 0.961499 0.249287
Si Si4 0.938933 0.345327 0.248518
Si Si5 0.640371 0.847393 0.822543
Si Si6 0.356501 0.886767 0.675463
Si Si7 0.357688 0.270134 0.876993
Si Si8 0.352430 0.539890 0.118318
O O1 0.750000 0.771752 0.618343
O O2 0.611896 0.809179 0.720916
O O3 0.611732 0.757508 0.343048
O O4 0.612802 0.742647 0.840900
O O5 0.500000 0.584415 0.500000
O O6 0.375634 0.621286 0.688022
O O7 0.352847 0.561118 0.387297
O O8 0.401606 0.559121 0.883002
O O9 0.877462 0.926846 0.255631
O O10 0.000000 0.960385 0.500000
O O11 0.890683 0.000000 0.247691
O O12 0.000000 0.959885 0.000000
O O13 0.889618 0.309207 0.184219
O O14 0.000000 0.339144 0.500000
O O15 0.000000 0.355025 0.000000
O O16 0.750000 0.846616 0.832300
O O17 0.611082 0.875769 0.608204
O O18 0.609465 0.860032 0.103813
O O19 0.250000 0.882510 0.669300
O O20 0.250000 0.269625 0.874965
O O21 0.250000 0.538096 0.029435
O O22 0.385702 0.500000 0.161456
#
# Coordination Sequence:
#
# PCOD9401478 Si02
#       8
#     8   8   8   8   8   8   8   8
#     4   9  17  31  52  80 111 139 176 224 267 318
#     4  11  23  41  63  88 117 157 204 238 278 345
#     4  10  21  37  55  74 102 141 176 210 264 325
#     4  11  23  41  60  81 115 152 185 231 288 334
#     4   9  17  30  51  79 109 139 171 216 272 319
#     4  10  19  32  54  81 104 133 177 222 264 312
#     4  10  20  34  57  85 107 139 188 230 266 319
#     4  11  24  41  62  91 125 156 188 237 298 344
#
# _framework density 21.787589000000001
#
# number of rings (size 3 to 8) (size 9 to 14) (size 15 to 20)
#    0.000    1.875    0.000    4.875    0.000    6.750 
#    0.000    1.250    0.000   19.500    0.000    0.000 
#    0.000    0.000    0.000    0.000    0.000    0.000 
#
# Total GULP energy -357677.570871 kJ/mol
# GULP energy per Si atom -5588.712045 kJ/mol
# Density = 2.173800 g / cm^3
# Si number density = 21.787589 Si / 1000 Ang^3
#
#
#
# Elastic Constant Matrix: (Units=GPa)
#
#
# Indices 1 2 3 4 5 6 
#
# 1 16.8320 -0.7313 4.4576 0.0000 0.0000 0.0000
# 2 -0.7313 99.2734 1.1412 0.0000 0.0000 0.0000
# 3 4.4576 1.1412 112.6502 0.0000 0.0000 0.0000
# 4 0.0000 0.0000 0.0000 38.8709 0.0000 0.0000
# 5 0.0000 0.0000 0.0000 0.0000 19.9621 0.0000
# 6 0.0000 0.0000 0.0000 0.0000 0.0000 7.9710
#
#
#
# Elastic Compliance Matrix: (Units=1/GPa)
#
#
# Indices 1 2 3 4 5 6 
#
# 1 0.060062 0.000470 -0.002381 0.000000 0.000000 0.000000
# 2 0.000470 0.010078 -0.000121 0.000000 0.000000 0.000000
# 3 -0.002381 -0.000121 0.008972 0.000000 0.000000 0.000000
# 4 0.000000 0.000000 0.000000 0.025726 0.000000 0.000000
# 5 0.000000 0.000000 0.000000 0.000000 0.050095 0.000000
# 6 0.000000 0.000000 0.000000 0.000000 0.000000 0.125455
#
#
# Mechanical properties :
#
#
# Convention : Reuss Voigt Hill
#
# Bulk Modulus (GPa) = 13.32487 26.49897 19.91192
# Shear Modulus (GPa) = 16.15673 28.28666 22.22169
#
# Velocity S-wave (km/s) = 2.72611 3.60709 3.19709
# Velocity P-wave (km/s) = 4.00474 5.43479 4.77362
#
# Compressibility (1/GPa) = 0.07504763
#
# Stress axis : x y z
#
# Youngs Moduli (GPa) = 16.64955 99.22566 111.45174
#
# Poissons Ratio (x) = -0.04662 0.26541
# Poissons Ratio (y) = -0.00782 0.01345
# Poissons Ratio (z) = 0.03965 0.01198
#
# Static dielectric constant tensor:
#      x y z
#    x 1.819110 0.000000 0.000000 
#    y 0.000000 1.797440 0.000000 
#    z 0.000000 0.000000 1.763560 
# 
# From -- ./inp_files/2117.got.cif
#   From: 2010.05.17/outbox.cif.g08.bks.cpg/sg51_2_cif.got.tgz:2117.got - 2010.06.03 11:52:47.
