data_PCOD9401315
_publ_section_title
;
Structure prediction by ZEFSAII (Michael W. Deem and Ramdas Pophale) SiO2 
 PCOD9401315
Probable space group: P M M A
;
_chemical_formula_sum "Si O2"
_cell_formula_units_Z 40
_cell_length_a 9.116459
_cell_length_b 13.855260
_cell_length_c 18.845877
_cell_angle_alpha 90.000000
_cell_angle_beta 90.000000
_cell_angle_gamma 90.000000
_cell_volume 2380.439868
_symmetry_space_group_name_H-M "P M M A"
_symmetry_group_IT_number 51
_symmetry_cell_setting 'orthorhombic'
loop_
_space_group_symop_operation_xyz
x,y,z
1/2-x,-y,z
1/2+x,-y,-z
-x,y,-z
-x,-y,-z
1/2+x,y,-z
1/2-x,y,z
x,-y,z
loop_
_atom_site_type_symbol
_atom_site_label
_atom_site_fract_x
_atom_site_fract_y
_atom_site_fract_z
Si Si1 0.423263 0.115502 0.573923
Si Si2 0.924459 0.791235 0.709500
Si Si3 0.575884 0.292554 0.071662
Si Si4 0.074846 0.111217 0.139730
Si Si5 0.425168 0.611271 0.778428
O O1 0.500000 0.143362 0.500000
O O2 0.250000 0.135447 0.570902
O O3 0.496674 0.167560 0.640487
O O4 0.442860 0.000000 0.582394
O O5 0.750000 0.788054 0.698908
O O6 0.953464 0.859013 0.778318
O O7 0.987117 0.686713 0.730580
O O8 0.750000 0.286688 0.062099
O O9 0.511240 0.187574 0.091884
O O10 0.545151 0.359887 0.139684
O O11 0.500000 0.327438 0.000000
O O12 0.250000 0.121911 0.127856
O O13 0.034502 0.000000 0.127400
O O14 0.250000 0.624068 0.767365
O O15 0.462474 0.500000 0.765535
#
# Coordination Sequence:
#
# PCOD9401315 Si02
#       5
#     8   8   8   8   8
#     4  10  20  33  51  77 109 143 175 205 240 285
#     4  10  19  32  52  77 104 132 165 207 251 297
#     4  10  20  33  49  70  96 126 161 203 251 300
#     4   9  18  32  49  69  95 129 166 202 242 290
#     4   9  19  36  55  74  97 127 165 208 253 301
#
# _framework density 16.803616999999999
#
# number of rings (size 3 to 8) (size 9 to 14) (size 15 to 20)
#    0.000    2.400    0.000    2.400    0.000    5.200 
#    0.000    0.000    0.000    0.600    0.000    0.000 
#    0.000    0.000    0.000    0.000    0.000    0.000 
#
# Total GULP energy -223253.409443 kJ/mol
# GULP energy per Si atom -5581.335236 kJ/mol
# Density = 1.676537 g / cm^3
# Si number density = 16.803617 Si / 1000 Ang^3
#
#
#
# Elastic Constant Matrix: (Units=GPa)
#
#
# Indices 1 2 3 4 5 6 
#
# 1 65.5782 29.5006 55.2210 0.0000 0.0000 0.0000
# 2 29.5006 46.1468 7.5081 0.0000 0.0000 0.0000
# 3 55.2210 7.5081 90.9292 0.0000 0.0000 0.0000
# 4 0.0000 0.0000 0.0000 8.9245 0.0000 0.0000
# 5 0.0000 0.0000 0.0000 0.0000 34.6382 0.0000
# 6 0.0000 0.0000 0.0000 0.0000 0.0000 24.5297
#
#
#
# Elastic Compliance Matrix: (Units=1/GPa)
#
#
# Indices 1 2 3 4 5 6 
#
# 1 0.054409 -0.029807 -0.030581 0.000000 0.000000 0.000000
# 2 -0.029807 0.038294 0.014940 0.000000 0.000000 0.000000
# 3 -0.030581 0.014940 0.028336 0.000000 0.000000 0.000000
# 4 0.000000 0.000000 0.000000 0.112051 0.000000 0.000000
# 5 0.000000 0.000000 0.000000 0.000000 0.028870 0.000000
# 6 0.000000 0.000000 0.000000 0.000000 0.000000 0.040767
#
#
# Mechanical properties :
#
#
# Convention : Reuss Voigt Hill
#
# Bulk Modulus (GPa) = 33.17619 43.01260 38.09439
# Shear Modulus (GPa) = 12.38631 20.98011 16.68321
#
# Velocity S-wave (km/s) = 2.71794 3.53731 3.15435
# Velocity P-wave (km/s) = 5.44389 6.50663 5.99884
#
# Compressibility (1/GPa) = 0.03014210
#
# Stress axis : x y z
#
# Youngs Moduli (GPa) = 18.37928 26.11362 35.29096
#
# Poissons Ratio (x) = 0.77837 1.07924
# Poissons Ratio (y) = 0.54783 -0.52723
# Poissons Ratio (z) = 0.56206 -0.39013
#
# Static dielectric constant tensor:
#      x y z
#    x 1.555010 0.000000 0.000000 
#    y 0.000000 1.543140 0.000000 
#    z 0.000000 0.000000 1.548860 
# 
# From -- ./inp_files/20478.got.cif
#   From: 2010.05.17/outbox.cif.g08.bks.cpg/sg51_11_cif.got.tgz:20478.got - 2010.06.03 11:52:47.
