data_PCOD9401963
_publ_section_title
;
Structure prediction by ZEFSAII (Michael W. Deem and Ramdas Pophale) SiO2 
 PCOD9401963
Probable space group: P M M A
;
_chemical_formula_sum "Si O2"
_cell_formula_units_Z 64
_cell_length_a 9.008614
_cell_length_b 20.061791
_cell_length_c 21.179153
_cell_angle_alpha 90.000000
_cell_angle_beta 90.000000
_cell_angle_gamma 90.000000
_cell_volume 3827.685687
_symmetry_space_group_name_H-M "P M M A"
_symmetry_group_IT_number 51
_symmetry_cell_setting 'orthorhombic'
loop_
_space_group_symop_operation_xyz
x,y,z
1/2-x,-y,z
1/2+x,-y,-z
-x,y,-z
-x,-y,-z
1/2+x,y,-z
1/2-x,y,z
x,-y,z
loop_
_atom_site_type_symbol
_atom_site_label
_atom_site_fract_x
_atom_site_fract_y
_atom_site_fract_z
Si Si1 0.427254 0.291844 0.564483
Si Si2 0.428677 0.794644 0.687253
Si Si3 0.072460 0.424370 0.387432
Si Si4 0.427216 0.924279 0.266136
Si Si5 0.928637 0.788355 0.065805
Si Si6 0.927681 0.574937 0.762821
Si Si7 0.071704 0.074789 0.871957
Si Si8 0.571206 0.292641 0.190474
O O1 0.500000 0.266845 0.500000
O O2 0.250000 0.292635 0.559124
O O3 0.468453 0.246735 0.624825
O O4 0.486316 0.366340 0.577408
O O5 0.250000 0.801720 0.689178
O O6 0.502997 0.866693 0.691397
O O7 0.473970 0.752738 0.749538
O O8 0.250000 0.416613 0.396248
O O9 0.032326 0.500000 0.406316
O O10 0.042073 0.417943 0.312262
O O11 0.250000 0.917380 0.263239
O O12 0.494837 0.916540 0.195880
O O13 0.462420 0.000000 0.286848
O O14 0.750000 0.785831 0.060948
O O15 0.971707 0.864526 0.083001
O O16 0.973446 0.742792 0.125328
O O17 0.000000 0.767887 0.000000
O O18 0.750000 0.579384 0.770314
O O19 0.974280 0.500000 0.781417
O O20 0.005195 0.634276 0.799819
O O21 0.250000 0.079089 0.862468
O O22 0.037059 0.000000 0.895330
O O23 0.750000 0.296236 0.191509
#
# Coordination Sequence:
#
# PCOD9401963 Si02
#       8
#     8   8   8   8   8   8   8   8
#     4  11  23  37  54  77 106 140 178 218 261 311
#     4  10  20  36  56  78 104 138 177 215 259 312
#     4   9  18  33  52  76 108 143 177 212 254 307
#     4  10  20  32  51  82 111 134 169 218 264 305
#     4  10  21  35  50  73 105 139 176 217 259 308
#     4   9  18  32  52  80 109 135 168 213 264 312
#     4   9  17  32  52  72 102 144 179 209 252 305
#     4  10  19  34  54  78 105 134 175 220 258 306
#
# _framework density 16.720286000000002
#
# number of rings (size 3 to 8) (size 9 to 14) (size 15 to 20)
#    0.000    2.250    2.500    1.500    0.000    4.250 
#    0.000    1.250    0.000    0.750    0.000    0.000 
#    0.000    0.000    0.000    0.000    0.000    0.000 
#
# Total GULP energy -357066.587739 kJ/mol
# GULP energy per Si atom -5579.165433 kJ/mol
# Density = 1.668223 g / cm^3
# Si number density = 16.720286 Si / 1000 Ang^3
#
#
#
# Elastic Constant Matrix: (Units=GPa)
#
#
# Indices 1 2 3 4 5 6 
#
# 1 16.8471 35.0863 36.7306 0.0000 0.0000 0.0000
# 2 35.0863 118.3294 68.0685 0.0000 0.0000 0.0000
# 3 36.7306 68.0685 115.1870 0.0000 0.0000 0.0000
# 4 0.0000 0.0000 0.0000 16.6342 0.0000 0.0000
# 5 0.0000 0.0000 0.0000 0.0000 23.9240 0.0000
# 6 0.0000 0.0000 0.0000 0.0000 0.0000 29.5564
#
#
#
# Elastic Compliance Matrix: (Units=1/GPa)
#
#
# Indices 1 2 3 4 5 6 
#
# 1 0.351843 -0.060277 -0.076575 0.000000 0.000000 0.000000
# 2 -0.060277 0.023130 0.005553 0.000000 0.000000 0.000000
# 3 -0.076575 0.005553 0.029818 0.000000 0.000000 0.000000
# 4 0.000000 0.000000 0.000000 0.060117 0.000000 0.000000
# 5 0.000000 0.000000 0.000000 0.000000 0.041799 0.000000
# 6 0.000000 0.000000 0.000000 0.000000 0.000000 0.033834
#
#
# Mechanical properties :
#
#
# Convention : Reuss Voigt Hill
#
# Bulk Modulus (GPa) = 7.03271 58.90380 32.96825
# Shear Modulus (GPa) = 5.87864 21.38813 13.63339
#
# Velocity S-wave (km/s) = 1.87710 3.58043 2.85858
# Velocity P-wave (km/s) = 2.98550 7.23865 5.53676
#
# Compressibility (1/GPa) = 0.14219274
#
# Stress axis : x y z
#
# Youngs Moduli (GPa) = 2.84218 43.23445 33.53641
#
# Poissons Ratio (x) = 2.60603 2.56805
# Poissons Ratio (y) = 0.17132 -0.18622
# Poissons Ratio (z) = 0.21764 -0.24007
#
# Static dielectric constant tensor:
#      x y z
#    x 1.557570 0.000000 0.000000 
#    y 0.000000 1.568000 0.000000 
#    z 0.000000 0.000000 1.549790 
# 
# From -- ./inp_files/32440.got.cif
#   From: 2010.05.17/outbox.cif.g08.bks.cpg/sg51_17_cif.got.tgz:32440.got - 2010.06.03 11:52:47.
