data_PCOD9401930
_publ_section_title
;
Structure prediction by ZEFSAII (Michael W. Deem and Ramdas Pophale) SiO2 
 PCOD9401930
Probable space group: P M M A
;
_chemical_formula_sum "Si O2"
_cell_formula_units_Z 64
_cell_length_a 18.778171
_cell_length_b 14.257234
_cell_length_c 12.700008
_cell_angle_alpha 90.000000
_cell_angle_beta 90.000000
_cell_angle_gamma 90.000000
_cell_volume 3400.106823
_symmetry_space_group_name_H-M "P M M A"
_symmetry_group_IT_number 51
_symmetry_cell_setting 'orthorhombic'
loop_
_space_group_symop_operation_xyz
x,y,z
1/2-x,-y,z
1/2+x,-y,-z
-x,y,-z
-x,-y,-z
1/2+x,y,-z
1/2-x,y,z
x,-y,z
loop_
_atom_site_type_symbol
_atom_site_label
_atom_site_fract_x
_atom_site_fract_y
_atom_site_fract_z
Si Si1 0.951132 0.190691 0.290778
Si Si2 0.168202 0.886223 0.554479
Si Si3 0.106757 0.110384 0.332388
Si Si4 0.829099 0.388521 0.094879
Si Si5 0.595428 0.607176 0.877206
Si Si6 0.076660 0.111090 0.943089
Si Si7 0.333516 0.796215 0.131126
Si Si8 0.451422 0.392435 0.755381
O O1 0.886867 0.153903 0.361399
O O2 0.932288 0.164553 0.168649
O O3 0.965886 0.300917 0.312482
O O4 0.025477 0.141797 0.318357
O O5 0.250000 0.859055 0.574645
O O6 0.143715 0.852783 0.438503
O O7 0.164896 0.000000 0.558353
O O8 0.149260 0.134977 0.226929
O O9 0.105936 0.000000 0.343860
O O10 0.750000 0.346231 0.086053
O O11 0.820145 0.500000 0.094914
O O12 0.873726 0.368907 0.198382
O O13 0.881908 0.373457 0.997249
O O14 0.619611 0.500000 0.851795
O O15 0.634066 0.696808 0.827705
O O16 0.512588 0.609810 0.846289
O O17 0.095347 0.000000 0.927390
O O18 0.129621 0.163044 0.024968
O O19 0.000000 0.113451 0.000000
O O20 0.250000 0.785798 0.113947
O O21 0.452377 0.500000 0.714691
#
# Coordination Sequence:
#
# PCOD9401930 Si02
#       8
#     8   8   8   8   8   8   8   8
#     4  12  22  38  65  91 119 160 207 246 297 361
#     4  10  23  42  65  94 122 148 191 255 315 361
#     4  11  22  41  65  89 117 154 199 252 303 361
#     4   9  17  29  48  76 109 149 197 246 293 338
#     4  10  19  34  52  75 112 157 204 250 294 344
#     4  11  22  37  56  84 127 167 197 236 289 361
#     4  12  24  37  58  89 122 163 206 247 301 362
#     4  10  20  34  55  82 117 157 198 245 296 350
#
# _framework density 18.822938000000001
#
# number of rings (size 3 to 8) (size 9 to 14) (size 15 to 20)
#    0.000    1.375    2.500    3.750    0.000    5.750 
#    0.000    0.000    0.000    2.250    0.000    0.000 
#    0.000    0.000    0.000    0.000    0.000    0.000 
#
# Total GULP energy -356657.530545 kJ/mol
# GULP energy per Si atom -5572.773915 kJ/mol
# Density = 1.878010 g / cm^3
# Si number density = 18.822938 Si / 1000 Ang^3
#
#
#
# Elastic Constant Matrix: (Units=GPa)
#
#
# Indices 1 2 3 4 5 6 
#
# 1 108.5847 31.7038 20.2121 0.0000 0.0000 0.0000
# 2 31.7038 96.2154 14.0936 0.0000 0.0000 0.0000
# 3 20.2121 14.0936 31.0632 0.0000 0.0000 0.0000
# 4 0.0000 0.0000 0.0000 -2.7737 0.0000 0.0000
# 5 0.0000 0.0000 0.0000 0.0000 30.9755 0.0000
# 6 0.0000 0.0000 0.0000 0.0000 0.0000 22.3380
#
#
#
# Elastic Compliance Matrix: (Units=1/GPa)
#
#
# Indices 1 2 3 4 5 6 
#
# 1 0.011138 -0.002794 -0.005980 0.000000 0.000000 0.000000
# 2 -0.002794 0.011834 -0.003551 0.000000 0.000000 0.000000
# 3 -0.005980 -0.003551 0.037694 0.000000 0.000000 0.000000
# 4 0.000000 0.000000 0.000000 -0.360531 0.000000 0.000000
# 5 0.000000 0.000000 0.000000 0.000000 0.032284 0.000000
# 6 0.000000 0.000000 0.000000 0.000000 0.000000 0.044767
#
#
# Mechanical properties :
#
#
# Convention : Reuss Voigt Hill
#
# Bulk Modulus (GPa) = 27.76479 40.87583 34.32031
# Shear Modulus (GPa) = -26.85891 21.43155 -2.71368
#
# Velocity S-wave (km/s) = -3.78156 3.37796 -1.20201
# Velocity P-wave (km/s) = 2.06989 6.08089 4.04307
#
# Compressibility (1/GPa) = 0.03601684
#
# Stress axis : x y z
#
# Youngs Moduli (GPa) = 89.78016 84.50045 26.52915
#
# Poissons Ratio (x) = 0.23612 0.15864
# Poissons Ratio (y) = 0.25087 0.09421
# Poissons Ratio (z) = 0.53685 0.30007
#
# Static dielectric constant tensor:
#      x y z
#    x 1.600210 0.000000 0.000000 
#    y 0.000000 1.714690 0.000000 
#    z 0.000000 0.000000 1.654850 
# 
# From -- ./inp_files/17625.got.cif
#   From: 2010.05.17/outbox.cif.g08.bks.cpg/sg51_9_cif.got.tgz:17625.got - 2010.06.03 11:52:47.
