data_PCOD9401739
_publ_section_title
;
Structure prediction by ZEFSAII (Michael W. Deem and Ramdas Pophale) SiO2 
 PCOD9401739
Probable space group: P M M A
;
_chemical_formula_sum "Si O2"
_cell_formula_units_Z 64
_cell_length_a 9.093724
_cell_length_b 24.794070
_cell_length_c 15.712913
_cell_angle_alpha 90.000000
_cell_angle_beta 90.000000
_cell_angle_gamma 90.000000
_cell_volume 3542.797241
_symmetry_space_group_name_H-M "P M M A"
_symmetry_group_IT_number 51
_symmetry_cell_setting 'orthorhombic'
loop_
_space_group_symop_operation_xyz
x,y,z
1/2-x,-y,z
1/2+x,-y,-z
-x,y,-z
-x,-y,-z
1/2+x,y,-z
1/2-x,y,z
x,-y,z
loop_
_atom_site_type_symbol
_atom_site_label
_atom_site_fract_x
_atom_site_fract_y
_atom_site_fract_z
Si Si1 0.576522 0.064531 0.589572
Si Si2 0.426518 0.359579 0.411632
Si Si3 0.575537 0.254826 0.686286
Si Si4 0.072963 0.142399 0.722263
Si Si5 0.923814 0.165442 0.085793
Si Si6 0.422005 0.405441 0.914056
Si Si7 0.575962 0.561945 0.740305
Si Si8 0.421350 0.714666 0.854590
O O1 0.500000 0.079380 0.500000
O O2 0.750000 0.077442 0.586656
O O3 0.498449 0.095579 0.666405
O O4 0.561129 0.000000 0.599798
O O5 0.500000 0.374638 0.500000
O O6 0.250000 0.364268 0.417929
O O7 0.460934 0.297686 0.386893
O O8 0.475054 0.397820 0.333861
O O9 0.750000 0.244180 0.685622
O O10 0.486373 0.199245 0.685706
O O11 0.529139 0.283888 0.774255
O O12 0.250000 0.141007 0.717973
O O13 0.029531 0.141317 0.822584
O O14 0.750000 0.156864 0.077993
O O15 0.948872 0.229973 0.095049
O O16 0.000000 0.145533 0.000000
O O17 0.250000 0.418159 0.917093
O O18 0.493047 0.428649 0.828611
O O19 0.438497 0.340376 0.905757
O O20 0.500000 0.424110 0.000000
O O21 0.750000 0.571840 0.754490
O O22 0.557789 0.500000 0.713118
O O23 0.250000 0.717297 0.825126
#
# Coordination Sequence:
#
# PCOD9401739 Si02
#       8
#     8   8   8   8   8   8   8   8
#     4  10  21  38  61  88 116 149 192 239 288 339
#     4  10  22  38  58  84 109 140 179 222 278 337
#     4  10  19  33  54  80 112 147 185 225 273 331
#     4  10  21  36  55  83 119 155 193 235 281 333
#     4   9  18  31  48  75 111 149 188 227 273 322
#     4  11  22  35  56  83 111 142 180 224 275 335
#     4  10  22  42  62  79 105 139 179 230 281 334
#     4   9  18  32  50  76 108 143 180 222 272 326
#
# _framework density 18.064821999999999
#
# number of rings (size 3 to 8) (size 9 to 14) (size 15 to 20)
#    0.000    2.125    1.250    2.625    0.000    6.500 
#    0.000    1.250    0.000    0.375    0.000    0.000 
#    0.000    0.000    0.000    0.000    0.000    0.000 
#
# Total GULP energy -357166.614833 kJ/mol
# GULP energy per Si atom -5580.728357 kJ/mol
# Density = 1.802371 g / cm^3
# Si number density = 18.064822 Si / 1000 Ang^3
#
#
#
# Elastic Constant Matrix: (Units=GPa)
#
#
# Indices 1 2 3 4 5 6 
#
# 1 59.7386 39.6280 56.5862 0.0000 0.0000 0.0000
# 2 39.6280 49.7536 51.1003 0.0000 0.0000 0.0000
# 3 56.5862 51.1003 134.4320 0.0000 0.0000 0.0000
# 4 0.0000 0.0000 0.0000 3.6137 0.0000 0.0000
# 5 0.0000 0.0000 0.0000 0.0000 37.0491 0.0000
# 6 0.0000 0.0000 0.0000 0.0000 0.0000 -0.7531
#
#
#
# Elastic Compliance Matrix: (Units=1/GPa)
#
#
# Indices 1 2 3 4 5 6 
#
# 1 0.039847 -0.023804 -0.007724 0.000000 0.000000 0.000000
# 2 -0.023804 0.047192 -0.007919 0.000000 0.000000 0.000000
# 3 -0.007724 -0.007919 0.013700 0.000000 0.000000 0.000000
# 4 0.000000 0.000000 0.000000 0.276727 0.000000 0.000000
# 5 0.000000 0.000000 0.000000 0.000000 0.026991 0.000000
# 6 0.000000 0.000000 0.000000 0.000000 0.000000 -1.327791
#
#
# Mechanical properties :
#
#
# Convention : Reuss Voigt Hill
#
# Bulk Modulus (GPa) = 45.77794 59.83924 52.80859
# Shear Modulus (GPa) = -5.97258 14.42258 4.22500
#
# Velocity S-wave (km/s) = -1.82027 2.82863 1.53097
# Velocity P-wave (km/s) = 4.58019 6.62305 5.69398
#
# Compressibility (1/GPa) = 0.02184458
#
# Stress axis : x y z
#
# Youngs Moduli (GPa) = 25.09617 21.19021 72.99212
#
# Poissons Ratio (x) = 0.50441 0.56381
# Poissons Ratio (y) = 0.59739 0.57800
# Poissons Ratio (z) = 0.19385 0.16780
#
# Static dielectric constant tensor:
#      x y z
#    x 1.603260 0.000000 0.000000 
#    y 0.000000 1.623050 0.000000 
#    z 0.000000 0.000000 1.605210 
# 
# From -- ./inp_files/22290.got.cif
#   From: 2010.05.17/outbox.cif.g08.bks.cpg/sg51_12_cif.got.tgz:22290.got - 2010.06.03 11:52:47.
