data_PCOD9401144
_publ_section_title
;
Structure prediction by ZEFSAII (Michael W. Deem and Ramdas Pophale) SiO2 
 PCOD9401144
Probable space group: P M M A
;
_chemical_formula_sum "Si O2"
_cell_formula_units_Z 32
_cell_length_a 8.596048
_cell_length_b 22.209090
_cell_length_c 9.188829
_cell_angle_alpha 90.000000
_cell_angle_beta 90.000000
_cell_angle_gamma 90.000000
_cell_volume 1754.243054
_symmetry_space_group_name_H-M "P M M A"
_symmetry_group_IT_number 51
_symmetry_cell_setting 'orthorhombic'
loop_
_space_group_symop_operation_xyz
x,y,z
1/2-x,-y,z
1/2+x,-y,-z
-x,y,-z
-x,-y,-z
1/2+x,y,-z
1/2-x,y,z
x,-y,z
loop_
_atom_site_type_symbol
_atom_site_label
_atom_site_fract_x
_atom_site_fract_y
_atom_site_fract_z
Si Si1 0.063507 0.065625 0.665820
Si Si2 0.562226 0.564653 0.165633
Si Si3 0.435023 0.810059 0.335927
Si Si4 0.937268 0.304036 0.164708
O O1 0.250000 0.070183 0.661549
O O2 0.000000 0.064484 0.500000
O O3 0.995112 0.126770 0.731628
O O4 0.021839 0.000000 0.730792
O O5 0.750000 0.564635 0.161451
O O6 0.512171 0.500000 0.231754
O O7 0.515673 0.629870 0.227693
O O8 0.500000 0.564541 0.000000
O O9 0.500000 0.806842 0.500000
O O10 0.250000 0.811258 0.340344
O O11 0.494519 0.751883 0.251342
O O12 0.750000 0.300417 0.163951
O O13 0.000000 0.301543 0.000000
#
# Coordination Sequence:
#
# PCOD9401144 Si02
#       4
#     8   8   8   8
#     4   9  16  27  45  69  95 122 155 196 239 282
#     4   8  14  25  43  67  93 121 154 194 237 279
#     4  11  21  33  50  72  99 130 164 201 242 287
#     4  10  19  32  50  73 101 130 162 199 240 288
#
# _framework density 18.241485999999998
#
# number of rings (size 3 to 8) (size 9 to 14) (size 15 to 20)
#    0.000    2.500    0.000    5.250    0.000    2.500 
#    0.000    0.000    0.000    1.500    0.000    0.000 
#    0.000    0.000    0.000    0.000    0.000    0.000 
#
# Total GULP energy -178145.306538 kJ/mol
# GULP energy per Si atom -5567.040829 kJ/mol
# Density = 1.819997 g / cm^3
# Si number density = 18.241486 Si / 1000 Ang^3
#
#
#
# Elastic Constant Matrix: (Units=GPa)
#
#
# Indices 1 2 3 4 5 6 
#
# 1 88.2759 67.1765 12.5617 0.0000 0.0000 0.0000
# 2 67.1765 259.1384 41.7652 0.0000 0.0000 0.0000
# 3 12.5617 41.7652 16.7401 0.0000 0.0000 0.0000
# 4 0.0000 0.0000 0.0000 25.5291 0.0000 0.0000
# 5 0.0000 0.0000 0.0000 0.0000 18.5490 0.0000
# 6 0.0000 0.0000 0.0000 0.0000 0.0000 38.0755
#
#
#
# Elastic Compliance Matrix: (Units=1/GPa)
#
#
# Indices 1 2 3 4 5 6 
#
# 1 0.014172 -0.003278 -0.002457 0.000000 0.000000 0.000000
# 2 -0.003278 0.007212 -0.015535 0.000000 0.000000 0.000000
# 3 -0.002457 -0.015535 0.100338 0.000000 0.000000 0.000000
# 4 0.000000 0.000000 0.000000 0.039171 0.000000 0.000000
# 5 0.000000 0.000000 0.000000 0.000000 0.053911 0.000000
# 6 0.000000 0.000000 0.000000 0.000000 0.000000 0.026264
#
#
# Mechanical properties :
#
#
# Convention : Reuss Voigt Hill
#
# Bulk Modulus (GPa) = 12.62881 67.46237 40.04559
# Shear Modulus (GPa) = 16.12899 32.60744 24.36821
#
# Velocity S-wave (km/s) = 2.97676 4.23252 3.65892
# Velocity P-wave (km/s) = 4.33047 7.80698 6.31276
#
# Compressibility (1/GPa) = 0.07918402
#
# Stress axis : x y z
#
# Youngs Moduli (GPa) = 70.56095 138.65054 9.96635
#
# Poissons Ratio (x) = 0.45449 0.02448
# Poissons Ratio (y) = 0.23129 0.15482
# Poissons Ratio (z) = 0.17334 2.15387
#
# Static dielectric constant tensor:
#      x y z
#    x 1.604630 0.000000 0.000000 
#    y 0.000000 1.730720 0.000000 
#    z 0.000000 0.000000 1.598010 
# 
# From -- ./inp_files/4843.got.cif
#   From: 2010.05.17/outbox.cif.g08.bks.cpg/sg51_3_cif.got.tgz:4843.got - 2010.06.03 11:52:47.
