data_PCOD9401266
_publ_section_title
;
Structure prediction by ZEFSAII (Michael W. Deem and Ramdas Pophale) SiO2 
 PCOD9401266
Probable space group: P M M A
;
_chemical_formula_sum "Si O2"
_cell_formula_units_Z 40
_cell_length_a 14.940693
_cell_length_b 9.463418
_cell_length_c 13.270329
_cell_angle_alpha 90.000000
_cell_angle_beta 90.000000
_cell_angle_gamma 90.000000
_cell_volume 1876.292123
_symmetry_space_group_name_H-M "P M M A"
_symmetry_group_IT_number 51
_symmetry_cell_setting 'orthorhombic'
loop_
_space_group_symop_operation_xyz
x,y,z
1/2-x,-y,z
1/2+x,-y,-z
-x,y,-z
-x,-y,-z
1/2+x,y,-z
1/2-x,y,z
x,-y,z
loop_
_atom_site_type_symbol
_atom_site_label
_atom_site_fract_x
_atom_site_fract_y
_atom_site_fract_z
Si Si1 0.357342 0.340759 0.607757
Si Si2 0.390380 0.337524 0.001014
Si Si3 0.106856 0.161084 0.193029
Si Si4 0.357254 0.839318 0.419713
Si Si5 0.107567 0.839134 0.807464
O O1 0.250000 0.351648 0.597366
O O2 0.393427 0.500000 0.618787
O O3 0.391535 0.261065 0.508090
O O4 0.373774 0.246146 0.705798
O O5 0.361812 0.500000 0.994897
O O6 0.360979 0.261796 0.103954
O O7 0.500000 0.337944 0.000000
O O8 0.360062 0.247118 0.904733
O O9 0.125684 0.212200 0.306243
O O10 0.999798 0.153074 0.182709
O O11 0.141797 0.000000 0.183819
O O12 0.250000 0.848066 0.431458
O O13 0.393361 0.000000 0.427908
O O14 0.141474 0.000000 0.803304
#
# Coordination Sequence:
#
# PCOD9401266 Si02
#       5
#     8   8   8   8   8
#     4  10  21  36  52  71  98 130 164 204 249 296
#     4   9  17  30  49  73 101 132 165 202 247 295
#     4   9  18  32  51  76 102 129 165 207 247 289
#     4   9  18  34  54  73  97 131 167 201 241 291
#     4  10  19  32  52  75 100 130 165 205 247 294
#
# _framework density 21.318641
#
# number of rings (size 3 to 8) (size 9 to 14) (size 15 to 20)
#    0.000    2.600    0.000    1.800    0.000    6.000 
#    0.000    5.000    0.000    3.600    0.000    0.000 
#    0.000    0.000    0.000    0.000    0.000    0.000 
#
# Total GULP energy -223405.107987 kJ/mol
# GULP energy per Si atom -5585.127700 kJ/mol
# Density = 2.127012 g / cm^3
# Si number density = 21.318641 Si / 1000 Ang^3
#
#
#
# Elastic Constant Matrix: (Units=GPa)
#
#
# Indices 1 2 3 4 5 6 
#
# 1 47.6966 4.7303 -1.9503 0.0000 0.0000 0.0000
# 2 4.7303 198.7083 157.2302 0.0000 0.0000 0.0000
# 3 -1.9503 157.2302 238.3472 0.0000 0.0000 0.0000
# 4 0.0000 0.0000 0.0000 58.9872 0.0000 0.0000
# 5 0.0000 0.0000 0.0000 0.0000 31.7546 0.0000
# 6 0.0000 0.0000 0.0000 0.0000 0.0000 -0.3455
#
#
#
# Elastic Compliance Matrix: (Units=1/GPa)
#
#
# Indices 1 2 3 4 5 6 
#
# 1 0.021142 -0.001339 0.001056 0.000000 0.000000 0.000000
# 2 -0.001339 0.010612 -0.007012 0.000000 0.000000 0.000000
# 3 0.001056 -0.007012 0.008830 0.000000 0.000000 0.000000
# 4 0.000000 0.000000 0.000000 0.016953 0.000000 0.000000
# 5 0.000000 0.000000 0.000000 0.000000 0.031492 0.000000
# 6 0.000000 0.000000 0.000000 0.000000 0.000000 -2.894366
#
#
# Mechanical properties :
#
#
# Convention : Reuss Voigt Hill
#
# Bulk Modulus (GPa) = 38.46888 89.41917 63.94402
# Shear Modulus (GPa) = -1.79721 39.72871 18.96575
#
# Velocity S-wave (km/s) = -0.91916 4.32159 2.98591
# Velocity P-wave (km/s) = 4.11794 8.18148 6.47665
#
# Compressibility (1/GPa) = 0.02599504
#
# Stress axis : x y z
#
# Youngs Moduli (GPa) = 47.29948 94.22921 113.25589
#
# Poissons Ratio (x) = 0.12619 -0.11965
# Poissons Ratio (y) = 0.06334 0.79411
# Poissons Ratio (z) = -0.04997 0.66070
#
# Static dielectric constant tensor:
#      x y z
#    x 1.810190 0.000000 0.000000 
#    y 0.000000 1.762020 0.000000 
#    z 0.000000 0.000000 1.727340 
# 
# From -- ./inp_files/17073.got.cif
#   From: 2010.05.17/outbox.cif.g08.bks.cpg/sg51_9_cif.got.tgz:17073.got - 2010.06.03 11:52:47.
