data_PCOD9401960
_publ_section_title
;
Structure prediction by ZEFSAII (Michael W. Deem and Ramdas Pophale) SiO2 
 PCOD9401960
Probable space group: P M M A
;
_chemical_formula_sum "Si O2"
_cell_formula_units_Z 48
_cell_length_a 8.499071
_cell_length_b 10.364510
_cell_length_c 28.230279
_cell_angle_alpha 90.000000
_cell_angle_beta 90.000000
_cell_angle_gamma 90.000000
_cell_volume 2486.768758
_symmetry_space_group_name_H-M "P M M A"
_symmetry_group_IT_number 51
_symmetry_cell_setting 'orthorhombic'
loop_
_space_group_symop_operation_xyz
x,y,z
1/2-x,-y,z
1/2+x,-y,-z
-x,y,-z
-x,-y,-z
1/2+x,y,-z
1/2-x,y,z
x,-y,z
loop_
_atom_site_type_symbol
_atom_site_label
_atom_site_fract_x
_atom_site_fract_y
_atom_site_fract_z
Si Si1 0.938370 0.147200 0.552680
Si Si2 0.940042 0.646348 0.372318
Si Si3 0.060718 0.000000 0.230762
Si Si4 0.441983 0.500000 0.090775
Si Si5 0.938818 0.272149 0.266430
Si Si6 0.061200 0.500000 0.200485
Si Si7 0.941659 0.000000 0.878417
Si Si8 0.440105 0.774281 0.051653
O O1 0.750000 0.149314 0.552013
O O2 0.000000 0.176840 0.500000
O O3 0.998763 0.249832 0.590451
O O4 0.989853 0.000000 0.564316
O O5 0.750000 0.648174 0.373381
O O6 0.991903 0.500000 0.383136
O O7 0.989059 0.682985 0.318909
O O8 0.999629 0.870508 0.255307
O O9 0.250000 0.000000 0.231549
O O10 0.006560 0.000000 0.175851
O O11 0.250000 0.500000 0.090414
O O12 0.490758 0.500000 0.145736
O O13 0.494277 0.630253 0.064894
O O14 0.750000 0.273941 0.264941
O O15 0.001935 0.373926 0.228098
O O16 0.250000 0.500000 0.200856
O O17 0.991409 0.125602 0.907921
O O18 0.750000 0.000000 0.877527
O O19 0.250000 0.775137 0.050947
O O20 0.500000 0.812492 0.000000
#
# Coordination Sequence:
#
# PCOD9401960 Si02
#       8
#     8   8   4   4   8   4   4   8
#     4  10  22  40  63  93 125 159 202 252 300 349
#     4  10  22  41  62  85 119 164 203 238 295 364
#     4  11  23  40  62  88 115 153 206 250 291 360
#     4   9  19  34  54  78 108 145 185 228 285 346
#     4  11  23  41  60  87 124 161 196 247 311 360
#     4  11  21  38  64  88 113 157 206 246 289 354
#     4   9  19  36  56  76 106 145 183 230 289 348
#     4  10  19  34  54  77 106 141 180 228 284 345
#
# _framework density 19.302157000000001
#
# number of rings (size 3 to 8) (size 9 to 14) (size 15 to 20)
#    0.000    1.833    0.833    3.000    1.167    5.667 
#    0.000    5.000    0.000    0.000    0.000    0.000 
#    0.000    0.000    0.000    0.000    0.000    0.000 
#
# Total GULP energy -268242.421761 kJ/mol
# GULP energy per Si atom -5588.383787 kJ/mol
# Density = 1.925822 g / cm^3
# Si number density = 19.302157 Si / 1000 Ang^3
#
#
#
# Elastic Constant Matrix: (Units=GPa)
#
#
# Indices 1 2 3 4 5 6 
#
# 1 26.1223 18.6036 18.2740 0.0000 0.0000 0.0000
# 2 18.6036 115.7792 42.0445 0.0000 0.0000 0.0000
# 3 18.2740 42.0445 101.7973 0.0000 0.0000 0.0000
# 4 0.0000 0.0000 0.0000 44.9627 0.0000 0.0000
# 5 0.0000 0.0000 0.0000 0.0000 32.8787 0.0000
# 6 0.0000 0.0000 0.0000 0.0000 0.0000 26.9278
#
#
#
# Elastic Compliance Matrix: (Units=1/GPa)
#
#
# Indices 1 2 3 4 5 6 
#
# 1 0.046297 -0.005201 -0.006163 0.000000 0.000000 0.000000
# 2 -0.005201 0.010745 -0.003504 0.000000 0.000000 0.000000
# 3 -0.006163 -0.003504 0.012377 0.000000 0.000000 0.000000
# 4 0.000000 0.000000 0.000000 0.022241 0.000000 0.000000
# 5 0.000000 0.000000 0.000000 0.000000 0.030415 0.000000
# 6 0.000000 0.000000 0.000000 0.000000 0.000000 0.037136
#
#
# Mechanical properties :
#
#
# Convention : Reuss Voigt Hill
#
# Bulk Modulus (GPa) = 25.19983 44.61590 34.90786
# Shear Modulus (GPa) = 24.73101 31.93895 28.33498
#
# Velocity S-wave (km/s) = 3.58335 4.07219 3.83557
# Velocity P-wave (km/s) = 5.49584 6.72867 6.14326
#
# Compressibility (1/GPa) = 0.03968280
#
# Stress axis : x y z
#
# Youngs Moduli (GPa) = 21.59980 93.06247 80.79401
#
# Poissons Ratio (x) = 0.48402 0.49791
# Poissons Ratio (y) = 0.11234 0.28314
# Poissons Ratio (z) = 0.13311 0.32613
#
# Static dielectric constant tensor:
#      x y z
#    x 1.661110 0.000000 0.000000 
#    y 0.000000 1.656970 0.000000 
#    z 0.000000 0.000000 1.637750 
# 
# From -- ./inp_files/37269.got.cif
#   From: 2010.05.17/outbox.cif.g08.bks.cpg/sg51_19_cif.got.tgz:37269.got - 2010.06.03 11:52:47.
