data_PCOD9401380
_publ_section_title
;
Structure prediction by ZEFSAII (Michael W. Deem and Ramdas Pophale) SiO2 
 PCOD9401380
Probable space group: P M M A
;
_chemical_formula_sum "Si O2"
_cell_formula_units_Z 48
_cell_length_a 13.271837
_cell_length_b 17.656048
_cell_length_c 7.398781
_cell_angle_alpha 90.000000
_cell_angle_beta 90.000000
_cell_angle_gamma 90.000000
_cell_volume 1733.742968
_symmetry_space_group_name_H-M "P M M A"
_symmetry_group_IT_number 51
_symmetry_cell_setting 'orthorhombic'
loop_
_space_group_symop_operation_xyz
x,y,z
1/2-x,-y,z
1/2+x,-y,-z
-x,y,-z
-x,-y,-z
1/2+x,y,-z
1/2-x,y,z
x,-y,z
loop_
_atom_site_type_symbol
_atom_site_label
_atom_site_fract_x
_atom_site_fract_y
_atom_site_fract_z
Si Si1 0.875801 0.782848 0.260922
Si Si2 0.371049 0.081763 0.466012
Si Si3 0.139407 0.136089 0.109526
Si Si4 0.617699 0.584035 0.457966
Si Si5 0.617995 0.582826 0.032438
Si Si6 0.097854 0.293622 0.257647
O O1 0.750000 0.763599 0.257504
O O2 0.894315 0.843342 0.419402
O O3 0.862614 0.655339 0.910422
O O4 0.897406 0.831273 0.079803
O O5 0.250000 0.083033 0.450222
O O6 0.411790 0.084166 0.259758
O O7 0.395831 0.000000 0.550278
O O8 0.250000 0.104087 0.067847
O O9 0.144777 0.213006 0.226904
O O10 0.500000 0.579321 0.500000
O O11 0.652655 0.500000 0.517149
O O12 0.640325 0.589561 0.245063
O O13 0.639995 0.659292 0.571772
O O14 0.525766 0.723463 0.264090
O O15 0.500000 0.577700 0.000000
O O16 0.846199 0.500000 0.971266
#
# Coordination Sequence:
#
# PCOD9401380 Si02
#       6
#     8   8   8   8   8   8
#     4  10  23  39  58  91 122 148 192 240 284 344
#     4   9  20  41  65  87 118 158 192 230 284 341
#     4  10  23  39  58  91 122 148 192 240 284 344
#     4  10  21  34  54  88 116 150 208 248 282 348
#     4  10  19  32  52  84 115 148 201 246 283 344
#     4  12  23  36  64  87 116 160 192 236 302 344
#
# _framework density 27.685763999999999
#
# number of rings (size 3 to 8) (size 9 to 14) (size 15 to 20)
#    0.000    1.833    1.667    2.000    2.333    0.667 
#    0.000    5.000    0.000    6.000    0.000   18.667 
#    0.000    0.000    0.000    0.000    0.000    0.000 
#
# Total GULP energy -267591.811335 kJ/mol
# GULP energy per Si atom -5574.829403 kJ/mol
# Density = 2.762275 g / cm^3
# Si number density = 27.685764 Si / 1000 Ang^3
#
#
#
# Elastic Constant Matrix: (Units=GPa)
#
#
# Indices 1 2 3 4 5 6 
#
# 1 227.2783 17.3714 24.2860 0.0000 0.0000 0.0000
# 2 17.3714 168.9086 65.1775 0.0000 0.0000 0.0000
# 3 24.2860 65.1775 213.3990 0.0000 0.0000 0.0000
# 4 0.0000 0.0000 0.0000 31.1988 0.0000 0.0000
# 5 0.0000 0.0000 0.0000 0.0000 -93.8471 0.0000
# 6 0.0000 0.0000 0.0000 0.0000 0.0000 -533.4202
#
#
#
# Elastic Compliance Matrix: (Units=1/GPa)
#
#
# Indices 1 2 3 4 5 6 
#
# 1 0.004467 -0.000298 -0.000417 0.000000 0.000000 0.000000
# 2 -0.000298 0.006731 -0.002022 0.000000 0.000000 0.000000
# 3 -0.000417 -0.002022 0.005351 0.000000 0.000000 0.000000
# 4 0.000000 0.000000 0.000000 0.032053 0.000000 0.000000
# 5 0.000000 0.000000 0.000000 0.000000 -0.010656 0.000000
# 6 0.000000 0.000000 0.000000 0.000000 0.000000 -0.001875
#
#
# Mechanical properties :
#
#
# Convention : Reuss Voigt Hill
#
# Bulk Modulus (GPa) = 90.29831 91.47287 90.88559
# Shear Modulus (GPa) = 110.52519 -85.69696 12.41411
#
# Velocity S-wave (km/s) = 6.32519 -5.56962 2.11983
# Velocity P-wave (km/s) = 9.27525 2.87218 6.23622
#
# Compressibility (1/GPa) = 0.01107440
#
# Stress axis : x y z
#
# Youngs Moduli (GPa) = 223.84946 148.56039 186.87766
#
# Poissons Ratio (x) = 0.04434 0.07798
# Poissons Ratio (y) = 0.06680 0.37786
# Poissons Ratio (z) = 0.09340 0.30038
#
# Static dielectric constant tensor:
#      x y z
#    x 2.223220 0.000000 0.000000 
#    y 0.000000 2.148860 0.000000 
#    z 0.000000 0.000000 2.200830 
# 
# From -- ./inp_files/9611.got.cif
#   From: 2010.05.17/outbox.cif.g08.bks.cpg/sg51_5_cif.got.tgz:9611.got - 2010.06.03 11:52:47.
