data_PCOD9401750
_publ_section_title
;
Structure prediction by ZEFSAII (Michael W. Deem and Ramdas Pophale) SiO2 
 PCOD9401750
Probable space group: P M M A
;
_chemical_formula_sum "Si O2"
_cell_formula_units_Z 36
_cell_length_a 8.627098
_cell_length_b 24.404030
_cell_length_c 9.516827
_cell_angle_alpha 90.000000
_cell_angle_beta 90.000000
_cell_angle_gamma 90.000000
_cell_volume 2003.634293
_symmetry_space_group_name_H-M "P M M A"
_symmetry_group_IT_number 51
_symmetry_cell_setting 'orthorhombic'
loop_
_space_group_symop_operation_xyz
x,y,z
1/2-x,-y,z
1/2+x,-y,-z
-x,y,-z
-x,-y,-z
1/2+x,y,-z
1/2-x,y,z
x,-y,z
loop_
_atom_site_type_symbol
_atom_site_label
_atom_site_fract_x
_atom_site_fract_y
_atom_site_fract_z
Si Si1 0.936418 0.279314 0.158463
Si Si2 0.436165 0.839996 0.841476
Si Si3 0.935196 0.500000 0.657885
Si Si4 0.435621 0.938538 0.342691
Si Si5 0.937041 0.600070 0.159828
O O1 0.750000 0.279329 0.154091
O O2 0.983753 0.220158 0.219452
O O3 0.982454 0.338978 0.215777
O O4 0.000000 0.278980 0.000000
O O5 0.250000 0.842282 0.845098
O O6 0.499447 0.890342 0.752798
O O7 0.500000 0.843315 0.000000
O O8 0.750000 0.500000 0.654727
O O9 0.000000 0.500000 0.500000
O O10 0.995163 0.552952 0.742644
O O11 0.500000 0.932589 0.500000
O O12 0.250000 0.935554 0.345881
O O13 0.479737 0.000000 0.292797
O O14 0.750000 0.596122 0.156021
O O15 0.000000 0.594532 0.000000
#
# Coordination Sequence:
#
# PCOD9401750 Si02
#       5
#     8   8   4   8   8
#     4   8  16  30  51  78 107 136 169 210 255 303
#     4  10  19  33  54  81 110 139 172 213 260 308
#     4  12  25  40  55  76 106 140 176 218 267 312
#     4  10  21  37  55  75 101 136 177 219 263 312
#     4  10  19  35  58  83 108 138 176 215 255 305
#
# _framework density 17.967351000000001
#
# number of rings (size 3 to 8) (size 9 to 14) (size 15 to 20)
#    0.000    2.222    0.000    3.333    0.000    3.556 
#    0.000    1.111    0.000    0.000    0.000    0.000 
#    0.000    0.000    0.000    0.000    0.000    0.000 
#
# Total GULP energy -200680.821782 kJ/mol
# GULP energy per Si atom -5574.467272 kJ/mol
# Density = 1.792646 g / cm^3
# Si number density = 17.967351 Si / 1000 Ang^3
#
#
#
# Elastic Constant Matrix: (Units=GPa)
#
#
# Indices 1 2 3 4 5 6 
#
# 1 72.1422 67.7097 33.6191 0.0000 0.0000 0.0000
# 2 67.7097 243.0546 90.6244 0.0000 0.0000 0.0000
# 3 33.6191 90.6244 69.7613 0.0000 0.0000 0.0000
# 4 0.0000 0.0000 0.0000 -21.5781 0.0000 0.0000
# 5 0.0000 0.0000 0.0000 0.0000 30.7056 0.0000
# 6 0.0000 0.0000 0.0000 0.0000 0.0000 -879.3655
#
#
#
# Elastic Compliance Matrix: (Units=1/GPa)
#
#
# Indices 1 2 3 4 5 6 
#
# 1 0.019482 -0.003736 -0.004535 0.000000 0.000000 0.000000
# 2 -0.003736 0.008696 -0.009496 0.000000 0.000000 0.000000
# 3 -0.004535 -0.009496 0.028855 0.000000 0.000000 0.000000
# 4 0.000000 0.000000 0.000000 -0.046343 0.000000 0.000000
# 5 0.000000 0.000000 0.000000 0.000000 0.032567 0.000000
# 6 0.000000 0.000000 0.000000 0.000000 0.000000 -0.001137
#
#
# Mechanical properties :
#
#
# Convention : Reuss Voigt Hill
#
# Bulk Modulus (GPa) = 46.51339 85.42939 65.97139
# Shear Modulus (GPa) = 58.94894 -161.18060 -51.11583
#
# Velocity S-wave (km/s) = 5.73412 -9.48168 -5.33957
# Velocity P-wave (km/s) = 8.35369 8.49820 1.10347
#
# Compressibility (1/GPa) = 0.02149918
#
# Stress axis : x y z
#
# Youngs Moduli (GPa) = 51.33070 114.99994 34.65560
#
# Poissons Ratio (x) = 0.42968 0.15715
# Poissons Ratio (y) = 0.19179 0.32908
# Poissons Ratio (z) = 0.23277 1.09200
#
# Static dielectric constant tensor:
#      x y z
#    x 1.602740 0.000000 0.000000 
#    y 0.000000 1.671290 0.000000 
#    z 0.000000 0.000000 1.551570 
# 
# From -- ./inp_files/5258.got.cif
#   From: 2010.05.17/outbox.cif.g08.bks.cpg/sg51_3_cif.got.tgz:5258.got - 2010.06.03 11:52:47.
