data_PCOD9401744
_publ_section_title
;
Structure prediction by ZEFSAII (Michael W. Deem and Ramdas Pophale) SiO2 
 PCOD9401744
Probable space group: P M M A
;
_chemical_formula_sum "Si O2"
_cell_formula_units_Z 48
_cell_length_a 9.754739
_cell_length_b 29.250987
_cell_length_c 9.523696
_cell_angle_alpha 90.000000
_cell_angle_beta 90.000000
_cell_angle_gamma 90.000000
_cell_volume 2717.450881
_symmetry_space_group_name_H-M "P M M A"
_symmetry_group_IT_number 51
_symmetry_cell_setting 'orthorhombic'
loop_
_space_group_symop_operation_xyz
x,y,z
1/2-x,-y,z
1/2+x,-y,-z
-x,y,-z
-x,-y,-z
1/2+x,y,-z
1/2-x,y,z
x,-y,z
loop_
_atom_site_type_symbol
_atom_site_label
_atom_site_fract_x
_atom_site_fract_y
_atom_site_fract_z
Si Si1 0.584106 0.867710 0.644568
Si Si2 0.750000 0.448615 0.339698
Si Si3 0.414244 0.195449 0.855933
Si Si4 0.502136 0.615577 0.331356
Si Si5 0.250000 0.552815 0.319241
Si Si6 0.910928 0.303888 0.139167
Si Si7 0.590160 0.946939 0.867340
O O1 0.500000 0.871629 0.500000
O O2 0.750000 0.858353 0.628221
O O3 0.501012 0.830480 0.736805
O O4 0.571806 0.914408 0.734326
O O5 0.750000 0.500000 0.286257
O O6 0.623487 0.418675 0.295724
O O7 0.750000 0.451049 0.510114
O O8 0.250000 0.182675 0.865381
O O9 0.418244 0.249905 0.827827
O O10 0.500000 0.187334 0.000000
O O11 0.500000 0.621781 0.500000
O O12 0.375173 0.585409 0.282326
O O13 0.526191 0.663817 0.258330
O O14 0.250000 0.500000 0.268012
O O15 0.750000 0.315000 0.118729
O O16 0.000000 0.311643 0.000000
O O17 0.750000 0.944701 0.907864
O O18 0.556347 0.000000 0.836371
O O19 0.500000 0.931866 0.000000
#
# Coordination Sequence:
#
# PCOD9401744 Si02
#       7
#     8   4   8   8   4   8   8
#     4  11  23  38  57  85 119 154 192 237 292 343
#     4   9  16  30  53  77 105 139 177 223 268 317
#     4  10  21  39  61  83 109 145 189 235 283 342
#     4  10  19  33  54  81 108 139 179 224 271 320
#     4   9  18  30  49  81 111 137 177 223 270 321
#     4  10  22  39  58  81 109 143 181 223 274 332
#     4   9  19  36  58  84 115 153 198 243 285 335
#
# _framework density 17.663613999999999
#
# number of rings (size 3 to 8) (size 9 to 14) (size 15 to 20)
#    0.000    2.167    0.833    2.000    1.167    6.333 
#    0.000    0.000    0.000    3.000    0.000    0.000 
#    0.000    0.000    0.000    0.000    0.000    0.000 
#
# Total GULP energy -267387.994048 kJ/mol
# GULP energy per Si atom -5570.583209 kJ/mol
# Density = 1.762341 g / cm^3
# Si number density = 17.663614 Si / 1000 Ang^3
#
#
#
# Elastic Constant Matrix: (Units=GPa)
#
#
# Indices 1 2 3 4 5 6 
#
# 1 169.7385 68.5060 70.4969 0.0000 0.0000 0.0000
# 2 68.5060 91.6162 63.7359 0.0000 0.0000 0.0000
# 3 70.4969 63.7359 98.3639 0.0000 0.0000 0.0000
# 4 0.0000 0.0000 0.0000 29.3107 0.0000 0.0000
# 5 0.0000 0.0000 0.0000 0.0000 32.8992 0.0000
# 6 0.0000 0.0000 0.0000 0.0000 0.0000 30.7412
#
#
#
# Elastic Compliance Matrix: (Units=1/GPa)
#
#
# Indices 1 2 3 4 5 6 
#
# 1 0.009186 -0.004167 -0.003883 0.000000 0.000000 0.000000
# 2 -0.004167 0.021764 -0.011116 0.000000 0.000000 0.000000
# 3 -0.003883 -0.011116 0.020152 0.000000 0.000000 0.000000
# 4 0.000000 0.000000 0.000000 0.034117 0.000000 0.000000
# 5 0.000000 0.000000 0.000000 0.000000 0.030396 0.000000
# 6 0.000000 0.000000 0.000000 0.000000 0.000000 0.032530
#
#
# Mechanical properties :
#
#
# Convention : Reuss Voigt Hill
#
# Bulk Modulus (GPa) = 78.31063 85.02179 81.66621
# Shear Modulus (GPa) = 26.21444 29.05554 27.63499
#
# Velocity S-wave (km/s) = 3.85657 4.06018 3.95969
# Velocity P-wave (km/s) = 8.01633 8.37965 8.20000
#
# Compressibility (1/GPa) = 0.01276966
#
# Stress axis : x y z
#
# Youngs Moduli (GPa) = 108.85828 45.94707 49.62277
#
# Poissons Ratio (x) = 0.19148 0.19271
# Poissons Ratio (y) = 0.45365 0.55159
# Poissons Ratio (z) = 0.42275 0.51073
#
# Static dielectric constant tensor:
#      x y z
#    x 1.571060 0.000000 0.000000 
#    y 0.000000 1.594160 0.000000 
#    z 0.000000 0.000000 1.584240 
# 
# From -- ./inp_files/6179.got.cif
#   From: 2010.05.17/outbox.cif.g08.bks.cpg/sg51_4_cif.got.tgz:6179.got - 2010.06.03 11:52:47.
