data_PCOD9401615
_publ_section_title
;
Structure prediction by ZEFSAII (Michael W. Deem and Ramdas Pophale) SiO2 
 PCOD9401615
Probable space group: P M M A
;
_chemical_formula_sum "Si O2"
_cell_formula_units_Z 64
_cell_length_a 20.045021
_cell_length_b 7.679744
_cell_length_c 20.893611
_cell_angle_alpha 90.000000
_cell_angle_beta 90.000000
_cell_angle_gamma 90.000000
_cell_volume 3216.375635
_symmetry_space_group_name_H-M "P M M A"
_symmetry_group_IT_number 51
_symmetry_cell_setting 'orthorhombic'
loop_
_space_group_symop_operation_xyz
x,y,z
1/2-x,-y,z
1/2+x,-y,-z
-x,y,-z
-x,-y,-z
1/2+x,y,-z
1/2-x,y,z
x,-y,z
loop_
_atom_site_type_symbol
_atom_site_label
_atom_site_fract_x
_atom_site_fract_y
_atom_site_fract_z
Si Si1 0.552018 0.787926 0.089924
Si Si2 0.325986 0.207817 0.663519
Si Si3 0.577498 0.798286 0.724848
Si Si4 0.826297 0.707508 0.475886
Si Si5 0.067149 0.214309 0.766071
Si Si6 0.096308 0.210428 0.045649
Si Si7 0.826370 0.793250 0.615884
Si Si8 0.675482 0.703833 0.834438
O O1 0.573874 0.730243 0.160084
O O2 0.475391 0.736809 0.075550
O O3 0.552463 0.000000 0.089852
O O4 0.595043 0.732487 0.028347
O O5 0.250000 0.278475 0.665962
O O6 0.355474 0.240821 0.592612
O O7 0.373830 0.272918 0.719508
O O8 0.321608 0.000000 0.670885
O O9 0.504517 0.724840 0.739320
O O10 0.623485 0.719642 0.668940
O O11 0.621001 0.792447 0.789440
O O12 0.566026 0.000000 0.707259
O O13 0.750000 0.777458 0.474666
O O14 0.824287 0.500000 0.477879
O O15 0.853721 0.768271 0.543974
O O16 0.066551 0.000000 0.766471
O O17 0.153736 0.276059 0.092047
O O18 0.098498 0.000000 0.046595
O O19 0.750000 0.722444 0.619513
O O20 0.820914 0.000000 0.627376
O O21 0.750000 0.772735 0.823383
O O22 0.674872 0.500000 0.818215
#
# Coordination Sequence:
#
# PCOD9401615 Si02
#       8
#     8   8   8   8   8   8   8   8
#     4   8  14  27  51  78  99 120 156 208 253 288
#     4   9  17  30  50  74  98 125 158 200 250 300
#     4  10  19  33  53  74  97 131 171 208 247 295
#     4   9  17  30  49  70  93 126 165 200 239 292
#     4   9  16  29  51  77 102 127 159 204 252 296
#     4   9  16  30  53  75  95 126 167 207 246 290
#     4   9  17  29  47  72  97 121 158 206 247 288
#     4  11  23  35  47  69 105 141 170 207 251 293
#
# _framework density 19.898174000000001
#
# number of rings (size 3 to 8) (size 9 to 14) (size 15 to 20)
#    0.000    2.750    1.250    1.875    0.000    3.500 
#    0.000    4.375    0.000    6.000    0.000    1.750 
#    0.000    0.000    0.000    0.000    0.000    0.000 
#
# Total GULP energy -356797.898841 kJ/mol
# GULP energy per Si atom -5574.967169 kJ/mol
# Density = 1.985289 g / cm^3
# Si number density = 19.898174 Si / 1000 Ang^3
#
#
#
# Elastic Constant Matrix: (Units=GPa)
#
#
# Indices 1 2 3 4 5 6 
#
# 1 78.6094 0.2623 60.0573 0.0000 0.0000 0.0000
# 2 0.2623 34.0122 -3.5911 0.0000 0.0000 0.0000
# 3 60.0573 -3.5911 169.9279 0.0000 0.0000 0.0000
# 4 0.0000 0.0000 0.0000 -76.5091 0.0000 0.0000
# 5 0.0000 0.0000 0.0000 0.0000 29.0534 0.0000
# 6 0.0000 0.0000 0.0000 0.0000 0.0000 -8.4971
#
#
#
# Elastic Compliance Matrix: (Units=1/GPa)
#
#
# Indices 1 2 3 4 5 6 
#
# 1 0.017448 -0.000787 -0.006183 0.000000 0.000000 0.000000
# 2 -0.000787 0.029503 0.000902 0.000000 0.000000 0.000000
# 3 -0.006183 0.000902 0.008089 0.000000 0.000000 0.000000
# 4 0.000000 0.000000 0.000000 -0.013070 0.000000 0.000000
# 5 0.000000 0.000000 0.000000 0.000000 0.034419 0.000000
# 6 0.000000 0.000000 0.000000 0.000000 0.000000 -0.117687
#
#
# Mechanical properties :
#
#
# Convention : Reuss Voigt Hill
#
# Bulk Modulus (GPa) = 23.30902 44.00071 33.65487
# Shear Modulus (GPa) = -336.46034 3.86418 -166.29808
#
# Velocity S-wave (km/s) = -13.01761 1.39506 -9.15183
# Velocity P-wave (km/s) = 14.63573 4.97553 9.73264
#
# Compressibility (1/GPa) = 0.04290184
#
# Stress axis : x y z
#
# Youngs Moduli (GPa) = 57.31439 33.89543 123.62173
#
# Poissons Ratio (x) = 0.02669 0.76437
# Poissons Ratio (y) = 0.04513 -0.11148
# Poissons Ratio (z) = 0.35438 -0.03057
#
# Static dielectric constant tensor:
#      x y z
#    x 1.691660 0.000000 0.000000 
#    y 0.000000 1.729020 0.000000 
#    z 0.000000 0.000000 1.716670 
# 
# From -- ./inp_files/34095.got.cif
#   From: 2010.05.17/outbox.cif.g08.bks.cpg/sg51_18_cif.got.tgz:34095.got - 2010.06.03 11:52:47.
