data_PCOD9401831
_publ_section_title
;
Structure prediction by ZEFSAII (Michael W. Deem and Ramdas Pophale) SiO2 
 PCOD9401831
Probable space group: P M M A
;
_chemical_formula_sum "Si O2"
_cell_formula_units_Z 44
_cell_length_a 9.438311
_cell_length_b 8.181452
_cell_length_c 30.634628
_cell_angle_alpha 90.000000
_cell_angle_beta 90.000000
_cell_angle_gamma 90.000000
_cell_volume 2365.578048
_symmetry_space_group_name_H-M "P M M A"
_symmetry_group_IT_number 51
_symmetry_cell_setting 'orthorhombic'
loop_
_space_group_symop_operation_xyz
x,y,z
1/2-x,-y,z
1/2+x,-y,-z
-x,y,-z
-x,-y,-z
1/2+x,y,-z
1/2-x,y,z
x,-y,z
loop_
_atom_site_type_symbol
_atom_site_label
_atom_site_fract_x
_atom_site_fract_y
_atom_site_fract_z
Si Si1 0.411901 0.302722 0.541984
Si Si2 0.585846 0.304862 0.721425
Si Si3 0.585396 0.192676 0.195250
Si Si4 0.577735 0.318393 0.102478
Si Si5 0.077767 0.000000 0.953809
Si Si6 0.413271 0.195574 0.374101
O O1 0.500000 0.243258 0.500000
O O2 0.250000 0.243145 0.540997
O O3 0.408426 0.500000 0.539881
O O4 0.490930 0.254661 0.586244
O O5 0.750000 0.251340 0.724144
O O6 0.580237 0.500000 0.725318
O O7 0.499446 0.228689 0.760994
O O8 0.534808 0.255766 0.673172
O O9 0.750000 0.237836 0.202122
O O10 0.531631 0.287126 0.152440
O O11 0.580288 0.000000 0.185013
O O12 0.750000 0.316373 0.103240
O O13 0.532832 0.500000 0.087801
O O14 0.536673 0.164292 0.072766
O O15 0.250000 0.000000 0.958425
O O16 0.000000 0.000000 0.000000
O O17 0.250000 0.254292 0.379787
O O18 0.411634 0.000000 0.373719
#
# Coordination Sequence:
#
# PCOD9401831 Si02
#       6
#     8   8   8   8   4   8
#     4  10  21  37  58  82 106 135 173 217 266 319
#     4  10  21  36  54  78 109 145 182 221 270 326
#     4  10  19  33  55  82 109 140 183 229 271 323
#     4   9  17  32  55  80 108 144 184 228 277 330
#     4  10  20  36  56  80 110 144 186 230 279 334
#     4  10  21  37  56  77 104 140 179 217 263 319
#
# _framework density 18.600107000000001
#
# number of rings (size 3 to 8) (size 9 to 14) (size 15 to 20)
#    0.000    2.182    0.909    2.182    0.000    5.818 
#    0.000    0.909    0.000    1.091    0.000    0.000 
#    0.000    0.000    0.000    0.000    0.000    0.000 
#
# Total GULP energy -245576.061994 kJ/mol
# GULP energy per Si atom -5581.274136 kJ/mol
# Density = 1.855777 g / cm^3
# Si number density = 18.600107 Si / 1000 Ang^3
#
#
#
# Elastic Constant Matrix: (Units=GPa)
#
#
# Indices 1 2 3 4 5 6 
#
# 1 53.6952 26.5140 55.7107 0.0000 0.0000 0.0000
# 2 26.5140 76.2576 51.9768 0.0000 0.0000 0.0000
# 3 55.7107 51.9768 152.7796 0.0000 0.0000 0.0000
# 4 0.0000 0.0000 0.0000 14.4181 0.0000 0.0000
# 5 0.0000 0.0000 0.0000 0.0000 35.7564 0.0000
# 6 0.0000 0.0000 0.0000 0.0000 0.0000 19.3418
#
#
#
# Elastic Compliance Matrix: (Units=1/GPa)
#
#
# Indices 1 2 3 4 5 6 
#
# 1 0.030860 -0.003983 -0.009898 0.000000 0.000000 0.000000
# 2 -0.003983 0.017586 -0.004531 0.000000 0.000000 0.000000
# 3 -0.009898 -0.004531 0.011696 0.000000 0.000000 0.000000
# 4 0.000000 0.000000 0.000000 0.069357 0.000000 0.000000
# 5 0.000000 0.000000 0.000000 0.000000 0.027967 0.000000
# 6 0.000000 0.000000 0.000000 0.000000 0.000000 0.051701
#
#
# Mechanical properties :
#
#
# Convention : Reuss Voigt Hill
#
# Bulk Modulus (GPa) = 42.88381 61.23727 52.06054
# Shear Modulus (GPa) = 19.70334 23.80533 21.75433
#
# Velocity S-wave (km/s) = 3.25824 3.58138 3.42362
# Velocity P-wave (km/s) = 6.10414 7.07787 6.60896
#
# Compressibility (1/GPa) = 0.02331882
#
# Stress axis : x y z
#
# Youngs Moduli (GPa) = 32.40454 56.86213 85.50007
#
# Poissons Ratio (x) = 0.22650 0.84626
# Poissons Ratio (y) = 0.12908 0.38736
# Poissons Ratio (z) = 0.32073 0.25761
#
# Static dielectric constant tensor:
#      x y z
#    x 1.631300 0.000000 0.000000 
#    y 0.000000 1.658120 0.000000 
#    z 0.000000 0.000000 1.611900 
# 
# From -- ./inp_files/36786.got.cif
#   From: 2010.05.17/outbox.cif.g08.bks.cpg/sg51_19_cif.got.tgz:36786.got - 2010.06.03 11:52:47.
