data_PCOD9401957
_publ_section_title
;
Structure prediction by ZEFSAII (Michael W. Deem and Ramdas Pophale) SiO2 
 PCOD9401957
Probable space group: P M M A
;
_chemical_formula_sum "Si O2"
_cell_formula_units_Z 48
_cell_length_a 31.369543
_cell_length_b 8.957923
_cell_length_c 9.501528
_cell_angle_alpha 90.000000
_cell_angle_beta 90.000000
_cell_angle_gamma 90.000000
_cell_volume 2669.985909
_symmetry_space_group_name_H-M "P M M A"
_symmetry_group_IT_number 51
_symmetry_cell_setting 'orthorhombic'
loop_
_space_group_symop_operation_xyz
x,y,z
1/2-x,-y,z
1/2+x,-y,-z
-x,y,-z
-x,-y,-z
1/2+x,y,-z
1/2-x,y,z
x,-y,z
loop_
_atom_site_type_symbol
_atom_site_label
_atom_site_fract_x
_atom_site_fract_y
_atom_site_fract_z
Si Si1 0.451835 0.679499 0.028772
Si Si2 0.618594 0.677248 0.204955
Si Si3 0.325955 0.832829 0.010365
Si Si4 0.250000 0.325452 0.502402
Si Si5 0.750000 0.672960 0.835150
Si Si6 0.603503 0.167328 0.749088
Si Si7 0.656698 0.820211 0.474126
O O1 0.450808 0.500000 0.035167
O O2 0.434092 0.738806 0.178344
O O3 0.500000 0.729789 0.000000
O O4 0.421457 0.720345 0.895333
O O5 0.616975 0.500000 0.229809
O O6 0.625865 0.765403 0.349033
O O7 0.659545 0.724235 0.113030
O O8 0.289361 0.758703 0.099737
O O9 0.364392 0.845004 0.120102
O O10 0.315456 0.000000 0.958852
O O11 0.250000 0.500000 0.546405
O O12 0.250000 0.318917 0.332656
O O13 0.204451 0.249456 0.542835
O O14 0.750000 0.500000 0.875972
O O15 0.632102 0.225453 0.618834
O O16 0.588637 0.000000 0.710819
O O17 0.661090 0.000000 0.475827
#
# Coordination Sequence:
#
# PCOD9401957 Si02
#       7
#     8   8   8   4   4   8   8
#     4   9  19  37  61  86 111 142 182 229 282 339
#     4  10  21  37  56  81 112 143 181 230 281 331
#     4  10  19  34  54  76 104 141 183 225 272 321
#     4  11  23  36  55  82 113 150 192 232 275 322
#     4  11  21  32  51  80 109 138 182 232 273 320
#     4   9  19  34  55  81 108 142 183 225 270 327
#     4  11  22  38  57  81 115 153 191 229 278 334
#
# _framework density 17.977623000000001
#
# number of rings (size 3 to 8) (size 9 to 14) (size 15 to 20)
#    0.000    2.000    1.667    2.000    0.000    4.333 
#    0.000    4.167    0.000    5.000    0.000    0.000 
#    0.000    0.000    0.000    0.000    0.000    0.000 
#
# Total GULP energy -267308.777015 kJ/mol
# GULP energy per Si atom -5568.932854 kJ/mol
# Density = 1.793671 g / cm^3
# Si number density = 17.977623 Si / 1000 Ang^3
#
#
#
# Elastic Constant Matrix: (Units=GPa)
#
#
# Indices 1 2 3 4 5 6 
#
# 1 94.5683 49.8163 29.7293 0.0000 0.0000 0.0000
# 2 49.8163 53.8540 21.3547 0.0000 0.0000 0.0000
# 3 29.7293 21.3547 81.0684 0.0000 0.0000 0.0000
# 4 0.0000 0.0000 0.0000 27.0019 0.0000 0.0000
# 5 0.0000 0.0000 0.0000 0.0000 40.2338 0.0000
# 6 0.0000 0.0000 0.0000 0.0000 0.0000 21.8001
#
#
#
# Elastic Compliance Matrix: (Units=1/GPa)
#
#
# Indices 1 2 3 4 5 6 
#
# 1 0.021224 -0.018476 -0.002916 0.000000 0.000000 0.000000
# 2 -0.018476 0.036819 -0.002923 0.000000 0.000000 0.000000
# 3 -0.002916 -0.002923 0.014175 0.000000 0.000000 0.000000
# 4 0.000000 0.000000 0.000000 0.037034 0.000000 0.000000
# 5 0.000000 0.000000 0.000000 0.000000 0.024855 0.000000
# 6 0.000000 0.000000 0.000000 0.000000 0.000000 0.045871
#
#
# Mechanical properties :
#
#
# Convention : Reuss Voigt Hill
#
# Bulk Modulus (GPa) = 42.39763 47.92127 45.15945
# Shear Modulus (GPa) = 21.14414 26.37985 23.76200
#
# Velocity S-wave (km/s) = 3.43321 3.83478 3.63954
# Velocity P-wave (km/s) = 6.27301 6.80598 6.54492
#
# Compressibility (1/GPa) = 0.02358623
#
# Stress axis : x y z
#
# Youngs Moduli (GPa) = 47.11620 27.15986 70.54825
#
# Poissons Ratio (x) = 0.50182 0.20574
# Poissons Ratio (y) = 0.87054 0.20622
# Poissons Ratio (z) = 0.13740 0.07939
#
# Static dielectric constant tensor:
#      x y z
#    x 1.595920 0.000000 0.000000 
#    y 0.000000 1.637690 0.000000 
#    z 0.000000 0.000000 1.615520 
# 
# From -- ./inp_files/12956.got.cif
#   From: 2010.05.17/outbox.cif.g08.bks.cpg/sg51_7_cif.got.tgz:12956.got - 2010.06.03 11:52:47.
