data_PCOD9401573
_publ_section_title
;
Structure prediction by ZEFSAII (Michael W. Deem and Ramdas Pophale) SiO2 
 PCOD9401573
Probable space group: P M M A
;
_chemical_formula_sum "Si O2"
_cell_formula_units_Z 64
_cell_length_a 9.474267
_cell_length_b 15.098512
_cell_length_c 24.375940
_cell_angle_alpha 90.000000
_cell_angle_beta 90.000000
_cell_angle_gamma 90.000000
_cell_volume 3486.913231
_symmetry_space_group_name_H-M "P M M A"
_symmetry_group_IT_number 51
_symmetry_cell_setting 'orthorhombic'
loop_
_space_group_symop_operation_xyz
x,y,z
1/2-x,-y,z
1/2+x,-y,-z
-x,y,-z
-x,-y,-z
1/2+x,y,-z
1/2-x,y,z
x,-y,z
loop_
_atom_site_type_symbol
_atom_site_label
_atom_site_fract_x
_atom_site_fract_y
_atom_site_fract_z
Si Si1 0.918765 0.601776 0.556941
Si Si2 0.410478 0.105737 0.948327
Si Si3 0.580950 0.734367 0.655746
Si Si4 0.919462 0.897786 0.295528
Si Si5 0.913252 0.598889 0.274141
Si Si6 0.911668 0.858169 0.172594
Si Si7 0.408699 0.607177 0.051276
Si Si8 0.094063 0.348846 0.846541
O O1 0.750000 0.605518 0.548208
O O2 0.950475 0.500000 0.575808
O O3 0.954425 0.678850 0.600440
O O4 0.000000 0.614952 0.500000
O O5 0.250000 0.142924 0.948461
O O6 0.474392 0.119105 0.887236
O O7 0.399779 0.000000 0.955354
O O8 0.500000 0.140036 0.000000
O O9 0.750000 0.745525 0.658321
O O10 0.501581 0.827025 0.667017
O O11 0.522658 0.668529 0.702400
O O12 0.750000 0.878658 0.296097
O O13 0.968594 0.888825 0.231526
O O14 0.939425 0.000000 0.312316
O O15 0.750000 0.625309 0.286181
O O16 0.936017 0.500000 0.295982
O O17 0.926683 0.596748 0.208647
O O18 0.750000 0.893070 0.170352
O O19 0.907152 0.752391 0.173100
O O20 0.250000 0.639895 0.046976
O O21 0.407235 0.500000 0.050325
O O22 0.479832 0.635631 0.107551
O O23 0.500000 0.638117 0.000000
O O24 0.250000 0.369381 0.869599
#
# Coordination Sequence:
#
# PCOD9401573 Si02
#       8
#     8   8   8   8   8   8   8   8
#     4   9  19  36  58  87 123 163 201 235 277 329
#     4   9  17  30  48  69  92 121 159 206 265 330
#     4  11  22  36  56  85 123 157 189 235 289 341
#     4  10  20  37  61  84 109 148 199 248 291 343
#     4  10  20  34  54  80 111 149 190 229 272 330
#     4   9  17  32  53  75 100 131 173 224 276 333
#     4  10  21  36  52  69  91 124 170 220 271 332
#     4  10  19  33  52  73 101 132 168 219 274 328
#
# _framework density 18.354343
#
# number of rings (size 3 to 8) (size 9 to 14) (size 15 to 20)
#    0.000    2.250    1.250    1.875    0.000    5.750 
#    0.000    3.750    0.000    1.875    0.000    0.000 
#    0.000    0.000    0.000    0.000    0.000    0.000 
#
# Total GULP energy -356810.961892 kJ/mol
# GULP energy per Si atom -5575.171280 kJ/mol
# Density = 1.831257 g / cm^3
# Si number density = 18.354343 Si / 1000 Ang^3
#
#
#
# Elastic Constant Matrix: (Units=GPa)
#
#
# Indices 1 2 3 4 5 6 
#
# 1 78.4972 46.5158 55.9062 0.0000 0.0000 0.0000
# 2 46.5158 99.4303 49.4406 0.0000 0.0000 0.0000
# 3 55.9062 49.4406 102.9945 0.0000 0.0000 0.0000
# 4 0.0000 0.0000 0.0000 18.1411 0.0000 0.0000
# 5 0.0000 0.0000 0.0000 0.0000 30.8267 0.0000
# 6 0.0000 0.0000 0.0000 0.0000 0.0000 21.2637
#
#
#
# Elastic Compliance Matrix: (Units=1/GPa)
#
#
# Indices 1 2 3 4 5 6 
#
# 1 0.023237 -0.006041 -0.009713 0.000000 0.000000 0.000000
# 2 -0.006041 0.014781 -0.003816 0.000000 0.000000 0.000000
# 3 -0.009713 -0.003816 0.016814 0.000000 0.000000 0.000000
# 4 0.000000 0.000000 0.000000 0.055124 0.000000 0.000000
# 5 0.000000 0.000000 0.000000 0.000000 0.032439 0.000000
# 6 0.000000 0.000000 0.000000 0.000000 0.000000 0.047028
#
#
# Mechanical properties :
#
#
# Convention : Reuss Voigt Hill
#
# Bulk Modulus (GPa) = 63.73290 64.96080 64.34685
# Shear Modulus (GPa) = 21.38632 22.65025 22.01828
#
# Velocity S-wave (km/s) = 3.41719 3.51672 3.46731
# Velocity P-wave (km/s) = 7.09708 7.20827 7.15290
#
# Compressibility (1/GPa) = 0.01569048
#
# Stress axis : x y z
#
# Youngs Moduli (GPa) = 43.03489 67.65445 59.47544
#
# Poissons Ratio (x) = 0.40870 0.57771
# Poissons Ratio (y) = 0.25997 0.22697
# Poissons Ratio (z) = 0.41801 0.25819
#
# Static dielectric constant tensor:
#      x y z
#    x 1.636000 0.000000 0.000000 
#    y 0.000000 1.668800 0.000000 
#    z 0.000000 0.000000 1.633070 
# 
# From -- ./inp_files/34848.got.cif
#   From: 2010.05.17/outbox.cif.g08.bks.cpg/sg51_18_cif.got.tgz:34848.got - 2010.06.03 11:52:47.
