data_PCOD9401013
_publ_section_title
;
Structure prediction by ZEFSAII (Michael W. Deem and Ramdas Pophale) SiO2 
 PCOD9401013
Probable space group: P M M A
;
_chemical_formula_sum "Si O2"
_cell_formula_units_Z 56
_cell_length_a 8.668171
_cell_length_b 15.385566
_cell_length_c 20.960389
_cell_angle_alpha 90.000000
_cell_angle_beta 90.000000
_cell_angle_gamma 90.000000
_cell_volume 2795.376348
_symmetry_space_group_name_H-M "P M M A"
_symmetry_group_IT_number 51
_symmetry_cell_setting 'orthorhombic'
loop_
_space_group_symop_operation_xyz
x,y,z
1/2-x,-y,z
1/2+x,-y,-z
-x,y,-z
-x,-y,-z
1/2+x,y,-z
1/2-x,y,z
x,-y,z
loop_
_atom_site_type_symbol
_atom_site_label
_atom_site_fract_x
_atom_site_fract_y
_atom_site_fract_z
Si Si1 0.435417 0.000000 0.929441
Si Si2 0.920804 0.899988 0.716737
Si Si3 0.428973 0.098476 0.586545
Si Si4 0.568783 0.159392 0.159185
Si Si5 0.433917 0.712944 0.433668
Si Si6 0.063896 0.398261 0.309050
Si Si7 0.431808 0.354590 0.830463
Si Si8 0.562923 0.500000 0.071440
O O1 0.482011 0.913646 0.890646
O O2 0.250000 0.000000 0.932707
O O3 0.500000 0.000000 0.000000
O O4 0.750000 0.875783 0.691548
O O5 0.048569 0.895956 0.662524
O O6 0.968831 0.846597 0.777241
O O7 0.913940 0.000000 0.737492
O O8 0.250000 0.103598 0.567826
O O9 0.517500 0.185217 0.566258
O O10 0.487080 0.000000 0.569931
O O11 0.750000 0.141933 0.174200
O O12 0.554639 0.258777 0.139994
O O13 0.500000 0.675050 0.500000
O O14 0.250000 0.707631 0.435455
O O15 0.487313 0.662884 0.368908
O O16 0.250000 0.395342 0.308784
O O17 0.017713 0.500000 0.317859
O O18 0.007440 0.366676 0.239328
O O19 0.250000 0.371817 0.819756
O O20 0.488839 0.419547 0.884702
O O21 0.750000 0.500000 0.067725
O O22 0.500000 0.500000 0.000000
#
# Coordination Sequence:
#
# PCOD9401013 Si02
#       8
#     4   8   8   8   8   8   8   4
#     4  10  22  38  54  76 112 156 199 242 289 346
#     4  10  19  31  51  81 114 146 186 237 289 341
#     4  10  21  37  58  84 117 159 202 245 296 353
#     4  10  20  35  56  80 110 150 194 239 290 347
#     4  11  24  41  61  88 123 161 204 253 304 361
#     4  10  22  41  65  92 122 155 197 249 306 365
#     4  10  21  38  62  91 119 152 197 246 295 354
#     4  10  22  40  60  88 123 154 191 238 293 354
#
# _framework density 20.033079000000001
#
# number of rings (size 3 to 8) (size 9 to 14) (size 15 to 20)
#    0.000    1.857    1.429    2.143    0.000    7.714 
#    0.000    0.000    0.000    0.000    0.000    0.000 
#    0.000    0.000    0.000    0.000    0.000    0.000 
#
# Total GULP energy -312313.418008 kJ/mol
# GULP energy per Si atom -5577.025322 kJ/mol
# Density = 1.998748 g / cm^3
# Si number density = 20.033079 Si / 1000 Ang^3
#
#
#
# Elastic Constant Matrix: (Units=GPa)
#
#
# Indices 1 2 3 4 5 6 
#
# 1 27.9882 32.7810 22.7596 0.0000 0.0000 0.0000
# 2 32.7810 115.3780 75.0319 0.0000 0.0000 0.0000
# 3 22.7596 75.0319 150.2069 0.0000 0.0000 0.0000
# 4 0.0000 0.0000 0.0000 10.1727 0.0000 0.0000
# 5 0.0000 0.0000 0.0000 0.0000 34.4316 0.0000
# 6 0.0000 0.0000 0.0000 0.0000 0.0000 20.1557
#
#
#
# Elastic Compliance Matrix: (Units=1/GPa)
#
#
# Indices 1 2 3 4 5 6 
#
# 1 0.053608 -0.014735 -0.000762 0.000000 0.000000 0.000000
# 2 -0.014735 0.016888 -0.006203 0.000000 0.000000 0.000000
# 3 -0.000762 -0.006203 0.009872 0.000000 0.000000 0.000000
# 4 0.000000 0.000000 0.000000 0.098303 0.000000 0.000000
# 5 0.000000 0.000000 0.000000 0.000000 0.029043 0.000000
# 6 0.000000 0.000000 0.000000 0.000000 0.000000 0.049614
#
#
# Mechanical properties :
#
#
# Convention : Reuss Voigt Hill
#
# Bulk Modulus (GPa) = 27.05187 61.63537 44.34362
# Shear Modulus (GPa) = 15.97191 23.81871 19.89531
#
# Velocity S-wave (km/s) = 2.82667 3.45188 3.15480
# Velocity P-wave (km/s) = 4.91796 6.83527 5.95430
#
# Compressibility (1/GPa) = 0.03696601
#
# Stress axis : x y z
#
# Youngs Moduli (GPa) = 18.65397 59.21462 101.30129
#
# Poissons Ratio (x) = 0.87255 0.07720
# Poissons Ratio (y) = 0.27487 0.62838
# Poissons Ratio (z) = 0.01422 0.36731
#
# Static dielectric constant tensor:
#      x y z
#    x 1.707950 0.000000 0.000000 
#    y 0.000000 1.754030 0.000000 
#    z 0.000000 0.000000 1.702760 
# 
# From -- ./inp_files/32064.got.cif
#   From: 2010.05.17/outbox.cif.g08.bks.cpg/sg51_17_cif.got.tgz:32064.got - 2010.06.03 11:52:47.
