data_PCOD9401187
_publ_section_title
;
Structure prediction by ZEFSAII (Michael W. Deem and Ramdas Pophale) SiO2 
 PCOD9401187
Probable space group: P M M A
;
_chemical_formula_sum "Si O2"
_cell_formula_units_Z 48
_cell_length_a 14.195152
_cell_length_b 7.991861
_cell_length_c 21.679723
_cell_angle_alpha 90.000000
_cell_angle_beta 90.000000
_cell_angle_gamma 90.000000
_cell_volume 2459.470954
_symmetry_space_group_name_H-M "P M M A"
_symmetry_group_IT_number 51
_symmetry_cell_setting 'orthorhombic'
loop_
_space_group_symop_operation_xyz
x,y,z
1/2-x,-y,z
1/2+x,-y,-z
-x,y,-z
-x,-y,-z
1/2+x,y,-z
1/2-x,y,z
x,-y,z
loop_
_atom_site_type_symbol
_atom_site_label
_atom_site_fract_x
_atom_site_fract_y
_atom_site_fract_z
Si Si1 0.947055 0.302475 0.411319
Si Si2 0.028120 0.304398 0.836012
Si Si3 0.858824 0.705199 0.281971
Si Si4 0.142876 0.297376 0.091454
Si Si5 0.856779 0.196745 0.538526
Si Si6 0.638431 0.197577 0.045549
O O1 0.928409 0.500000 0.416230
O O2 0.909339 0.243699 0.345331
O O3 0.890799 0.219652 0.467824
O O4 0.058566 0.275034 0.421591
O O5 0.013376 0.500000 0.821934
O O6 0.084124 0.233325 0.777867
O O7 0.088903 0.290011 0.898322
O O8 0.927138 0.232694 0.855973
O O9 0.750000 0.758690 0.280346
O O10 0.858122 0.500000 0.280720
O O11 0.250000 0.237865 0.098564
O O12 0.143310 0.500000 0.092992
O O13 0.107975 0.246471 0.023419
O O14 0.750000 0.262788 0.546571
O O15 0.855457 0.000000 0.552199
O O16 0.750000 0.233538 0.048192
O O17 0.623646 0.000000 0.053844
#
# Coordination Sequence:
#
# PCOD9401187 Si02
#       6
#     8   8   8   8   8   8
#     4  10  19  32  53  79 105 134 170 210 250 293
#     4  10  19  32  51  72  95 127 164 199 240 291
#     4   9  18  32  50  74 103 131 159 196 244 294
#     4   9  18  32  49  69  93 123 161 202 243 289
#     4  10  20  34  53  77 106 138 170 206 249 295
#     4  10  20  32  47  70  98 125 156 199 250 296
#
# _framework density 19.516393999999998
#
# number of rings (size 3 to 8) (size 9 to 14) (size 15 to 20)
#    0.000    2.333    0.000    4.000    0.000    6.333 
#    0.000    2.500    0.000    7.000    0.000    2.333 
#    0.000    0.000    0.000    0.000    0.000    0.000 
#
# Total GULP energy -267850.560893 kJ/mol
# GULP energy per Si atom -5580.220019 kJ/mol
# Density = 1.947197 g / cm^3
# Si number density = 19.516394 Si / 1000 Ang^3
#
#
#
# Elastic Constant Matrix: (Units=GPa)
#
#
# Indices 1 2 3 4 5 6 
#
# 1 124.6970 -4.0222 74.0434 0.0000 0.0000 0.0000
# 2 -4.0222 7.8393 -7.9180 0.0000 0.0000 0.0000
# 3 74.0434 -7.9180 129.6698 0.0000 0.0000 0.0000
# 4 0.0000 0.0000 0.0000 -62.2297 0.0000 0.0000
# 5 0.0000 0.0000 0.0000 0.0000 26.7429 0.0000
# 6 0.0000 0.0000 0.0000 0.0000 0.0000 13.5941
#
#
#
# Elastic Compliance Matrix: (Units=1/GPa)
#
#
# Indices 1 2 3 4 5 6 
#
# 1 0.012138 -0.000824 -0.006981 0.000000 0.000000 0.000000
# 2 -0.000824 0.136002 0.008775 0.000000 0.000000 0.000000
# 3 -0.006981 0.008775 0.012234 0.000000 0.000000 0.000000
# 4 0.000000 0.000000 0.000000 -0.016069 0.000000 0.000000
# 5 0.000000 0.000000 0.000000 0.000000 0.037393 0.000000
# 6 0.000000 0.000000 0.000000 0.000000 0.000000 0.073561
#
#
# Mechanical properties :
#
#
# Convention : Reuss Voigt Hill
#
# Bulk Modulus (GPa) = 6.16087 42.93471 24.54779
# Shear Modulus (GPa) = 16.26415 8.96167 12.61291
#
# Velocity S-wave (km/s) = 2.88993 2.14519 2.54495
# Velocity P-wave (km/s) = 3.78143 5.30875 4.60880
#
# Compressibility (1/GPa) = 0.16231479
#
# Stress axis : x y z
#
# Youngs Moduli (GPa) = 82.38327 7.35282 81.73775
#
# Poissons Ratio (x) = 0.00606 0.57065
# Poissons Ratio (y) = 0.06785 -0.71724
# Poissons Ratio (z) = 0.57516 -0.06452
#
# Static dielectric constant tensor:
#      x y z
#    x 1.716430 0.000000 0.000000 
#    y 0.000000 1.684850 0.000000 
#    z 0.000000 0.000000 1.660600 
# 
# From -- ./inp_files/33200.got.cif
#   From: 2010.05.17/outbox.cif.g08.bks.cpg/sg51_17_cif.got.tgz:33200.got - 2010.06.03 11:52:47.
