data_PCOD9401055
_publ_section_title
;
Structure prediction by ZEFSAII (Michael W. Deem and Ramdas Pophale) SiO2 
 PCOD9401055
Probable space group: P M M A
;
_chemical_formula_sum "Si O2"
_cell_formula_units_Z 52
_cell_length_a 7.466334
_cell_length_b 24.496401
_cell_length_c 14.851914
_cell_angle_alpha 90.000000
_cell_angle_beta 90.000000
_cell_angle_gamma 90.000000
_cell_volume 2716.389996
_symmetry_space_group_name_H-M "P M M A"
_symmetry_group_IT_number 51
_symmetry_cell_setting 'orthorhombic'
loop_
_space_group_symop_operation_xyz
x,y,z
1/2-x,-y,z
1/2+x,-y,-z
-x,y,-z
-x,-y,-z
1/2+x,y,-z
1/2-x,y,z
x,-y,z
loop_
_atom_site_type_symbol
_atom_site_label
_atom_site_fract_x
_atom_site_fract_y
_atom_site_fract_z
Si Si1 0.964943 0.380921 0.893294
Si Si2 0.036145 0.166690 0.105584
Si Si3 0.464028 0.500000 0.106956
Si Si4 0.530403 0.274371 0.788222
Si Si5 0.963921 0.894500 0.599922
Si Si6 0.536130 0.769423 0.600127
Si Si7 0.030831 0.939859 0.211106
O O1 0.750000 0.382121 0.883864
O O2 0.033123 0.440745 0.862546
O O3 0.031769 0.329631 0.836198
O O4 0.000000 0.373673 0.000000
O O5 0.250000 0.166430 0.118560
O O6 0.971209 0.220949 0.156185
O O7 0.969055 0.110722 0.150399
O O8 0.000000 0.169005 0.000000
O O9 0.250000 0.500000 0.121502
O O10 0.500000 0.500000 0.000000
O O11 0.750000 0.275362 0.790167
O O12 0.472949 0.265526 0.685006
O O13 0.750000 0.891463 0.608439
O O14 0.033652 0.831968 0.604772
O O15 0.026344 0.928266 0.685944
O O16 0.000000 0.916422 0.500000
O O17 0.500000 0.748019 0.500000
O O18 0.750000 0.773194 0.609360
O O19 0.250000 0.939862 0.209378
O O20 0.972697 0.000000 0.181612
#
# Coordination Sequence:
#
# PCOD9401055 Si02
#       7
#     8   8   4   8   8   8   8
#     4   9  16  26  41  62  88 117 145 174 206 244
#     4  10  19  32  47  63  83 109 141 175 208 244
#     4   8  14  24  38  58  85 114 144 174 205 240
#     4   9  16  28  46  64  85 113 142 170 206 251
#     4   9  16  28  46  65  84 106 133 166 206 252
#     4   9  16  28  45  64  84 108 136 168 207 250
#     4   9  17  30  47  63  81 110 143 168 200 254
#
# _framework density 19.143053999999999
#
# number of rings (size 3 to 8) (size 9 to 14) (size 15 to 20)
#    0.000    2.923    1.538    0.462    0.000    0.615 
#    0.000    2.308    0.000    0.923    0.000    0.538 
#    0.000    0.000    0.000    0.000    0.000    0.000 
#
# Total GULP energy -289957.325965 kJ/mol
# GULP energy per Si atom -5576.102422 kJ/mol
# Density = 1.909948 g / cm^3
# Si number density = 19.143054 Si / 1000 Ang^3
#
#
#
# Elastic Constant Matrix: (Units=GPa)
#
#
# Indices 1 2 3 4 5 6 
#
# 1 55.1140 8.6081 -2.9408 0.0000 0.0000 0.0000
# 2 8.6081 180.6583 90.8412 0.0000 0.0000 0.0000
# 3 -2.9408 90.8412 129.4519 0.0000 0.0000 0.0000
# 4 0.0000 0.0000 0.0000 17.5343 0.0000 0.0000
# 5 0.0000 0.0000 0.0000 0.0000 18.7135 0.0000
# 6 0.0000 0.0000 0.0000 0.0000 0.0000 1.1868
#
#
#
# Elastic Compliance Matrix: (Units=1/GPa)
#
#
# Indices 1 2 3 4 5 6 
#
# 1 0.018494 -0.001688 0.001605 0.000000 0.000000 0.000000
# 2 -0.001688 0.008708 -0.006149 0.000000 0.000000 0.000000
# 3 0.001605 -0.006149 0.012076 0.000000 0.000000 0.000000
# 4 0.000000 0.000000 0.000000 0.057031 0.000000 0.000000
# 5 0.000000 0.000000 0.000000 0.000000 0.053437 0.000000
# 6 0.000000 0.000000 0.000000 0.000000 0.000000 0.842632
#
#
# Mechanical properties :
#
#
# Convention : Reuss Voigt Hill
#
# Bulk Modulus (GPa) = 37.29543 62.02677 49.66110
# Shear Modulus (GPa) = 4.93204 25.40129 15.16667
#
# Velocity S-wave (km/s) = 1.60686 3.64664 2.81780
# Velocity P-wave (km/s) = 4.79244 7.08539 6.04856
#
# Compressibility (1/GPa) = 0.02681293
#
# Stress axis : x y z
#
# Youngs Moduli (GPa) = 54.07304 114.84280 82.80788
#
# Poissons Ratio (x) = 0.19386 -0.13288
# Poissons Ratio (y) = 0.09128 0.50917
# Poissons Ratio (z) = -0.08677 0.70614
#
# Static dielectric constant tensor:
#      x y z
#    x 1.724460 0.000000 0.000000 
#    y 0.000000 1.684310 0.000000 
#    z 0.000000 0.000000 1.649740 
# 
# From -- ./inp_files/15611.got.cif
#   From: 2010.05.17/outbox.cif.g08.bks.cpg/sg51_8_cif.got.tgz:15611.got - 2010.06.03 11:52:47.
