data_PCOD9401527
_publ_section_title
;
Structure prediction by ZEFSAII (Michael W. Deem and Ramdas Pophale) SiO2 
 PCOD9401527
Probable space group: P M M A
;
_chemical_formula_sum "Si O2"
_cell_formula_units_Z 52
_cell_length_a 9.226626
_cell_length_b 12.976553
_cell_length_c 30.882839
_cell_angle_alpha 90.000000
_cell_angle_beta 90.000000
_cell_angle_gamma 90.000000
_cell_volume 3697.596177
_symmetry_space_group_name_H-M "P M M A"
_symmetry_group_IT_number 51
_symmetry_cell_setting 'orthorhombic'
loop_
_space_group_symop_operation_xyz
x,y,z
1/2-x,-y,z
1/2+x,-y,-z
-x,y,-z
-x,-y,-z
1/2+x,y,-z
1/2-x,y,z
x,-y,z
loop_
_atom_site_type_symbol
_atom_site_label
_atom_site_fract_x
_atom_site_fract_y
_atom_site_fract_z
Si Si1 0.582823 0.625603 0.043447
Si Si2 0.423077 0.117076 0.454661
Si Si3 0.417076 0.625626 0.130317
Si Si4 0.075681 0.316557 0.400189
Si Si5 0.083051 0.374454 0.783104
Si Si6 0.425338 0.500000 0.547219
Si Si7 0.920764 0.623143 0.696401
O O1 0.750000 0.657970 0.043098
O O2 0.581706 0.500000 0.043437
O O3 0.502134 0.658485 0.087252
O O4 0.500000 0.658519 0.000000
O O5 0.500000 0.141619 0.500000
O O6 0.250000 0.118762 0.461532
O O7 0.455943 0.204282 0.419612
O O8 0.464106 0.000000 0.442143
O O9 0.250000 0.657809 0.129040
O O10 0.418657 0.500000 0.130381
O O11 0.494716 0.659096 0.174535
O O12 0.250000 0.337393 0.405048
O O13 0.042197 0.325429 0.349316
O O14 0.985112 0.400921 0.426720
O O15 0.250000 0.343119 0.786000
O O16 0.079086 0.500000 0.783039
O O17 0.011083 0.341716 0.737953
O O18 0.250000 0.500000 0.544138
O O19 0.500000 0.500000 0.500000
O O20 0.750000 0.638553 0.705049
O O21 0.943023 0.500000 0.690782
#
# Coordination Sequence:
#
# PCOD9401527 Si02
#       7
#     8   8   8   8   8   4   8
#     4   9  15  21  28  38  53  73  99 135 180 226
#     4   9  18  32  50  69  87 108 135 166 198 234
#     4   9  15  22  31  42  56  77 107 140 177 222
#     4  10  19  33  49  65  87 111 136 164 199 239
#     4   9  16  24  34  48  66  87 113 146 180 218
#     4  12  24  34  46  64  88 112 138 164 195 236
#     4   9  16  27  41  55  74 100 125 150 184 229
#
# _framework density 14.063191
#
# number of rings (size 3 to 8) (size 9 to 14) (size 15 to 20)
#    0.000    2.615    0.769    2.538    0.000    8.000 
#    0.000    0.000    0.000    0.000    0.000    0.000 
#    0.000    0.000    0.000    0.000    0.000    0.000 
#
# Total GULP energy -289685.271042 kJ/mol
# GULP energy per Si atom -5570.870597 kJ/mol
# Density = 1.403118 g / cm^3
# Si number density = 14.063191 Si / 1000 Ang^3
#
#
#
# Elastic Constant Matrix: (Units=GPa)
#
#
# Indices 1 2 3 4 5 6 
#
# 1 104.2958 28.0724 91.3557 0.0000 0.0000 0.0000
# 2 28.0724 31.1669 39.0707 0.0000 0.0000 0.0000
# 3 91.3557 39.0707 160.8555 0.0000 0.0000 0.0000
# 4 0.0000 0.0000 0.0000 5.9146 0.0000 0.0000
# 5 0.0000 0.0000 0.0000 0.0000 28.5337 0.0000
# 6 0.0000 0.0000 0.0000 0.0000 0.0000 5.3493
#
#
#
# Elastic Compliance Matrix: (Units=1/GPa)
#
#
# Indices 1 2 3 4 5 6 
#
# 1 0.019679 -0.005341 -0.009879 0.000000 0.000000 0.000000
# 2 -0.005341 0.047581 -0.008524 0.000000 0.000000 0.000000
# 3 -0.009879 -0.008524 0.013898 0.000000 0.000000 0.000000
# 4 0.000000 0.000000 0.000000 0.169074 0.000000 0.000000
# 5 0.000000 0.000000 0.000000 0.000000 0.035046 0.000000
# 6 0.000000 0.000000 0.000000 0.000000 0.000000 0.186942
#
#
# Mechanical properties :
#
#
# Convention : Reuss Voigt Hill
#
# Bulk Modulus (GPa) = 29.69952 68.14622 48.92287
# Shear Modulus (GPa) = 9.41740 17.14747 13.28244
#
# Velocity S-wave (km/s) = 2.59056 3.49566 3.07658
# Velocity P-wave (km/s) = 5.48749 8.05327 6.89085
#
# Compressibility (1/GPa) = 0.03367057
#
# Stress axis : x y z
#
# Youngs Moduli (GPa) = 50.81512 21.01663 71.95259
#
# Poissons Ratio (x) = 0.11224 0.71084
# Poissons Ratio (y) = 0.27138 0.61333
# Poissons Ratio (z) = 0.50202 0.17915
#
# Static dielectric constant tensor:
#      x y z
#    x 1.473080 0.000000 0.000000 
#    y 0.000000 1.433540 0.000000 
#    z 0.000000 0.000000 1.459400 
# 
# From -- ./inp_files/36353.got.cif
#   From: 2010.05.17/outbox.cif.g08.bks.cpg/sg51_19_cif.got.tgz:36353.got - 2010.06.03 11:52:47.
