data_PCOD9401307
_publ_section_title
;
Structure prediction by ZEFSAII (Michael W. Deem and Ramdas Pophale) SiO2 
 PCOD9401307
Probable space group: P M M A
;
_chemical_formula_sum "Si O2"
_cell_formula_units_Z 56
_cell_length_a 23.424736
_cell_length_b 9.491992
_cell_length_c 14.063619
_cell_angle_alpha 90.000000
_cell_angle_beta 90.000000
_cell_angle_gamma 90.000000
_cell_volume 3127.009214
_symmetry_space_group_name_H-M "P M M A"
_symmetry_group_IT_number 51
_symmetry_cell_setting 'orthorhombic'
loop_
_space_group_symop_operation_xyz
x,y,z
1/2-x,-y,z
1/2+x,-y,-z
-x,y,-z
-x,-y,-z
1/2+x,y,-z
1/2-x,y,z
x,-y,z
loop_
_atom_site_type_symbol
_atom_site_label
_atom_site_fract_x
_atom_site_fract_y
_atom_site_fract_z
Si Si1 0.899587 0.337417 0.044489
Si Si2 0.483199 0.832004 0.828292
Si Si3 0.684629 0.329958 0.877520
Si Si4 0.607441 0.835169 0.343439
Si Si5 0.315043 0.343967 0.776556
Si Si6 0.567414 0.337272 0.521544
Si Si7 0.587781 0.331003 0.740297
O O1 0.918155 0.500000 0.024916
O O2 0.855515 0.342027 0.132357
O O3 0.950929 0.240826 0.082774
O O4 0.860572 0.282463 0.957978
O O5 0.442834 0.809804 0.734723
O O6 0.541829 0.753160 0.803236
O O7 0.489856 0.000000 0.842072
O O8 0.750000 0.277311 0.883803
O O9 0.687766 0.500000 0.889335
O O10 0.651442 0.302732 0.779066
O O11 0.663822 0.773113 0.295347
O O12 0.595862 0.756539 0.441264
O O13 0.610942 0.000000 0.358916
O O14 0.250000 0.325217 0.806391
O O15 0.321048 0.500000 0.732378
O O16 0.500000 0.331529 0.500000
O O17 0.585717 0.500000 0.511917
O O18 0.579506 0.293165 0.629874
O O19 0.576972 0.500000 0.749719
#
# Coordination Sequence:
#
# PCOD9401307 Si02
#       7
#     8   8   8   8   8   8   8
#     4   9  17  31  54  79 104 134 169 210 257 310
#     4  10  20  33  50  77 110 138 168 210 260 310
#     4   9  18  34  56  80 103 131 174 221 258 300
#     4  10  20  32  49  74 104 136 170 211 259 312
#     4   9  17  30  50  75 102 133 169 209 254 305
#     4  10  19  32  52  76 103 135 173 216 261 315
#     4  10  20  34  54  78 104 137 174 216 265 312
#
# _framework density 17.908486
#
# number of rings (size 3 to 8) (size 9 to 14) (size 15 to 20)
#    0.000    2.429    1.429    1.286    0.000    4.571 
#    0.000    4.286    0.000    5.143    0.000    0.000 
#    0.000    0.000    0.000    0.000    0.000    0.000 
#
# Total GULP energy -312199.588157 kJ/mol
# GULP energy per Si atom -5574.992646 kJ/mol
# Density = 1.786773 g / cm^3
# Si number density = 17.908486 Si / 1000 Ang^3
#
#
#
# Elastic Constant Matrix: (Units=GPa)
#
#
# Indices 1 2 3 4 5 6 
#
# 1 60.3095 34.7195 42.8980 0.0000 0.0000 0.0000
# 2 34.7195 41.6315 36.0481 0.0000 0.0000 0.0000
# 3 42.8980 36.0481 98.6817 0.0000 0.0000 0.0000
# 4 0.0000 0.0000 0.0000 3.4941 0.0000 0.0000
# 5 0.0000 0.0000 0.0000 0.0000 18.2818 0.0000
# 6 0.0000 0.0000 0.0000 0.0000 0.0000 0.0175
#
#
#
# Elastic Compliance Matrix: (Units=1/GPa)
#
#
# Indices 1 2 3 4 5 6 
#
# 1 0.034587 -0.023147 -0.006580 0.000000 0.000000 0.000000
# 2 -0.023147 0.050624 -0.008431 0.000000 0.000000 0.000000
# 3 -0.006580 -0.008431 0.016074 0.000000 0.000000 0.000000
# 4 0.000000 0.000000 0.000000 0.286197 0.000000 0.000000
# 5 0.000000 0.000000 0.000000 0.000000 0.054699 0.000000
# 6 0.000000 0.000000 0.000000 0.000000 0.000000 57.204861
#
#
# Mechanical properties :
#
#
# Convention : Reuss Voigt Hill
#
# Bulk Modulus (GPa) = 40.04841 47.55042 43.79942
# Shear Modulus (GPa) = 0.08661 10.15580 5.12120
#
# Velocity S-wave (km/s) = 0.22015 2.38396 1.69289
# Velocity P-wave (km/s) = 4.74088 5.84698 5.32274
#
# Compressibility (1/GPa) = 0.02496978
#
# Stress axis : x y z
#
# Youngs Moduli (GPa) = 28.91271 19.75335 62.21416
#
# Poissons Ratio (x) = 0.45724 0.40935
# Poissons Ratio (y) = 0.66925 0.52450
# Poissons Ratio (z) = 0.19024 0.16653
#
# Static dielectric constant tensor:
#      x y z
#    x 1.610260 0.000000 0.000000 
#    y 0.000000 1.601250 0.000000 
#    z 0.000000 0.000000 1.626200 
# 
# From -- ./inp_files/25773.got.cif
#   From: 2010.05.17/outbox.cif.g08.bks.cpg/sg51_13_cif.got.tgz:25773.got - 2010.06.03 11:52:47.
