data_PCOD9401016
_publ_section_title
;
Structure prediction by ZEFSAII (Michael W. Deem and Ramdas Pophale) SiO2 
 PCOD9401016
Probable space group: P M M A
;
_chemical_formula_sum "Si O2"
_cell_formula_units_Z 40
_cell_length_a 15.597781
_cell_length_b 9.323503
_cell_length_c 15.300928
_cell_angle_alpha 90.000000
_cell_angle_beta 90.000000
_cell_angle_gamma 90.000000
_cell_volume 2225.152112
_symmetry_space_group_name_H-M "P M M A"
_symmetry_group_IT_number 51
_symmetry_cell_setting 'orthorhombic'
loop_
_space_group_symop_operation_xyz
x,y,z
1/2-x,-y,z
1/2+x,-y,-z
-x,y,-z
-x,-y,-z
1/2+x,y,-z
1/2-x,y,z
x,-y,z
loop_
_atom_site_type_symbol
_atom_site_label
_atom_site_fract_x
_atom_site_fract_y
_atom_site_fract_z
Si Si1 0.603743 0.671440 0.359179
Si Si2 0.750000 0.167402 0.463689
Si Si3 0.847282 0.840743 0.190882
Si Si4 0.750000 0.834106 0.673149
Si Si5 0.422406 0.668888 0.278453
Si Si6 0.474553 0.338574 0.899250
O O1 0.610785 0.500000 0.370745
O O2 0.663829 0.753427 0.428689
O O3 0.642836 0.725849 0.267823
O O4 0.502272 0.706298 0.344049
O O5 0.750000 0.171152 0.567892
O O6 0.750000 0.000000 0.433848
O O7 0.750000 0.845161 0.162739
O O8 0.906370 0.785523 0.114370
O O9 0.872212 0.000000 0.222480
O O10 0.663188 0.757468 0.705001
O O11 0.750000 0.000000 0.700583
O O12 0.405167 0.500000 0.291462
O O13 0.455860 0.686049 0.178173
O O14 0.440445 0.500000 0.880473
O O15 0.500000 0.338023 0.000000
#
# Coordination Sequence:
#
# PCOD9401016 Si02
#       6
#     8   4   8   4   8   8
#     4  10  20  35  59  87 112 145 187 234 286 334
#     4  11  23  37  55  84 119 150 189 235 282 339
#     4  10  19  31  51  81 116 147 176 219 280 339
#     4  11  25  41  57  80 113 158 197 229 278 341
#     4   9  20  39  61  83 112 148 189 237 284 334
#     4   9  19  37  59  83 109 142 188 234 279 334
#
# _framework density 17.976299999999998
#
# number of rings (size 3 to 8) (size 9 to 14) (size 15 to 20)
#    0.000    2.200    1.000    3.000    0.000    8.000 
#    1.800    4.000    0.000    0.000    0.000    0.000 
#    0.000    0.000    0.000    0.000    0.000    0.000 
#
# Total GULP energy -222758.539359 kJ/mol
# GULP energy per Si atom -5568.963484 kJ/mol
# Density = 1.793538 g / cm^3
# Si number density = 17.976300 Si / 1000 Ang^3
#
#
#
# Elastic Constant Matrix: (Units=GPa)
#
#
# Indices 1 2 3 4 5 6 
#
# 1 139.2273 86.2830 30.1105 0.0000 0.0000 0.0000
# 2 86.2830 99.0624 28.7749 0.0000 0.0000 0.0000
# 3 30.1105 28.7749 43.9186 0.0000 0.0000 0.0000
# 4 0.0000 0.0000 0.0000 3.9012 0.0000 0.0000
# 5 0.0000 0.0000 0.0000 0.0000 10.1958 0.0000
# 6 0.0000 0.0000 0.0000 0.0000 0.0000 -3.3353
#
#
#
# Elastic Compliance Matrix: (Units=1/GPa)
#
#
# Indices 1 2 3 4 5 6 
#
# 1 0.015783 -0.013096 -0.002240 0.000000 0.000000 0.000000
# 2 -0.013096 0.023334 -0.006309 0.000000 0.000000 0.000000
# 3 -0.002240 -0.006309 0.028439 0.000000 0.000000 0.000000
# 4 0.000000 0.000000 0.000000 0.256331 0.000000 0.000000
# 5 0.000000 0.000000 0.000000 0.000000 0.098080 0.000000
# 6 0.000000 0.000000 0.000000 0.000000 0.000000 -0.299824
#
#
# Mechanical properties :
#
#
# Convention : Reuss Voigt Hill
#
# Bulk Modulus (GPa) = 41.21276 63.61612 52.41444
# Shear Modulus (GPa) = 28.81434 11.28833 20.05133
#
# Velocity S-wave (km/s) = 4.00798 2.50862 3.34343
# Velocity P-wave (km/s) = 6.66291 6.62243 6.64271
#
# Compressibility (1/GPa) = 0.02426433
#
# Stress axis : x y z
#
# Youngs Moduli (GPa) = 63.35868 42.85559 35.16270
#
# Poissons Ratio (x) = 0.56125 0.07878
# Poissons Ratio (y) = 0.82976 0.22186
# Poissons Ratio (z) = 0.14195 0.27039
#
# Static dielectric constant tensor:
#      x y z
#    x 1.646020 0.000000 0.000000 
#    y 0.000000 1.633640 0.000000 
#    z 0.000000 0.000000 1.616260 
# 
# From -- ./inp_files/23765.got.cif
#   From: 2010.05.17/outbox.cif.g08.bks.cpg/sg51_12_cif.got.tgz:23765.got - 2010.06.03 11:52:47.
