data_PCOD9401637
_publ_section_title
;
Structure prediction by ZEFSAII (Michael W. Deem and Ramdas Pophale) SiO2 
 PCOD9401637
Probable space group: P M M A
;
_chemical_formula_sum "Si O2"
_cell_formula_units_Z 44
_cell_length_a 8.561763
_cell_length_b 28.915898
_cell_length_c 9.888269
_cell_angle_alpha 90.000000
_cell_angle_beta 90.000000
_cell_angle_gamma 90.000000
_cell_volume 2448.049293
_symmetry_space_group_name_H-M "P M M A"
_symmetry_group_IT_number 51
_symmetry_cell_setting 'orthorhombic'
loop_
_space_group_symop_operation_xyz
x,y,z
1/2-x,-y,z
1/2+x,-y,-z
-x,y,-z
-x,-y,-z
1/2+x,y,-z
1/2-x,y,z
x,-y,z
loop_
_atom_site_type_symbol
_atom_site_label
_atom_site_fract_x
_atom_site_fract_y
_atom_site_fract_z
Si Si1 0.437124 0.179064 0.850710
Si Si2 0.561901 0.000000 0.653330
Si Si3 0.561127 0.633780 0.348089
Si Si4 0.438442 0.284897 0.850749
Si Si5 0.937585 0.898947 0.653181
Si Si6 0.561485 0.553067 0.147926
O O1 0.250000 0.177848 0.851962
O O2 0.486870 0.232051 0.820099
O O3 0.499445 0.142381 0.743860
O O4 0.500000 0.167965 0.000000
O O5 0.500000 0.000000 0.500000
O O6 0.513189 0.949896 0.709687
O O7 0.750000 0.000000 0.651379
O O8 0.500000 0.634025 0.500000
O O9 0.750000 0.633864 0.351819
O O10 0.509839 0.678603 0.261951
O O11 0.510359 0.588576 0.263412
O O12 0.250000 0.286037 0.855761
O O13 0.500000 0.297074 0.000000
O O14 0.750000 0.897273 0.650109
O O15 0.000000 0.895134 0.500000
O O16 0.750000 0.553821 0.143478
O O17 0.511354 0.500000 0.173121
O O18 0.500000 0.566950 0.000000
#
# Coordination Sequence:
#
# PCOD9401637 Si02
#       6
#     8   4   8   8   8   8
#     4  10  20  35  53  75 102 132 167 208 254 302
#     4   8  16  30  49  72  99 130 166 204 244 294
#     4  10  21  35  50  73 104 134 165 204 249 295
#     4   9  19  35  54  74  97 128 167 207 247 296
#     4  10  19  33  53  77 103 133 168 207 250 297
#     4   9  18  33  53  76 101 130 167 208 247 292
#
# _framework density 17.973493999999999
#
# number of rings (size 3 to 8) (size 9 to 14) (size 15 to 20)
#    0.000    2.545    0.000    1.636    0.000    4.000 
#    0.000    2.273    0.000    0.000    0.000    0.000 
#    0.000    0.000    0.000    0.000    0.000    0.000 
#
# Total GULP energy -245360.519741 kJ/mol
# GULP energy per Si atom -5576.375449 kJ/mol
# Density = 1.793259 g / cm^3
# Si number density = 17.973494 Si / 1000 Ang^3
#
#
#
# Elastic Constant Matrix: (Units=GPa)
#
#
# Indices 1 2 3 4 5 6 
#
# 1 19.7307 31.1762 26.6275 0.0000 0.0000 0.0000
# 2 31.1762 150.1199 121.3394 0.0000 0.0000 0.0000
# 3 26.6275 121.3394 145.8960 0.0000 0.0000 0.0000
# 4 0.0000 0.0000 0.0000 35.8495 0.0000 0.0000
# 5 0.0000 0.0000 0.0000 0.0000 34.8343 0.0000
# 6 0.0000 0.0000 0.0000 0.0000 0.0000 21.6705
#
#
#
# Elastic Compliance Matrix: (Units=1/GPa)
#
#
# Indices 1 2 3 4 5 6 
#
# 1 0.075680 -0.013890 -0.002261 0.000000 0.000000 0.000000
# 2 -0.013890 0.022873 -0.016488 0.000000 0.000000 0.000000
# 3 -0.002261 -0.016488 0.020980 0.000000 0.000000 0.000000
# 4 0.000000 0.000000 0.000000 0.027894 0.000000 0.000000
# 5 0.000000 0.000000 0.000000 0.000000 0.028707 0.000000
# 6 0.000000 0.000000 0.000000 0.000000 0.000000 0.046146
#
#
# Mechanical properties :
#
#
# Convention : Reuss Voigt Hill
#
# Bulk Modulus (GPa) = 18.43113 74.89254 46.66184
# Shear Modulus (GPa) = 16.35902 27.57775 21.96839
#
# Velocity S-wave (km/s) = 3.02018 3.92134 3.49988
# Velocity P-wave (km/s) = 4.73697 7.89058 6.50769
#
# Compressibility (1/GPa) = 0.05425602
#
# Stress axis : x y z
#
# Youngs Moduli (GPa) = 13.21352 43.71993 47.66543
#
# Poissons Ratio (x) = 0.60726 0.10775
# Poissons Ratio (y) = 0.18353 0.78591
# Poissons Ratio (z) = 0.02987 0.72085
#
# Static dielectric constant tensor:
#      x y z
#    x 1.615810 0.000000 0.000000 
#    y 0.000000 1.652060 0.000000 
#    z 0.000000 0.000000 1.564010 
# 
# From -- ./inp_files/5701.got.cif
#   From: 2010.05.17/outbox.cif.g08.bks.cpg/sg51_3_cif.got.tgz:5701.got - 2010.06.03 11:52:47.
