data_PCOD9401725
_publ_section_title
;
Structure prediction by ZEFSAII (Michael W. Deem and Ramdas Pophale) SiO2 
 PCOD9401725
Probable space group: P M M A
;
_chemical_formula_sum "Si O2"
_cell_formula_units_Z 64
_cell_length_a 16.412494
_cell_length_b 22.921211
_cell_length_c 9.028414
_cell_angle_alpha 90.000000
_cell_angle_beta 90.000000
_cell_angle_gamma 90.000000
_cell_volume 3396.437325
_symmetry_space_group_name_H-M "P M M A"
_symmetry_group_IT_number 51
_symmetry_cell_setting 'orthorhombic'
loop_
_space_group_symop_operation_xyz
x,y,z
1/2-x,-y,z
1/2+x,-y,-z
-x,y,-z
-x,-y,-z
1/2+x,y,-z
1/2-x,y,z
x,-y,z
loop_
_atom_site_type_symbol
_atom_site_label
_atom_site_fract_x
_atom_site_fract_y
_atom_site_fract_z
Si Si1 0.841057 0.568862 0.847682
Si Si2 0.410855 0.844511 0.758401
Si Si3 0.156746 0.840810 0.438623
Si Si4 0.994002 0.617223 0.668117
Si Si5 0.157664 0.363368 0.841223
Si Si6 0.033968 0.933686 0.330281
Si Si7 0.156231 0.239325 0.987258
Si Si8 0.052495 0.249529 0.283984
O O1 0.750000 0.581646 0.782725
O O2 0.843938 0.500000 0.878653
O O3 0.919106 0.585941 0.750710
O O4 0.845843 0.604779 0.000002
O O5 0.355326 0.851931 0.613335
O O6 0.465397 0.902714 0.770274
O O7 0.364079 0.820157 0.900316
O O8 0.475809 0.793594 0.720932
O O9 0.250000 0.839541 0.399087
O O10 0.110456 0.890517 0.344401
O O11 0.114598 0.779772 0.398612
O O12 0.082359 0.613117 0.745872
O O13 0.000000 0.596707 0.500000
O O14 0.971518 0.685757 0.672945
O O15 0.250000 0.371959 0.780934
O O16 0.146992 0.294421 0.876095
O O17 0.000000 0.933960 0.500000
O O18 0.051909 0.000000 0.287983
O O19 0.250000 0.239696 0.038262
O O20 0.095383 0.248503 0.123402
#
# Coordination Sequence:
#
# PCOD9401725 Si02
#       8
#     8   8   8   8   8   8   8   8
#     4  10  23  44  68  92 121 161 209 256 300 356
#     4  10  19  33  54  79 110 145 189 237 290 347
#     4  10  20  33  51  79 114 148 188 237 290 347
#     4  12  24  38  61  91 127 162 201 249 310 374
#     4  10  22  40  61  89 119 157 206 255 302 359
#     4   8  16  32  53  77 108 147 189 232 283 348
#     4  11  21  34  55  82 111 145 193 246 296 350
#     4  11  21  35  52  79 113 153 188 230 293 363
#
# _framework density 18.843273
#
# number of rings (size 3 to 8) (size 9 to 14) (size 15 to 20)
#    0.000    1.750    2.500    3.375    0.000    2.500 
#    0.000    0.000    0.000    8.625    0.000    0.000 
#    0.000    0.000    0.000    0.000    0.000    0.000 
#
# Total GULP energy -357192.432385 kJ/mol
# GULP energy per Si atom -5581.131756 kJ/mol
# Density = 1.880038 g / cm^3
# Si number density = 18.843273 Si / 1000 Ang^3
#
#
#
# Elastic Constant Matrix: (Units=GPa)
#
#
# Indices 1 2 3 4 5 6 
#
# 1 129.5242 27.6599 38.7262 0.0000 0.0000 0.0000
# 2 27.6599 65.3085 2.0763 0.0000 0.0000 0.0000
# 3 38.7262 2.0763 58.6078 0.0000 0.0000 0.0000
# 4 0.0000 0.0000 0.0000 23.6980 0.0000 0.0000
# 5 0.0000 0.0000 0.0000 0.0000 15.4920 0.0000
# 6 0.0000 0.0000 0.0000 0.0000 0.0000 18.2480
#
#
#
# Elastic Compliance Matrix: (Units=1/GPa)
#
#
# Indices 1 2 3 4 5 6 
#
# 1 0.010713 -0.004317 -0.006926 0.000000 0.000000 0.000000
# 2 -0.004317 0.017069 0.002248 0.000000 0.000000 0.000000
# 3 -0.006926 0.002248 0.021559 0.000000 0.000000 0.000000
# 4 0.000000 0.000000 0.000000 0.042198 0.000000 0.000000
# 5 0.000000 0.000000 0.000000 0.000000 0.064549 0.000000
# 6 0.000000 0.000000 0.000000 0.000000 0.000000 0.054801
#
#
# Mechanical properties :
#
#
# Convention : Reuss Voigt Hill
#
# Bulk Modulus (GPa) = 31.89680 43.37391 37.63535
# Shear Modulus (GPa) = 20.89162 23.81946 22.35554
#
# Velocity S-wave (km/s) = 3.33333 3.55925 3.44814
# Velocity P-wave (km/s) = 5.63729 6.32133 5.98908
#
# Compressibility (1/GPa) = 0.03135111
#
# Stress axis : x y z
#
# Youngs Moduli (GPa) = 93.34181 58.58598 46.38335
#
# Poissons Ratio (x) = 0.25293 0.32125
# Poissons Ratio (y) = 0.40297 -0.10427
# Poissons Ratio (z) = 0.64649 -0.13170
#
# Static dielectric constant tensor:
#      x y z
#    x 1.663660 0.000000 0.000000 
#    y 0.000000 1.638780 0.000000 
#    z 0.000000 0.000000 1.659810 
# 
# From -- ./inp_files/8668.got.cif
#   From: 2010.05.17/outbox.cif.g08.bks.cpg/sg51_5_cif.got.tgz:8668.got - 2010.06.03 11:52:47.
