data_PCOD9401613
_publ_section_title
;
Structure prediction by ZEFSAII (Michael W. Deem and Ramdas Pophale) SiO2 
 PCOD9401613
Probable space group: P M M A
;
_chemical_formula_sum "Si O2"
_cell_formula_units_Z 64
_cell_length_a 20.883350
_cell_length_b 7.581548
_cell_length_c 18.320568
_cell_angle_alpha 90.000000
_cell_angle_beta 90.000000
_cell_angle_gamma 90.000000
_cell_volume 2900.661097
_symmetry_space_group_name_H-M "P M M A"
_symmetry_group_IT_number 51
_symmetry_cell_setting 'orthorhombic'
loop_
_space_group_symop_operation_xyz
x,y,z
1/2-x,-y,z
1/2+x,-y,-z
-x,y,-z
-x,-y,-z
1/2+x,y,-z
1/2-x,y,z
x,-y,z
loop_
_atom_site_type_symbol
_atom_site_label
_atom_site_fract_x
_atom_site_fract_y
_atom_site_fract_z
Si Si1 0.677132 0.284253 0.129154
Si Si2 0.055609 0.284970 0.206900
Si Si3 0.536757 0.714906 0.073325
Si Si4 0.817269 0.712527 0.450800
Si Si5 0.678441 0.709489 0.718706
Si Si6 0.592995 0.792631 0.578072
Si Si7 0.657368 0.700308 0.293954
Si Si8 0.023390 0.800558 0.654122
O O1 0.750000 0.233797 0.104761
O O2 0.675776 0.500000 0.128324
O O3 0.611107 0.228510 0.087632
O O4 0.669372 0.223810 0.213894
O O5 0.052570 0.500000 0.212384
O O6 0.130096 0.232496 0.216516
O O7 0.023954 0.199264 0.277321
O O8 0.011355 0.234878 0.138894
O O9 0.539232 0.500000 0.071874
O O10 0.500000 0.772361 0.000000
O O11 0.750000 0.764890 0.487143
O O12 0.818714 0.500000 0.446062
O O13 0.876987 0.763118 0.499382
O O14 0.816804 0.782908 0.368434
O O15 0.750000 0.785594 0.719227
O O16 0.684197 0.500000 0.727717
O O17 0.643094 0.733350 0.640508
O O18 0.521819 0.719045 0.591916
O O19 0.584860 0.000000 0.588384
O O20 0.681183 0.500000 0.289159
O O21 0.582925 0.696299 0.314464
O O22 0.044619 0.000000 0.636233
#
# Coordination Sequence:
#
# PCOD9401613 Si02
#       8
#     8   8   8   8   8   8   8   8
#     4   9  16  28  49  76 103 132 169 210 249 294
#     4   9  16  30  50  71  98 133 169 204 245 298
#     4   9  16  27  47  77 106 133 164 201 247 299
#     4  10  21  35  50  70  96 127 167 215 261 307
#     4   9  17  29  47  70  95 127 169 214 256 297
#     4  10  21  34  48  68  97 133 169 210 259 308
#     4  10  19  33  53  74  96 128 169 211 257 305
#     4  10  20  33  50  73  99 128 166 211 255 301
#
# _framework density 22.063938
#
# number of rings (size 3 to 8) (size 9 to 14) (size 15 to 20)
#    0.000    2.500    1.250    1.500    0.000    6.000 
#    0.000    3.125    0.000    5.250    0.000    0.000 
#    0.000    0.000    0.000    0.000    0.000    0.000 
#
# Total GULP energy -356582.086114 kJ/mol
# GULP energy per Si atom -5571.595096 kJ/mol
# Density = 2.201372 g / cm^3
# Si number density = 22.063938 Si / 1000 Ang^3
#
#
#
# Elastic Constant Matrix: (Units=GPa)
#
#
# Indices 1 2 3 4 5 6 
#
# 1 191.5724 13.4818 57.0956 0.0000 0.0000 0.0000
# 2 13.4818 50.2503 0.2387 0.0000 0.0000 0.0000
# 3 57.0956 0.2387 98.1034 0.0000 0.0000 0.0000
# 4 0.0000 0.0000 0.0000 251.7768 0.0000 0.0000
# 5 0.0000 0.0000 0.0000 0.0000 -14.6884 0.0000
# 6 0.0000 0.0000 0.0000 0.0000 0.0000 405.4586
#
#
#
# Elastic Compliance Matrix: (Units=1/GPa)
#
#
# Indices 1 2 3 4 5 6 
#
# 1 0.006460 -0.001715 -0.003755 0.000000 0.000000 0.000000
# 2 -0.001715 0.020356 0.000949 0.000000 0.000000 0.000000
# 3 -0.003755 0.000949 0.012377 0.000000 0.000000 0.000000
# 4 0.000000 0.000000 0.000000 0.003972 0.000000 0.000000
# 5 0.000000 0.000000 0.000000 0.000000 -0.068081 0.000000
# 6 0.000000 0.000000 0.000000 0.000000 0.000000 0.002466
#
#
# Mechanical properties :
#
#
# Convention : Reuss Voigt Hill
#
# Bulk Modulus (GPa) = 33.16898 53.50649 43.33773
# Shear Modulus (GPa) = -1489.63642 146.45008 -671.59317
#
# Velocity S-wave (km/s) = -26.01175 8.15594 -17.46556
# Velocity P-wave (km/s) = 29.78393 10.62995 19.67341
#
# Compressibility (1/GPa) = 0.03014865
#
# Stress axis : x y z
#
# Youngs Moduli (GPa) = 154.80015 49.12540 80.79706
#
# Poissons Ratio (x) = 0.08427 0.30343
# Poissons Ratio (y) = 0.26553 -0.07666
# Poissons Ratio (z) = 0.58135 -0.04661
#
# Static dielectric constant tensor:
#      x y z
#    x 1.995770 0.000000 0.000000 
#    y 0.000000 1.860190 0.000000 
#    z 0.000000 0.000000 1.805110 
# 
# From -- ./inp_files/30586.got.cif
#   From: 2010.05.17/outbox.cif.g08.bks.cpg/sg51_16_cif.got.tgz:30586.got - 2010.06.03 11:52:47.
