data_PCOD9401222
_publ_section_title
;
Structure prediction by ZEFSAII (Michael W. Deem and Ramdas Pophale) SiO2 
 PCOD9401222
Probable space group: P M M A
;
_chemical_formula_sum "Si O2"
_cell_formula_units_Z 52
_cell_length_a 7.439717
_cell_length_b 8.551070
_cell_length_c 36.664118
_cell_angle_alpha 90.000000
_cell_angle_beta 90.000000
_cell_angle_gamma 90.000000
_cell_volume 2332.481024
_symmetry_space_group_name_H-M "P M M A"
_symmetry_group_IT_number 51
_symmetry_cell_setting 'orthorhombic'
loop_
_space_group_symop_operation_xyz
x,y,z
1/2-x,-y,z
1/2+x,-y,-z
-x,y,-z
-x,-y,-z
1/2+x,y,-z
1/2-x,y,z
x,-y,z
loop_
_atom_site_type_symbol
_atom_site_label
_atom_site_fract_x
_atom_site_fract_y
_atom_site_fract_z
Si Si1 0.464106 0.000000 0.957131
Si Si2 0.031900 0.818015 0.384671
Si Si3 0.965119 0.677616 0.539423
Si Si4 0.459826 0.311981 0.308775
Si Si5 0.463921 0.825931 0.847091
Si Si6 0.530577 0.325609 0.080090
Si Si7 0.034019 0.678438 0.230280
O O1 0.529383 0.166743 0.940684
O O2 0.250000 0.000000 0.950113
O O3 0.500000 0.000000 0.000000
O O4 0.250000 0.795806 0.385111
O O5 0.966059 0.754078 0.423465
O O6 0.962784 0.740615 0.347426
O O7 0.994564 0.000000 0.382639
O O8 0.750000 0.671276 0.542485
O O9 0.035178 0.500000 0.537852
O O10 0.000000 0.754230 0.500000
O O11 0.250000 0.262161 0.309583
O O12 0.464859 0.500000 0.307526
O O13 0.533989 0.258989 0.269459
O O14 0.250000 0.834098 0.851927
O O15 0.525298 0.704570 0.877842
O O16 0.495401 0.775365 0.805723
O O17 0.536665 0.000000 0.853885
O O18 0.750000 0.328161 0.077888
O O19 0.471233 0.500000 0.067997
O O20 0.250000 0.671224 0.233728
O O21 0.968902 0.500000 0.225128
#
# Coordination Sequence:
#
# PCOD9401222 Si02
#       7
#     4   8   8   8   8   8   8
#     4  10  20  36  56  80 108 136 172 214 256 308
#     4   9  16  25  40  63  87 112 145 183 220 265
#     4   9  17  29  45  64  85 109 139 176 218 264
#     4   8  14  26  43  62  88 121 154 189 230 277
#     4  10  19  32  51  75 101 132 174 216 250 294
#     4   9  17  32  55  78 102 136 175 214 254 299
#     4   9  18  31  47  71 101 130 162 203 252 301
#
# _framework density 22.293856999999999
#
# number of rings (size 3 to 8) (size 9 to 14) (size 15 to 20)
#    0.000    2.923    0.769    1.846    0.000    4.308 
#    0.000    2.308    0.000    1.846    0.000    2.154 
#    0.000    0.000    0.000    0.000    0.000    0.000 
#
# Total GULP energy -289915.127871 kJ/mol
# GULP energy per Si atom -5575.290921 kJ/mol
# Density = 2.224312 g / cm^3
# Si number density = 22.293857 Si / 1000 Ang^3
#
#
#
# Elastic Constant Matrix: (Units=GPa)
#
#
# Indices 1 2 3 4 5 6 
#
# 1 65.6725 8.6379 -1.6359 0.0000 0.0000 0.0000
# 2 8.6379 101.4261 75.9710 0.0000 0.0000 0.0000
# 3 -1.6359 75.9710 179.1227 0.0000 0.0000 0.0000
# 4 0.0000 0.0000 0.0000 9.8069 0.0000 0.0000
# 5 0.0000 0.0000 0.0000 0.0000 -32.9956 0.0000
# 6 0.0000 0.0000 0.0000 0.0000 0.0000 -0.7323
#
#
#
# Elastic Compliance Matrix: (Units=1/GPa)
#
#
# Indices 1 2 3 4 5 6 
#
# 1 0.015528 -0.002094 0.001030 0.000000 0.000000 0.000000
# 2 -0.002094 0.014732 -0.006267 0.000000 0.000000 0.000000
# 3 0.001030 -0.006267 0.008250 0.000000 0.000000 0.000000
# 4 0.000000 0.000000 0.000000 0.101969 0.000000 0.000000
# 5 0.000000 0.000000 0.000000 0.000000 -0.030307 0.000000
# 6 0.000000 0.000000 0.000000 0.000000 0.000000 -1.365634
#
#
# Mechanical properties :
#
#
# Convention : Reuss Voigt Hill
#
# Bulk Modulus (GPa) = 41.93251 56.90748 49.42000
# Shear Modulus (GPa) = -4.05564 12.76571 4.35503
#
# Velocity S-wave (km/s) = -1.35023 2.39553 1.39918
# Velocity P-wave (km/s) = 4.05204 5.76480 4.98256
#
# Compressibility (1/GPa) = 0.02384784
#
# Stress axis : x y z
#
# Youngs Moduli (GPa) = 64.39922 67.87836 121.20640
#
# Poissons Ratio (x) = 0.14213 -0.12483
# Poissons Ratio (y) = 0.13484 0.75966
# Poissons Ratio (z) = -0.06632 0.42543
#
# Static dielectric constant tensor:
#      x y z
#    x 1.892990 0.000000 0.000000 
#    y 0.000000 1.794610 0.000000 
#    z 0.000000 0.000000 1.844420 
# 
# From -- ./inp_files/37709.got.cif
#   From: 2010.05.17/outbox.cif.g08.bks.cpg/sg51_19_cif.got.tgz:37709.got - 2010.06.03 11:52:47.
