data_PCOD9401627
_publ_section_title
;
Structure prediction by ZEFSAII (Michael W. Deem and Ramdas Pophale) SiO2 
 PCOD9401627
Probable space group: P M M A
;
_chemical_formula_sum "Si O2"
_cell_formula_units_Z 40
_cell_length_a 8.625706
_cell_length_b 27.192322
_cell_length_c 9.365869
_cell_angle_alpha 90.000000
_cell_angle_beta 90.000000
_cell_angle_gamma 90.000000
_cell_volume 2196.792438
_symmetry_space_group_name_H-M "P M M A"
_symmetry_group_IT_number 51
_symmetry_cell_setting 'orthorhombic'
loop_
_space_group_symop_operation_xyz
x,y,z
1/2-x,-y,z
1/2+x,-y,-z
-x,y,-z
-x,-y,-z
1/2+x,y,-z
1/2-x,y,z
x,-y,z
loop_
_atom_site_type_symbol
_atom_site_label
_atom_site_fract_x
_atom_site_fract_y
_atom_site_fract_z
Si Si1 0.063818 0.892893 0.661053
Si Si2 0.936724 0.000000 0.338474
Si Si3 0.435304 0.408272 0.837806
Si Si4 0.064347 0.500000 0.339579
Si Si5 0.563876 0.694091 0.838076
Si Si6 0.064457 0.197689 0.160632
O O1 0.250000 0.890842 0.657728
O O2 0.016045 0.946833 0.722941
O O3 0.000000 0.890133 0.500000
O O4 0.000501 0.847349 0.749649
O O5 0.000000 0.000000 0.500000
O O6 0.750000 0.000000 0.343074
O O7 0.250000 0.410557 0.842783
O O8 0.502886 0.452262 0.744294
O O9 0.489142 0.355299 0.776500
O O10 0.500000 0.412337 0.000000
O O11 0.250000 0.500000 0.340875
O O12 0.000000 0.500000 0.500000
O O13 0.750000 0.688801 0.840181
O O14 0.523842 0.748005 0.777368
O O15 0.500000 0.695794 0.000000
O O16 0.250000 0.195041 0.155208
O O17 0.000000 0.194843 0.000000
#
# Coordination Sequence:
#
# PCOD9401627 Si02
#       6
#     8   4   8   4   8   8
#     4  10  19  33  53  76 103 134 173 217 263 313
#     4   8  16  30  49  72  97 130 170 214 260 310
#     4  11  21  36  59  86 111 140 180 222 260 304
#     4  12  25  42  59  80 112 146 178 216 267 320
#     4   9  17  31  52  78 106 137 174 217 261 308
#     4  10  20  34  53  78 108 140 175 214 262 314
#
# _framework density 18.208366999999999
#
# number of rings (size 3 to 8) (size 9 to 14) (size 15 to 20)
#    0.000    2.000    0.000    6.000    0.000    3.200 
#    0.000    1.500    0.000    4.800    0.000    0.000 
#    0.000    0.000    0.000    0.000    0.000    0.000 
#
# Total GULP energy -223060.721338 kJ/mol
# GULP energy per Si atom -5576.518033 kJ/mol
# Density = 1.816692 g / cm^3
# Si number density = 18.208367 Si / 1000 Ang^3
#
#
#
# Elastic Constant Matrix: (Units=GPa)
#
#
# Indices 1 2 3 4 5 6 
#
# 1 117.2497 80.4618 32.3313 0.0000 0.0000 0.0000
# 2 80.4618 240.3517 72.2438 0.0000 0.0000 0.0000
# 3 32.3313 72.2438 55.0496 0.0000 0.0000 0.0000
# 4 0.0000 0.0000 0.0000 56.0448 0.0000 0.0000
# 5 0.0000 0.0000 0.0000 0.0000 27.3172 0.0000
# 6 0.0000 0.0000 0.0000 0.0000 0.0000 31.8603
#
#
#
# Elastic Compliance Matrix: (Units=1/GPa)
#
#
# Indices 1 2 3 4 5 6 
#
# 1 0.011322 -0.002959 -0.002767 0.000000 0.000000 0.000000
# 2 -0.002959 0.007644 -0.008294 0.000000 0.000000 0.000000
# 3 -0.002767 -0.008294 0.030675 0.000000 0.000000 0.000000
# 4 0.000000 0.000000 0.000000 0.017843 0.000000 0.000000
# 5 0.000000 0.000000 0.000000 0.000000 0.036607 0.000000
# 6 0.000000 0.000000 0.000000 0.000000 0.000000 0.031387
#
#
# Mechanical properties :
#
#
# Convention : Reuss Voigt Hill
#
# Bulk Modulus (GPa) = 46.29171 86.96944 66.63057
# Shear Modulus (GPa) = 29.28823 38.21873 33.75348
#
# Velocity S-wave (km/s) = 4.01497 4.58642 4.31017
# Velocity P-wave (km/s) = 6.85360 8.71287 7.83855
#
# Compressibility (1/GPa) = 0.02160214
#
# Stress axis : x y z
#
# Youngs Moduli (GPa) = 88.32293 130.82286 32.60007
#
# Poissons Ratio (x) = 0.38705 0.09020
# Poissons Ratio (y) = 0.26131 0.27038
# Poissons Ratio (z) = 0.24438 1.08502
#
# Static dielectric constant tensor:
#      x y z
#    x 1.612070 0.000000 0.000000 
#    y 0.000000 1.687030 0.000000 
#    z 0.000000 0.000000 1.586170 
# 
# From -- ./inp_files/5509.got.cif
#   From: 2010.05.17/outbox.cif.g08.bks.cpg/sg51_3_cif.got.tgz:5509.got - 2010.06.03 11:52:47.
