data_PCOD9401068
_publ_section_title
;
Structure prediction by ZEFSAII (Michael W. Deem and Ramdas Pophale) SiO2 
 PCOD9401068
Probable space group: P M M A
;
_chemical_formula_sum "Si O2"
_cell_formula_units_Z 52
_cell_length_a 8.871365
_cell_length_b 14.211217
_cell_length_c 24.057986
_cell_angle_alpha 90.000000
_cell_angle_beta 90.000000
_cell_angle_gamma 90.000000
_cell_volume 3033.059897
_symmetry_space_group_name_H-M "P M M A"
_symmetry_group_IT_number 51
_symmetry_cell_setting 'orthorhombic'
loop_
_space_group_symop_operation_xyz
x,y,z
1/2-x,-y,z
1/2+x,-y,-z
-x,y,-z
-x,-y,-z
1/2+x,y,-z
1/2-x,y,z
x,-y,z
loop_
_atom_site_type_symbol
_atom_site_label
_atom_site_fract_x
_atom_site_fract_y
_atom_site_fract_z
Si Si1 0.069521 0.000000 0.439025
Si Si2 0.569106 0.606965 0.061549
Si Si3 0.070025 0.794116 0.438731
Si Si4 0.074628 0.747441 0.669769
Si Si5 0.076287 0.255919 0.149582
Si Si6 0.932372 0.889590 0.232840
Si Si7 0.919193 0.390286 0.744808
O O1 0.024085 0.100947 0.416414
O O2 0.000000 0.000000 0.500000
O O3 0.250000 0.000000 0.442092
O O4 0.750000 0.611983 0.059223
O O5 0.529483 0.500000 0.082238
O O6 0.507214 0.692176 0.099048
O O7 0.500000 0.614406 0.000000
O O8 0.250000 0.789370 0.443947
O O9 0.000000 0.779596 0.500000
O O10 0.009885 0.732929 0.388396
O O11 0.250000 0.763451 0.658537
O O12 0.020285 0.831989 0.711257
O O13 0.043928 0.654929 0.705783
O O14 0.250000 0.234282 0.135175
O O15 0.075783 0.334953 0.197618
O O16 0.999718 0.165835 0.179611
O O17 0.750000 0.883860 0.230268
O O18 0.974809 0.000000 0.234985
O O19 0.750000 0.373986 0.721007
O O20 0.939836 0.500000 0.753207
#
# Coordination Sequence:
#
# PCOD9401068 Si02
#       7
#     4   8   8   8   8   8   8
#     4   8  16  28  42  62  86 116 152 188 227 274
#     4  10  20  33  51  77 109 143 176 211 253 301
#     4  10  19  32  48  68  95 127 162 201 245 297
#     4  10  20  32  49  74 100 129 164 204 250 298
#     4  10  19  32  52  78 106 136 171 211 254 302
#     4   9  19  35  52  72 101 137 174 212 252 296
#     4   9  18  33  52  73  99 131 165 204 249 296
#
# _framework density 17.144401999999999
#
# number of rings (size 3 to 8) (size 9 to 14) (size 15 to 20)
#    0.000    2.462    0.000    2.308    1.077    4.000 
#    0.000    0.000    0.000    0.923    0.000    0.000 
#    0.000    0.000    0.000    0.000    0.000    0.000 
#
# Total GULP energy -289503.361325 kJ/mol
# GULP energy per Si atom -5567.372333 kJ/mol
# Density = 1.710538 g / cm^3
# Si number density = 17.144402 Si / 1000 Ang^3
#
#
#
# Elastic Constant Matrix: (Units=GPa)
#
#
# Indices 1 2 3 4 5 6 
#
# 1 50.4691 22.4941 32.1774 0.0000 0.0000 0.0000
# 2 22.4941 75.1509 25.0286 0.0000 0.0000 0.0000
# 3 32.1774 25.0286 70.9400 0.0000 0.0000 0.0000
# 4 0.0000 0.0000 0.0000 14.4021 0.0000 0.0000
# 5 0.0000 0.0000 0.0000 0.0000 27.9278 0.0000
# 6 0.0000 0.0000 0.0000 0.0000 0.0000 23.7233
#
#
#
# Elastic Compliance Matrix: (Units=1/GPa)
#
#
# Indices 1 2 3 4 5 6 
#
# 1 0.029410 -0.004941 -0.011597 0.000000 0.000000 0.000000
# 2 -0.004941 0.015908 -0.003372 0.000000 0.000000 0.000000
# 3 -0.011597 -0.003372 0.020546 0.000000 0.000000 0.000000
# 4 0.000000 0.000000 0.000000 0.069434 0.000000 0.000000
# 5 0.000000 0.000000 0.000000 0.000000 0.035807 0.000000
# 6 0.000000 0.000000 0.000000 0.000000 0.000000 0.042153
#
#
# Mechanical properties :
#
#
# Convention : Reuss Voigt Hill
#
# Bulk Modulus (GPa) = 38.39347 39.55114 38.97231
# Shear Modulus (GPa) = 19.10161 21.00131 20.05146
#
# Velocity S-wave (km/s) = 3.34153 3.50375 3.42360
# Velocity P-wave (km/s) = 6.10987 6.28394 6.19751
#
# Compressibility (1/GPa) = 0.02604609
#
# Stress axis : x y z
#
# Youngs Moduli (GPa) = 34.00218 62.86029 48.67099
#
# Poissons Ratio (x) = 0.31057 0.56443
# Poissons Ratio (y) = 0.16799 0.16410
# Poissons Ratio (z) = 0.39432 0.21194
#
# Static dielectric constant tensor:
#      x y z
#    x 1.598530 0.000000 0.000000 
#    y 0.000000 1.602690 0.000000 
#    z 0.000000 0.000000 1.559910 
# 
# From -- ./inp_files/31677.got.cif
#   From: 2010.05.17/outbox.cif.g08.bks.cpg/sg51_16_cif.got.tgz:31677.got - 2010.06.03 11:52:47.
