data_PCOD9401875
_publ_section_title
;
Structure prediction by ZEFSAII (Michael W. Deem and Ramdas Pophale) SiO2 
 PCOD9401875
Probable space group: P M M A
;
_chemical_formula_sum "Si O2"
_cell_formula_units_Z 48
_cell_length_a 19.784200
_cell_length_b 7.989534
_cell_length_c 15.629209
_cell_angle_alpha 90.000000
_cell_angle_beta 90.000000
_cell_angle_gamma 90.000000
_cell_volume 2470.454967
_symmetry_space_group_name_H-M "P M M A"
_symmetry_group_IT_number 51
_symmetry_cell_setting 'orthorhombic'
loop_
_space_group_symop_operation_xyz
x,y,z
1/2-x,-y,z
1/2+x,-y,-z
-x,y,-z
-x,-y,-z
1/2+x,y,-z
1/2-x,y,z
x,-y,z
loop_
_atom_site_type_symbol
_atom_site_label
_atom_site_fract_x
_atom_site_fract_y
_atom_site_fract_z
Si Si1 0.328063 0.795782 0.435205
Si Si2 0.673042 0.201914 0.371922
Si Si3 0.589614 0.798856 0.727877
Si Si4 0.562516 0.300766 0.233453
Si Si5 0.571458 0.297808 0.039976
Si Si6 0.327131 0.798333 0.107016
O O1 0.250000 0.749357 0.417886
O O2 0.345544 0.741224 0.531692
O O3 0.376847 0.735910 0.359988
O O4 0.330067 0.000000 0.435405
O O5 0.750000 0.258773 0.354147
O O6 0.620122 0.254539 0.300725
O O7 0.674144 0.000000 0.373740
O O8 0.510963 0.759652 0.736845
O O9 0.630660 0.735484 0.810810
O O10 0.596612 0.000000 0.727374
O O11 0.559297 0.500000 0.227939
O O12 0.577247 0.236260 0.137444
O O13 0.570020 0.500000 0.040941
O O14 0.500000 0.239837 0.000000
O O15 0.632111 0.245306 0.978418
O O16 0.250000 0.736453 0.106916
O O17 0.324709 0.000000 0.113151
#
# Coordination Sequence:
#
# PCOD9401875 Si02
#       6
#     8   8   8   8   8   8
#     4   8  15  31  56  82 108 141 179 219 264 317
#     4   9  19  37  59  81 106 139 181 225 267 316
#     4  10  19  33  56  83 111 142 177 217 265 322
#     4  11  23  37  55  78 108 144 182 224 269 317
#     4  10  21  39  57  73 102 146 188 220 260 320
#     4  10  21  35  55  86 115 137 171 224 277 320
#
# _framework density 19.429618999999999
#
# number of rings (size 3 to 8) (size 9 to 14) (size 15 to 20)
#    0.000    2.333    1.667    2.000    0.000    5.667 
#    0.000    7.500    0.000    2.500    0.000    0.000 
#    0.000    0.000    0.000    0.000    0.000    0.000 
#
# Total GULP energy -267928.533371 kJ/mol
# GULP energy per Si atom -5581.844445 kJ/mol
# Density = 1.938540 g / cm^3
# Si number density = 19.429619 Si / 1000 Ang^3
#
#
#
# Elastic Constant Matrix: (Units=GPa)
#
#
# Indices 1 2 3 4 5 6 
#
# 1 161.9618 5.7846 129.2182 0.0000 0.0000 0.0000
# 2 5.7846 13.1991 12.0698 0.0000 0.0000 0.0000
# 3 129.2182 12.0698 207.6918 0.0000 0.0000 0.0000
# 4 0.0000 0.0000 0.0000 -12.2079 0.0000 0.0000
# 5 0.0000 0.0000 0.0000 0.0000 40.2546 0.0000
# 6 0.0000 0.0000 0.0000 0.0000 0.0000 -114.1832
#
#
#
# Elastic Compliance Matrix: (Units=1/GPa)
#
#
# Indices 1 2 3 4 5 6 
#
# 1 0.012296 0.001697 -0.007749 0.000000 0.000000 0.000000
# 2 0.001697 0.080249 -0.005719 0.000000 0.000000 0.000000
# 3 -0.007749 -0.005719 0.009968 0.000000 0.000000 0.000000
# 4 0.000000 0.000000 0.000000 -0.081914 0.000000 0.000000
# 5 0.000000 0.000000 0.000000 0.000000 0.024842 0.000000
# 6 0.000000 0.000000 0.000000 0.000000 0.000000 -0.008758
#
#
# Mechanical properties :
#
#
# Convention : Reuss Voigt Hill
#
# Bulk Modulus (GPa) = 12.66293 75.22200 43.94246
# Shear Modulus (GPa) = 57.77156 -1.50861 28.13148
#
# Velocity S-wave (km/s) = 5.45878 -0.88212 3.80921
# Velocity P-wave (km/s) = 6.80166 6.14505 6.48167
#
# Compressibility (1/GPa) = 0.07897069
#
# Stress axis : x y z
#
# Youngs Moduli (GPa) = 81.32900 12.46123 100.32028
#
# Poissons Ratio (x) = -0.02115 0.77734
# Poissons Ratio (y) = -0.13801 0.57377
# Poissons Ratio (z) = 0.63018 0.07127
#
# Static dielectric constant tensor:
#      x y z
#    x 1.649670 0.000000 0.000000 
#    y 0.000000 1.702180 0.000000 
#    z 0.000000 0.000000 1.682150 
# 
# From -- ./inp_files/24722.got.cif
#   From: 2010.05.17/outbox.cif.g08.bks.cpg/sg51_13_cif.got.tgz:24722.got - 2010.06.03 11:52:47.
