data_PCOD9401807
_publ_section_title
;
Structure prediction by ZEFSAII (Michael W. Deem and Ramdas Pophale) SiO2 
 PCOD9401807
Probable space group: P M M A
;
_chemical_formula_sum "Si O2"
_cell_formula_units_Z 40
_cell_length_a 19.394180
_cell_length_b 7.529490
_cell_length_c 12.868459
_cell_angle_alpha 90.000000
_cell_angle_beta 90.000000
_cell_angle_gamma 90.000000
_cell_volume 1879.158990
_symmetry_space_group_name_H-M "P M M A"
_symmetry_group_IT_number 51
_symmetry_cell_setting 'orthorhombic'
loop_
_space_group_symop_operation_xyz
x,y,z
1/2-x,-y,z
1/2+x,-y,-z
-x,y,-z
-x,-y,-z
1/2+x,y,-z
1/2-x,y,z
x,-y,z
loop_
_atom_site_type_symbol
_atom_site_label
_atom_site_fract_x
_atom_site_fract_y
_atom_site_fract_z
Si Si1 0.570431 0.212642 0.286297
Si Si2 0.573216 0.286944 0.043825
Si Si3 0.671874 0.714578 0.864186
Si Si4 0.081636 0.210655 0.338707
Si Si5 0.329217 0.782306 0.534411
O O1 0.581171 0.248139 0.164930
O O2 0.495538 0.282956 0.322537
O O3 0.631557 0.275120 0.361086
O O4 0.568001 0.000000 0.297882
O O5 0.571675 0.500000 0.033604
O O6 0.500000 0.219124 0.000000
O O7 0.634233 0.222421 0.969057
O O8 0.750000 0.780138 0.853717
O O9 0.674462 0.500000 0.867287
O O10 0.625092 0.763507 0.766045
O O11 0.125320 0.278938 0.436268
O O12 0.074153 0.000000 0.356431
O O13 0.250000 0.723884 0.528358
O O14 0.327929 0.000000 0.532576
#
# Coordination Sequence:
#
# PCOD9401807 Si02
#       5
#     8   8   8   8   8
#     4  10  20  33  54  81 106 135 176 220 258 304
#     4  10  20  36  55  74 102 140 175 209 258 315
#     4  10  21  36  54  77 105 137 174 217 264 310
#     4  10  19  33  55  80 106 136 174 216 259 310
#     4   9  18  33  52  76 108 142 173 211 263 313
#
# _framework density 21.286117000000001
#
# number of rings (size 3 to 8) (size 9 to 14) (size 15 to 20)
#    0.000    2.200    2.000    1.200    0.000    5.600 
#    0.000    1.000    0.000    3.600    0.000    0.000 
#    0.000    0.000    0.000    0.000    0.000    0.000 
#
# Total GULP energy -223480.043760 kJ/mol
# GULP energy per Si atom -5587.001094 kJ/mol
# Density = 2.123767 g / cm^3
# Si number density = 21.286117 Si / 1000 Ang^3
#
#
#
# Elastic Constant Matrix: (Units=GPa)
#
#
# Indices 1 2 3 4 5 6 
#
# 1 23.1278 -11.9273 23.7012 0.0000 0.0000 0.0000
# 2 -11.9273 49.7057 -15.9171 0.0000 0.0000 0.0000
# 3 23.7012 -15.9171 152.7621 0.0000 0.0000 0.0000
# 4 0.0000 0.0000 0.0000 35.7645 0.0000 0.0000
# 5 0.0000 0.0000 0.0000 0.0000 30.6405 0.0000
# 6 0.0000 0.0000 0.0000 0.0000 0.0000 9.1090
#
#
#
# Elastic Compliance Matrix: (Units=1/GPa)
#
#
# Indices 1 2 3 4 5 6 
#
# 1 0.056854 0.011191 -0.007655 0.000000 0.000000 0.000000
# 2 0.011191 0.023016 0.000662 0.000000 0.000000 0.000000
# 3 -0.007655 0.000662 0.007803 0.000000 0.000000 0.000000
# 4 0.000000 0.000000 0.000000 0.027961 0.000000 0.000000
# 5 0.000000 0.000000 0.000000 0.000000 0.032637 0.000000
# 6 0.000000 0.000000 0.000000 0.000000 0.000000 0.109782
#
#
# Mechanical properties :
#
#
# Convention : Reuss Voigt Hill
#
# Bulk Modulus (GPa) = 10.40917 24.14549 17.27733
# Shear Modulus (GPa) = 17.75073 30.41872 24.08473
#
# Velocity S-wave (km/s) = 2.89088 3.78437 3.36739
# Velocity P-wave (km/s) = 4.00546 5.51934 4.82218
#
# Compressibility (1/GPa) = 0.09606910
#
# Stress axis : x y z
#
# Youngs Moduli (GPa) = 17.58885 43.44844 128.15992
#
# Poissons Ratio (x) = -0.48625 0.98105
# Poissons Ratio (y) = -0.19684 -0.08481
# Poissons Ratio (z) = 0.13464 -0.02875
#
# Static dielectric constant tensor:
#      x y z
#    x 1.753250 0.000000 0.000000 
#    y 0.000000 1.869860 0.000000 
#    z 0.000000 0.000000 1.719110 
# 
# From -- ./inp_files/9286.got.cif
#   From: 2010.05.17/outbox.cif.g08.bks.cpg/sg51_5_cif.got.tgz:9286.got - 2010.06.03 11:52:47.
