data_PCOD9401901
_publ_section_title
;
Structure prediction by ZEFSAII (Michael W. Deem and Ramdas Pophale) SiO2 
 PCOD9401901
Probable space group: P M M A
;
_chemical_formula_sum "Si O2"
_cell_formula_units_Z 32
_cell_length_a 13.632851
_cell_length_b 9.077185
_cell_length_c 13.640549
_cell_angle_alpha 90.000000
_cell_angle_beta 90.000000
_cell_angle_gamma 90.000000
_cell_volume 1687.989438
_symmetry_space_group_name_H-M "P M M A"
_symmetry_group_IT_number 51
_symmetry_cell_setting 'orthorhombic'
loop_
_space_group_symop_operation_xyz
x,y,z
1/2-x,-y,z
1/2+x,-y,-z
-x,y,-z
-x,-y,-z
1/2+x,y,-z
1/2-x,y,z
x,-y,z
loop_
_atom_site_type_symbol
_atom_site_label
_atom_site_fract_x
_atom_site_fract_y
_atom_site_fract_z
Si Si1 0.750000 0.673911 0.885117
Si Si2 0.750000 0.321887 0.659182
Si Si3 0.611380 0.168712 0.030576
Si Si4 0.139686 0.179244 0.743777
Si Si5 0.956335 0.174610 0.608956
O O1 0.750000 0.500000 0.882505
O O2 0.750000 0.725288 0.773522
O O3 0.839051 0.733595 0.948519
O O4 0.750000 0.500000 0.651315
O O5 0.852304 0.257775 0.617130
O O6 0.628132 0.220968 0.141864
O O7 0.647061 0.000000 0.026478
O O8 0.500000 0.165323 0.000000
O O9 0.250000 0.225317 0.710217
O O10 0.043982 0.227375 0.682084
O O11 0.138564 0.000000 0.739096
O O12 0.000000 0.188023 0.500000
O O13 0.939028 0.000000 0.628633
#
# Coordination Sequence:
#
# PCOD9401901 Si02
#       5
#     4   4   8   8   8
#     4  11  23  37  54  81 118 158 195 235 282 339
#     4  11  25  43  60  83 124 166 197 237 296 363
#     4  10  19  33  57  84 112 151 194 237 290 351
#     4   9  17  32  56  88 122 149 185 246 308 357
#     4  10  22  39  66  95 116 149 201 257 303 346
#
# _framework density 18.957466
#
# number of rings (size 3 to 8) (size 9 to 14) (size 15 to 20)
#    0.000    2.000    1.250    2.250    1.750    5.000 
#    0.000    1.250    0.000    0.000    0.000    0.000 
#    0.000    0.000    0.000    0.000    0.000    0.000 
#
# Total GULP energy -178383.020003 kJ/mol
# GULP energy per Si atom -5574.469375 kJ/mol
# Density = 1.891432 g / cm^3
# Si number density = 18.957466 Si / 1000 Ang^3
#
#
#
# Elastic Constant Matrix: (Units=GPa)
#
#
# Indices 1 2 3 4 5 6 
#
# 1 201.2398 43.3773 54.3848 0.0000 0.0000 0.0000
# 2 43.3773 33.0852 32.9877 0.0000 0.0000 0.0000
# 3 54.3848 32.9877 79.2048 0.0000 0.0000 0.0000
# 4 0.0000 0.0000 0.0000 16.8402 0.0000 0.0000
# 5 0.0000 0.0000 0.0000 0.0000 64.5849 0.0000
# 6 0.0000 0.0000 0.0000 0.0000 0.0000 119.2903
#
#
#
# Elastic Compliance Matrix: (Units=1/GPa)
#
#
# Indices 1 2 3 4 5 6 
#
# 1 0.007058 -0.007561 -0.001697 0.000000 0.000000 0.000000
# 2 -0.007561 0.059790 -0.019710 0.000000 0.000000 0.000000
# 3 -0.001697 -0.019710 0.022000 0.000000 0.000000 0.000000
# 4 0.000000 0.000000 0.000000 0.059382 0.000000 0.000000
# 5 0.000000 0.000000 0.000000 0.000000 0.015483 0.000000
# 6 0.000000 0.000000 0.000000 0.000000 0.000000 0.008383
#
#
# Mechanical properties :
#
#
# Convention : Reuss Voigt Hill
#
# Bulk Modulus (GPa) = 32.35073 63.89216 48.12144
# Shear Modulus (GPa) = 20.80430 52.32842 36.56636
#
# Velocity S-wave (km/s) = 3.31633 5.25956 4.39665
# Velocity P-wave (km/s) = 5.63613 8.40595 7.15633
#
# Compressibility (1/GPa) = 0.03091120
#
# Stress axis : x y z
#
# Youngs Moduli (GPa) = 141.69162 16.72519 45.45551
#
# Poissons Ratio (x) = 0.12646 0.07713
# Poissons Ratio (y) = 1.07135 0.89593
# Poissons Ratio (z) = 0.24043 0.32965
#
# Static dielectric constant tensor:
#      x y z
#    x 1.708860 0.000000 0.000000 
#    y 0.000000 1.645100 0.000000 
#    z 0.000000 0.000000 1.651870 
# 
# From -- ./inp_files/15947.got.cif
#   From: 2010.05.17/outbox.cif.g08.bks.cpg/sg51_8_cif.got.tgz:15947.got - 2010.06.03 11:52:47.
