data_PCOD9401060
_publ_section_title
;
Structure prediction by ZEFSAII (Michael W. Deem and Ramdas Pophale) SiO2 
 PCOD9401060
Probable space group: P M M A
;
_chemical_formula_sum "Si O2"
_cell_formula_units_Z 48
_cell_length_a 21.785986
_cell_length_b 9.027203
_cell_length_c 15.486936
_cell_angle_alpha 90.000000
_cell_angle_beta 90.000000
_cell_angle_gamma 90.000000
_cell_volume 3045.761780
_symmetry_space_group_name_H-M "P M M A"
_symmetry_group_IT_number 51
_symmetry_cell_setting 'orthorhombic'
loop_
_space_group_symop_operation_xyz
x,y,z
1/2-x,-y,z
1/2+x,-y,-z
-x,y,-z
-x,-y,-z
1/2+x,y,-z
1/2-x,y,z
x,-y,z
loop_
_atom_site_type_symbol
_atom_site_label
_atom_site_fract_x
_atom_site_fract_y
_atom_site_fract_z
Si Si1 0.428393 0.170429 0.529681
Si Si2 0.546587 0.823486 0.127064
Si Si3 0.036532 0.324296 0.696730
Si Si4 0.677621 0.324056 0.803264
Si Si5 0.408298 0.823225 0.059898
Si Si6 0.095776 0.821786 0.341083
O O1 0.500000 0.173344 0.500000
O O2 0.424515 0.271056 0.613898
O O3 0.393254 0.214250 0.442217
O O4 0.413882 0.000000 0.551798
O O5 0.562539 0.734733 0.212834
O O6 0.475267 0.794607 0.102147
O O7 0.551826 0.000000 0.142413
O O8 0.585275 0.786549 0.041356
O O9 0.030013 0.500000 0.697021
O O10 0.969389 0.249022 0.686008
O O11 0.750000 0.294893 0.808243
O O12 0.667923 0.500000 0.794303
O O13 0.642459 0.265080 0.887737
O O14 0.646997 0.240826 0.722299
O O15 0.397567 0.000000 0.067419
O O16 0.090715 0.000000 0.333966
#
# Coordination Sequence:
#
# PCOD9401060 Si02
#       6
#     8   8   8   8   8   8
#     4   8  16  29  44  63  90 124 157 190 227 269
#     4   9  17  30  48  70  96 125 159 198 240 285
#     4  11  19  26  43  72 100 127 154 186 236 292
#     4  11  23  35  48  70  99 128 159 199 244 287
#     4   9  18  32  50  69  91 125 164 200 238 283
#     4  10  19  32  48  65  90 126 165 199 231 274
#
# _framework density 15.759605000000001
#
# number of rings (size 3 to 8) (size 9 to 14) (size 15 to 20)
#    0.000    2.333    1.667    4.500    0.000    5.667 
#    0.000    1.667    0.000    0.000    0.000    1.167 
#    0.000    9.333    0.000    0.000    0.000    0.000 
#
# Total GULP energy -267612.883654 kJ/mol
# GULP energy per Si atom -5575.268409 kJ/mol
# Density = 1.572373 g / cm^3
# Si number density = 15.759605 Si / 1000 Ang^3
#
#
#
# Elastic Constant Matrix: (Units=GPa)
#
#
# Indices 1 2 3 4 5 6 
#
# 1 52.6599 40.0589 48.0368 0.0000 0.0000 0.0000
# 2 40.0589 80.0439 82.8014 0.0000 0.0000 0.0000
# 3 48.0368 82.8014 159.3316 0.0000 0.0000 0.0000
# 4 0.0000 0.0000 0.0000 -2.3166 0.0000 0.0000
# 5 0.0000 0.0000 0.0000 0.0000 13.3757 0.0000
# 6 0.0000 0.0000 0.0000 0.0000 0.0000 10.5234
#
#
#
# Elastic Compliance Matrix: (Units=1/GPa)
#
#
# Indices 1 2 3 4 5 6 
#
# 1 0.031229 -0.012736 -0.002797 0.000000 0.000000 0.000000
# 2 -0.012736 0.032211 -0.012900 0.000000 0.000000 0.000000
# 3 -0.002797 -0.012900 0.013823 0.000000 0.000000 0.000000
# 4 0.000000 0.000000 0.000000 -0.431661 0.000000 0.000000
# 5 0.000000 0.000000 0.000000 0.000000 0.074763 0.000000
# 6 0.000000 0.000000 0.000000 0.000000 0.000000 0.095026
#
#
# Mechanical properties :
#
#
# Convention : Reuss Voigt Hill
#
# Bulk Modulus (GPa) = 49.02259 70.42550 59.72404
# Shear Modulus (GPa) = -41.34133 12.39238 -14.47448
#
# Velocity S-wave (km/s) = -5.12732 2.80721 -3.03389
# Velocity P-wave (km/s) = 1.96940 7.43583 5.07016
#
# Compressibility (1/GPa) = 0.02039876
#
# Stress axis : x y z
#
# Youngs Moduli (GPa) = 32.02111 31.04524 72.34291
#
# Poissons Ratio (x) = 0.39540 0.20232
# Poissons Ratio (y) = 0.40782 0.93320
# Poissons Ratio (z) = 0.08955 0.40047
#
# Static dielectric constant tensor:
#      x y z
#    x 1.492000 0.000000 0.000000 
#    y 0.000000 1.519450 0.000000 
#    z 0.000000 0.000000 1.558840 
# 
# From -- ./inp_files/25464.got.cif
#   From: 2010.05.17/outbox.cif.g08.bks.cpg/sg51_13_cif.got.tgz:25464.got - 2010.06.03 11:52:47.
