data_PCOD9401786
_publ_section_title
;
Structure prediction by ZEFSAII (Michael W. Deem and Ramdas Pophale) SiO2 
 PCOD9401786
Probable space group: P M M A
;
_chemical_formula_sum "Si O2"
_cell_formula_units_Z 64
_cell_length_a 20.811489
_cell_length_b 9.194257
_cell_length_c 19.942655
_cell_angle_alpha 90.000000
_cell_angle_beta 90.000000
_cell_angle_gamma 90.000000
_cell_volume 3815.950822
_symmetry_space_group_name_H-M "P M M A"
_symmetry_group_IT_number 51
_symmetry_cell_setting 'orthorhombic'
loop_
_space_group_symop_operation_xyz
x,y,z
1/2-x,-y,z
1/2+x,-y,-z
-x,y,-z
-x,-y,-z
1/2+x,y,-z
1/2-x,y,z
x,-y,z
loop_
_atom_site_type_symbol
_atom_site_label
_atom_site_fract_x
_atom_site_fract_y
_atom_site_fract_z
Si Si1 0.676645 0.325694 0.965667
Si Si2 0.863614 0.329236 0.817121
Si Si3 0.136692 0.829822 0.319058
Si Si4 0.518208 0.171205 0.317571
Si Si5 0.981813 0.328368 0.179683
Si Si6 0.560809 0.673661 0.451364
Si Si7 0.677599 0.326585 0.546209
Si Si8 0.062911 0.826574 0.954108
O O1 0.750000 0.297669 0.986403
O O2 0.664682 0.500000 0.970086
O O3 0.668193 0.285693 0.887244
O O4 0.624484 0.241341 0.009231
O O5 0.850515 0.500000 0.805436
O O6 0.843454 0.240345 0.751682
O O7 0.940653 0.311865 0.826145
O O8 0.166508 0.750961 0.383002
O O9 0.059203 0.812278 0.324484
O O10 0.151829 0.000000 0.319876
O O11 0.537153 0.254919 0.249873
O O12 0.550451 0.240966 0.382717
O O13 0.531934 0.000000 0.312138
O O14 0.967724 0.500000 0.179485
O O15 0.949435 0.248977 0.117116
O O16 0.500000 0.699407 0.500000
O O17 0.563489 0.500000 0.437952
O O18 0.624177 0.718254 0.492308
O O19 0.750000 0.299160 0.522537
O O20 0.669641 0.500000 0.556558
O O21 0.069596 0.000000 0.946627
O O22 0.000000 0.798556 0.000000
#
# Coordination Sequence:
#
# PCOD9401786 Si02
#       8
#     8   8   8   8   8   8   8   8
#     4  10  21  37  56  79 108 144 186 227 268 319
#     4   9  18  32  51  76 107 143 182 220 260 311
#     4  10  20  32  49  75 108 142 177 215 258 314
#     4  10  20  33  52  80 112 139 170 217 271 318
#     4  10  19  33  56  81 108 141 180 224 268 315
#     4  10  19  33  55  79 102 134 178 220 259 309
#     4  10  21  36  53  74 103 139 177 218 262 309
#     4  11  22  35  55  82 112 144 180 224 275 325
#
# _framework density 16.771704
#
# number of rings (size 3 to 8) (size 9 to 14) (size 15 to 20)
#    0.000    2.000    2.500    1.500    0.000    4.250 
#    0.000    1.250    0.000    0.750    0.000    1.750 
#    0.000    0.000    0.000    0.000    0.000    0.000 
#
# Total GULP energy -357331.047822 kJ/mol
# GULP energy per Si atom -5583.297622 kJ/mol
# Density = 1.673353 g / cm^3
# Si number density = 16.771704 Si / 1000 Ang^3
#
#
#
# Elastic Constant Matrix: (Units=GPa)
#
#
# Indices 1 2 3 4 5 6 
#
# 1 83.1089 59.6928 60.0678 0.0000 0.0000 0.0000
# 2 59.6928 72.5922 71.8064 0.0000 0.0000 0.0000
# 3 60.0678 71.8064 130.4899 0.0000 0.0000 0.0000
# 4 0.0000 0.0000 0.0000 18.5385 0.0000 0.0000
# 5 0.0000 0.0000 0.0000 0.0000 17.7478 0.0000
# 6 0.0000 0.0000 0.0000 0.0000 0.0000 16.7115
#
#
#
# Elastic Compliance Matrix: (Units=1/GPa)
#
#
# Indices 1 2 3 4 5 6 
#
# 1 0.029407 -0.023682 -0.000505 0.000000 0.000000 0.000000
# 2 -0.023682 0.049302 -0.016229 0.000000 0.000000 0.000000
# 3 -0.000505 -0.016229 0.016826 0.000000 0.000000 0.000000
# 4 0.000000 0.000000 0.000000 0.053942 0.000000 0.000000
# 5 0.000000 0.000000 0.000000 0.000000 0.056345 0.000000
# 6 0.000000 0.000000 0.000000 0.000000 0.000000 0.059839
#
#
# Mechanical properties :
#
#
# Convention : Reuss Voigt Hill
#
# Bulk Modulus (GPa) = 68.00795 74.36943 71.18869
# Shear Modulus (GPa) = 14.22902 16.90783 15.56842
#
# Velocity S-wave (km/s) = 2.91588 3.17853 3.05003
# Velocity P-wave (km/s) = 7.20928 7.60981 7.41225
#
# Compressibility (1/GPa) = 0.01470416
#
# Stress axis : x y z
#
# Youngs Moduli (GPa) = 34.00572 20.28295 59.43026
#
# Poissons Ratio (x) = 0.48034 0.03001
# Poissons Ratio (y) = 0.80532 0.96449
# Poissons Ratio (z) = 0.01717 0.32917
#
# Static dielectric constant tensor:
#      x y z
#    x 1.564780 0.000000 0.000000 
#    y 0.000000 1.556140 0.000000 
#    z 0.000000 0.000000 1.532510 
# 
# From -- ./inp_files/30530.got.cif
#   From: 2010.05.17/outbox.cif.g08.bks.cpg/sg51_16_cif.got.tgz:30530.got - 2010.06.03 11:52:47.
