data_PCOD9401524
_publ_section_title
;
Structure prediction by ZEFSAII (Michael W. Deem and Ramdas Pophale) SiO2 
 PCOD9401524
Probable space group: P M M A
;
_chemical_formula_sum "Si O2"
_cell_formula_units_Z 64
_cell_length_a 8.525394
_cell_length_b 32.082149
_cell_length_c 14.852022
_cell_angle_alpha 90.000000
_cell_angle_beta 90.000000
_cell_angle_gamma 90.000000
_cell_volume 4062.220508
_symmetry_space_group_name_H-M "P M M A"
_symmetry_group_IT_number 51
_symmetry_cell_setting 'orthorhombic'
loop_
_space_group_symop_operation_xyz
x,y,z
1/2-x,-y,z
1/2+x,-y,-z
-x,y,-z
-x,-y,-z
1/2+x,y,-z
1/2-x,y,z
x,-y,z
loop_
_atom_site_type_symbol
_atom_site_label
_atom_site_fract_x
_atom_site_fract_y
_atom_site_fract_z
Si Si1 0.560488 0.955208 0.897254
Si Si2 0.060150 0.863914 0.102338
Si Si3 0.561634 0.623539 0.787249
Si Si4 0.438778 0.343668 0.403916
Si Si5 0.062089 0.548043 0.900560
Si Si6 0.062795 0.702635 0.898281
Si Si7 0.940318 0.782610 0.789413
Si Si8 0.938819 0.246745 0.596190
O O1 0.750000 0.955276 0.897712
O O2 0.510735 0.909786 0.861598
O O3 0.509354 0.000000 0.856725
O O4 0.500000 0.955368 0.000000
O O5 0.250000 0.863162 0.099387
O O6 0.007796 0.825429 0.163614
O O7 0.000000 0.859091 0.000000
O O8 0.750000 0.625149 0.789867
O O9 0.509909 0.631229 0.684201
O O10 0.504046 0.580356 0.828805
O O11 0.497465 0.661522 0.847258
O O12 0.500000 0.359052 0.500000
O O13 0.250000 0.343858 0.406085
O O14 0.489561 0.295225 0.393671
O O15 0.250000 0.550224 0.901406
O O16 0.015025 0.500000 0.883047
O O17 0.000000 0.559320 0.000000
O O18 0.250000 0.702643 0.899528
O O19 0.001767 0.743171 0.845254
O O20 0.000000 0.703220 0.000000
O O21 0.750000 0.781197 0.791492
O O22 0.989851 0.777710 0.685387
O O23 0.750000 0.246415 0.593747
O O24 0.000000 0.231362 0.500000
#
# Coordination Sequence:
#
# PCOD9401524 Si02
#       8
#     8   8   8   8   8   8   8   8
#     4   8  13  22  36  55  78 106 144 186 225 266
#     4   9  17  27  41  59  84 120 153 185 226 270
#     4  11  21  36  55  76 101 127 159 196 235 276
#     4   9  18  32  51  73  97 123 152 191 235 276
#     4  10  21  37  56  79 105 132 162 196 234 276
#     4  12  24  35  48  67  94 128 162 193 228 268
#     4  10  19  33  47  63  91 122 154 190 230 276
#     4   9  17  31  48  66  89 116 149 190 233 274
#
# _framework density 15.754930999999999
#
# number of rings (size 3 to 8) (size 9 to 14) (size 15 to 20)
#    0.000    2.250    1.250    2.625    0.000    3.750 
#    0.000    0.000    0.000    0.375    0.000    0.000 
#    0.000    0.500    0.000    0.375    0.000    1.000 
#
# Total GULP energy -356782.589758 kJ/mol
# GULP energy per Si atom -5574.727965 kJ/mol
# Density = 1.571907 g / cm^3
# Si number density = 15.754931 Si / 1000 Ang^3
#
#
#
# Elastic Constant Matrix: (Units=GPa)
#
#
# Indices 1 2 3 4 5 6 
#
# 1 23.7288 22.3873 23.9536 0.0000 0.0000 0.0000
# 2 22.3873 114.3200 77.2504 0.0000 0.0000 0.0000
# 3 23.9536 77.2504 138.7312 0.0000 0.0000 0.0000
# 4 0.0000 0.0000 0.0000 8.6519 0.0000 0.0000
# 5 0.0000 0.0000 0.0000 0.0000 23.4976 0.0000
# 6 0.0000 0.0000 0.0000 0.0000 0.0000 12.7702
#
#
#
# Elastic Compliance Matrix: (Units=1/GPa)
#
#
# Indices 1 2 3 4 5 6 
#
# 1 0.054217 -0.006881 -0.005530 0.000000 0.000000 0.000000
# 2 -0.006881 0.014898 -0.007108 0.000000 0.000000 0.000000
# 3 -0.005530 -0.007108 0.012121 0.000000 0.000000 0.000000
# 4 0.000000 0.000000 0.000000 0.115582 0.000000 0.000000
# 5 0.000000 0.000000 0.000000 0.000000 0.042557 0.000000
# 6 0.000000 0.000000 0.000000 0.000000 0.000000 0.078307
#
#
# Mechanical properties :
#
#
# Convention : Reuss Voigt Hill
#
# Bulk Modulus (GPa) = 23.69709 58.21806 40.95758
# Shear Modulus (GPa) = 13.48494 19.19652 16.34073
#
# Velocity S-wave (km/s) = 2.92878 3.49441 3.22402
# Velocity P-wave (km/s) = 5.14886 7.30162 6.31761
#
# Compressibility (1/GPa) = 0.04219927
#
# Stress axis : x y z
#
# Youngs Moduli (GPa) = 18.44449 67.12488 82.50355
#
# Poissons Ratio (x) = 0.46185 0.45623
# Poissons Ratio (y) = 0.12691 0.58639
# Poissons Ratio (z) = 0.10200 0.47709
#
# Static dielectric constant tensor:
#      x y z
#    x 1.537130 0.000000 0.000000 
#    y 0.000000 1.544940 0.000000 
#    z 0.000000 0.000000 1.508530 
# 
# From -- ./inp_files/22617.got.cif
#   From: 2010.05.17/outbox.cif.g08.bks.cpg/sg51_12_cif.got.tgz:22617.got - 2010.06.03 11:52:47.
