data_PCOD9401046
_publ_section_title
;
Structure prediction by ZEFSAII (Michael W. Deem and Ramdas Pophale) SiO2 
 PCOD9401046
Probable space group: P M M A
;
_chemical_formula_sum "Si O2"
_cell_formula_units_Z 32
_cell_length_a 9.015438
_cell_length_b 16.426855
_cell_length_c 11.733541
_cell_angle_alpha 90.000000
_cell_angle_beta 90.000000
_cell_angle_gamma 90.000000
_cell_volume 1737.682190
_symmetry_space_group_name_H-M "P M M A"
_symmetry_group_IT_number 51
_symmetry_cell_setting 'orthorhombic'
loop_
_space_group_symop_operation_xyz
x,y,z
1/2-x,-y,z
1/2+x,-y,-z
-x,y,-z
-x,-y,-z
1/2+x,y,-z
1/2-x,y,z
x,-y,z
loop_
_atom_site_type_symbol
_atom_site_label
_atom_site_fract_x
_atom_site_fract_y
_atom_site_fract_z
Si Si1 0.422629 0.910433 0.812337
Si Si2 0.500000 0.779215 0.000000
Si Si3 0.579099 0.335917 0.794745
Si Si4 0.930227 0.210104 0.375372
Si Si5 0.071594 0.500000 0.874899
O O1 0.250000 0.921103 0.789819
O O2 0.483300 0.868499 0.698110
O O3 0.487177 0.000000 0.839629
O O4 0.427730 0.843689 0.912640
O O5 0.420280 0.718092 0.088444
O O6 0.750000 0.351361 0.763530
O O7 0.493957 0.284938 0.698299
O O8 0.490487 0.418777 0.816220
O O9 0.750000 0.212981 0.379452
O O10 0.000000 0.209560 0.500000
O O11 0.250000 0.500000 0.880557
O O12 0.000000 0.500000 0.000000
#
# Coordination Sequence:
#
# PCOD9401046 Si02
#       5
#     8   4   8   8   4
#     4   9  18  32  51  78 112 150 191 239 291 342
#     4  10  19  31  54  80 118 150 196 231 289 342
#     4  11  22  37  59  86 118 153 192 236 287 343
#     4  10  21  38  59  82 111 150 196 243 292 344
#     4  12  24  38  59  88 123 156 190 231 279 335
#
# _framework density 18.415334999999999
#
# number of rings (size 3 to 8) (size 9 to 14) (size 15 to 20)
#    0.000    1.750    1.250    3.750    0.000    2.500 
#    0.000    0.625    0.000   14.250    0.000    0.000 
#    0.000    0.000    0.000    0.000    0.000    0.000 
#
# Total GULP energy -178184.375641 kJ/mol
# GULP energy per Si atom -5568.261739 kJ/mol
# Density = 1.837342 g / cm^3
# Si number density = 18.415335 Si / 1000 Ang^3
#
#
#
# Elastic Constant Matrix: (Units=GPa)
#
#
# Indices 1 2 3 4 5 6 
#
# 1 108.6414 48.2419 32.7535 0.0000 0.0000 0.0000
# 2 48.2419 156.5037 50.3802 0.0000 0.0000 0.0000
# 3 32.7535 50.3802 121.5273 0.0000 0.0000 0.0000
# 4 0.0000 0.0000 0.0000 44.2714 0.0000 0.0000
# 5 0.0000 0.0000 0.0000 0.0000 -221.3110 0.0000
# 6 0.0000 0.0000 0.0000 0.0000 0.0000 16.1805
#
#
#
# Elastic Compliance Matrix: (Units=1/GPa)
#
#
# Indices 1 2 3 4 5 6 
#
# 1 0.010995 -0.002810 -0.001798 0.000000 0.000000 0.000000
# 2 -0.002810 0.008092 -0.002597 0.000000 0.000000 0.000000
# 3 -0.001798 -0.002597 0.009790 0.000000 0.000000 0.000000
# 4 0.000000 0.000000 0.000000 0.022588 0.000000 0.000000
# 5 0.000000 0.000000 0.000000 0.000000 -0.004519 0.000000
# 6 0.000000 0.000000 0.000000 0.000000 0.000000 0.061803
#
#
# Mechanical properties :
#
#
# Convention : Reuss Voigt Hill
#
# Bulk Modulus (GPa) = 69.13118 72.15815 70.64466
# Shear Modulus (GPa) = 39.06813 -15.15202 11.95805
#
# Velocity S-wave (km/s) = 4.61097 -2.87155 2.55101
# Velocity P-wave (km/s) = 8.12217 5.31737 6.86455
#
# Compressibility (1/GPa) = 0.01446525
#
# Stress axis : x y z
#
# Youngs Moduli (GPa) = 90.95386 123.58006 102.14564
#
# Poissons Ratio (x) = 0.34728 0.18368
# Poissons Ratio (y) = 0.25560 0.26529
# Poissons Ratio (z) = 0.16356 0.32096
#
# Static dielectric constant tensor:
#      x y z
#    x 1.635350 0.000000 0.000000 
#    y 0.000000 1.695560 0.000000 
#    z 0.000000 0.000000 1.631280 
# 
# From -- ./inp_files/13794.got.cif
#   From: 2010.05.17/outbox.cif.g08.bks.cpg/sg51_7_cif.got.tgz:13794.got - 2010.06.03 11:52:47.
