data_PCOD9401419
_publ_section_title
;
Structure prediction by ZEFSAII (Michael W. Deem and Ramdas Pophale) SiO2 
 PCOD9401419
Probable space group: P M M A
;
_chemical_formula_sum "Si O2"
_cell_formula_units_Z 64
_cell_length_a 18.263771
_cell_length_b 7.801604
_cell_length_c 22.015714
_cell_angle_alpha 90.000000
_cell_angle_beta 90.000000
_cell_angle_gamma 90.000000
_cell_volume 3136.946632
_symmetry_space_group_name_H-M "P M M A"
_symmetry_group_IT_number 51
_symmetry_cell_setting 'orthorhombic'
loop_
_space_group_symop_operation_xyz
x,y,z
1/2-x,-y,z
1/2+x,-y,-z
-x,y,-z
-x,-y,-z
1/2+x,y,-z
1/2-x,y,z
x,-y,z
loop_
_atom_site_type_symbol
_atom_site_label
_atom_site_fract_x
_atom_site_fract_y
_atom_site_fract_z
Si Si1 0.830697 0.699065 0.491678
Si Si2 0.955549 0.207535 0.192183
Si Si3 0.333549 0.209889 0.718033
Si Si4 0.392959 0.702546 0.253252
Si Si5 0.981524 0.203235 0.933844
Si Si6 0.398198 0.199949 0.387565
Si Si7 0.437142 0.200105 0.609652
Si Si8 0.668768 0.292231 0.874855
O O1 0.750000 0.771154 0.477456
O O2 0.831326 0.500000 0.474321
O O3 0.846897 0.713031 0.563006
O O4 0.895447 0.785776 0.453991
O O5 0.879047 0.259627 0.222017
O O6 0.022310 0.263626 0.235650
O O7 0.973568 0.272221 0.124421
O O8 0.957552 0.000000 0.191099
O O9 0.250000 0.269668 0.716058
O O10 0.382101 0.269900 0.660837
O O11 0.331433 0.000000 0.716161
O O12 0.381310 0.500000 0.258927
O O13 0.374693 0.783362 0.317769
O O14 0.348416 0.764631 0.194279
O O15 0.896649 0.227956 0.916914
O O16 0.997047 0.000000 0.935924
O O17 0.000000 0.276058 0.000000
O O18 0.481108 0.273784 0.391761
O O19 0.399714 0.000000 0.404414
O O20 0.447625 0.000000 0.625319
O O21 0.750000 0.238309 0.893133
O O22 0.665756 0.500000 0.874948
#
# Coordination Sequence:
#
# PCOD9401419 Si02
#       8
#     8   8   8   8   8   8   8   8
#     4  11  25  41  54  74 106 140 174 216 267 318
#     4   9  16  31  51  73 105 139 176 217 256 312
#     4   9  16  28  50  77 101 130 169 214 263 310
#     4  10  19  32  53  79 106 138 173 216 270 319
#     4   9  18  32  52  79 110 145 183 224 266 309
#     4  11  22  37  58  82 105 135 177 220 264 319
#     4  10  20  36  57  78 101 132 175 221 261 314
#     4   9  19  35  54  78 108 143 184 225 265 316
#
# _framework density 20.402006
#
# number of rings (size 3 to 8) (size 9 to 14) (size 15 to 20)
#    0.000    2.250    1.250    1.875    0.000    5.500 
#    0.000    1.875    0.000    2.625    0.000    0.000 
#    0.000    0.000    0.000    0.000    0.000    0.000 
#
# Total GULP energy -357270.446118 kJ/mol
# GULP energy per Si atom -5582.350721 kJ/mol
# Density = 2.035557 g / cm^3
# Si number density = 20.402006 Si / 1000 Ang^3
#
#
#
# Elastic Constant Matrix: (Units=GPa)
#
#
# Indices 1 2 3 4 5 6 
#
# 1 49.1586 -2.8216 10.5164 0.0000 0.0000 0.0000
# 2 -2.8216 26.5329 -6.5795 0.0000 0.0000 0.0000
# 3 10.5164 -6.5795 99.6270 0.0000 0.0000 0.0000
# 4 0.0000 0.0000 0.0000 8.7493 0.0000 0.0000
# 5 0.0000 0.0000 0.0000 0.0000 15.8281 0.0000
# 6 0.0000 0.0000 0.0000 0.0000 0.0000 15.8810
#
#
#
# Elastic Compliance Matrix: (Units=1/GPa)
#
#
# Indices 1 2 3 4 5 6 
#
# 1 0.020888 0.001702 -0.002092 0.000000 0.000000 0.000000
# 2 0.001702 0.038455 0.002360 0.000000 0.000000 0.000000
# 3 -0.002092 0.002360 0.010414 0.000000 0.000000 0.000000
# 4 0.000000 0.000000 0.000000 0.114295 0.000000 0.000000
# 5 0.000000 0.000000 0.000000 0.000000 0.063179 0.000000
# 6 0.000000 0.000000 0.000000 0.000000 0.000000 0.062968
#
#
# Mechanical properties :
#
#
# Convention : Reuss Voigt Hill
#
# Bulk Modulus (GPa) = 13.56909 19.72769 16.64839
# Shear Modulus (GPa) = 15.11374 19.70523 17.40948
#
# Velocity S-wave (km/s) = 2.72471 3.11118 2.92434
# Velocity P-wave (km/s) = 4.06989 4.75357 4.42495
#
# Compressibility (1/GPa) = 0.07369691
#
# Stress axis : x y z
#
# Youngs Moduli (GPa) = 47.87519 26.00420 96.02302
#
# Poissons Ratio (x) = -0.04427 0.20092
# Poissons Ratio (y) = -0.08150 -0.22661
# Poissons Ratio (z) = 0.10018 -0.06137
#
# Static dielectric constant tensor:
#      x y z
#    x 1.716070 0.000000 0.000000 
#    y 0.000000 1.751780 0.000000 
#    z 0.000000 0.000000 1.728020 
# 
# From -- ./inp_files/33958.got.cif
#   From: 2010.05.17/outbox.cif.g08.bks.cpg/sg51_17_cif.got.tgz:33958.got - 2010.06.03 11:52:47.
