data_PCOD9401096
_publ_section_title
;
Structure prediction by ZEFSAII (Michael W. Deem and Ramdas Pophale) SiO2 
 PCOD9401096
Probable space group: P M M A
;
_chemical_formula_sum "Si O2"
_cell_formula_units_Z 40
_cell_length_a 9.839919
_cell_length_b 15.294748
_cell_length_c 14.975831
_cell_angle_alpha 90.000000
_cell_angle_beta 90.000000
_cell_angle_gamma 90.000000
_cell_volume 2253.848809
_symmetry_space_group_name_H-M "P M M A"
_symmetry_group_IT_number 51
_symmetry_cell_setting 'orthorhombic'
loop_
_space_group_symop_operation_xyz
x,y,z
1/2-x,-y,z
1/2+x,-y,-z
-x,y,-z
-x,-y,-z
1/2+x,y,-z
1/2-x,y,z
x,-y,z
loop_
_atom_site_type_symbol
_atom_site_label
_atom_site_fract_x
_atom_site_fract_y
_atom_site_fract_z
Si Si1 0.481544 0.319604 0.789991
Si Si2 0.581983 0.000000 0.596369
Si Si3 0.250000 0.603274 0.910019
Si Si4 0.901212 0.403909 0.629107
Si Si5 0.408103 0.157660 0.666497
Si Si6 0.750000 0.393680 0.876013
Si Si7 0.500000 0.735946 0.500000
O O1 0.374717 0.349669 0.862573
O O2 0.487160 0.383102 0.703507
O O3 0.451253 0.225084 0.745440
O O4 0.622651 0.340489 0.837857
O O5 0.500000 0.000000 0.500000
O O6 0.521041 0.917399 0.651106
O O7 0.750000 0.000000 0.586838
O O8 0.250000 0.500000 0.888958
O O9 0.250000 0.610996 0.016451
O O10 0.750000 0.401935 0.669878
O O11 0.920897 0.500000 0.591140
O O12 0.906832 0.328420 0.556939
O O13 0.250000 0.129199 0.679474
O O14 0.417334 0.208070 0.571557
O O15 0.750000 0.500000 0.855172
#
# Coordination Sequence:
#
# PCOD9401096 Si02
#       7
#     8   4   4   8   8   4   4
#     4  11  22  37  59  87 123 164 208 252 312 364
#     4  12  26  42  70  96 125 158 201 255 315 372
#     4  11  22  38  60  92 127 164 212 260 311 364
#     4  10  19  32  49  72 110 159 210 252 289 342
#     4  11  23  41  61  89 126 160 202 256 310 368
#     4  11  22  38  62  90 127 170 210 260 311 366
#     4  10  21  31  56  78 116 154 206 237 301 344
#
# _framework density 17.747420000000002
#
# number of rings (size 3 to 8) (size 9 to 14) (size 15 to 20)
#    0.000    1.200    3.000    4.200    1.400    2.400 
#    0.000    0.000    0.000    0.000    0.000    4.200 
#    0.000    0.000    0.000    0.000    0.000    0.000 
#
# Total GULP energy -222792.693999 kJ/mol
# GULP energy per Si atom -5569.817350 kJ/mol
# Density = 1.770703 g / cm^3
# Si number density = 17.747420 Si / 1000 Ang^3
#
#
#
# Elastic Constant Matrix: (Units=GPa)
#
#
# Indices 1 2 3 4 5 6 
#
# 1 147.9136 46.7116 41.0741 0.0000 0.0000 0.0000
# 2 46.7116 96.1857 42.3523 0.0000 0.0000 0.0000
# 3 41.0741 42.3523 92.5548 0.0000 0.0000 0.0000
# 4 0.0000 0.0000 0.0000 25.5568 0.0000 0.0000
# 5 0.0000 0.0000 0.0000 0.0000 1.0065 0.0000
# 6 0.0000 0.0000 0.0000 0.0000 0.0000 27.7335
#
#
#
# Elastic Compliance Matrix: (Units=1/GPa)
#
#
# Indices 1 2 3 4 5 6 
#
# 1 0.008365 -0.003041 -0.002321 0.000000 0.000000 0.000000
# 2 -0.003041 0.014125 -0.005114 0.000000 0.000000 0.000000
# 3 -0.002321 -0.005114 0.014175 0.000000 0.000000 0.000000
# 4 0.000000 0.000000 0.000000 0.039128 0.000000 0.000000
# 5 0.000000 0.000000 0.000000 0.000000 0.993528 0.000000
# 6 0.000000 0.000000 0.000000 0.000000 0.000000 0.036058
#
#
# Mechanical properties :
#
#
# Convention : Reuss Voigt Hill
#
# Bulk Modulus (GPa) = 63.63947 66.32558 64.98252
# Shear Modulus (GPa) = 4.41864 24.62710 14.52287
#
# Velocity S-wave (km/s) = 1.57960 3.72915 2.86371
# Velocity P-wave (km/s) = 6.26603 7.48299 6.90139
#
# Compressibility (1/GPa) = 0.01571352
#
# Stress axis : x y z
#
# Youngs Moduli (GPa) = 119.53893 70.79629 70.54845
#
# Poissons Ratio (x) = 0.21526 0.16375
# Poissons Ratio (y) = 0.36347 0.36079
# Poissons Ratio (z) = 0.27746 0.36206
#
# Static dielectric constant tensor:
#      x y z
#    x 1.484780 0.000000 0.000000 
#    y 0.000000 1.618330 0.000000 
#    z 0.000000 0.000000 1.613530 
# 
# From -- ./inp_files/20638.got.cif
#   From: 2010.05.17/outbox.cif.g08.bks.cpg/sg51_11_cif.got.tgz:20638.got - 2010.06.03 11:52:47.
