data_PCOD9401768
_publ_section_title
;
Structure prediction by ZEFSAII (Michael W. Deem and Ramdas Pophale) SiO2 
 PCOD9401768
Probable space group: P M M A
;
_chemical_formula_sum "Si O2"
_cell_formula_units_Z 48
_cell_length_a 9.425135
_cell_length_b 29.506600
_cell_length_c 9.506813
_cell_angle_alpha 90.000000
_cell_angle_beta 90.000000
_cell_angle_gamma 90.000000
_cell_volume 2643.879760
_symmetry_space_group_name_H-M "P M M A"
_symmetry_group_IT_number 51
_symmetry_cell_setting 'orthorhombic'
loop_
_space_group_symop_operation_xyz
x,y,z
1/2-x,-y,z
1/2+x,-y,-z
-x,y,-z
-x,-y,-z
1/2+x,y,-z
1/2-x,y,z
x,-y,z
loop_
_atom_site_type_symbol
_atom_site_label
_atom_site_fract_x
_atom_site_fract_y
_atom_site_fract_z
Si Si1 0.250000 0.550939 0.657107
Si Si2 0.500965 0.382735 0.331156
Si Si3 0.081615 0.054384 0.854714
Si Si4 0.924532 0.878314 0.651882
Si Si5 0.082447 0.700311 0.854137
Si Si6 0.579264 0.806352 0.149961
Si Si7 0.250000 0.447888 0.315654
O O1 0.250000 0.500000 0.711318
O O2 0.123663 0.582240 0.701342
O O3 0.250000 0.547873 0.486584
O O4 0.500000 0.375861 0.500000
O O5 0.519555 0.334889 0.257022
O O6 0.375350 0.414274 0.279502
O O7 0.250000 0.067826 0.856042
O O8 0.989926 0.078260 0.733499
O O9 0.078503 0.000000 0.839715
O O10 0.000000 0.066068 0.000000
O O11 0.750000 0.878082 0.647045
O O12 0.000000 0.877160 0.500000
O O13 0.991367 0.836543 0.740306
O O14 0.250000 0.691270 0.871534
O O15 0.068009 0.753095 0.812607
O O16 0.000000 0.694375 0.000000
O O17 0.750000 0.817203 0.143211
O O18 0.500000 0.812632 0.000000
O O19 0.250000 0.500000 0.263201
#
# Coordination Sequence:
#
# PCOD9401768 Si02
#       7
#     4   8   8   8   8   8   4
#     4   9  16  30  53  77 107 141 181 229 276 329
#     4  10  19  33  54  82 109 142 183 230 281 331
#     4  10  21  39  64  93 125 165 211 255 298 349
#     4  12  25  41  61  89 124 161 200 247 304 356
#     4  10  22  39  59  83 112 147 186 230 283 342
#     4  10  21  40  63  86 113 150 196 243 291 353
#     4   9  18  30  49  81 111 139 181 229 278 333
#
# _framework density 18.155137
#
# number of rings (size 3 to 8) (size 9 to 14) (size 15 to 20)
#    0.000    1.833    0.833    3.500    1.167    4.667 
#    0.000    0.000    0.000    3.000    0.000    0.000 
#    0.000    0.000    0.000    0.000    0.000    0.000 
#
# Total GULP energy -267301.753085 kJ/mol
# GULP energy per Si atom -5568.786523 kJ/mol
# Density = 1.811381 g / cm^3
# Si number density = 18.155137 Si / 1000 Ang^3
#
#
#
# Elastic Constant Matrix: (Units=GPa)
#
#
# Indices 1 2 3 4 5 6 
#
# 1 195.3036 66.1867 59.7901 0.0000 0.0000 0.0000
# 2 66.1867 117.2385 63.0951 0.0000 0.0000 0.0000
# 3 59.7901 63.0951 93.7960 0.0000 0.0000 0.0000
# 4 0.0000 0.0000 0.0000 34.1709 0.0000 0.0000
# 5 0.0000 0.0000 0.0000 0.0000 25.9716 0.0000
# 6 0.0000 0.0000 0.0000 0.0000 0.0000 34.0396
#
#
#
# Elastic Compliance Matrix: (Units=1/GPa)
#
#
# Indices 1 2 3 4 5 6 
#
# 1 0.006749 -0.002343 -0.002726 0.000000 0.000000 0.000000
# 2 -0.002343 0.014183 -0.008047 0.000000 0.000000 0.000000
# 3 -0.002726 -0.008047 0.017812 0.000000 0.000000 0.000000
# 4 0.000000 0.000000 0.000000 0.029265 0.000000 0.000000
# 5 0.000000 0.000000 0.000000 0.000000 0.038504 0.000000
# 6 0.000000 0.000000 0.000000 0.000000 0.000000 0.029378
#
#
# Mechanical properties :
#
#
# Convention : Reuss Voigt Hill
#
# Bulk Modulus (GPa) = 79.92346 87.16464 83.54405
# Shear Modulus (GPa) = 30.06739 33.32083 31.69411
#
# Velocity S-wave (km/s) = 4.07398 4.28873 4.18274
# Velocity P-wave (km/s) = 8.13928 8.52288 8.33329
#
# Compressibility (1/GPa) = 0.01251197
#
# Stress axis : x y z
#
# Youngs Moduli (GPa) = 148.17557 70.50586 56.14082
#
# Poissons Ratio (x) = 0.16519 0.15303
# Poissons Ratio (y) = 0.34717 0.45178
# Poissons Ratio (z) = 0.40391 0.56738
#
# Static dielectric constant tensor:
#      x y z
#    x 1.596260 0.000000 0.000000 
#    y 0.000000 1.614990 0.000000 
#    z 0.000000 0.000000 1.610730 
# 
# From -- ./inp_files/6281.got.cif
#   From: 2010.05.17/outbox.cif.g08.bks.cpg/sg51_4_cif.got.tgz:6281.got - 2010.06.03 11:52:47.
