data_PCOD9401628
_publ_section_title
;
Structure prediction by ZEFSAII (Michael W. Deem and Ramdas Pophale) SiO2 
 PCOD9401628
Probable space group: P M M A
;
_chemical_formula_sum "Si O2"
_cell_formula_units_Z 56
_cell_length_a 25.002363
_cell_length_b 7.865794
_cell_length_c 15.310424
_cell_angle_alpha 90.000000
_cell_angle_beta 90.000000
_cell_angle_gamma 90.000000
_cell_volume 3011.000604
_symmetry_space_group_name_H-M "P M M A"
_symmetry_group_IT_number 51
_symmetry_cell_setting 'orthorhombic'
loop_
_space_group_symop_operation_xyz
x,y,z
1/2-x,-y,z
1/2+x,-y,-z
-x,y,-z
-x,-y,-z
1/2+x,y,-z
1/2-x,y,z
x,-y,z
loop_
_atom_site_type_symbol
_atom_site_label
_atom_site_fract_x
_atom_site_fract_y
_atom_site_fract_z
Si Si1 0.250000 0.694539 0.996978
Si Si2 0.548977 0.705497 0.176663
Si Si3 0.538072 0.292721 0.373573
Si Si4 0.368042 0.706852 0.968692
Si Si5 0.750000 0.812357 0.813215
Si Si6 0.850791 0.304547 0.707696
Si Si7 0.578585 0.292270 0.555837
Si Si8 0.428620 0.198246 0.146388
O O1 0.250000 0.500000 0.964914
O O2 0.250000 0.692434 0.102699
O O3 0.306867 0.770093 0.968273
O O4 0.550338 0.500000 0.177882
O O5 0.552887 0.766098 0.276894
O O6 0.596288 0.763574 0.113192
O O7 0.490995 0.757445 0.140275
O O8 0.538432 0.500000 0.372623
O O9 0.575183 0.239382 0.454857
O O10 0.477607 0.241745 0.399209
O O11 0.366817 0.500000 0.969726
O O12 0.397482 0.761641 0.057395
O O13 0.697928 0.788087 0.754203
O O14 0.750000 0.000000 0.852031
O O15 0.834188 0.500000 0.695696
O O16 0.872675 0.233988 0.616102
O O17 0.900594 0.298284 0.774720
O O18 0.579630 0.500000 0.557765
O O19 0.422814 0.000000 0.166491
#
# Coordination Sequence:
#
# PCOD9401628 Si02
#       8
#     4   8   8   8   4   8   8   8
#     4  10  20  36  54  71  96 134 176 215 254 299
#     4  10  19  33  53  76 103 138 176 211 256 313
#     4   8  13  25  47  77 104 128 161 205 250 295
#     4  10  21  35  53  73  98 135 177 215 257 313
#     4  12  24  36  52  77 104 134 172 215 262 305
#     4  11  20  34  55  77 103 139 175 210 252 309
#     4   8  14  25  48  77 102 128 163 204 249 296
#     4  12  23  33  48  74 108 139 169 212 262 310
#
# _framework density 18.598469999999999
#
# number of rings (size 3 to 8) (size 9 to 14) (size 15 to 20)
#    0.000    2.000    2.857    3.643    0.000    2.286 
#    0.000    0.000    0.000    3.429    0.000    5.000 
#    0.000    1.143    0.000    0.000    0.000    0.000 
#
# Total GULP energy -312524.600501 kJ/mol
# GULP energy per Si atom -5580.796438 kJ/mol
# Density = 1.855614 g / cm^3
# Si number density = 18.598470 Si / 1000 Ang^3
#
#
#
# Elastic Constant Matrix: (Units=GPa)
#
#
# Indices 1 2 3 4 5 6 
#
# 1 130.6212 0.1658 59.1881 0.0000 0.0000 0.0000
# 2 0.1658 32.0367 -2.2278 0.0000 0.0000 0.0000
# 3 59.1881 -2.2278 97.6700 0.0000 0.0000 0.0000
# 4 0.0000 0.0000 0.0000 -12.5293 0.0000 0.0000
# 5 0.0000 0.0000 0.0000 0.0000 20.6891 0.0000
# 6 0.0000 0.0000 0.0000 0.0000 0.0000 42.0883
#
#
#
# Elastic Compliance Matrix: (Units=1/GPa)
#
#
# Indices 1 2 3 4 5 6 
#
# 1 0.010562 -0.000501 -0.006412 0.000000 0.000000 0.000000
# 2 -0.000501 0.031288 0.001017 0.000000 0.000000 0.000000
# 3 -0.006412 0.001017 0.014147 0.000000 0.000000 0.000000
# 4 0.000000 0.000000 0.000000 -0.079813 0.000000 0.000000
# 5 0.000000 0.000000 0.000000 0.000000 0.048335 0.000000
# 6 0.000000 0.000000 0.000000 0.000000 0.000000 0.023760
#
#
# Mechanical properties :
#
#
# Convention : Reuss Voigt Hill
#
# Bulk Modulus (GPa) = 22.62148 41.62001 32.12075
# Shear Modulus (GPa) = 66.84147 23.59640 45.21893
#
# Velocity S-wave (km/s) = 6.00144 3.56579 4.93620
# Velocity P-wave (km/s) = 7.75967 6.27534 7.05664
#
# Compressibility (1/GPa) = 0.04420577
#
# Stress axis : x y z
#
# Youngs Moduli (GPa) = 94.68136 31.96164 70.68471
#
# Poissons Ratio (x) = 0.01600 0.45322
# Poissons Ratio (y) = 0.04739 -0.07188
# Poissons Ratio (z) = 0.60708 -0.03250
#
# Static dielectric constant tensor:
#      x y z
#    x 1.630930 0.000000 0.000000 
#    y 0.000000 1.661700 0.000000 
#    z 0.000000 0.000000 1.641860 
# 
# From -- ./inp_files/25817.got.cif
#   From: 2010.05.17/outbox.cif.g08.bks.cpg/sg51_13_cif.got.tgz:25817.got - 2010.06.03 11:52:47.
