data_PCOD9401128
_publ_section_title
;
Structure prediction by ZEFSAII (Michael W. Deem and Ramdas Pophale) SiO2 
 PCOD9401128
Probable space group: P M M A
;
_chemical_formula_sum "Si O2"
_cell_formula_units_Z 48
_cell_length_a 14.369286
_cell_length_b 15.759008
_cell_length_c 11.217761
_cell_angle_alpha 90.000000
_cell_angle_beta 90.000000
_cell_angle_gamma 90.000000
_cell_volume 2540.213664
_symmetry_space_group_name_H-M "P M M A"
_symmetry_group_IT_number 51
_symmetry_cell_setting 'orthorhombic'
loop_
_space_group_symop_operation_xyz
x,y,z
1/2-x,-y,z
1/2+x,-y,-z
-x,y,-z
-x,-y,-z
1/2+x,y,-z
1/2-x,y,z
x,-y,z
loop_
_atom_site_type_symbol
_atom_site_label
_atom_site_fract_x
_atom_site_fract_y
_atom_site_fract_z
Si Si1 0.964946 0.401296 0.683683
Si Si2 0.857449 0.649158 0.188644
Si Si3 0.142347 0.253072 0.432827
Si Si4 0.646869 0.173885 0.301440
Si Si5 0.856092 0.398151 0.923795
Si Si6 0.534642 0.907176 0.637598
O O1 0.944806 0.500000 0.655442
O O2 0.921379 0.334811 0.591381
O O3 0.915825 0.375457 0.808901
O O4 0.073703 0.390867 0.714156
O O5 0.750000 0.620167 0.202113
O O6 0.858811 0.749931 0.208035
O O7 0.888977 0.628451 0.054690
O O8 0.250000 0.271739 0.405091
O O9 0.138412 0.221056 0.569697
O O10 0.102998 0.173234 0.357116
O O11 0.750000 0.134377 0.297851
O O12 0.559699 0.112210 0.290623
O O13 0.750000 0.366949 0.909431
O O14 0.854498 0.500000 0.925526
O O15 0.500000 0.910265 0.500000
O O16 0.574392 0.000000 0.666318
#
# Coordination Sequence:
#
# PCOD9401128 Si02
#       6
#     8   8   8   8   8   8
#     4  11  21  33  51  72  99 137 175 208 248 293
#     4  10  19  32  50  71  98 132 167 209 255 293
#     4  10  20  34  51  73 105 136 167 208 248 294
#     4   9  18  33  52  74 104 134 163 202 248 301
#     4   9  18  32  49  71  97 125 168 217 251 286
#     4   9  17  31  53  77 101 129 163 203 251 301
#
# _framework density 18.896049000000001
#
# number of rings (size 3 to 8) (size 9 to 14) (size 15 to 20)
#    0.000    2.333    1.667    1.500    0.000    4.000 
#    0.000    5.833    0.000    6.000    0.000    2.333 
#    0.000    4.000    0.000    0.000    0.000    0.000 
#
# Total GULP energy -267655.619066 kJ/mol
# GULP energy per Si atom -5576.158731 kJ/mol
# Density = 1.885304 g / cm^3
# Si number density = 18.896049 Si / 1000 Ang^3
#
#
#
# Elastic Constant Matrix: (Units=GPa)
#
#
# Indices 1 2 3 4 5 6 
#
# 1 82.7351 27.9032 18.0991 0.0000 0.0000 0.0000
# 2 27.9032 77.4832 4.5417 0.0000 0.0000 0.0000
# 3 18.0991 4.5417 26.6014 0.0000 0.0000 0.0000
# 4 0.0000 0.0000 0.0000-1245.6283 0.0000 0.0000
# 5 0.0000 0.0000 0.0000 0.0000 22.1152 0.0000
# 6 0.0000 0.0000 0.0000 0.0000 0.0000 14.9943
#
#
#
# Elastic Compliance Matrix: (Units=1/GPa)
#
#
# Indices 1 2 3 4 5 6 
#
# 1 0.016027 -0.005184 -0.010019 0.000000 0.000000 0.000000
# 2 -0.005184 0.014714 0.001015 0.000000 0.000000 0.000000
# 3 -0.010019 0.001015 0.044236 0.000000 0.000000 0.000000
# 4 0.000000 0.000000 0.000000 -0.000803 0.000000 0.000000
# 5 0.000000 0.000000 0.000000 0.000000 0.045218 0.000000
# 6 0.000000 0.000000 0.000000 0.000000 0.000000 0.066692
#
#
# Mechanical properties :
#
#
# Convention : Reuss Voigt Hill
#
# Bulk Modulus (GPa) = 21.45955 31.98973 26.72464
# Shear Modulus (GPa) = 21.73976 -232.61872 -105.43948
#
# Velocity S-wave (km/s) = 3.39557 -11.10728 -7.47803
# Velocity P-wave (km/s) = 5.17247 12.14617 7.77094
#
# Compressibility (1/GPa) = 0.04659929
#
# Stress axis : x y z
#
# Youngs Moduli (GPa) = 62.39444 67.96477 22.60622
#
# Poissons Ratio (x) = 0.35235 0.22650
# Poissons Ratio (y) = 0.32348 -0.02295
# Poissons Ratio (z) = 0.62515 -0.06900
#
# Static dielectric constant tensor:
#      x y z
#    x 1.715530 0.000000 0.000000 
#    y 0.000000 1.656100 0.000000 
#    z 0.000000 0.000000 1.684370 
# 
# From -- ./inp_files/16380.got.cif
#   From: 2010.05.17/outbox.cif.g08.bks.cpg/sg51_9_cif.got.tgz:16380.got - 2010.06.03 11:52:47.
