data_PCOD9401308
_publ_section_title
;
Structure prediction by ZEFSAII (Michael W. Deem and Ramdas Pophale) SiO2 
 PCOD9401308
Probable space group: P M M A
;
_chemical_formula_sum "Si O2"
_cell_formula_units_Z 48
_cell_length_a 15.666191
_cell_length_b 18.571116
_cell_length_c 8.558013
_cell_angle_alpha 90.000000
_cell_angle_beta 90.000000
_cell_angle_gamma 90.000000
_cell_volume 2489.856752
_symmetry_space_group_name_H-M "P M M A"
_symmetry_group_IT_number 51
_symmetry_cell_setting 'orthorhombic'
loop_
_space_group_symop_operation_xyz
x,y,z
1/2-x,-y,z
1/2+x,-y,-z
-x,y,-z
-x,-y,-z
1/2+x,y,-z
1/2-x,y,z
x,-y,z
loop_
_atom_site_type_symbol
_atom_site_label
_atom_site_fract_x
_atom_site_fract_y
_atom_site_fract_z
Si Si1 0.151382 0.196846 0.857545
Si Si2 0.588809 0.698302 0.593396
Si Si3 0.155328 0.353336 0.718408
Si Si4 0.512159 0.418523 0.818003
Si Si5 0.847619 0.837418 0.772553
Si Si6 0.487118 0.919718 0.811609
O O1 0.250000 0.182383 0.811147
O O2 0.132179 0.278854 0.808792
O O3 0.084252 0.141232 0.782495
O O4 0.146084 0.186580 0.044798
O O5 0.500000 0.712980 0.500000
O O6 0.651052 0.666317 0.463436
O O7 0.567952 0.639868 0.726659
O O8 0.627865 0.769199 0.668321
O O9 0.250000 0.375079 0.766888
O O10 0.082739 0.411207 0.748411
O O11 0.544536 0.500000 0.800673
O O12 0.500000 0.401776 0.000000
O O13 0.750000 0.860719 0.745149
O O14 0.921025 0.896361 0.745803
O O15 0.461840 0.000000 0.761394
O O16 0.500000 0.921500 0.000000
#
# Coordination Sequence:
#
# PCOD9401308 Si02
#       6
#     8   8   8   8   8   8
#     4   9  18  32  52  77 104 139 180 219 260 307
#     4  10  20  33  54  78 102 135 173 214 262 313
#     4  10  20  34  54  79 106 135 171 217 263 309
#     4  10  21  37  56  77 104 139 175 211 256 311
#     4  10  19  32  52  76 103 137 178 221 262 310
#     4   9  17  29  47  74 106 136 170 217 268 312
#
# _framework density 19.278216
#
# number of rings (size 3 to 8) (size 9 to 14) (size 15 to 20)
#    0.000    2.333    0.000    3.500    0.000    5.333 
#    0.000    4.167    0.000    8.000    0.000    4.667 
#    0.000    0.000    0.000    0.000    0.000    0.000 
#
# Total GULP energy -267804.837035 kJ/mol
# GULP energy per Si atom -5579.267438 kJ/mol
# Density = 1.923434 g / cm^3
# Si number density = 19.278216 Si / 1000 Ang^3
#
#
#
# Elastic Constant Matrix: (Units=GPa)
#
#
# Indices 1 2 3 4 5 6 
#
# 1 68.7253 10.3022 5.6577 0.0000 0.0000 0.0000
# 2 10.3022 35.1835 12.3694 0.0000 0.0000 0.0000
# 3 5.6577 12.3694 28.4607 0.0000 0.0000 0.0000
# 4 0.0000 0.0000 0.0000 -6.3354 0.0000 0.0000
# 5 0.0000 0.0000 0.0000 0.0000 13.0055 0.0000
# 6 0.0000 0.0000 0.0000 0.0000 0.0000 0.9308
#
#
#
# Elastic Compliance Matrix: (Units=1/GPa)
#
#
# Indices 1 2 3 4 5 6 
#
# 1 0.015259 -0.004015 -0.001288 0.000000 0.000000 0.000000
# 2 -0.004015 0.034605 -0.014242 0.000000 0.000000 0.000000
# 3 -0.001288 -0.014242 0.041582 0.000000 0.000000 0.000000
# 4 0.000000 0.000000 0.000000 -0.157844 0.000000 0.000000
# 5 0.000000 0.000000 0.000000 0.000000 0.076891 0.000000
# 6 0.000000 0.000000 0.000000 0.000000 0.000000 1.074396
#
#
# Mechanical properties :
#
#
# Convention : Reuss Voigt Hill
#
# Bulk Modulus (GPa) = 19.10015 21.00311 20.05163
# Shear Modulus (GPa) = 4.38047 8.45619 6.41833
#
# Velocity S-wave (km/s) = 1.50903 2.09664 1.82662
# Velocity P-wave (km/s) = 3.60075 4.09629 3.85649
#
# Compressibility (1/GPa) = 0.05235561
#
# Stress axis : x y z
#
# Youngs Moduli (GPa) = 65.53679 28.89758 24.04889
#
# Poissons Ratio (x) = 0.11602 0.03098
# Poissons Ratio (y) = 0.26313 0.34250
# Poissons Ratio (z) = 0.08443 0.41155
#
# Static dielectric constant tensor:
#      x y z
#    x 1.716010 0.000000 0.000000 
#    y 0.000000 1.649350 0.000000 
#    z 0.000000 0.000000 1.685960 
# 
# From -- ./inp_files/8211.got.cif
#   From: 2010.05.17/outbox.cif.g08.bks.cpg/sg51_5_cif.got.tgz:8211.got - 2010.06.03 11:52:47.
