data_PCOD9401844
_publ_section_title
;
Structure prediction by ZEFSAII (Michael W. Deem and Ramdas Pophale) SiO2 
 PCOD9401844
Probable space group: P M M A
;
_chemical_formula_sum "Si O2"
_cell_formula_units_Z 64
_cell_length_a 8.709432
_cell_length_b 21.022855
_cell_length_c 20.070056
_cell_angle_alpha 90.000000
_cell_angle_beta 90.000000
_cell_angle_gamma 90.000000
_cell_volume 3674.769574
_symmetry_space_group_name_H-M "P M M A"
_symmetry_group_IT_number 51
_symmetry_cell_setting 'orthorhombic'
loop_
_space_group_symop_operation_xyz
x,y,z
1/2-x,-y,z
1/2+x,-y,-z
-x,y,-z
-x,-y,-z
1/2+x,y,-z
1/2-x,y,z
x,-y,z
loop_
_atom_site_type_symbol
_atom_site_label
_atom_site_fract_x
_atom_site_fract_y
_atom_site_fract_z
Si Si1 0.566058 0.618153 0.930019
Si Si2 0.433957 0.232519 0.070884
Si Si3 0.066097 0.813050 0.792110
Si Si4 0.935485 0.571817 0.785793
Si Si5 0.566948 0.071622 0.707052
Si Si6 0.433421 0.738978 0.430012
Si Si7 0.433616 0.881868 0.570445
Si Si8 0.933707 0.689040 0.296012
O O1 0.750000 0.615131 0.934221
O O2 0.521860 0.692650 0.922289
O O3 0.518110 0.582483 0.862979
O O4 0.500000 0.594398 0.000000
O O5 0.250000 0.228835 0.070613
O O6 0.500554 0.195697 0.133964
O O7 0.500000 0.210473 0.000000
O O8 0.250000 0.816542 0.794054
O O9 0.023499 0.750129 0.749460
O O10 0.000450 0.874537 0.754971
O O11 0.750000 0.579437 0.782811
O O12 0.973504 0.500000 0.765289
O O13 0.012302 0.625641 0.741104
O O14 0.750000 0.080140 0.701496
O O15 0.493661 0.080379 0.634116
O O16 0.535827 0.000000 0.731189
O O17 0.500000 0.714226 0.500000
O O18 0.750000 0.744271 0.566578
O O19 0.505334 0.809507 0.421317
O O20 0.485833 0.697995 0.367100
O O21 0.500000 0.905602 0.500000
O O22 0.250000 0.881455 0.568370
O O23 0.750000 0.689518 0.304319
#
# Coordination Sequence:
#
# PCOD9401844 Si02
#       8
#     8   8   8   8   8   8   8   8
#     4   9  18  31  49  75 108 146 186 228 273 327
#     4  10  19  33  55  82 114 146 185 233 285 334
#     4  11  22  36  58  85 113 147 189 235 283 335
#     4  10  21  37  55  78 111 152 194 234 282 337
#     4  11  24  40  58  82 113 151 192 233 282 338
#     4  11  21  35  58  85 116 147 184 231 281 333
#     4  11  21  35  55  81 114 152 191 231 277 330
#     4  11  22  36  57  85 114 146 189 235 282 334
#
# _framework density 17.416059000000001
#
# number of rings (size 3 to 8) (size 9 to 14) (size 15 to 20)
#    0.000    1.500    2.500    4.500    0.000    3.750 
#    0.000    0.000    0.000    0.750    0.000    0.000 
#    0.000    0.000    0.000    0.000    0.000    0.000 
#
# Total GULP energy -357593.855124 kJ/mol
# GULP energy per Si atom -5587.403986 kJ/mol
# Density = 1.737642 g / cm^3
# Si number density = 17.416059 Si / 1000 Ang^3
#
#
#
# Elastic Constant Matrix: (Units=GPa)
#
#
# Indices 1 2 3 4 5 6 
#
# 1 81.1407 50.0917 53.6618 0.0000 0.0000 0.0000
# 2 50.0917 98.2348 63.1681 0.0000 0.0000 0.0000
# 3 53.6618 63.1681 133.4433 0.0000 0.0000 0.0000
# 4 0.0000 0.0000 0.0000 22.5141 0.0000 0.0000
# 5 0.0000 0.0000 0.0000 0.0000 34.4156 0.0000
# 6 0.0000 0.0000 0.0000 0.0000 0.0000 14.0873
#
#
#
# Elastic Compliance Matrix: (Units=1/GPa)
#
#
# Indices 1 2 3 4 5 6 
#
# 1 0.019747 -0.007135 -0.004563 0.000000 0.000000 0.000000
# 2 -0.007135 0.017212 -0.005279 0.000000 0.000000 0.000000
# 3 -0.004563 -0.005279 0.011828 0.000000 0.000000 0.000000
# 4 0.000000 0.000000 0.000000 0.044417 0.000000 0.000000
# 5 0.000000 0.000000 0.000000 0.000000 0.029057 0.000000
# 6 0.000000 0.000000 0.000000 0.000000 0.000000 0.070986
#
#
# Mechanical properties :
#
#
# Convention : Reuss Voigt Hill
#
# Bulk Modulus (GPa) = 67.41732 71.85133 69.63432
# Shear Modulus (GPa) = 21.53834 23.92988 22.73411
#
# Velocity S-wave (km/s) = 3.52048 3.71079 3.61689
# Velocity P-wave (km/s) = 7.43767 7.72692 7.58367
#
# Compressibility (1/GPa) = 0.01483298
#
# Stress axis : x y z
#
# Youngs Moduli (GPa) = 50.64077 58.09838 84.54771
#
# Poissons Ratio (x) = 0.41453 0.38583
# Poissons Ratio (y) = 0.36132 0.44629
# Poissons Ratio (z) = 0.23110 0.30668
#
# Static dielectric constant tensor:
#      x y z
#    x 1.583160 0.000000 0.000000 
#    y 0.000000 1.583020 0.000000 
#    z 0.000000 0.000000 1.583230 
# 
# From -- ./inp_files/28344.got.cif
#   From: 2010.05.17/outbox.cif.g08.bks.cpg/sg51_15_cif.got.tgz:28344.got - 2010.06.03 11:52:47.
