data_PCOD9401131
_publ_section_title
;
Structure prediction by ZEFSAII (Michael W. Deem and Ramdas Pophale) SiO2 
 PCOD9401131
Probable space group: P M M A
;
_chemical_formula_sum "Si O2"
_cell_formula_units_Z 44
_cell_length_a 8.583529
_cell_length_b 15.822819
_cell_length_c 18.066002
_cell_angle_alpha 90.000000
_cell_angle_beta 90.000000
_cell_angle_gamma 90.000000
_cell_volume 2453.645366
_symmetry_space_group_name_H-M "P M M A"
_symmetry_group_IT_number 51
_symmetry_cell_setting 'orthorhombic'
loop_
_space_group_symop_operation_xyz
x,y,z
1/2-x,-y,z
1/2+x,-y,-z
-x,y,-z
-x,-y,-z
1/2+x,y,-z
1/2-x,y,z
x,-y,z
loop_
_atom_site_type_symbol
_atom_site_label
_atom_site_fract_x
_atom_site_fract_y
_atom_site_fract_z
Si Si1 0.436533 0.843416 0.078156
Si Si2 0.563015 0.595651 0.416623
Si Si3 0.063982 0.325520 0.858001
Si Si4 0.939467 0.093309 0.759171
Si Si5 0.437486 0.730031 0.300461
Si Si6 0.936030 0.500000 0.917488
O O1 0.250000 0.845334 0.075742
O O2 0.495032 0.747486 0.089420
O O3 0.486450 0.888589 0.155128
O O4 0.500000 0.877189 0.000000
O O5 0.500000 0.604161 0.500000
O O6 0.750000 0.599309 0.417100
O O7 0.518015 0.500000 0.390502
O O8 0.499136 0.671152 0.366041
O O9 0.250000 0.322364 0.860948
O O10 0.002874 0.306853 0.775955
O O11 0.001518 0.416323 0.880046
O O12 0.750000 0.093367 0.759703
O O13 0.985992 0.170926 0.705951
O O14 0.993093 0.000000 0.736979
O O15 0.250000 0.727000 0.300459
O O16 0.750000 0.500000 0.916334
O O17 0.000000 0.500000 0.000000
#
# Coordination Sequence:
#
# PCOD9401131 Si02
#       6
#     8   8   8   8   8   4
#     4  10  19  32  50  72 100 135 176 224 279 330
#     4  10  21  37  58  85 117 149 181 217 261 315
#     4  11  22  36  52  72 100 136 179 223 268 320
#     4   8  16  32  53  77 105 139 181 226 274 326
#     4  10  20  35  57  83 111 144 179 220 268 319
#     4  12  24  38  52  70  97 132 177 226 274 322
#
# _framework density 17.932500999999998
#
# number of rings (size 3 to 8) (size 9 to 14) (size 15 to 20)
#    0.000    2.000    0.000    5.727    1.273    1.455 
#    0.000    0.000    0.000   19.636    0.000    0.000 
#    0.000    0.000    0.000    0.000    0.000    0.000 
#
# Total GULP energy -245509.327392 kJ/mol
# GULP energy per Si atom -5579.757441 kJ/mol
# Density = 1.789169 g / cm^3
# Si number density = 17.932501 Si / 1000 Ang^3
#
#
#
# Elastic Constant Matrix: (Units=GPa)
#
#
# Indices 1 2 3 4 5 6 
#
# 1 73.0327 31.9268 26.6348 0.0000 0.0000 0.0000
# 2 31.9268 154.8616 56.7132 0.0000 0.0000 0.0000
# 3 26.6348 56.7132 74.0872 0.0000 0.0000 0.0000
# 4 0.0000 0.0000 0.0000 20.2125 0.0000 0.0000
# 5 0.0000 0.0000 0.0000 0.0000 33.4085 0.0000
# 6 0.0000 0.0000 0.0000 0.0000 0.0000 10.2363
#
#
#
# Elastic Compliance Matrix: (Units=1/GPa)
#
#
# Indices 1 2 3 4 5 6 
#
# 1 0.016061 -0.001663 -0.004501 0.000000 0.000000 0.000000
# 2 -0.001663 0.009145 -0.006403 0.000000 0.000000 0.000000
# 3 -0.004501 -0.006403 0.020017 0.000000 0.000000 0.000000
# 4 0.000000 0.000000 0.000000 0.049474 0.000000 0.000000
# 5 0.000000 0.000000 0.000000 0.000000 0.029932 0.000000
# 6 0.000000 0.000000 0.000000 0.000000 0.000000 0.097691
#
#
# Mechanical properties :
#
#
# Convention : Reuss Voigt Hill
#
# Bulk Modulus (GPa) = 49.77664 59.17012 54.47338
# Shear Modulus (GPa) = 19.67337 25.21859 22.44598
#
# Velocity S-wave (km/s) = 3.31581 3.75414 3.54177
# Velocity P-wave (km/s) = 6.51748 7.20133 6.86792
#
# Compressibility (1/GPa) = 0.02008974
#
# Stress axis : x y z
#
# Youngs Moduli (GPa) = 62.26283 109.35024 49.95764
#
# Poissons Ratio (x) = 0.18182 0.22487
# Poissons Ratio (y) = 0.10353 0.31986
# Poissons Ratio (z) = 0.28026 0.70013
#
# Static dielectric constant tensor:
#      x y z
#    x 1.599440 0.000000 0.000000 
#    y 0.000000 1.630360 0.000000 
#    z 0.000000 0.000000 1.581990 
# 
# From -- ./inp_files/27349.got.cif
#   From: 2010.05.17/outbox.cif.g08.bks.cpg/sg51_14_cif.got.tgz:27349.got - 2010.06.03 11:52:47.
