data_PCOD9401360
_publ_section_title
;
Structure prediction by ZEFSAII (Michael W. Deem and Ramdas Pophale) SiO2 
 PCOD9401360
Probable space group: P M M A
;
_chemical_formula_sum "Si O2"
_cell_formula_units_Z 44
_cell_length_a 9.557104
_cell_length_b 8.061217
_cell_length_c 30.708398
_cell_angle_alpha 90.000000
_cell_angle_beta 90.000000
_cell_angle_gamma 90.000000
_cell_volume 2365.832997
_symmetry_space_group_name_H-M "P M M A"
_symmetry_group_IT_number 51
_symmetry_cell_setting 'orthorhombic'
loop_
_space_group_symop_operation_xyz
x,y,z
1/2-x,-y,z
1/2+x,-y,-z
-x,y,-z
-x,-y,-z
1/2+x,y,-z
1/2-x,y,z
x,-y,z
loop_
_atom_site_type_symbol
_atom_site_label
_atom_site_fract_x
_atom_site_fract_y
_atom_site_fract_z
Si Si1 0.420037 0.816734 0.896321
Si Si2 0.588888 0.304648 0.196521
Si Si3 0.588886 0.799564 0.623271
Si Si4 0.420067 0.500000 0.954450
Si Si5 0.413499 0.199900 0.279017
Si Si6 0.090899 0.699567 0.540782
O O1 0.250000 0.813253 0.894854
O O2 0.466649 0.786892 0.846520
O O3 0.460195 0.664170 0.927017
O O4 0.463693 0.000000 0.911360
O O5 0.750000 0.252463 0.203740
O O6 0.588956 0.500000 0.186230
O O7 0.502649 0.272760 0.239967
O O8 0.750000 0.744993 0.615580
O O9 0.545749 0.745999 0.672045
O O10 0.487447 0.740477 0.585493
O O11 0.589900 0.000000 0.623302
O O12 0.250000 0.500000 0.959855
O O13 0.500000 0.500000 0.000000
O O14 0.250000 0.241613 0.273591
O O15 0.425770 0.000000 0.277382
O O16 0.250000 0.763128 0.539929
O O17 0.097129 0.500000 0.537039
O O18 0.000000 0.762966 0.500000
#
# Coordination Sequence:
#
# PCOD9401360 Si02
#       6
#     8   8   8   4   8   8
#     4   9  17  32  55  79 106 143 182 223 273 324
#     4  10  19  32  52  79 107 136 178 225 263 312
#     4   9  19  36  55  74 100 135 173 212 256 310
#     4  10  20  36  56  80 110 142 182 228 273 326
#     4   9  19  35  52  73 104 140 175 212 260 317
#     4  10  21  36  54  76 101 130 167 211 260 314
#
# _framework density 18.598102000000001
#
# number of rings (size 3 to 8) (size 9 to 14) (size 15 to 20)
#    0.000    2.545    0.909    2.182    0.000    5.091 
#    0.000    6.364    0.000    1.091    0.000    0.000 
#    0.000    0.000    0.000    0.000    0.000    0.000 
#
# Total GULP energy -245442.550094 kJ/mol
# GULP energy per Si atom -5578.239775 kJ/mol
# Density = 1.855577 g / cm^3
# Si number density = 18.598102 Si / 1000 Ang^3
#
#
#
# Elastic Constant Matrix: (Units=GPa)
#
#
# Indices 1 2 3 4 5 6 
#
# 1 59.9592 29.5282 66.0396 0.0000 0.0000 0.0000
# 2 29.5282 67.5716 51.5881 0.0000 0.0000 0.0000
# 3 66.0396 51.5881 155.3501 0.0000 0.0000 0.0000
# 4 0.0000 0.0000 0.0000 73.8428 0.0000 0.0000
# 5 0.0000 0.0000 0.0000 0.0000 36.2637 0.0000
# 6 0.0000 0.0000 0.0000 0.0000 0.0000 19.9360
#
#
#
# Elastic Compliance Matrix: (Units=1/GPa)
#
#
# Indices 1 2 3 4 5 6 
#
# 1 0.032530 -0.004900 -0.012201 0.000000 0.000000 0.000000
# 2 -0.004900 0.020564 -0.004746 0.000000 0.000000 0.000000
# 3 -0.012201 -0.004746 0.013200 0.000000 0.000000 0.000000
# 4 0.000000 0.000000 0.000000 0.013542 0.000000 0.000000
# 5 0.000000 0.000000 0.000000 0.000000 0.027576 0.000000
# 6 0.000000 0.000000 0.000000 0.000000 0.000000 0.050161
#
#
# Mechanical properties :
#
#
# Convention : Reuss Voigt Hill
#
# Bulk Modulus (GPa) = 44.24956 64.13251 54.19103
# Shear Modulus (GPa) = 23.94652 35.05683 29.50168
#
# Velocity S-wave (km/s) = 3.59218 4.34633 3.98713
# Velocity P-wave (km/s) = 6.40696 7.72953 7.09911
#
# Compressibility (1/GPa) = 0.02259910
#
# Stress axis : x y z
#
# Youngs Moduli (GPa) = 30.74109 48.62984 75.75906
#
# Poissons Ratio (x) = 0.23829 0.92435
# Poissons Ratio (y) = 0.15063 0.35952
# Poissons Ratio (z) = 0.37508 0.23078
#
# Static dielectric constant tensor:
#      x y z
#    x 1.622940 0.000000 0.000000 
#    y 0.000000 1.670780 0.000000 
#    z 0.000000 0.000000 1.621460 
# 
# From -- ./inp_files/36784.got.cif
#   From: 2010.05.17/outbox.cif.g08.bks.cpg/sg51_19_cif.got.tgz:36784.got - 2010.06.03 11:52:47.
