data_PCOD9401032
_publ_section_title
;
Structure prediction by ZEFSAII (Michael W. Deem and Ramdas Pophale) SiO2 
 PCOD9401032
Probable space group: P M M A
;
_chemical_formula_sum "Si O2"
_cell_formula_units_Z 56
_cell_length_a 9.278396
_cell_length_b 15.245748
_cell_length_c 20.537952
_cell_angle_alpha 90.000000
_cell_angle_beta 90.000000
_cell_angle_gamma 90.000000
_cell_volume 2905.218330
_symmetry_space_group_name_H-M "P M M A"
_symmetry_group_IT_number 51
_symmetry_cell_setting 'orthorhombic'
loop_
_space_group_symop_operation_xyz
x,y,z
1/2-x,-y,z
1/2+x,-y,-z
-x,y,-z
-x,-y,-z
1/2+x,y,-z
1/2-x,y,z
x,-y,z
loop_
_atom_site_type_symbol
_atom_site_label
_atom_site_fract_x
_atom_site_fract_y
_atom_site_fract_z
Si Si1 0.578570 0.000000 0.068873
Si Si2 0.418415 0.797122 0.436027
Si Si3 0.920283 0.329276 0.846324
Si Si4 0.577338 0.104668 0.697250
Si Si5 0.077857 0.843846 0.832399
Si Si6 0.422013 0.500000 0.068547
Si Si7 0.414852 0.402158 0.399373
Si Si8 0.088446 0.601638 0.729985
O O1 0.543353 0.081982 0.114887
O O2 0.750000 0.000000 0.057092
O O3 0.500000 0.000000 0.000000
O O4 0.500000 0.830071 0.500000
O O5 0.250000 0.819071 0.441811
O O6 0.466990 0.839536 0.367041
O O7 0.429620 0.690634 0.435278
O O8 0.750000 0.312995 0.850164
O O9 0.957441 0.412941 0.890480
O O10 0.013800 0.244906 0.862030
O O11 0.969451 0.351767 0.773244
O O12 0.750000 0.117819 0.706307
O O13 0.495797 0.135193 0.762679
O O14 0.552938 0.000000 0.687454
O O15 0.250000 0.839687 0.823698
O O16 0.250000 0.500000 0.059080
O O17 0.500000 0.500000 0.000000
O O18 0.250000 0.400678 0.372491
O O19 0.428084 0.500000 0.430821
O O20 0.534260 0.397950 0.343536
O O21 0.250000 0.638399 0.737418
O O22 0.092770 0.500000 0.750574
#
# Coordination Sequence:
#
# PCOD9401032 Si02
#       8
#     4   8   8   8   8   4   8   8
#     4  10  24  44  66  94 131 164 199 246 305 370
#     4  10  22  38  55  81 116 154 202 254 307 368
#     4  11  22  38  59  86 118 159 204 245 295 358
#     4  10  21  39  64  91 120 158 203 251 308 379
#     4  11  23  41  65  97 128 159 203 258 311 362
#     4  10  24  42  60  82 118 164 209 250 295 352
#     4   9  18  33  53  77 111 155 197 243 298 360
#     4  10  19  31  52  84 116 148 191 245 300 349
#
# _framework density 19.275659999999998
#
# number of rings (size 3 to 8) (size 9 to 14) (size 15 to 20)
#    0.000    1.857    1.429    2.143    0.000    6.286 
#    0.000    2.857    0.000    0.000    0.000    0.000 
#    0.000    0.000    0.000    0.000    0.000    0.000 
#
# Total GULP energy -312349.419544 kJ/mol
# GULP energy per Si atom -5577.668206 kJ/mol
# Density = 1.923179 g / cm^3
# Si number density = 19.275660 Si / 1000 Ang^3
#
#
#
# Elastic Constant Matrix: (Units=GPa)
#
#
# Indices 1 2 3 4 5 6 
#
# 1 55.5036 53.5059 67.1276 0.0000 0.0000 0.0000
# 2 53.5059 121.6310 55.9056 0.0000 0.0000 0.0000
# 3 67.1276 55.9056 127.4792 0.0000 0.0000 0.0000
# 4 0.0000 0.0000 0.0000 -1.4783 0.0000 0.0000
# 5 0.0000 0.0000 0.0000 0.0000 37.0460 0.0000
# 6 0.0000 0.0000 0.0000 0.0000 0.0000 19.0432
#
#
#
# Elastic Compliance Matrix: (Units=1/GPa)
#
#
# Indices 1 2 3 4 5 6 
#
# 1 0.070466 -0.017463 -0.029447 0.000000 0.000000 0.000000
# 2 -0.017463 0.014625 0.002782 0.000000 0.000000 0.000000
# 3 -0.029447 0.002782 0.022131 0.000000 0.000000 0.000000
# 4 0.000000 0.000000 0.000000 -0.676475 0.000000 0.000000
# 5 0.000000 0.000000 0.000000 0.000000 0.026993 0.000000
# 6 0.000000 0.000000 0.000000 0.000000 0.000000 0.052512
#
#
# Mechanical properties :
#
#
# Convention : Reuss Voigt Hill
#
# Bulk Modulus (GPa) = 52.73004 73.07689 62.90346
# Shear Modulus (GPa) = -12.65282 19.46050 3.40384
#
# Velocity S-wave (km/s) = -2.56484 3.18085 1.33030
# Velocity P-wave (km/s) = 4.31787 7.17525 5.92149
#
# Compressibility (1/GPa) = 0.01896452
#
# Stress axis : x y z
#
# Youngs Moduli (GPa) = 14.19118 68.37567 45.18608
#
# Poissons Ratio (x) = 1.19407 1.33061
# Poissons Ratio (y) = 0.24783 -0.12571
# Poissons Ratio (z) = 0.41789 -0.19022
#
# Static dielectric constant tensor:
#      x y z
#    x 1.649480 0.000000 0.000000 
#    y 0.000000 1.746880 0.000000 
#    z 0.000000 0.000000 1.654760 
# 
# From -- ./inp_files/32081.got.cif
#   From: 2010.05.17/outbox.cif.g08.bks.cpg/sg51_17_cif.got.tgz:32081.got - 2010.06.03 11:52:47.
