data_PCOD9401000
_publ_section_title
;
Structure prediction by ZEFSAII (Michael W. Deem and Ramdas Pophale) SiO2 
 PCOD9401000
Probable space group: P M M A
;
_chemical_formula_sum "Si O2"
_cell_formula_units_Z 48
_cell_length_a 15.311316
_cell_length_b 7.509617
_cell_length_c 18.536543
_cell_angle_alpha 90.000000
_cell_angle_beta 90.000000
_cell_angle_gamma 90.000000
_cell_volume 2131.370992
_symmetry_space_group_name_H-M "P M M A"
_symmetry_group_IT_number 51
_symmetry_cell_setting 'orthorhombic'
loop_
_space_group_symop_operation_xyz
x,y,z
1/2-x,-y,z
1/2+x,-y,-z
-x,y,-z
-x,-y,-z
1/2+x,y,-z
1/2-x,y,z
x,-y,z
loop_
_atom_site_type_symbol
_atom_site_label
_atom_site_fract_x
_atom_site_fract_y
_atom_site_fract_z
Si Si1 0.405669 0.709413 0.011208
Si Si2 0.250000 0.719181 0.910824
Si Si3 0.444074 0.782617 0.429696
Si Si4 0.250000 0.710473 0.745920
Si Si5 0.918568 0.215474 0.824108
Si Si6 0.750000 0.795971 0.572443
Si Si7 0.446470 0.787395 0.710652
Si Si8 0.750000 0.795006 0.743992
O O1 0.410618 0.500000 0.993442
O O2 0.391809 0.724578 0.096376
O O3 0.500000 0.792889 0.000000
O O4 0.333007 0.780663 0.957424
O O5 0.250000 0.500000 0.910231
O O6 0.250000 0.781915 0.828325
O O7 0.500000 0.741686 0.500000
O O8 0.345187 0.716490 0.443297
O O9 0.495938 0.722033 0.357691
O O10 0.436907 0.000000 0.423181
O O11 0.250000 0.500000 0.751865
O O12 0.342535 0.755868 0.708641
O O13 0.840075 0.279779 0.773049
O O14 0.008645 0.276675 0.785830
O O15 0.922670 0.000000 0.826368
O O16 0.750000 0.800433 0.658930
O O17 0.750000 0.000000 0.543446
O O18 0.456905 0.000000 0.709767
O O19 0.750000 0.000000 0.769962
#
# Coordination Sequence:
#
# PCOD9401000 Si02
#       8
#     8   4   8   4   8   4   8   4
#     4  10  20  34  51  70  97 134 174 221 271 317
#     4   9  19  36  53  71  98 135 180 224 270 324
#     4   9  17  29  50  82 117 150 181 217 263 314
#     4  11  23  39  59  77 100 143 190 226 269 331
#     4  10  19  31  51  78 106 138 174 217 270 324
#     4   9  14  26  46  71 107 146 175 204 252 311
#     4  10  20  35  54  80 112 141 178 229 276 316
#     4   9  15  27  47  71 101 136 167 202 257 316
#
# _framework density 22.520714999999999
#
# number of rings (size 3 to 8) (size 9 to 14) (size 15 to 20)
#    0.000    2.333    1.667    1.750    0.000    3.000 
#    0.000    4.167    0.000    0.500    0.000    0.583 
#    0.000    0.000    0.000    0.000    0.000    0.000 
#
# Total GULP energy -267719.798378 kJ/mol
# GULP energy per Si atom -5577.495800 kJ/mol
# Density = 2.246946 g / cm^3
# Si number density = 22.520715 Si / 1000 Ang^3
#
#
#
# Elastic Constant Matrix: (Units=GPa)
#
#
# Indices 1 2 3 4 5 6 
#
# 1 195.4397 3.9710 53.2265 0.0000 0.0000 0.0000
# 2 3.9710 56.7723 -1.6641 0.0000 0.0000 0.0000
# 3 53.2265 -1.6641 76.6053 0.0000 0.0000 0.0000
# 4 0.0000 0.0000 0.0000 8.0095 0.0000 0.0000
# 5 0.0000 0.0000 0.0000 0.0000 33.5944 0.0000
# 6 0.0000 0.0000 0.0000 0.0000 0.0000 -67.8466
#
#
#
# Elastic Compliance Matrix: (Units=1/GPa)
#
#
# Indices 1 2 3 4 5 6 
#
# 1 0.006329 -0.000572 -0.004410 0.000000 0.000000 0.000000
# 2 -0.000572 0.017677 0.000781 0.000000 0.000000 0.000000
# 3 -0.004410 0.000781 0.016135 0.000000 0.000000 0.000000
# 4 0.000000 0.000000 0.000000 0.124852 0.000000 0.000000
# 5 0.000000 0.000000 0.000000 0.000000 0.029767 0.000000
# 6 0.000000 0.000000 0.000000 0.000000 0.000000 -0.014739
#
#
# Mechanical properties :
#
#
# Convention : Reuss Voigt Hill
#
# Bulk Modulus (GPa) = 31.50575 48.87602 40.19088
# Shear Modulus (GPa) = 25.12529 12.97039 19.04784
#
# Velocity S-wave (km/s) = 3.34376 2.40246 2.91141
# Velocity P-wave (km/s) = 5.37845 5.42638 5.40247
#
# Compressibility (1/GPa) = 0.03174024
#
# Stress axis : x y z
#
# Youngs Moduli (GPa) = 157.99377 56.57019 61.97648
#
# Poissons Ratio (x) = 0.03236 0.27333
# Poissons Ratio (y) = 0.09037 -0.04843
# Poissons Ratio (z) = 0.69678 -0.04421
#
# Static dielectric constant tensor:
#      x y z
#    x 1.870780 0.000000 0.000000 
#    y 0.000000 1.866040 0.000000 
#    z 0.000000 0.000000 1.882080 
# 
# From -- ./inp_files/29714.got.cif
#   From: 2010.05.17/outbox.cif.g08.bks.cpg/sg51_15_cif.got.tgz:29714.got - 2010.06.03 11:52:47.
