data_PCOD9401880
_publ_section_title
;
Structure prediction by ZEFSAII (Michael W. Deem and Ramdas Pophale) SiO2 
 PCOD9401880
Probable space group: P M M A
;
_chemical_formula_sum "Si O2"
_cell_formula_units_Z 64
_cell_length_a 17.607202
_cell_length_b 15.015300
_cell_length_c 12.693048
_cell_angle_alpha 90.000000
_cell_angle_beta 90.000000
_cell_angle_gamma 90.000000
_cell_volume 3355.755285
_symmetry_space_group_name_H-M "P M M A"
_symmetry_group_IT_number 51
_symmetry_cell_setting 'orthorhombic'
loop_
_space_group_symop_operation_xyz
x,y,z
1/2-x,-y,z
1/2+x,-y,-z
-x,y,-z
-x,-y,-z
1/2+x,y,-z
1/2-x,y,z
x,-y,z
loop_
_atom_site_type_symbol
_atom_site_label
_atom_site_fract_x
_atom_site_fract_y
_atom_site_fract_z
Si Si1 0.037324 0.401620 0.613030
Si Si2 0.466497 0.099320 0.393647
Si Si3 0.077892 0.649391 0.216646
Si Si4 0.333631 0.226390 0.363768
Si Si5 0.332589 0.737096 0.612945
Si Si6 0.614126 0.897866 0.251987
Si Si7 0.341843 0.602297 0.999164
Si Si8 0.552008 0.756670 0.098579
O O1 0.072451 0.500000 0.602526
O O2 0.099044 0.327737 0.643720
O O3 0.000000 0.378475 0.500000
O O4 0.971453 0.405654 0.699976
O O5 0.500000 0.142916 0.500000
O O6 0.396466 0.152050 0.350161
O O7 0.532925 0.095133 0.309670
O O8 0.441621 0.000000 0.424344
O O9 0.142796 0.695196 0.286265
O O10 0.118621 0.607120 0.115067
O O11 0.013308 0.717909 0.175204
O O12 0.250000 0.193487 0.339521
O O13 0.335842 0.253508 0.486591
O O14 0.250000 0.699487 0.641844
O O15 0.339919 0.833361 0.668652
O O16 0.598751 0.838322 0.148582
O O17 0.641990 0.000000 0.237210
O O18 0.250000 0.619559 0.002817
O O19 0.352118 0.500000 0.959951
O O20 0.389503 0.676716 0.933655
O O21 0.500000 0.785345 0.000000
#
# Coordination Sequence:
#
# PCOD9401880 Si02
#       8
#     8   8   8   8   8   8   8   8
#     4  11  22  37  61  89 121 162 208 250 292 356
#     4  10  19  33  56  83 115 156 206 256 299 356
#     4  11  20  38  63  88 121 157 202 243 298 361
#     4  11  21  33  56  86 122 164 199 246 304 355
#     4  11  23  38  57  87 127 164 203 251 301 358
#     4  11  22  39  63  90 121 161 205 252 307 370
#     4  10  23  43  65  92 124 154 196 257 319 372
#     4  10  22  38  64  92 114 153 201 256 309 372
#
# _framework density 19.071712999999999
#
# number of rings (size 3 to 8) (size 9 to 14) (size 15 to 20)
#    0.000    1.375    5.000    0.750    0.000    4.250 
#    0.000    1.250    0.000    0.000    0.000    0.000 
#    0.000    0.000    0.000    0.000    0.000    0.000 
#
# Total GULP energy -356768.893124 kJ/mol
# GULP energy per Si atom -5574.513955 kJ/mol
# Density = 1.902830 g / cm^3
# Si number density = 19.071713 Si / 1000 Ang^3
#
#
#
# Elastic Constant Matrix: (Units=GPa)
#
#
# Indices 1 2 3 4 5 6 
#
# 1 99.8794 31.7575 15.0270 0.0000 0.0000 0.0000
# 2 31.7575 98.8902 30.8753 0.0000 0.0000 0.0000
# 3 15.0270 30.8753 77.9591 0.0000 0.0000 0.0000
# 4 0.0000 0.0000 0.0000 31.5359 0.0000 0.0000
# 5 0.0000 0.0000 0.0000 0.0000 7.9816 0.0000
# 6 0.0000 0.0000 0.0000 0.0000 0.0000 8.5173
#
#
#
# Elastic Compliance Matrix: (Units=1/GPa)
#
#
# Indices 1 2 3 4 5 6 
#
# 1 0.011198 -0.003335 -0.000838 0.000000 0.000000 0.000000
# 2 -0.003335 0.012532 -0.004320 0.000000 0.000000 0.000000
# 3 -0.000838 -0.004320 0.014700 0.000000 0.000000 0.000000
# 4 0.000000 0.000000 0.000000 0.031710 0.000000 0.000000
# 5 0.000000 0.000000 0.000000 0.000000 0.125288 0.000000
# 6 0.000000 0.000000 0.000000 0.000000 0.000000 0.117408
#
#
# Mechanical properties :
#
#
# Convention : Reuss Voigt Hill
#
# Bulk Modulus (GPa) = 46.63247 48.00537 47.31892
# Shear Modulus (GPa) = 14.83812 22.87824 18.85818
#
# Velocity S-wave (km/s) = 2.79232 3.46727 3.14794
# Velocity P-wave (km/s) = 5.90765 6.42300 6.17070
#
# Compressibility (1/GPa) = 0.02144429
#
# Stress axis : x y z
#
# Youngs Moduli (GPa) = 89.29843 79.79546 68.02792
#
# Poissons Ratio (x) = 0.26609 0.05700
# Poissons Ratio (y) = 0.29778 0.29391
# Poissons Ratio (z) = 0.07482 0.34476
#
# Static dielectric constant tensor:
#      x y z
#    x 1.643390 0.000000 0.000000 
#    y 0.000000 1.691110 0.000000 
#    z 0.000000 0.000000 1.705790 
# 
# From -- ./inp_files/17620.got.cif
#   From: 2010.05.17/outbox.cif.g08.bks.cpg/sg51_9_cif.got.tgz:17620.got - 2010.06.03 11:52:47.
