data_PCOD9401508
_publ_section_title
;
Structure prediction by ZEFSAII (Michael W. Deem and Ramdas Pophale) SiO2 
 PCOD9401508
Probable space group: P M M A
;
_chemical_formula_sum "Si O2"
_cell_formula_units_Z 48
_cell_length_a 31.667650
_cell_length_b 9.117661
_cell_length_c 9.188176
_cell_angle_alpha 90.000000
_cell_angle_beta 90.000000
_cell_angle_gamma 90.000000
_cell_volume 2652.947054
_symmetry_space_group_name_H-M "P M M A"
_symmetry_group_IT_number 51
_symmetry_cell_setting 'orthorhombic'
loop_
_space_group_symop_operation_xyz
x,y,z
1/2-x,-y,z
1/2+x,-y,-z
-x,y,-z
-x,-y,-z
1/2+x,y,-z
1/2-x,y,z
x,-y,z
loop_
_atom_site_type_symbol
_atom_site_label
_atom_site_fract_x
_atom_site_fract_y
_atom_site_fract_z
Si Si1 0.589657 0.823596 0.670743
Si Si2 0.996075 0.831696 0.323329
Si Si3 0.334557 0.675118 0.160566
Si Si4 0.087811 0.673744 0.644114
Si Si5 0.826848 0.325719 0.179839
Si Si6 0.750000 0.325100 0.657310
Si Si7 0.750000 0.174594 0.344670
O O1 0.542546 0.783957 0.727717
O O2 0.626430 0.762015 0.771512
O O3 0.594544 0.754863 0.509906
O O4 0.591003 0.000000 0.659704
O O5 0.000000 0.830982 0.500000
O O6 0.955917 0.732828 0.288402
O O7 0.988320 0.000000 0.278752
O O8 0.342554 0.500000 0.173152
O O9 0.291871 0.707486 0.249583
O O10 0.328108 0.709044 0.990968
O O11 0.084611 0.500000 0.617804
O O12 0.127741 0.701482 0.747124
O O13 0.817577 0.500000 0.195023
O O14 0.791026 0.235823 0.262014
O O15 0.750000 0.500000 0.626012
O O16 0.750000 0.237642 0.507684
O O17 0.750000 0.000000 0.346451
#
# Coordination Sequence:
#
# PCOD9401508 Si02
#       7
#     8   8   8   8   8   4   4
#     4  10  20  34  53  79 111 144 179 223 272 320
#     4   8  16  31  50  74 107 144 179 221 272 317
#     4  10  21  38  59  80 105 142 182 219 264 318
#     4  10  19  32  55  83 107 139 184 228 269 317
#     4  10  22  40  58  79 111 145 177 219 270 319
#     4  10  21  38  60  82 104 136 177 218 264 314
#     4  12  25  38  58  86 110 138 177 218 262 316
#
# _framework density 18.093087000000001
#
# number of rings (size 3 to 8) (size 9 to 14) (size 15 to 20)
#    0.000    2.167    0.000    4.250    0.000   11.667 
#    0.000    1.667    0.000    5.000    0.000    0.000 
#    0.000    0.000    0.000    0.000    0.000    0.000 
#
# Total GULP energy -267989.233243 kJ/mol
# GULP energy per Si atom -5583.109026 kJ/mol
# Density = 1.805191 g / cm^3
# Si number density = 18.093087 Si / 1000 Ang^3
#
#
#
# Elastic Constant Matrix: (Units=GPa)
#
#
# Indices 1 2 3 4 5 6 
#
# 1 182.2994 101.2133 91.9895 0.0000 0.0000 0.0000
# 2 101.2133 82.4067 74.5329 0.0000 0.0000 0.0000
# 3 91.9895 74.5329 117.8678 0.0000 0.0000 0.0000
# 4 0.0000 0.0000 0.0000 -7.1404 0.0000 0.0000
# 5 0.0000 0.0000 0.0000 0.0000 -25.6074 0.0000
# 6 0.0000 0.0000 0.0000 0.0000 0.0000 26.0656
#
#
#
# Elastic Compliance Matrix: (Units=1/GPa)
#
#
# Indices 1 2 3 4 5 6 
#
# 1 0.017246 -0.021044 -0.000153 0.000000 0.000000 0.000000
# 2 -0.021044 0.054026 -0.017739 0.000000 0.000000 0.000000
# 3 -0.000153 -0.017739 0.019820 0.000000 0.000000 0.000000
# 4 0.000000 0.000000 0.000000 -0.140049 0.000000 0.000000
# 5 0.000000 0.000000 0.000000 0.000000 -0.039051 0.000000
# 6 0.000000 0.000000 0.000000 0.000000 0.000000 0.038365
#
#
# Mechanical properties :
#
#
# Convention : Reuss Voigt Hill
#
# Bulk Modulus (GPa) = 75.63848 102.00505 88.82176
# Shear Modulus (GPa) = 153.20856 6.31946 79.76401
#
# Velocity S-wave (km/s) = 9.21205 1.87092 6.64688
# Velocity P-wave (km/s) = 12.45171 7.82096 10.39741
#
# Compressibility (1/GPa) = 0.01322078
#
# Stress axis : x y z
#
# Youngs Moduli (GPa) = 57.98355 18.50973 50.45290
#
# Poissons Ratio (x) = 0.38952 0.00771
# Poissons Ratio (y) = 1.22021 0.89499
# Poissons Ratio (z) = 0.00886 0.32834
#
# Static dielectric constant tensor:
#      x y z
#    x 1.621680 0.000000 0.000000 
#    y 0.000000 1.603800 0.000000 
#    z 0.000000 0.000000 1.590230 
# 
# From -- ./inp_files/12922.got.cif
#   From: 2010.05.17/outbox.cif.g08.bks.cpg/sg51_7_cif.got.tgz:12922.got - 2010.06.03 11:52:47.
