data_PCOD9401203
_publ_section_title
;
Structure prediction by ZEFSAII (Michael W. Deem and Ramdas Pophale) SiO2 
 PCOD9401203
Probable space group: P M M A
;
_chemical_formula_sum "Si O2"
_cell_formula_units_Z 40
_cell_length_a 9.162138
_cell_length_b 7.991344
_cell_length_c 30.053165
_cell_angle_alpha 90.000000
_cell_angle_beta 90.000000
_cell_angle_gamma 90.000000
_cell_volume 2200.426520
_symmetry_space_group_name_H-M "P M M A"
_symmetry_group_IT_number 51
_symmetry_cell_setting 'orthorhombic'
loop_
_space_group_symop_operation_xyz
x,y,z
1/2-x,-y,z
1/2+x,-y,-z
-x,y,-z
-x,-y,-z
1/2+x,y,-z
1/2-x,y,z
x,-y,z
loop_
_atom_site_type_symbol
_atom_site_label
_atom_site_fract_x
_atom_site_fract_y
_atom_site_fract_z
Si Si1 0.928576 0.000000 0.211651
Si Si2 0.917236 0.702585 0.544404
Si Si3 0.581671 0.801467 0.366420
Si Si4 0.927652 0.000000 0.109465
Si Si5 0.425695 0.691644 0.952316
Si Si6 0.572083 0.314777 0.270354
O O1 0.976839 0.000000 0.160526
O O2 0.975974 0.165164 0.238399
O O3 0.750000 0.000000 0.211701
O O4 0.750000 0.757431 0.542837
O O5 0.920789 0.500000 0.544526
O O6 0.000000 0.760328 0.500000
O O7 0.992533 0.762260 0.589496
O O8 0.750000 0.748159 0.373610
O O9 0.525606 0.715619 0.321352
O O10 0.581428 0.000000 0.358014
O O11 0.971936 0.166600 0.082648
O O12 0.750000 0.000000 0.110292
O O13 0.250000 0.702547 0.957349
O O14 0.459948 0.500000 0.938516
O O15 0.500000 0.721518 0.000000
O O16 0.750000 0.308490 0.271203
O O17 0.528720 0.500000 0.255377
#
# Coordination Sequence:
#
# PCOD9401203 Si02
#       6
#     4   8   8   4   8   8
#     4   9  16  27  41  66  99 127 160 200 246 299
#     4  10  21  36  53  74 100 130 165 203 245 297
#     4  10  19  32  51  74 100 128 162 204 244 290
#     4   9  17  27  42  64  96 131 161 202 249 293
#     4   9  17  29  45  67  95 128 166 205 246 291
#     4   9  16  27  45  68  96 129 162 199 243 290
#
# _framework density 18.178294999999999
#
# number of rings (size 3 to 8) (size 9 to 14) (size 15 to 20)
#    0.000    2.600    1.000    1.500    0.000    3.600 
#    0.000    4.000    0.000    0.000    0.000    2.800 
#    0.000    3.200    0.000    0.000    0.000    0.000 
#
# Total GULP energy -223084.879183 kJ/mol
# GULP energy per Si atom -5577.121980 kJ/mol
# Density = 1.813692 g / cm^3
# Si number density = 18.178295 Si / 1000 Ang^3
#
#
#
# Elastic Constant Matrix: (Units=GPa)
#
#
# Indices 1 2 3 4 5 6 
#
# 1 29.9529 25.2268 32.1136 0.0000 0.0000 0.0000
# 2 25.2268 127.0443 97.5506 0.0000 0.0000 0.0000
# 3 32.1136 97.5506 160.1464 0.0000 0.0000 0.0000
# 4 0.0000 0.0000 0.0000 -3.8170 0.0000 0.0000
# 5 0.0000 0.0000 0.0000 0.0000 18.4849 0.0000
# 6 0.0000 0.0000 0.0000 0.0000 0.0000 12.8674
#
#
#
# Elastic Compliance Matrix: (Units=1/GPa)
#
#
# Indices 1 2 3 4 5 6 
#
# 1 0.043405 -0.003636 -0.006489 0.000000 0.000000 0.000000
# 2 -0.003636 0.015093 -0.008464 0.000000 0.000000 0.000000
# 3 -0.006489 -0.008464 0.012701 0.000000 0.000000 0.000000
# 4 0.000000 0.000000 0.000000 -0.261985 0.000000 0.000000
# 5 0.000000 0.000000 0.000000 0.000000 0.054098 0.000000
# 6 0.000000 0.000000 0.000000 0.000000 0.000000 0.077716
#
#
# Mechanical properties :
#
#
# Convention : Reuss Voigt Hill
#
# Bulk Modulus (GPa) = 29.39420 69.65839 49.52629
# Shear Modulus (GPa) = -478.37121 16.32389 -231.02366
#
# Velocity S-wave (km/s) = -16.23966 2.99990 -11.28555
# Velocity P-wave (km/s) = 18.31475 7.09943 11.93793
#
# Compressibility (1/GPa) = 0.03402032
#
# Stress axis : x y z
#
# Youngs Moduli (GPa) = 23.03861 66.25798 78.73219
#
# Poissons Ratio (x) = 0.24094 0.51088
# Poissons Ratio (y) = 0.08378 0.66640
# Poissons Ratio (z) = 0.14949 0.56082
#
# Static dielectric constant tensor:
#      x y z
#    x 1.612490 0.000000 0.000000 
#    y 0.000000 1.647570 0.000000 
#    z 0.000000 0.000000 1.592130 
# 
# From -- ./inp_files/36053.got.cif
#   From: 2010.05.17/outbox.cif.g08.bks.cpg/sg51_19_cif.got.tgz:36053.got - 2010.06.03 11:52:47.
