data_PCOD9401747
_publ_section_title
;
Structure prediction by ZEFSAII (Michael W. Deem and Ramdas Pophale) SiO2 
 PCOD9401747
Probable space group: P M M A
;
_chemical_formula_sum "Si O2"
_cell_formula_units_Z 38
_cell_length_a 7.682358
_cell_length_b 26.839418
_cell_length_c 7.808966
_cell_angle_alpha 90.000000
_cell_angle_beta 90.000000
_cell_angle_gamma 90.000000
_cell_volume 1610.130837
_symmetry_space_group_name_H-M "P M M A"
_symmetry_group_IT_number 51
_symmetry_cell_setting 'orthorhombic'
loop_
_space_group_symop_operation_xyz
x,y,z
1/2-x,-y,z
1/2+x,-y,-z
-x,y,-z
-x,-y,-z
1/2+x,y,-z
1/2-x,y,z
x,-y,z
loop_
_atom_site_type_symbol
_atom_site_label
_atom_site_fract_x
_atom_site_fract_y
_atom_site_fract_z
Si Si1 0.545717 0.892696 0.302380
Si Si2 0.958861 0.000000 0.197258
Si Si3 0.044649 0.785280 0.296798
Si Si4 0.250000 0.500000 0.329068
Si Si5 0.541428 0.321875 0.702929
Si Si6 0.050209 0.569806 0.804180
O O1 0.500000 0.886442 0.500000
O O2 0.750000 0.897590 0.276972
O O3 0.467390 0.946735 0.258234
O O4 0.501362 0.839234 0.219829
O O5 0.750000 0.000000 0.232251
O O6 0.000000 0.000000 0.000000
O O7 0.250000 0.782055 0.284334
O O8 0.974448 0.732148 0.231180
O O9 0.000000 0.785790 0.500000
O O10 0.405102 0.456842 0.311319
O O11 0.500000 0.323932 0.500000
O O12 0.750000 0.324541 0.725112
O O13 0.461657 0.370744 0.786049
O O14 0.250000 0.554984 0.766984
O O15 0.000000 0.556549 0.000000
#
# Coordination Sequence:
#
# PCOD9401747 Si02
#       6
#     8   4   8   2   8   8
#     4  10  19  33  54  81 109 139 189 235 277 331
#     4  10  23  38  52  74 108 150 187 230 286 342
#     4   9  17  30  54  83 113 147 185 229 283 337
#     4  12  24  44  64  88 124 150 208 240 296 340
#     4  10  20  38  60  88 123 155 190 239 294 353
#     4  12  24  40  66  90 117 156 200 246 294 348
#
# _framework density 23.600566000000001
#
# number of rings (size 3 to 8) (size 9 to 14) (size 15 to 20)
#    0.000    1.684    2.105    4.105    0.000    4.211 
#    0.000    1.579    0.000    2.526    0.000    0.000 
#    0.000    0.000    0.000    0.000    0.000    0.000 
#
# Total GULP energy -211565.904171 kJ/mol
# GULP energy per Si atom -5567.523794 kJ/mol
# Density = 2.354685 g / cm^3
# Si number density = 23.600566 Si / 1000 Ang^3
#
#
#
# Elastic Constant Matrix: (Units=GPa)
#
#
# Indices 1 2 3 4 5 6 
#
# 1 142.6428 49.3515 -9.1546 0.0000 0.0000 0.0000
# 2 49.3515 291.1992 21.8308 0.0000 0.0000 0.0000
# 3 -9.1546 21.8308 28.6682 0.0000 0.0000 0.0000
# 4 0.0000 0.0000 0.0000 -232.7682 0.0000 0.0000
# 5 0.0000 0.0000 0.0000 0.0000 12.8185 0.0000
# 6 0.0000 0.0000 0.0000 0.0000 0.0000 37.3688
#
#
#
# Elastic Compliance Matrix: (Units=1/GPa)
#
#
# Indices 1 2 3 4 5 6 
#
# 1 0.007802 -0.001600 0.003710 0.000000 0.000000 0.000000
# 2 -0.001600 0.003970 -0.003534 0.000000 0.000000 0.000000
# 3 0.003710 -0.003534 0.038758 0.000000 0.000000 0.000000
# 4 0.000000 0.000000 0.000000 -0.004296 0.000000 0.000000
# 5 0.000000 0.000000 0.000000 0.000000 0.078013 0.000000
# 6 0.000000 0.000000 0.000000 0.000000 0.000000 0.026760
#
#
# Mechanical properties :
#
#
# Convention : Reuss Voigt Hill
#
# Bulk Modulus (GPa) = 20.97247 65.17395 43.07321
# Shear Modulus (GPa) = 29.45497 -9.81735 9.81881
#
# Velocity S-wave (km/s) = 3.53662 -2.04177 2.04192
# Velocity P-wave (km/s) = 5.05793 4.70286 4.88363
#
# Compressibility (1/GPa) = 0.04768155
#
# Stress axis : x y z
#
# Youngs Moduli (GPa) = 128.16610 251.87056 25.80102
#
# Poissons Ratio (x) = 0.40311 -0.09573
# Poissons Ratio (y) = 0.20513 0.09119
# Poissons Ratio (z) = -0.47553 0.89023
#
# Static dielectric constant tensor:
#      x y z
#    x 1.905650 0.000000 0.000000 
#    y 0.000000 2.082170 0.000000 
#    z 0.000000 0.000000 1.878130 
# 
# From -- ./inp_files/5354.got.cif
#   From: 2010.05.17/outbox.cif.g08.bks.cpg/sg51_3_cif.got.tgz:5354.got - 2010.06.03 11:52:47.
