data_PCOD9401379
_publ_section_title
;
Structure prediction by ZEFSAII (Michael W. Deem and Ramdas Pophale) SiO2 
 PCOD9401379
Probable space group: P M M A
;
_chemical_formula_sum "Si O2"
_cell_formula_units_Z 64
_cell_length_a 15.406670
_cell_length_b 17.688079
_cell_length_c 12.357167
_cell_angle_alpha 90.000000
_cell_angle_beta 90.000000
_cell_angle_gamma 90.000000
_cell_volume 3367.505902
_symmetry_space_group_name_H-M "P M M A"
_symmetry_group_IT_number 51
_symmetry_cell_setting 'orthorhombic'
loop_
_space_group_symop_operation_xyz
x,y,z
1/2-x,-y,z
1/2+x,-y,-z
-x,y,-z
-x,-y,-z
1/2+x,y,-z
1/2-x,y,z
x,-y,z
loop_
_atom_site_type_symbol
_atom_site_label
_atom_site_fract_x
_atom_site_fract_y
_atom_site_fract_z
Si Si1 0.351427 0.223390 0.346803
Si Si2 0.523103 0.084103 0.624931
Si Si3 0.850490 0.714389 0.423255
Si Si4 0.849692 0.866298 0.277035
Si Si5 0.650329 0.633388 0.037708
Si Si6 0.574470 0.414890 0.271195
Si Si7 0.434024 0.783208 0.910620
Si Si8 0.072920 0.335489 0.185113
O O1 0.250000 0.201321 0.360924
O O2 0.413374 0.150150 0.332127
O O3 0.383835 0.263695 0.457740
O O4 0.359256 0.284324 0.250276
O O5 0.500000 0.099080 0.500000
O O6 0.428758 0.084241 0.680184
O O7 0.562380 0.000000 0.634345
O O8 0.750000 0.694467 0.438193
O O9 0.854123 0.789542 0.349097
O O10 0.891573 0.646612 0.355870
O O11 0.750000 0.893712 0.281502
O O12 0.881387 0.842580 0.158413
O O13 0.750000 0.612120 0.028552
O O14 0.613456 0.598384 0.149228
O O15 0.636916 0.724064 0.045801
O O16 0.601370 0.621577 0.924209
O O17 0.593762 0.500000 0.303998
O O18 0.472746 0.397327 0.259523
O O19 0.498187 0.726939 0.843730
O O20 0.500000 0.815308 0.000000
#
# Coordination Sequence:
#
# PCOD9401379 Si02
#       8
#     8   8   8   8   8   8   8   8
#     4  11  22  39  63  87 114 156 202 247 293 348
#     4  11  23  37  57  89 127 158 187 234 298 361
#     4  10  20  34  55  83 112 145 198 253 290 341
#     4  11  19  34  59  85 117 159 203 247 293 347
#     4  10  19  32  52  82 113 143 189 250 298 342
#     4  11  22  36  56  81 114 154 193 241 307 362
#     4   9  17  30  53  83 113 144 191 247 294 335
#     4  10  20  35  55  81 114 148 197 245 287 347
#
# _framework density 19.005163
#
# number of rings (size 3 to 8) (size 9 to 14) (size 15 to 20)
#    0.000    1.625    5.000    2.250    0.000    2.500 
#    0.000    2.500    0.000    2.250    0.000    0.000 
#    0.000    0.000    0.000    0.000    0.000    0.000 
#
# Total GULP energy -356478.635279 kJ/mol
# GULP energy per Si atom -5569.978676 kJ/mol
# Density = 1.896191 g / cm^3
# Si number density = 19.005163 Si / 1000 Ang^3
#
#
#
# Elastic Constant Matrix: (Units=GPa)
#
#
# Indices 1 2 3 4 5 6 
#
# 1 77.9167 24.3105 8.4953 0.0000 0.0000 0.0000
# 2 24.3105 63.4478 14.0762 0.0000 0.0000 0.0000
# 3 8.4953 14.0762 41.2537 0.0000 0.0000 0.0000
# 4 0.0000 0.0000 0.0000 12.6674 0.0000 0.0000
# 5 0.0000 0.0000 0.0000 0.0000 27.3907 0.0000
# 6 0.0000 0.0000 0.0000 0.0000 0.0000 4.7405
#
#
#
# Elastic Compliance Matrix: (Units=1/GPa)
#
#
# Indices 1 2 3 4 5 6 
#
# 1 0.014631 -0.005342 -0.001190 0.000000 0.000000 0.000000
# 2 -0.005342 0.019002 -0.005384 0.000000 0.000000 0.000000
# 3 -0.001190 -0.005384 0.026322 0.000000 0.000000 0.000000
# 4 0.000000 0.000000 0.000000 0.078943 0.000000 0.000000
# 5 0.000000 0.000000 0.000000 0.000000 0.036509 0.000000
# 6 0.000000 0.000000 0.000000 0.000000 0.000000 0.210948
#
#
# Mechanical properties :
#
#
# Convention : Reuss Voigt Hill
#
# Bulk Modulus (GPa) = 27.68262 30.70914 29.19588
# Shear Modulus (GPa) = 11.84197 18.00882 14.92539
#
# Velocity S-wave (km/s) = 2.49889 3.08161 2.80542
# Velocity P-wave (km/s) = 4.78784 5.37170 5.08815
#
# Compressibility (1/GPa) = 0.03612375
#
# Stress axis : x y z
#
# Youngs Moduli (GPa) = 68.34959 52.62569 37.99055
#
# Poissons Ratio (x) = 0.28112 0.04522
# Poissons Ratio (y) = 0.36511 0.20453
# Poissons Ratio (z) = 0.08135 0.28332
#
# Static dielectric constant tensor:
#      x y z
#    x 1.692210 0.000000 0.000000 
#    y 0.000000 1.654790 0.000000 
#    z 0.000000 0.000000 1.743350 
# 
# From -- ./inp_files/16807.got.cif
#   From: 2010.05.17/outbox.cif.g08.bks.cpg/sg51_9_cif.got.tgz:16807.got - 2010.06.03 11:52:47.
