data_PCOD9401507
_publ_section_title
;
Structure prediction by ZEFSAII (Michael W. Deem and Ramdas Pophale) SiO2 
 PCOD9401507
Probable space group: P M M A
;
_chemical_formula_sum "Si O2"
_cell_formula_units_Z 64
_cell_length_a 19.627114
_cell_length_b 7.647314
_cell_length_c 20.229785
_cell_angle_alpha 90.000000
_cell_angle_beta 90.000000
_cell_angle_gamma 90.000000
_cell_volume 3036.383585
_symmetry_space_group_name_H-M "P M M A"
_symmetry_group_IT_number 51
_symmetry_cell_setting 'orthorhombic'
loop_
_space_group_symop_operation_xyz
x,y,z
1/2-x,-y,z
1/2+x,-y,-z
-x,y,-z
-x,-y,-z
1/2+x,y,-z
1/2-x,y,z
x,-y,z
loop_
_atom_site_type_symbol
_atom_site_label
_atom_site_fract_x
_atom_site_fract_y
_atom_site_fract_z
Si Si1 0.577850 0.294517 0.146228
Si Si2 0.945335 0.206720 0.629899
Si Si3 0.827138 0.210092 0.885851
Si Si4 0.423867 0.203593 0.998885
Si Si5 0.941278 0.708181 0.783789
Si Si6 0.405245 0.785956 0.598141
Si Si7 0.672061 0.785839 0.535251
Si Si8 0.827935 0.788426 0.269200
O O1 0.569650 0.500000 0.133764
O O2 0.599573 0.213340 0.076760
O O3 0.505381 0.222945 0.173222
O O4 0.631984 0.268077 0.204157
O O5 0.944353 0.228492 0.708643
O O6 0.877783 0.274730 0.593940
O O7 0.016622 0.276095 0.600855
O O8 0.946364 0.000000 0.615918
O O9 0.750000 0.278275 0.883417
O O10 0.871592 0.247024 0.820885
O O11 0.822341 0.000000 0.892309
O O12 0.871032 0.279084 0.948224
O O13 0.431498 0.000000 0.017676
O O14 0.500000 0.282521 0.000000
O O15 0.948445 0.500000 0.781398
O O16 0.363371 0.733368 0.533582
O O17 0.367697 0.729915 0.665227
O O18 0.406208 0.000000 0.598224
O O19 0.750000 0.726100 0.540446
O O20 0.674236 0.000000 0.535779
O O21 0.750000 0.728301 0.269576
O O22 0.827697 0.000000 0.270204
#
# Coordination Sequence:
#
# PCOD9401507 Si02
#       8
#     8   8   8   8   8   8   8   8
#     4  11  23  37  56  82 114 150 188 228 275 333
#     4  10  19  32  55  82 108 143 188 234 282 336
#     4  10  22  40  62  88 115 145 187 237 285 334
#     4  10  20  36  61  87 112 144 183 228 280 333
#     4  11  23  38  57  82 114 153 192 231 279 334
#     4   9  16  29  51  79 110 142 179 228 282 336
#     4   9  17  29  48  79 114 141 175 230 290 340
#     4  10  20  34  55  82 110 144 185 229 279 333
#
# _framework density 21.077705000000002
#
# number of rings (size 3 to 8) (size 9 to 14) (size 15 to 20)
#    0.000    2.000    2.500    1.500    0.000    6.250 
#    0.000    2.500    0.000    2.250    0.000    0.000 
#    0.000    0.000    0.000    0.000    0.000    0.000 
#
# Total GULP energy -357542.192927 kJ/mol
# GULP energy per Si atom -5586.596764 kJ/mol
# Density = 2.102973 g / cm^3
# Si number density = 21.077705 Si / 1000 Ang^3
#
#
#
# Elastic Constant Matrix: (Units=GPa)
#
#
# Indices 1 2 3 4 5 6 
#
# 1 182.8570 5.9028 50.6377 0.0000 0.0000 0.0000
# 2 5.9028 36.0129 -11.6361 0.0000 0.0000 0.0000
# 3 50.6377 -11.6361 68.5538 0.0000 0.0000 0.0000
# 4 0.0000 0.0000 0.0000 -85.7933 0.0000 0.0000
# 5 0.0000 0.0000 0.0000 0.0000 40.1824 0.0000
# 6 0.0000 0.0000 0.0000 0.0000 0.0000 -0.5157
#
#
#
# Elastic Compliance Matrix: (Units=1/GPa)
#
#
# Indices 1 2 3 4 5 6 
#
# 1 0.007180 -0.003058 -0.005823 0.000000 0.000000 0.000000
# 2 -0.003058 0.030682 0.007467 0.000000 0.000000 0.000000
# 3 -0.005823 0.007467 0.020155 0.000000 0.000000 0.000000
# 4 0.000000 0.000000 0.000000 -0.011656 0.000000 0.000000
# 5 0.000000 0.000000 0.000000 0.000000 0.024887 0.000000
# 6 0.000000 0.000000 0.000000 0.000000 0.000000 -1.939154
#
#
# Mechanical properties :
#
#
# Convention : Reuss Voigt Hill
#
# Bulk Modulus (GPa) = 18.11954 41.91469 30.01712
# Shear Modulus (GPa) = -2.70756 6.94263 2.11753
#
# Velocity S-wave (km/s) = -1.13461 1.81686 1.00340
# Velocity P-wave (km/s) = 2.62655 4.93257 3.95152
#
# Compressibility (1/GPa) = 0.05518902
#
# Stress axis : x y z
#
# Youngs Moduli (GPa) = 139.27796 32.59272 49.61463
#
# Poissons Ratio (x) = 0.09967 0.28888
# Poissons Ratio (y) = 0.42594 -0.37046
# Poissons Ratio (z) = 0.81095 -0.24336
#
# Static dielectric constant tensor:
#      x y z
#    x 1.743710 0.000000 0.000000 
#    y 0.000000 1.784750 0.000000 
#    z 0.000000 0.000000 1.717590 
# 
# From -- ./inp_files/30639.got.cif
#   From: 2010.05.17/outbox.cif.g08.bks.cpg/sg51_16_cif.got.tgz:30639.got - 2010.06.03 11:52:47.
