data_PCOD9401479
_publ_section_title
;
Structure prediction by ZEFSAII (Michael W. Deem and Ramdas Pophale) SiO2 
 PCOD9401479
Probable space group: P M M A
;
_chemical_formula_sum "Si O2"
_cell_formula_units_Z 64
_cell_length_a 25.578743
_cell_length_b 9.615502
_cell_length_c 14.757766
_cell_angle_alpha 90.000000
_cell_angle_beta 90.000000
_cell_angle_gamma 90.000000
_cell_volume 3629.708770
_symmetry_space_group_name_H-M "P M M A"
_symmetry_group_IT_number 51
_symmetry_cell_setting 'orthorhombic'
loop_
_space_group_symop_operation_xyz
x,y,z
1/2-x,-y,z
1/2+x,-y,-z
-x,y,-z
-x,-y,-z
1/2+x,y,-z
1/2-x,y,z
x,-y,z
loop_
_atom_site_type_symbol
_atom_site_label
_atom_site_fract_x
_atom_site_fract_y
_atom_site_fract_z
Si Si1 0.913681 0.834192 0.722971
Si Si2 0.333330 0.161722 0.980123
Si Si3 0.549860 0.846924 0.064353
Si Si4 0.488425 0.339958 0.783396
Si Si5 0.189368 0.335374 0.798897
Si Si6 0.605448 0.661922 0.353779
Si Si7 0.193116 0.169140 0.181339
Si Si8 0.938843 0.834771 0.512502
O O1 0.960262 0.752261 0.771350
O O2 0.857371 0.788304 0.761083
O O3 0.920959 0.811052 0.615693
O O4 0.919430 0.000000 0.739662
O O5 0.396178 0.163787 0.989105
O O6 0.319075 0.250000 0.891570
O O7 0.317549 0.000000 0.966612
O O8 0.311366 0.212341 0.076029
O O9 0.544939 0.724030 0.135172
O O10 0.550217 0.000000 0.110358
O O11 0.500000 0.841923 0.000000
O O12 0.501828 0.500000 0.799488
O O13 0.450409 0.331047 0.697165
O O14 0.250000 0.319552 0.771338
O O15 0.179551 0.500000 0.815865
O O16 0.149655 0.292211 0.718680
O O17 0.615855 0.500000 0.375871
O O18 0.597999 0.753693 0.442679
O O19 0.250000 0.212677 0.217219
O O20 0.192031 0.000000 0.180334
O O21 0.000000 0.793215 0.500000
O O22 0.936288 0.000000 0.493969
#
# Coordination Sequence:
#
# PCOD9401479 Si02
#       8
#     8   8   8   8   8   8   8   8
#     4  10  20  36  57  80 109 142 179 221 272 331
#     4  10  19  32  54  81 106 135 179 227 264 308
#     4  10  20  33  50  75 108 147 183 217 268 327
#     4  11  21  33  52  79 110 141 176 220 270 320
#     4  10  21  38  57  77 107 147 185 219 264 323
#     4  10  21  36  54  78 108 141 177 218 268 322
#     4   9  18  34  56  80 106 139 180 223 265 315
#     4  10  20  34  55  83 110 139 176 220 269 321
#
# _framework density 17.632269000000001
#
# number of rings (size 3 to 8) (size 9 to 14) (size 15 to 20)
#    0.000    2.000    2.500    1.500    0.000    4.750 
#    0.000    2.500    0.000    1.875    0.000    0.000 
#    0.000    0.000    0.000    0.000    0.000    0.000 
#
# Total GULP energy -356989.779806 kJ/mol
# GULP energy per Si atom -5577.965309 kJ/mol
# Density = 1.759214 g / cm^3
# Si number density = 17.632269 Si / 1000 Ang^3
#
#
#
# Elastic Constant Matrix: (Units=GPa)
#
#
# Indices 1 2 3 4 5 6 
#
# 1 118.4986 25.3460 37.6455 0.0000 0.0000 0.0000
# 2 25.3460 36.6589 32.7341 0.0000 0.0000 0.0000
# 3 37.6455 32.7341 65.0136 0.0000 0.0000 0.0000
# 4 0.0000 0.0000 0.0000 13.5807 0.0000 0.0000
# 5 0.0000 0.0000 0.0000 0.0000 13.1224 0.0000
# 6 0.0000 0.0000 0.0000 0.0000 0.0000 16.3977
#
#
#
# Elastic Compliance Matrix: (Units=1/GPa)
#
#
# Indices 1 2 3 4 5 6 
#
# 1 0.010562 -0.003346 -0.004431 0.000000 0.000000 0.000000
# 2 -0.003346 0.050620 -0.023550 0.000000 0.000000 0.000000
# 3 -0.004431 -0.023550 0.029805 0.000000 0.000000 0.000000
# 4 0.000000 0.000000 0.000000 0.073634 0.000000 0.000000
# 5 0.000000 0.000000 0.000000 0.000000 0.076206 0.000000
# 6 0.000000 0.000000 0.000000 0.000000 0.000000 0.060984
#
#
# Mechanical properties :
#
#
# Convention : Reuss Voigt Hill
#
# Bulk Modulus (GPa) = 35.29431 45.73583 40.51507
# Shear Modulus (GPa) = 13.37223 16.91651 15.14437
#
# Velocity S-wave (km/s) = 2.75689 3.10079 2.93388
# Velocity P-wave (km/s) = 5.49493 6.23016 5.87406
#
# Compressibility (1/GPa) = 0.02833318
#
# Stress axis : x y z
#
# Youngs Moduli (GPa) = 94.67564 19.75500 33.55197
#
# Poissons Ratio (x) = 0.06610 0.14868
# Poissons Ratio (y) = 0.31677 0.79014
# Poissons Ratio (z) = 0.41955 0.46522
#
# Static dielectric constant tensor:
#      x y z
#    x 1.616320 0.000000 0.000000 
#    y 0.000000 1.597810 0.000000 
#    z 0.000000 0.000000 1.590330 
# 
# From -- ./inp_files/26185.got.cif
#   From: 2010.05.17/outbox.cif.g08.bks.cpg/sg51_14_cif.got.tgz:26185.got - 2010.06.03 11:52:47.
