data_PCOD9401703
_publ_section_title
;
Structure prediction by ZEFSAII (Michael W. Deem and Ramdas Pophale) SiO2 
 PCOD9401703
Probable space group: P M M A
;
_chemical_formula_sum "Si O2"
_cell_formula_units_Z 48
_cell_length_a 16.044304
_cell_length_b 16.887385
_cell_length_c 9.149982
_cell_angle_alpha 90.000000
_cell_angle_beta 90.000000
_cell_angle_gamma 90.000000
_cell_volume 2479.154122
_symmetry_space_group_name_H-M "P M M A"
_symmetry_group_IT_number 51
_symmetry_cell_setting 'orthorhombic'
loop_
_space_group_symop_operation_xyz
x,y,z
1/2-x,-y,z
1/2+x,-y,-z
-x,y,-z
-x,-y,-z
1/2+x,y,-z
1/2-x,y,z
x,-y,z
loop_
_atom_site_type_symbol
_atom_site_label
_atom_site_fract_x
_atom_site_fract_y
_atom_site_fract_z
Si Si1 0.152109 0.742782 0.890738
Si Si2 0.153116 0.167645 0.172662
Si Si3 0.904538 0.913381 0.553499
Si Si4 0.591553 0.751720 0.426446
Si Si5 0.656229 0.340153 0.672895
Si Si6 0.405439 0.412009 0.054087
O O1 0.250000 0.753820 0.853654
O O2 0.095878 0.744524 0.746728
O O3 0.127108 0.810450 0.008174
O O4 0.142604 0.658484 0.972138
O O5 0.250000 0.142115 0.170741
O O6 0.101856 0.108452 0.274780
O O7 0.150502 0.252565 0.254942
O O8 0.868041 0.836796 0.469793
O O9 0.000000 0.917352 0.500000
O O10 0.866566 0.000000 0.527021
O O11 0.500000 0.751828 0.500000
O O12 0.635996 0.677990 0.505262
O O13 0.750000 0.369675 0.689937
O O14 0.598388 0.394334 0.772473
O O15 0.372359 0.500000 0.024818
O O16 0.500000 0.408099 0.000000
#
# Coordination Sequence:
#
# PCOD9401703 Si02
#       6
#     8   8   8   8   8   8
#     4  10  20  35  56  80 107 140 181 226 271 326
#     4   8  16  31  51  74  99 133 175 217 263 313
#     4   9  18  33  52  76 106 140 178 217 262 316
#     4  10  19  33  54  78 107 141 179 223 270 322
#     4   9  17  31  51  73  99 133 173 213 257 315
#     4  10  20  34  53  78 107 138 175 220 270 323
#
# _framework density 19.361442
#
# number of rings (size 3 to 8) (size 9 to 14) (size 15 to 20)
#    0.000    2.667    0.000    3.000    0.000    3.667 
#    0.000    1.667    0.000   11.000    0.000    0.000 
#    0.000    0.000    0.000    0.000    0.000    0.000 
#
# Total GULP energy -267322.062218 kJ/mol
# GULP energy per Si atom -5569.209630 kJ/mol
# Density = 1.931737 g / cm^3
# Si number density = 19.361442 Si / 1000 Ang^3
#
#
#
# Elastic Constant Matrix: (Units=GPa)
#
#
# Indices 1 2 3 4 5 6 
#
# 1 48.5152 14.5906 29.1061 0.0000 0.0000 0.0000
# 2 14.5906 78.8424 30.6220 0.0000 0.0000 0.0000
# 3 29.1061 30.6220 136.4057 0.0000 0.0000 0.0000
# 4 0.0000 0.0000 0.0000 8.8530 0.0000 0.0000
# 5 0.0000 0.0000 0.0000 0.0000 26.6453 0.0000
# 6 0.0000 0.0000 0.0000 0.0000 0.0000 -56.0288
#
#
#
# Elastic Compliance Matrix: (Units=1/GPa)
#
#
# Indices 1 2 3 4 5 6 
#
# 1 0.024153 -0.002704 -0.004547 0.000000 0.000000 0.000000
# 2 -0.002704 0.014198 -0.002610 0.000000 0.000000 0.000000
# 3 -0.004547 -0.002610 0.008887 0.000000 0.000000 0.000000
# 4 0.000000 0.000000 0.000000 0.112957 0.000000 0.000000
# 5 0.000000 0.000000 0.000000 0.000000 0.037530 0.000000
# 6 0.000000 0.000000 0.000000 0.000000 0.000000 -0.017848
#
#
# Mechanical properties :
#
#
# Convention : Reuss Voigt Hill
#
# Bulk Modulus (GPa) = 36.34225 45.82229 41.08227
# Shear Modulus (GPa) = 23.94974 8.52355 16.23665
#
# Velocity S-wave (km/s) = 3.52089 2.10045 2.89901
# Velocity P-wave (km/s) = 5.94475 5.44065 5.69828
#
# Compressibility (1/GPa) = 0.02751618
#
# Stress axis : x y z
#
# Youngs Moduli (GPa) = 41.40269 70.43371 112.52062
#
# Poissons Ratio (x) = 0.19044 0.51161
# Poissons Ratio (y) = 0.11195 0.29372
# Poissons Ratio (z) = 0.18825 0.18386
#
# Static dielectric constant tensor:
#      x y z
#    x 1.714520 0.000000 0.000000 
#    y 0.000000 1.694680 0.000000 
#    z 0.000000 0.000000 1.709050 
# 
# From -- ./inp_files/9612.got.cif
#   From: 2010.05.17/outbox.cif.g08.bks.cpg/sg51_5_cif.got.tgz:9612.got - 2010.06.03 11:52:47.
