data_PCOD9401900
_publ_section_title
;
Structure prediction by ZEFSAII (Michael W. Deem and Ramdas Pophale) SiO2 
 PCOD9401900
Probable space group: P M M A
;
_chemical_formula_sum "Si O2"
_cell_formula_units_Z 48
_cell_length_a 8.800161
_cell_length_b 14.581716
_cell_length_c 21.187251
_cell_angle_alpha 90.000000
_cell_angle_beta 90.000000
_cell_angle_gamma 90.000000
_cell_volume 2718.778737
_symmetry_space_group_name_H-M "P M M A"
_symmetry_group_IT_number 51
_symmetry_cell_setting 'orthorhombic'
loop_
_space_group_symop_operation_xyz
x,y,z
1/2-x,-y,z
1/2+x,-y,-z
-x,y,-z
-x,-y,-z
1/2+x,y,-z
1/2-x,y,z
x,-y,z
loop_
_atom_site_type_symbol
_atom_site_label
_atom_site_fract_x
_atom_site_fract_y
_atom_site_fract_z
Si Si1 0.567323 0.607282 0.315136
Si Si2 0.933421 0.721223 0.189539
Si Si3 0.929592 0.895096 0.752050
Si Si4 0.430263 0.288499 0.434772
Si Si5 0.931423 0.895483 0.387140
Si Si6 0.566795 0.393770 0.067578
O O1 0.750000 0.614965 0.322411
O O2 0.528605 0.500000 0.311232
O O3 0.526410 0.659332 0.250484
O O4 0.489968 0.655162 0.374723
O O5 0.750000 0.730462 0.188944
O O6 0.980771 0.670072 0.125609
O O7 0.008921 0.819550 0.200148
O O8 0.750000 0.881848 0.740309
O O9 0.018001 0.884277 0.685794
O O10 0.952576 0.000000 0.773441
O O11 0.500000 0.324499 0.500000
O O12 0.250000 0.291510 0.437480
O O13 0.486026 0.183914 0.425341
O O14 0.750000 0.884153 0.391930
O O15 0.970907 0.000000 0.405947
O O16 0.750000 0.391446 0.064374
O O17 0.522082 0.500000 0.079354
O O18 0.500000 0.366098 0.000000
#
# Coordination Sequence:
#
# PCOD9401900 Si02
#       6
#     8   8   8   8   8   8
#     4  10  21  38  59  82 108 140 181 229 277 326
#     4  10  19  33  57  84 112 146 184 225 271 323
#     4  10  20  33  52  81 114 145 178 221 273 325
#     4  12  25  40  58  79 108 144 183 228 278 332
#     4  10  20  36  58  82 109 141 178 222 274 331
#     4   9  18  33  53  81 116 152 187 223 268 322
#
# _framework density 17.654985
#
# number of rings (size 3 to 8) (size 9 to 14) (size 15 to 20)
#    0.000    1.833    1.667    3.000    0.000    5.667 
#    0.000    0.000    0.000    3.500    0.000    0.000 
#    0.000    0.000    0.000    0.000    0.000    0.000 
#
# Total GULP energy -268113.971955 kJ/mol
# GULP energy per Si atom -5585.707749 kJ/mol
# Density = 1.761480 g / cm^3
# Si number density = 17.654985 Si / 1000 Ang^3
#
#
#
# Elastic Constant Matrix: (Units=GPa)
#
#
# Indices 1 2 3 4 5 6 
#
# 1 44.6945 42.0329 39.8678 0.0000 0.0000 0.0000
# 2 42.0329 97.5833 62.2106 0.0000 0.0000 0.0000
# 3 39.8678 62.2106 125.1470 0.0000 0.0000 0.0000
# 4 0.0000 0.0000 0.0000 18.4395 0.0000 0.0000
# 5 0.0000 0.0000 0.0000 0.0000 28.3271 0.0000
# 6 0.0000 0.0000 0.0000 0.0000 0.0000 22.4806
#
#
#
# Elastic Compliance Matrix: (Units=1/GPa)
#
#
# Indices 1 2 3 4 5 6 
#
# 1 0.040666 -0.013552 -0.006218 0.000000 0.000000 0.000000
# 2 -0.013552 0.019518 -0.005385 0.000000 0.000000 0.000000
# 3 -0.006218 -0.005385 0.012648 0.000000 0.000000 0.000000
# 4 0.000000 0.000000 0.000000 0.054231 0.000000 0.000000
# 5 0.000000 0.000000 0.000000 0.000000 0.035302 0.000000
# 6 0.000000 0.000000 0.000000 0.000000 0.000000 0.044483
#
#
# Mechanical properties :
#
#
# Convention : Reuss Voigt Hill
#
# Bulk Modulus (GPa) = 44.40188 61.73861 53.07024
# Shear Modulus (GPa) = 18.89167 22.07034 20.48100
#
# Velocity S-wave (km/s) = 3.27471 3.53950 3.40967
# Velocity P-wave (km/s) = 6.28511 7.19371 6.75471
#
# Compressibility (1/GPa) = 0.02252157
#
# Stress axis : x y z
#
# Youngs Moduli (GPa) = 24.59065 51.23392 79.06114
#
# Poissons Ratio (x) = 0.69434 0.49160
# Poissons Ratio (y) = 0.33326 0.42576
# Poissons Ratio (z) = 0.15290 0.27591
#
# Static dielectric constant tensor:
#      x y z
#    x 1.592020 0.000000 0.000000 
#    y 0.000000 1.604340 0.000000 
#    z 0.000000 0.000000 1.580120 
# 
# From -- ./inp_files/27516.got.cif
#   From: 2010.05.17/outbox.cif.g08.bks.cpg/sg51_14_cif.got.tgz:27516.got - 2010.06.03 11:52:47.
