data_PCOD9401143
_publ_section_title
;
Structure prediction by ZEFSAII (Michael W. Deem and Ramdas Pophale) SiO2 
 PCOD9401143
Probable space group: P M M A
;
_chemical_formula_sum "Si O2"
_cell_formula_units_Z 64
_cell_length_a 8.770834
_cell_length_b 23.943125
_cell_length_c 19.406029
_cell_angle_alpha 90.000000
_cell_angle_beta 90.000000
_cell_angle_gamma 90.000000
_cell_volume 4075.288889
_symmetry_space_group_name_H-M "P M M A"
_symmetry_group_IT_number 51
_symmetry_cell_setting 'orthorhombic'
loop_
_space_group_symop_operation_xyz
x,y,z
1/2-x,-y,z
1/2+x,-y,-z
-x,y,-z
-x,-y,-z
1/2+x,y,-z
1/2-x,y,z
x,-y,z
loop_
_atom_site_type_symbol
_atom_site_label
_atom_site_fract_x
_atom_site_fract_y
_atom_site_fract_z
Si Si1 0.068811 0.564288 0.210169
Si Si2 0.932153 0.065282 0.424789
Si Si3 0.932276 0.726440 0.576031
Si Si4 0.568279 0.662138 0.298967
Si Si5 0.567474 0.612959 0.072439
Si Si6 0.568447 0.225772 0.210948
Si Si7 0.432306 0.837168 0.336709
Si Si8 0.567831 0.738034 0.927825
O O1 0.250000 0.572601 0.201760
O O2 0.040935 0.500000 0.229235
O O3 0.005972 0.607418 0.266375
O O4 0.987914 0.577996 0.137743
O O5 0.750000 0.072170 0.426708
O O6 0.000000 0.079137 0.500000
O O7 0.003659 0.106189 0.368717
O O8 0.966531 0.000000 0.411294
O O9 0.750000 0.721497 0.573882
O O10 0.970280 0.786521 0.610383
O O11 0.000000 0.722672 0.500000
O O12 0.000473 0.680386 0.627740
O O13 0.750000 0.655711 0.303499
O O14 0.536956 0.714302 0.247537
O O15 0.750000 0.615125 0.069371
O O16 0.502374 0.675818 0.081120
O O17 0.500000 0.591578 0.000000
O O18 0.750000 0.220869 0.202244
O O19 0.506568 0.179925 0.264167
O O20 0.485502 0.226591 0.137732
O O21 0.250000 0.839387 0.329994
O O22 0.750000 0.734014 0.931459
O O23 0.500000 0.759485 0.000000
#
# Coordination Sequence:
#
# PCOD9401143 Si02
#       8
#     8   8   8   8   8   8   8   8
#     4  11  23  37  53  72  95 124 158 198 242 291
#     4  10  20  33  49  70 100 140 181 218 254 294
#     4  10  20  33  51  75 102 128 159 198 244 293
#     4  10  20  34  53  73  96 124 157 195 241 294
#     4  11  21  34  51  71  95 126 161 199 241 287
#     4  10  19  32  50  73 100 130 164 204 249 294
#     4  10  20  32  49  74 103 136 171 209 250 291
#     4  11  20  31  49  71  99 131 165 201 243 296
#
# _framework density 15.704408000000001
#
# number of rings (size 3 to 8) (size 9 to 14) (size 15 to 20)
#    0.000    1.625    1.250    5.625    0.000    5.500 
#    0.000    0.000    0.000    0.375    0.000    0.000 
#    0.000    0.500    0.000    1.875    0.000    2.875 
#
# Total GULP energy -357488.704241 kJ/mol
# GULP energy per Si atom -5585.761004 kJ/mol
# Density = 1.566866 g / cm^3
# Si number density = 15.704408 Si / 1000 Ang^3
#
#
#
# Elastic Constant Matrix: (Units=GPa)
#
#
# Indices 1 2 3 4 5 6 
#
# 1 93.6881 45.4416 61.2633 0.0000 0.0000 0.0000
# 2 45.4416 69.1881 47.2850 0.0000 0.0000 0.0000
# 3 61.2633 47.2850 119.9523 0.0000 0.0000 0.0000
# 4 0.0000 0.0000 0.0000 26.2582 0.0000 0.0000
# 5 0.0000 0.0000 0.0000 0.0000 32.1203 0.0000
# 6 0.0000 0.0000 0.0000 0.0000 0.0000 22.8431
#
#
#
# Elastic Compliance Matrix: (Units=1/GPa)
#
#
# Indices 1 2 3 4 5 6 
#
# 1 0.018716 -0.007883 -0.006451 0.000000 0.000000 0.000000
# 2 -0.007883 0.023104 -0.005081 0.000000 0.000000 0.000000
# 3 -0.006451 -0.005081 0.013634 0.000000 0.000000 0.000000
# 4 0.000000 0.000000 0.000000 0.038083 0.000000 0.000000
# 5 0.000000 0.000000 0.000000 0.000000 0.031133 0.000000
# 6 0.000000 0.000000 0.000000 0.000000 0.000000 0.043777
#
#
# Mechanical properties :
#
#
# Convention : Reuss Voigt Hill
#
# Bulk Modulus (GPa) = 60.15913 65.64538 62.90225
# Shear Modulus (GPa) = 23.49412 24.83356 24.16384
#
# Velocity S-wave (km/s) = 3.87204 3.98088 3.92684
# Velocity P-wave (km/s) = 7.64072 7.93859 7.79108
#
# Compressibility (1/GPa) = 0.01662258
#
# Stress axis : x y z
#
# Youngs Moduli (GPa) = 53.43063 43.28330 73.34374
#
# Poissons Ratio (x) = 0.34122 0.47315
# Poissons Ratio (y) = 0.42121 0.37267
# Poissons Ratio (z) = 0.34469 0.21993
#
# Static dielectric constant tensor:
#      x y z
#    x 1.520630 0.000000 0.000000 
#    y 0.000000 1.505630 0.000000 
#    z 0.000000 0.000000 1.516140 
# 
# From -- ./inp_files/28365.got.cif
#   From: 2010.05.17/outbox.cif.g08.bks.cpg/sg51_15_cif.got.tgz:28365.got - 2010.06.03 11:52:47.
