data_PCOD9401367
_publ_section_title
;
Structure prediction by ZEFSAII (Michael W. Deem and Ramdas Pophale) SiO2 
 PCOD9401367
Probable space group: P M M A
;
_chemical_formula_sum "Si O2"
_cell_formula_units_Z 56
_cell_length_a 14.841525
_cell_length_b 19.867964
_cell_length_c 9.468750
_cell_angle_alpha 90.000000
_cell_angle_beta 90.000000
_cell_angle_gamma 90.000000
_cell_volume 2792.058687
_symmetry_space_group_name_H-M "P M M A"
_symmetry_group_IT_number 51
_symmetry_cell_setting 'orthorhombic'
loop_
_space_group_symop_operation_xyz
x,y,z
1/2-x,-y,z
1/2+x,-y,-z
-x,y,-z
-x,-y,-z
1/2+x,y,-z
1/2-x,y,z
x,-y,z
loop_
_atom_site_type_symbol
_atom_site_label
_atom_site_fract_x
_atom_site_fract_y
_atom_site_fract_z
Si Si1 0.859797 0.211810 0.573968
Si Si2 0.139644 0.075774 0.937185
Si Si3 0.038891 0.346578 0.346482
Si Si4 0.359896 0.076324 0.261974
Si Si5 0.643232 0.574900 0.873429
Si Si6 0.081882 0.689746 0.909829
Si Si7 0.647023 0.809132 0.256847
O O1 0.750000 0.219638 0.583683
O O2 0.907052 0.275744 0.646122
O O3 0.885407 0.140216 0.643051
O O4 0.889903 0.211042 0.409555
O O5 0.250000 0.079273 0.936863
O O6 0.103792 0.128166 0.823248
O O7 0.113861 0.000000 0.900221
O O8 0.112995 0.088724 0.099053
O O9 0.103519 0.401668 0.276270
O O10 0.000000 0.362248 0.500000
O O11 0.959133 0.340546 0.232961
O O12 0.250000 0.074911 0.264581
O O13 0.388982 0.000000 0.302834
O O14 0.750000 0.573303 0.864074
O O15 0.610064 0.500000 0.911169
O O16 0.618469 0.630902 0.990363
O O17 0.145688 0.748339 0.854848
O O18 0.000000 0.721296 0.000000
O O19 0.750000 0.828012 0.288693
#
# Coordination Sequence:
#
# PCOD9401367 Si02
#       7
#     8   8   8   8   8   8   8
#     4  10  20  33  54  82 114 155 200 247 293 345
#     4   8  15  27  45  72 105 142 189 246 298 340
#     4  11  22  39  60  88 125 160 192 233 287 351
#     4   8  15  28  47  75 108 145 196 253 303 347
#     4  10  23  44  68  93 119 150 192 238 282 338
#     4  10  22  37  59  85 115 153 189 231 287 346
#     4  10  19  32  52  79 110 145 192 243 290 341
#
# _framework density 20.056884
#
# number of rings (size 3 to 8) (size 9 to 14) (size 15 to 20)
#    0.000    2.429    1.429    1.714    4.000    3.429 
#    0.000    2.857    0.000    3.429    0.000    0.000 
#    0.000    0.000    0.000    0.000    0.000    0.000 
#
# Total GULP energy -312382.618810 kJ/mol
# GULP energy per Si atom -5578.261050 kJ/mol
# Density = 2.001123 g / cm^3
# Si number density = 20.056884 Si / 1000 Ang^3
#
#
#
# Elastic Constant Matrix: (Units=GPa)
#
#
# Indices 1 2 3 4 5 6 
#
# 1 43.5522 15.8526 17.9509 0.0000 0.0000 0.0000
# 2 15.8526 113.7159 47.2374 0.0000 0.0000 0.0000
# 3 17.9509 47.2374 100.5203 0.0000 0.0000 0.0000
# 4 0.0000 0.0000 0.0000 18.7752 0.0000 0.0000
# 5 0.0000 0.0000 0.0000 0.0000 21.2475 0.0000
# 6 0.0000 0.0000 0.0000 0.0000 0.0000 -91.2541
#
#
#
# Elastic Compliance Matrix: (Units=1/GPa)
#
#
# Indices 1 2 3 4 5 6 
#
# 1 0.025160 -0.002039 -0.003535 0.000000 0.000000 0.000000
# 2 -0.002039 0.011092 -0.004848 0.000000 0.000000 0.000000
# 3 -0.003535 -0.004848 0.012858 0.000000 0.000000 0.000000
# 4 0.000000 0.000000 0.000000 0.053262 0.000000 0.000000
# 5 0.000000 0.000000 0.000000 0.000000 0.047064 0.000000
# 6 0.000000 0.000000 0.000000 0.000000 0.000000 -0.010958
#
#
# Mechanical properties :
#
#
# Convention : Reuss Voigt Hill
#
# Bulk Modulus (GPa) = 35.37884 46.65224 41.01554
# Shear Modulus (GPa) = 29.63064 1.53690 15.58377
#
# Velocity S-wave (km/s) = 3.84778 0.87632 2.79046
# Velocity P-wave (km/s) = 6.11703 4.93299 5.55664
#
# Compressibility (1/GPa) = 0.02826549
#
# Stress axis : x y z
#
# Youngs Moduli (GPa) = 39.74548 90.15421 77.77335
#
# Poissons Ratio (x) = 0.18383 0.27492
# Poissons Ratio (y) = 0.08104 0.37707
# Poissons Ratio (z) = 0.14049 0.43710
#
# Static dielectric constant tensor:
#      x y z
#    x 1.752890 0.000000 0.000000 
#    y 0.000000 1.719070 0.000000 
#    z 0.000000 0.000000 1.693960 
# 
# From -- ./inp_files/8512.got.cif
#   From: 2010.05.17/outbox.cif.g08.bks.cpg/sg51_5_cif.got.tgz:8512.got - 2010.06.03 11:52:47.
