data_PCOD9401504
_publ_section_title
;
Structure prediction by ZEFSAII (Michael W. Deem and Ramdas Pophale) SiO2 
 PCOD9401504
Probable space group: P M M A
;
_chemical_formula_sum "Si O2"
_cell_formula_units_Z 64
_cell_length_a 14.690076
_cell_length_b 14.476920
_cell_length_c 13.098422
_cell_angle_alpha 90.000000
_cell_angle_beta 90.000000
_cell_angle_gamma 90.000000
_cell_volume 2785.602832
_symmetry_space_group_name_H-M "P M M A"
_symmetry_group_IT_number 51
_symmetry_cell_setting 'orthorhombic'
loop_
_space_group_symop_operation_xyz
x,y,z
1/2-x,-y,z
1/2+x,-y,-z
-x,y,-z
-x,-y,-z
1/2+x,y,-z
1/2-x,y,z
x,-y,z
loop_
_atom_site_type_symbol
_atom_site_label
_atom_site_fract_x
_atom_site_fract_y
_atom_site_fract_z
Si Si1 0.362093 0.394328 0.822371
Si Si2 0.640226 0.392438 0.763818
Si Si3 0.352795 0.265036 0.643800
Si Si4 0.406086 0.103799 0.061390
Si Si5 0.103504 0.605532 0.463182
Si Si6 0.138533 0.105728 0.510422
Si Si7 0.145042 0.304856 0.030023
Si Si8 0.646087 0.889152 0.714271
O O1 0.250000 0.393958 0.819779
O O2 0.389909 0.500000 0.803845
O O3 0.394694 0.324973 0.734310
O O4 0.393639 0.356862 0.931872
O O5 0.750000 0.386964 0.759457
O O6 0.615593 0.500000 0.777512
O O7 0.608223 0.360863 0.652849
O O8 0.606133 0.335612 0.861024
O O9 0.250000 0.241205 0.677697
O O10 0.347636 0.330454 0.544668
O O11 0.395661 0.171480 0.600459
O O12 0.357489 0.194537 0.018120
O O13 0.411752 0.123268 0.183231
O O14 0.364530 0.000000 0.052168
O O15 0.500000 0.100633 0.000000
O O16 0.139059 0.500000 0.464576
O O17 0.000000 0.603431 0.500000
O O18 0.250000 0.107188 0.510987
O O19 0.113897 0.142009 0.397289
O O20 0.109654 0.000000 0.524602
O O21 0.250000 0.334710 0.033392
O O22 0.750000 0.853868 0.734304
O O23 0.653445 0.000000 0.701224
#
# Coordination Sequence:
#
# PCOD9401504 Si02
#       8
#     8   8   8   8   8   8   8   8
#     4   9  18  34  55  79 108 144 187 234 282 334
#     4   9  18  34  59  89 116 143 183 239 297 348
#     4  10  19  32  55  81 105 143 194 234 278 342
#     4  10  21  36  52  76 113 151 187 229 281 341
#     4  10  21  36  52  77 115 151 182 226 288 349
#     4   8  15  28  49  81 115 140 174 232 293 343
#     4  10  20  35  58  85 112 145 191 243 293 339
#     4   8  14  27  49  75 103 138 178 225 283 341
#
# _framework density 22.975279
#
# number of rings (size 3 to 8) (size 9 to 14) (size 15 to 20)
#    0.000    2.750    0.000    2.250    1.750    3.500 
#    2.250    0.625    0.000    3.375    0.000    0.000 
#    0.000    0.000    0.000    0.000    0.000    0.000 
#
# Total GULP energy -357324.731158 kJ/mol
# GULP energy per Si atom -5583.198924 kJ/mol
# Density = 2.292299 g / cm^3
# Si number density = 22.975279 Si / 1000 Ang^3
#
#
#
# Elastic Constant Matrix: (Units=GPa)
#
#
# Indices 1 2 3 4 5 6 
#
# 1 52.2816 5.9372 25.4361 0.0000 0.0000 0.0000
# 2 5.9372 126.1555 77.2434 0.0000 0.0000 0.0000
# 3 25.4361 77.2434 178.8049 0.0000 0.0000 0.0000
# 4 0.0000 0.0000 0.0000 54.1374 0.0000 0.0000
# 5 0.0000 0.0000 0.0000 0.0000 -10.9293 0.0000
# 6 0.0000 0.0000 0.0000 0.0000 0.0000 29.0008
#
#
#
# Elastic Compliance Matrix: (Units=1/GPa)
#
#
# Indices 1 2 3 4 5 6 
#
# 1 0.020666 0.001125 -0.003426 0.000000 0.000000 0.000000
# 2 0.001125 0.010839 -0.004842 0.000000 0.000000 0.000000
# 3 -0.003426 -0.004842 0.008172 0.000000 0.000000 0.000000
# 4 0.000000 0.000000 0.000000 0.018472 0.000000 0.000000
# 5 0.000000 0.000000 0.000000 0.000000 -0.091497 0.000000
# 6 0.000000 0.000000 0.000000 0.000000 0.000000 0.034482
#
#
# Mechanical properties :
#
#
# Convention : Reuss Voigt Hill
#
# Bulk Modulus (GPa) = 39.38498 63.83060 51.60779
# Shear Modulus (GPa) = 209.35544 31.01679 120.18611
#
# Velocity S-wave (km/s) = 9.55614 3.67823 7.24048
# Velocity P-wave (km/s) = 11.78725 6.77361 9.61304
#
# Compressibility (1/GPa) = 0.02539039
#
# Stress axis : x y z
#
# Youngs Moduli (GPa) = 48.38821 92.26215 122.37014
#
# Poissons Ratio (x) = -0.10380 0.41923
# Poissons Ratio (y) = -0.05444 0.59256
# Poissons Ratio (z) = 0.16577 0.44676
#
# Static dielectric constant tensor:
#      x y z
#    x 1.903540 0.000000 0.000000 
#    y 0.000000 1.885090 0.000000 
#    z 0.000000 0.000000 1.837430 
# 
# From -- ./inp_files/17556.got.cif
#   From: 2010.05.17/outbox.cif.g08.bks.cpg/sg51_9_cif.got.tgz:17556.got - 2010.06.03 11:52:47.
