data_PCOD9401021
_publ_section_title
;
Structure prediction by ZEFSAII (Michael W. Deem and Ramdas Pophale) SiO2 
 PCOD9401021
Probable space group: P M M A
;
_chemical_formula_sum "Si O2"
_cell_formula_units_Z 48
_cell_length_a 19.803723
_cell_length_b 7.515102
_cell_length_c 15.611630
_cell_angle_alpha 90.000000
_cell_angle_beta 90.000000
_cell_angle_gamma 90.000000
_cell_volume 2323.432032
_symmetry_space_group_name_H-M "P M M A"
_symmetry_group_IT_number 51
_symmetry_cell_setting 'orthorhombic'
loop_
_space_group_symop_operation_xyz
x,y,z
1/2-x,-y,z
1/2+x,-y,-z
-x,y,-z
-x,-y,-z
1/2+x,y,-z
1/2-x,y,z
x,-y,z
loop_
_atom_site_type_symbol
_atom_site_label
_atom_site_fract_x
_atom_site_fract_y
_atom_site_fract_z
Si Si1 0.327408 0.217279 0.112211
Si Si2 0.173107 0.213311 0.439053
Si Si3 0.439322 0.208986 0.771570
Si Si4 0.173656 0.710941 0.634182
Si Si5 0.413187 0.217901 0.279012
Si Si6 0.573371 0.217172 0.036618
O O1 0.250000 0.276389 0.113390
O O2 0.367971 0.269540 0.197411
O O3 0.326857 0.000000 0.111821
O O4 0.368503 0.276412 0.028431
O O5 0.250000 0.281209 0.427409
O O6 0.152246 0.250854 0.536539
O O7 0.122255 0.279201 0.366441
O O8 0.176210 0.000000 0.430185
O O9 0.379595 0.224647 0.703574
O O10 0.510237 0.280669 0.735495
O O11 0.420703 0.280337 0.865582
O O12 0.451955 0.000000 0.785688
O O13 0.250000 0.783664 0.645228
O O14 0.177210 0.500000 0.643707
O O15 0.413929 0.000000 0.281661
O O16 0.575864 0.000000 0.035830
O O17 0.500000 0.267139 0.000000
#
# Coordination Sequence:
#
# PCOD9401021 Si02
#       6
#     8   8   8   8   8   8
#     4   9  15  23  39  67 102 135 166 202 245 293
#     4   9  17  31  52  75  99 129 167 209 250 296
#     4  10  19  31  52  77 103 134 166 204 249 298
#     4  10  22  39  54  69  95 131 169 210 255 300
#     4   9  16  27  45  73 104 131 159 200 254 301
#     4   9  15  26  43  68 104 139 165 197 245 292
#
# _framework density 20.659092999999999
#
# number of rings (size 3 to 8) (size 9 to 14) (size 15 to 20)
#    0.000    2.667    1.667    1.000    0.000    4.333 
#    0.000    5.833    0.000    0.500    0.000    0.000 
#    0.000    4.000    0.000    0.000    0.000    0.000 
#
# Total GULP energy -267949.774701 kJ/mol
# GULP energy per Si atom -5582.286973 kJ/mol
# Density = 2.061207 g / cm^3
# Si number density = 20.659093 Si / 1000 Ang^3
#
#
#
# Elastic Constant Matrix: (Units=GPa)
#
#
# Indices 1 2 3 4 5 6 
#
# 1 157.9416 -6.5485 120.4721 0.0000 0.0000 0.0000
# 2 -6.5485 47.5344 -12.0757 0.0000 0.0000 0.0000
# 3 120.4721 -12.0757 196.4022 0.0000 0.0000 0.0000
# 4 0.0000 0.0000 0.0000 -56.2793 0.0000 0.0000
# 5 0.0000 0.0000 0.0000 0.0000 40.8958 0.0000
# 6 0.0000 0.0000 0.0000 0.0000 0.0000 -10.7462
#
#
#
# Elastic Compliance Matrix: (Units=1/GPa)
#
#
# Indices 1 2 3 4 5 6 
#
# 1 0.011901 -0.000218 -0.007313 0.000000 0.000000 0.000000
# 2 -0.000218 0.021375 0.001448 0.000000 0.000000 0.000000
# 3 -0.007313 0.001448 0.009667 0.000000 0.000000 0.000000
# 4 0.000000 0.000000 0.000000 -0.017769 0.000000 0.000000
# 5 0.000000 0.000000 0.000000 0.000000 0.024452 0.000000
# 6 0.000000 0.000000 0.000000 0.000000 0.000000 -0.093056
#
#
# Mechanical properties :
#
#
# Convention : Reuss Voigt Hill
#
# Bulk Modulus (GPa) = 32.49331 67.28600 49.88965
# Shear Modulus (GPa) = -238.04187 14.77608 -111.63290
#
# Velocity S-wave (km/s) = -10.74588 2.67729 -7.35887
# Velocity P-wave (km/s) = 11.75597 6.49596 6.92839
#
# Compressibility (1/GPa) = 0.03077557
#
# Stress axis : x y z
#
# Youngs Moduli (GPa) = 84.02884 46.78318 103.44960
#
# Poissons Ratio (x) = 0.01022 0.75655
# Poissons Ratio (y) = 0.01835 -0.14982
# Poissons Ratio (z) = 0.61452 -0.06775
#
# Static dielectric constant tensor:
#      x y z
#    x 1.692830 0.000000 0.000000 
#    y 0.000000 1.788120 0.000000 
#    z 0.000000 0.000000 1.708840 
# 
# From -- ./inp_files/24688.got.cif
#   From: 2010.05.17/outbox.cif.g08.bks.cpg/sg51_13_cif.got.tgz:24688.got - 2010.06.03 11:52:47.
