data_PCOD9401966
_publ_section_title
;
Structure prediction by ZEFSAII (Michael W. Deem and Ramdas Pophale) SiO2 
 PCOD9401966
Probable space group: P M M A
;
_chemical_formula_sum "Si O2"
_cell_formula_units_Z 56
_cell_length_a 8.831688
_cell_length_b 20.554390
_cell_length_c 15.682488
_cell_angle_alpha 90.000000
_cell_angle_beta 90.000000
_cell_angle_gamma 90.000000
_cell_volume 2846.841412
_symmetry_space_group_name_H-M "P M M A"
_symmetry_group_IT_number 51
_symmetry_cell_setting 'orthorhombic'
loop_
_space_group_symop_operation_xyz
x,y,z
1/2-x,-y,z
1/2+x,-y,-z
-x,y,-z
-x,-y,-z
1/2+x,y,-z
1/2-x,y,z
x,-y,z
loop_
_atom_site_type_symbol
_atom_site_label
_atom_site_fract_x
_atom_site_fract_y
_atom_site_fract_z
Si Si1 0.072077 0.753541 0.358007
Si Si2 0.574486 0.900012 0.587053
Si Si3 0.430681 0.573458 0.237675
Si Si4 0.568206 0.674029 0.911231
Si Si5 0.070129 0.619857 0.587225
Si Si6 0.069091 0.206022 0.823115
Si Si7 0.567397 0.927183 0.778691
O O1 0.250000 0.737924 0.345778
O O2 0.063050 0.821530 0.407877
O O3 0.989383 0.693874 0.402335
O O4 0.995389 0.767301 0.266977
O O5 0.500000 0.922895 0.500000
O O6 0.750000 0.918152 0.584243
O O7 0.515792 0.923506 0.679160
O O8 0.250000 0.580358 0.251897
O O9 0.459676 0.500000 0.207424
O O10 0.475011 0.626366 0.166846
O O11 0.513123 0.585116 0.327153
O O12 0.750000 0.676938 0.915192
O O13 0.500393 0.745152 0.892050
O O14 0.500000 0.649751 0.000000
O O15 0.250000 0.618654 0.582054
O O16 0.000000 0.592598 0.500000
O O17 0.250000 0.208350 0.824117
O O18 0.010627 0.131887 0.827976
O O19 0.750000 0.916304 0.778384
O O20 0.537700 0.000000 0.810751
#
# Coordination Sequence:
#
# PCOD9401966 Si02
#       7
#     8   8   8   8   8   8   8
#     4  10  19  34  54  78 112 154 201 254 308 363
#     4   9  18  29  44  69 103 144 192 245 300 353
#     4  10  23  44  67  91 125 168 209 254 308 365
#     4  11  23  41  68  98 130 162 201 250 305 370
#     4  12  24  37  58  87 121 164 212 261 312 367
#     4  11  21  35  59  90 122 155 198 250 306 365
#     4   9  19  36  55  76 109 157 205 248 304 369
#
# _framework density 19.670922999999998
#
# number of rings (size 3 to 8) (size 9 to 14) (size 15 to 20)
#    0.000    1.714    1.429    4.714    0.000    6.000 
#    0.000    0.000    0.000    0.429    0.000    0.000 
#    0.000    0.000    0.000    0.000    0.000    0.000 
#
# Total GULP energy -312875.558217 kJ/mol
# GULP energy per Si atom -5587.063540 kJ/mol
# Density = 1.962615 g / cm^3
# Si number density = 19.670923 Si / 1000 Ang^3
#
#
#
# Elastic Constant Matrix: (Units=GPa)
#
#
# Indices 1 2 3 4 5 6 
#
# 1 92.5706 40.1293 48.9423 0.0000 0.0000 0.0000
# 2 40.1293 110.0413 38.4584 0.0000 0.0000 0.0000
# 3 48.9423 38.4584 86.7238 0.0000 0.0000 0.0000
# 4 0.0000 0.0000 0.0000 -9.0548 0.0000 0.0000
# 5 0.0000 0.0000 0.0000 0.0000 29.7979 0.0000
# 6 0.0000 0.0000 0.0000 0.0000 0.0000 18.3784
#
#
#
# Elastic Compliance Matrix: (Units=1/GPa)
#
#
# Indices 1 2 3 4 5 6 
#
# 1 0.016313 -0.003233 -0.007773 0.000000 0.000000 0.000000
# 2 -0.003233 0.011395 -0.003229 0.000000 0.000000 0.000000
# 3 -0.007773 -0.003229 0.017349 0.000000 0.000000 0.000000
# 4 0.000000 0.000000 0.000000 -0.110438 0.000000 0.000000
# 5 0.000000 0.000000 0.000000 0.000000 0.033559 0.000000
# 6 0.000000 0.000000 0.000000 0.000000 0.000000 0.054412
#
#
# Mechanical properties :
#
#
# Convention : Reuss Voigt Hill
#
# Bulk Modulus (GPa) = 60.28116 60.48842 60.38479
# Shear Modulus (GPa) = 88.35666 18.61134 53.48400
#
# Velocity S-wave (km/s) = 6.70931 3.07927 5.22000
# Velocity P-wave (km/s) = 9.52529 6.59238 8.19117
#
# Compressibility (1/GPa) = 0.01658893
#
# Stress axis : x y z
#
# Youngs Moduli (GPa) = 61.29913 87.75958 57.63898
#
# Poissons Ratio (x) = 0.28368 0.44803
# Poissons Ratio (y) = 0.19815 0.18611
# Poissons Ratio (z) = 0.47648 0.28336
#
# Static dielectric constant tensor:
#      x y z
#    x 1.655800 0.000000 0.000000 
#    y 0.000000 1.711050 0.000000 
#    z 0.000000 0.000000 1.701460 
# 
# From -- ./inp_files/21799.got.cif
#   From: 2010.05.17/outbox.cif.g08.bks.cpg/sg51_11_cif.got.tgz:21799.got - 2010.06.03 11:52:47.
