data_PCOD9401252
_publ_section_title
;
Structure prediction by ZEFSAII (Michael W. Deem and Ramdas Pophale) SiO2 
 PCOD9401252
Probable space group: P M M A
;
_chemical_formula_sum "Si O2"
_cell_formula_units_Z 44
_cell_length_a 8.566221
_cell_length_b 29.894321
_cell_length_c 9.648617
_cell_angle_alpha 90.000000
_cell_angle_beta 90.000000
_cell_angle_gamma 90.000000
_cell_volume 2470.830967
_symmetry_space_group_name_H-M "P M M A"
_symmetry_group_IT_number 51
_symmetry_cell_setting 'orthorhombic'
loop_
_space_group_symop_operation_xyz
x,y,z
1/2-x,-y,z
1/2+x,-y,-z
-x,y,-z
-x,-y,-z
1/2+x,y,-z
1/2-x,y,z
x,-y,z
loop_
_atom_site_type_symbol
_atom_site_label
_atom_site_fract_x
_atom_site_fract_y
_atom_site_fract_z
Si Si1 0.436159 0.822151 0.655718
Si Si2 0.562241 0.000000 0.843069
Si Si3 0.438065 0.646076 0.842542
Si Si4 0.436163 0.726019 0.344281
Si Si5 0.061634 0.451994 0.842221
Si Si6 0.438077 0.902109 0.157530
O O1 0.500000 0.828508 0.500000
O O2 0.250000 0.820596 0.651978
O O3 0.500035 0.774089 0.705556
O O4 0.493749 0.862300 0.751693
O O5 0.514692 0.951539 0.784768
O O6 0.750000 0.000000 0.846312
O O7 0.500000 0.000000 0.000000
O O8 0.250000 0.648686 0.843838
O O9 0.506127 0.685863 0.751605
O O10 0.485510 0.596625 0.785279
O O11 0.500000 0.649361 0.000000
O O12 0.500000 0.719690 0.500000
O O13 0.250000 0.727544 0.347964
O O14 0.250000 0.452045 0.845078
O O15 0.011025 0.500000 0.779107
O O16 0.000000 0.452183 0.000000
O O17 0.250000 0.899443 0.156193
O O18 0.500000 0.898907 0.000000
#
# Coordination Sequence:
#
# PCOD9401252 Si02
#       6
#     8   4   8   8   8   8
#     4  11  22  38  57  78 103 135 172 213 259 309
#     4   8  16  30  51  76 107 140 172 208 250 300
#     4  10  19  32  51  78 108 136 170 213 256 300
#     4  11  22  38  57  76 100 134 172 211 258 313
#     4   8  14  25  43  68  99 133 166 202 247 297
#     4  10  19  34  55  82 110 140 175 213 255 301
#
# _framework density 17.807774999999999
#
# number of rings (size 3 to 8) (size 9 to 14) (size 15 to 20)
#    0.000    2.182    0.000    5.455    0.000    2.182 
#    0.000    4.091    0.000    0.545    0.000    0.000 
#    0.000    0.000    0.000    0.000    0.000    0.000 
#
# Total GULP energy -245242.585331 kJ/mol
# GULP energy per Si atom -5573.695121 kJ/mol
# Density = 1.776724 g / cm^3
# Si number density = 17.807775 Si / 1000 Ang^3
#
#
#
# Elastic Constant Matrix: (Units=GPa)
#
#
# Indices 1 2 3 4 5 6 
#
# 1 107.3292 69.7830 27.2345 0.0000 0.0000 0.0000
# 2 69.7830 239.7780 76.7454 0.0000 0.0000 0.0000
# 3 27.2345 76.7454 40.6296 0.0000 0.0000 0.0000
# 4 0.0000 0.0000 0.0000 -43.5558 0.0000 0.0000
# 5 0.0000 0.0000 0.0000 0.0000 25.9664 0.0000
# 6 0.0000 0.0000 0.0000 0.0000 0.0000 20.5469
#
#
#
# Elastic Compliance Matrix: (Units=1/GPa)
#
#
# Indices 1 2 3 4 5 6 
#
# 1 0.011692 -0.002262 -0.003565 0.000000 0.000000 0.000000
# 2 -0.002262 0.010984 -0.019233 0.000000 0.000000 0.000000
# 3 -0.003565 -0.019233 0.063331 0.000000 0.000000 0.000000
# 4 0.000000 0.000000 0.000000 -0.022959 0.000000 0.000000
# 5 0.000000 0.000000 0.000000 0.000000 0.038511 0.000000
# 6 0.000000 0.000000 0.000000 0.000000 0.000000 0.048669
#
#
# Mechanical properties :
#
#
# Convention : Reuss Voigt Hill
#
# Bulk Modulus (GPa) = 27.86412 81.69583 54.77998
# Shear Modulus (GPa) = 23.55028 14.85642 19.20335
#
# Velocity S-wave (km/s) = 3.64053 2.89150 3.28742
# Velocity P-wave (km/s) = 5.77515 7.55803 6.72593
#
# Compressibility (1/GPa) = 0.03588845
#
# Stress axis : x y z
#
# Youngs Moduli (GPa) = 85.52615 91.03745 15.79003
#
# Poissons Ratio (x) = 0.20589 0.05630
# Poissons Ratio (y) = 0.19343 0.30368
# Poissons Ratio (z) = 0.30494 1.75089
#
# Static dielectric constant tensor:
#      x y z
#    x 1.600940 0.000000 0.000000 
#    y 0.000000 1.664950 0.000000 
#    z 0.000000 0.000000 1.559020 
# 
# From -- ./inp_files/5687.got.cif
#   From: 2010.05.17/outbox.cif.g08.bks.cpg/sg51_3_cif.got.tgz:5687.got - 2010.06.03 11:52:47.
