data_PCOD9401720
_publ_section_title
;
Structure prediction by ZEFSAII (Michael W. Deem and Ramdas Pophale) SiO2 
 PCOD9401720
Probable space group: P M M A
;
_chemical_formula_sum "Si O2"
_cell_formula_units_Z 40
_cell_length_a 8.776009
_cell_length_b 18.881190
_cell_length_c 13.859345
_cell_angle_alpha 90.000000
_cell_angle_beta 90.000000
_cell_angle_gamma 90.000000
_cell_volume 2296.514164
_symmetry_space_group_name_H-M "P M M A"
_symmetry_group_IT_number 51
_symmetry_cell_setting 'orthorhombic'
loop_
_space_group_symop_operation_xyz
x,y,z
1/2-x,-y,z
1/2+x,-y,-z
-x,y,-z
-x,-y,-z
1/2+x,y,-z
1/2-x,y,z
x,-y,z
loop_
_atom_site_type_symbol
_atom_site_label
_atom_site_fract_x
_atom_site_fract_y
_atom_site_fract_z
Si Si1 0.932339 0.000000 0.607701
Si Si2 0.067095 0.138702 0.707696
Si Si3 0.067127 0.791662 0.105549
Si Si4 0.433134 0.354920 0.209618
Si Si5 0.431568 0.713384 0.604885
Si Si6 0.934378 0.500000 0.892841
O O1 0.000000 0.000000 0.500000
O O2 0.991903 0.930623 0.662998
O O3 0.750000 0.000000 0.603214
O O4 0.250000 0.131389 0.710502
O O5 0.028960 0.207183 0.641613
O O6 0.003562 0.156994 0.813649
O O7 0.250000 0.798251 0.104774
O O8 0.027702 0.711692 0.140746
O O9 0.000000 0.804377 0.000000
O O10 0.250000 0.355640 0.219499
O O11 0.504844 0.338855 0.313354
O O12 0.482123 0.428866 0.163038
O O13 0.500000 0.700544 0.500000
O O14 0.250000 0.708193 0.601169
O O15 0.750000 0.500000 0.898025
O O16 0.000000 0.500000 0.000000
#
# Coordination Sequence:
#
# PCOD9401720 Si02
#       6
#     4   8   8   8   8   4
#     4  12  24  38  57  82 111 142 174 212 260 312
#     4  10  21  37  56  80 108 139 176 218 262 312
#     4  10  19  33  54  79 107 141 178 219 263 311
#     4   9  19  34  52  76 107 139 176 218 261 310
#     4  10  20  34  55  79 104 136 175 217 262 310
#     4  10  20  34  53  78 107 140 173 214 264 312
#
# _framework density 17.417701999999998
#
# number of rings (size 3 to 8) (size 9 to 14) (size 15 to 20)
#    0.000    2.000    0.000    3.900    0.000    5.600 
#    0.000    1.000    0.000    0.000    0.000    0.000 
#    0.000    0.000    0.000    0.000    0.000    0.000 
#
# Total GULP energy -223415.786102 kJ/mol
# GULP energy per Si atom -5585.394653 kJ/mol
# Density = 1.737806 g / cm^3
# Si number density = 17.417702 Si / 1000 Ang^3
#
#
#
# Elastic Constant Matrix: (Units=GPa)
#
#
# Indices 1 2 3 4 5 6 
#
# 1 59.5258 55.5666 63.2049 0.0000 0.0000 0.0000
# 2 55.5666 143.5830 100.3586 0.0000 0.0000 0.0000
# 3 63.2049 100.3586 195.0127 0.0000 0.0000 0.0000
# 4 0.0000 0.0000 0.0000 16.9322 0.0000 0.0000
# 5 0.0000 0.0000 0.0000 0.0000 35.6032 0.0000
# 6 0.0000 0.0000 0.0000 0.0000 0.0000 22.1300
#
#
#
# Elastic Compliance Matrix: (Units=1/GPa)
#
#
# Indices 1 2 3 4 5 6 
#
# 1 0.030060 -0.007533 -0.005866 0.000000 0.000000 0.000000
# 2 -0.007533 0.012765 -0.004128 0.000000 0.000000 0.000000
# 3 -0.005866 -0.004128 0.009153 0.000000 0.000000 0.000000
# 4 0.000000 0.000000 0.000000 0.059059 0.000000 0.000000
# 5 0.000000 0.000000 0.000000 0.000000 0.028087 0.000000
# 6 0.000000 0.000000 0.000000 0.000000 0.000000 0.045187
#
#
# Mechanical properties :
#
#
# Convention : Reuss Voigt Hill
#
# Bulk Modulus (GPa) = 59.08480 92.93132 76.00806
# Shear Modulus (GPa) = 22.22149 26.86584 24.54367
#
# Velocity S-wave (km/s) = 3.57571 3.93166 3.75790
# Velocity P-wave (km/s) = 7.14447 8.60703 7.90963
#
# Compressibility (1/GPa) = 0.01692483
#
# Stress axis : x y z
#
# Youngs Moduli (GPa) = 33.26673 78.33907 109.25108
#
# Poissons Ratio (x) = 0.59015 0.64085
# Poissons Ratio (y) = 0.25061 0.45095
# Poissons Ratio (z) = 0.19514 0.32336
#
# Static dielectric constant tensor:
#      x y z
#    x 1.576830 0.000000 0.000000 
#    y 0.000000 1.580080 0.000000 
#    z 0.000000 0.000000 1.556570 
# 
# From -- ./inp_files/14290.got.cif
#   From: 2010.05.17/outbox.cif.g08.bks.cpg/sg51_8_cif.got.tgz:14290.got - 2010.06.03 11:52:47.
