data_PCOD9401698
_publ_section_title
;
Structure prediction by ZEFSAII (Michael W. Deem and Ramdas Pophale) SiO2 
 PCOD9401698
Probable space group: P M M A
;
_chemical_formula_sum "Si O2"
_cell_formula_units_Z 48
_cell_length_a 7.896101
_cell_length_b 21.371267
_cell_length_c 14.790588
_cell_angle_alpha 90.000000
_cell_angle_beta 90.000000
_cell_angle_gamma 90.000000
_cell_volume 2495.907032
_symmetry_space_group_name_H-M "P M M A"
_symmetry_group_IT_number 51
_symmetry_cell_setting 'orthorhombic'
loop_
_space_group_symop_operation_xyz
x,y,z
1/2-x,-y,z
1/2+x,-y,-z
-x,y,-z
-x,-y,-z
1/2+x,y,-z
1/2-x,y,z
x,-y,z
loop_
_atom_site_type_symbol
_atom_site_label
_atom_site_fract_x
_atom_site_fract_y
_atom_site_fract_z
Si Si1 0.048216 0.813266 0.217530
Si Si2 0.450981 0.432324 0.793576
Si Si3 0.453772 0.244459 0.400938
Si Si4 0.047576 0.388901 0.400377
Si Si5 0.045463 0.929301 0.103478
Si Si6 0.953031 0.691385 0.105021
O O1 0.250000 0.822325 0.227134
O O2 0.980298 0.795226 0.316494
O O3 0.979500 0.875661 0.170162
O O4 0.021134 0.753334 0.153658
O O5 0.250000 0.433249 0.811272
O O6 0.521882 0.500000 0.821861
O O7 0.476620 0.424100 0.686341
O O8 0.519492 0.371119 0.844628
O O9 0.500000 0.220221 0.500000
O O10 0.250000 0.247008 0.395011
O O11 0.514722 0.316573 0.394610
O O12 0.250000 0.389383 0.393264
O O13 0.000000 0.412926 0.500000
O O14 0.250000 0.930113 0.108996
O O15 0.984434 0.000000 0.122524
O O16 0.000000 0.913908 0.000000
O O17 0.750000 0.693006 0.113524
O O18 0.000000 0.690294 0.000000
#
# Coordination Sequence:
#
# PCOD9401698 Si02
#       6
#     8   8   8   8   8   8
#     4  10  19  34  55  79 107 136 172 214 255 301
#     4  10  22  39  55  73 100 134 172 214 260 310
#     4   9  18  31  50  76 104 133 166 208 253 301
#     4  10  19  33  54  78 104 133 168 210 259 311
#     4   9  18  32  51  76 107 141 174 209 252 301
#     4  11  23  37  55  77 102 132 170 214 260 307
#
# _framework density 19.231486
#
# number of rings (size 3 to 8) (size 9 to 14) (size 15 to 20)
#    0.000    2.167    1.667    1.500    0.000    5.000 
#    0.000    0.000    0.000    0.500    0.000    0.000 
#    0.000    0.000    0.000    0.000    0.000    0.000 
#
# Total GULP energy -267931.044823 kJ/mol
# GULP energy per Si atom -5581.896767 kJ/mol
# Density = 1.918771 g / cm^3
# Si number density = 19.231486 Si / 1000 Ang^3
#
#
#
# Elastic Constant Matrix: (Units=GPa)
#
#
# Indices 1 2 3 4 5 6 
#
# 1 15.5411 -3.6551 -15.2985 0.0000 0.0000 0.0000
# 2 -3.6551 115.8292 67.9911 0.0000 0.0000 0.0000
# 3 -15.2985 67.9911 121.1107 0.0000 0.0000 0.0000
# 4 0.0000 0.0000 0.0000 72.2195 0.0000 0.0000
# 5 0.0000 0.0000 0.0000 0.0000 24.9210 0.0000
# 6 0.0000 0.0000 0.0000 0.0000 0.0000 15.9172
#
#
#
# Elastic Compliance Matrix: (Units=1/GPa)
#
#
# Indices 1 2 3 4 5 6 
#
# 1 0.075215 -0.004778 0.012183 0.000000 0.000000 0.000000
# 2 -0.004778 0.013180 -0.008003 0.000000 0.000000 0.000000
# 3 0.012183 -0.008003 0.014289 0.000000 0.000000 0.000000
# 4 0.000000 0.000000 0.000000 0.013847 0.000000 0.000000
# 5 0.000000 0.000000 0.000000 0.000000 0.040127 0.000000
# 6 0.000000 0.000000 0.000000 0.000000 0.000000 0.062825
#
#
# Mechanical properties :
#
#
# Convention : Reuss Voigt Hill
#
# Bulk Modulus (GPa) = 9.85329 38.95064 24.40197
# Shear Modulus (GPa) = 19.64579 36.17445 27.91012
#
# Velocity S-wave (km/s) = 3.19963 4.34176 3.81369
# Velocity P-wave (km/s) = 4.33414 6.74033 5.66643
#
# Compressibility (1/GPa) = 0.10148890
#
# Stress axis : x y z
#
# Youngs Moduli (GPa) = 13.29521 75.87082 69.98527
#
# Poissons Ratio (x) = 0.36252 -0.85266
# Poissons Ratio (y) = 0.06353 0.56009
# Poissons Ratio (z) = -0.16198 0.60719
#
# Static dielectric constant tensor:
#      x y z
#    x 1.698530 0.000000 0.000000 
#    y 0.000000 1.691000 0.000000 
#    z 0.000000 0.000000 1.655210 
# 
# From -- ./inp_files/14414.got.cif
#   From: 2010.05.17/outbox.cif.g08.bks.cpg/sg51_8_cif.got.tgz:14414.got - 2010.06.03 11:52:47.
