data_PCOD9401961
_publ_section_title
;
Structure prediction by ZEFSAII (Michael W. Deem and Ramdas Pophale) SiO2 
 PCOD9401961
Probable space group: P M M A
;
_chemical_formula_sum "Si O2"
_cell_formula_units_Z 48
_cell_length_a 8.831764
_cell_length_b 17.623725
_cell_length_c 15.460388
_cell_angle_alpha 90.000000
_cell_angle_beta 90.000000
_cell_angle_gamma 90.000000
_cell_volume 2406.387438
_symmetry_space_group_name_H-M "P M M A"
_symmetry_group_IT_number 51
_symmetry_cell_setting 'orthorhombic'
loop_
_space_group_symop_operation_xyz
x,y,z
1/2-x,-y,z
1/2+x,-y,-z
-x,y,-z
-x,-y,-z
1/2+x,y,-z
1/2-x,y,z
x,-y,z
loop_
_atom_site_type_symbol
_atom_site_label
_atom_site_fract_x
_atom_site_fract_y
_atom_site_fract_z
Si Si1 0.431366 0.691254 0.903966
Si Si2 0.075157 0.843604 0.169079
Si Si3 0.422308 0.089654 0.361764
Si Si4 0.571896 0.236048 0.412903
Si Si5 0.433742 0.639723 0.720838
Si Si6 0.566435 0.500000 0.402761
Si Si7 0.433417 0.000000 0.092807
O O1 0.250000 0.686482 0.911794
O O2 0.478802 0.773940 0.866907
O O3 0.482271 0.638518 0.821765
O O4 0.500000 0.678423 0.000000
O O5 0.250000 0.829508 0.141650
O O6 0.081454 0.869081 0.268737
O O7 0.012067 0.921515 0.131290
O O8 0.250000 0.093258 0.396666
O O9 0.533036 0.146950 0.409757
O O10 0.462777 0.000000 0.356840
O O11 0.500000 0.268839 0.500000
O O12 0.750000 0.245759 0.417267
O O13 0.517988 0.283117 0.328760
O O14 0.250000 0.639160 0.724149
O O15 0.478959 0.572149 0.656423
O O16 0.750000 0.500000 0.410293
O O17 0.500000 0.500000 0.500000
O O18 0.250000 0.000000 0.100476
O O19 0.500000 0.000000 0.000000
#
# Coordination Sequence:
#
# PCOD9401961 Si02
#       7
#     8   8   8   8   8   4   4
#     4  11  22  38  57  84 116 153 196 239 282 339
#     4  10  19  34  54  77 106 144 189 241 294 344
#     4  10  20  36  57  80 109 148 194 244 296 349
#     4  11  22  38  58  85 114 149 194 241 292 353
#     4   9  20  38  62  89 122 155 190 234 289 348
#     4  10  20  40  67  96 126 158 189 232 289 346
#     4  10  20  32  46  70 103 138 183 238 293 346
#
# _framework density 19.946912999999999
#
# number of rings (size 3 to 8) (size 9 to 14) (size 15 to 20)
#    0.000    1.833    2.500    2.000    0.000    2.667 
#    0.000    2.917    0.000    0.000    0.000    0.000 
#    0.000    0.000    0.000    0.000    0.000    0.000 
#
# Total GULP energy -267251.367290 kJ/mol
# GULP energy per Si atom -5567.736819 kJ/mol
# Density = 1.990151 g / cm^3
# Si number density = 19.946913 Si / 1000 Ang^3
#
#
#
# Elastic Constant Matrix: (Units=GPa)
#
#
# Indices 1 2 3 4 5 6 
#
# 1 30.9217 20.2219 37.5150 0.0000 0.0000 0.0000
# 2 20.2219 106.7978 51.0566 0.0000 0.0000 0.0000
# 3 37.5150 51.0566 161.1668 0.0000 0.0000 0.0000
# 4 0.0000 0.0000 0.0000 -34.3879 0.0000 0.0000
# 5 0.0000 0.0000 0.0000 0.0000 25.8889 0.0000
# 6 0.0000 0.0000 0.0000 0.0000 0.0000 17.8318
#
#
#
# Elastic Compliance Matrix: (Units=1/GPa)
#
#
# Indices 1 2 3 4 5 6 
#
# 1 0.046681 -0.004295 -0.009505 0.000000 0.000000 0.000000
# 2 -0.004295 0.011430 -0.002621 0.000000 0.000000 0.000000
# 3 -0.009505 -0.002621 0.009248 0.000000 0.000000 0.000000
# 4 0.000000 0.000000 0.000000 -0.029080 0.000000 0.000000
# 5 0.000000 0.000000 0.000000 0.000000 0.038627 0.000000
# 6 0.000000 0.000000 0.000000 0.000000 0.000000 0.056080
#
#
# Mechanical properties :
#
#
# Convention : Reuss Voigt Hill
#
# Bulk Modulus (GPa) = 28.97242 57.38594 43.17918
# Shear Modulus (GPa) = 28.19572 14.53942 21.36757
#
# Velocity S-wave (km/s) = 3.76378 2.70275 3.27650
# Velocity P-wave (km/s) = 5.78311 6.21061 6.00067
#
# Compressibility (1/GPa) = 0.03451558
#
# Stress axis : x y z
#
# Youngs Moduli (GPa) = 21.42221 87.49068 108.13475
#
# Poissons Ratio (x) = 0.37574 1.02786
# Poissons Ratio (y) = 0.09200 0.28345
# Poissons Ratio (z) = 0.20363 0.22933
#
# Static dielectric constant tensor:
#      x y z
#    x 1.693040 0.000000 0.000000 
#    y 0.000000 1.700880 0.000000 
#    z 0.000000 0.000000 1.774530 
# 
# From -- ./inp_files/21175.got.cif
#   From: 2010.05.17/outbox.cif.g08.bks.cpg/sg51_11_cif.got.tgz:21175.got - 2010.06.03 11:52:47.
