data_PCOD9401769
_publ_section_title
;
Structure prediction by ZEFSAII (Michael W. Deem and Ramdas Pophale) SiO2 
 PCOD9401769
Probable space group: P M M A
;
_chemical_formula_sum "Si O2"
_cell_formula_units_Z 48
_cell_length_a 8.544705
_cell_length_b 32.122874
_cell_length_c 9.275938
_cell_angle_alpha 90.000000
_cell_angle_beta 90.000000
_cell_angle_gamma 90.000000
_cell_volume 2546.063934
_symmetry_space_group_name_H-M "P M M A"
_symmetry_group_IT_number 51
_symmetry_cell_setting 'orthorhombic'
loop_
_space_group_symop_operation_xyz
x,y,z
1/2-x,-y,z
1/2+x,-y,-z
-x,y,-z
-x,-y,-z
1/2+x,y,-z
1/2-x,y,z
x,-y,z
loop_
_atom_site_type_symbol
_atom_site_label
_atom_site_fract_x
_atom_site_fract_y
_atom_site_fract_z
Si Si1 0.563206 0.785006 0.162327
Si Si2 0.938227 0.627113 0.161569
Si Si3 0.938808 0.955360 0.664304
Si Si4 0.561190 0.863902 0.664550
Si Si5 0.063125 0.705862 0.337680
Si Si6 0.561138 0.453066 0.339049
O O1 0.750000 0.782906 0.161364
O O2 0.508011 0.827165 0.240189
O O3 0.496719 0.745966 0.250891
O O4 0.500000 0.783691 0.000000
O O5 0.750000 0.628625 0.161127
O O6 0.989555 0.583123 0.230956
O O7 0.001577 0.664603 0.258680
O O8 0.000000 0.631358 0.000000
O O9 0.750000 0.955403 0.661853
O O10 0.986006 0.910029 0.722495
O O11 0.000000 0.955567 0.500000
O O12 0.989918 0.000000 0.729982
O O13 0.500000 0.860215 0.500000
O O14 0.750000 0.861099 0.663047
O O15 0.250000 0.705718 0.339341
O O16 0.000000 0.707289 0.500000
O O17 0.500000 0.444513 0.500000
O O18 0.750000 0.452757 0.343271
O O19 0.510230 0.500000 0.298647
#
# Coordination Sequence:
#
# PCOD9401769 Si02
#       6
#     8   8   8   8   8   8
#     4  12  25  42  61  83 112 146 185 229 281 336
#     4  11  23  39  59  86 120 156 194 236 285 338
#     4   8  14  25  44  72 106 142 180 224 272 321
#     4  10  19  33  54  82 114 148 187 230 277 329
#     4  12  25  43  65  89 116 147 186 230 279 333
#     4   9  19  36  58  84 115 152 195 241 287 336
#
# _framework density 18.852630000000001
#
# number of rings (size 3 to 8) (size 9 to 14) (size 15 to 20)
#    0.000    1.667    0.000    5.500    0.000    3.667 
#    0.000    0.000    0.000    0.500    0.000    0.000 
#    0.000    0.000    0.000    0.000    0.000    0.000 
#
# Total GULP energy -268054.439933 kJ/mol
# GULP energy per Si atom -5584.467499 kJ/mol
# Density = 1.880972 g / cm^3
# Si number density = 18.852630 Si / 1000 Ang^3
#
#
#
# Elastic Constant Matrix: (Units=GPa)
#
#
# Indices 1 2 3 4 5 6 
#
# 1 98.3442 58.7584 46.2491 0.0000 0.0000 0.0000
# 2 58.7584 192.9789 105.7535 0.0000 0.0000 0.0000
# 3 46.2491 105.7535 135.8664 0.0000 0.0000 0.0000
# 4 0.0000 0.0000 0.0000 -12.1648 0.0000 0.0000
# 5 0.0000 0.0000 0.0000 0.0000 31.9593 0.0000
# 6 0.0000 0.0000 0.0000 0.0000 0.0000 -4.7387
#
#
#
# Elastic Compliance Matrix: (Units=1/GPa)
#
#
# Indices 1 2 3 4 5 6 
#
# 1 0.012834 -0.002639 -0.002314 0.000000 0.000000 0.000000
# 2 -0.002639 0.009579 -0.006558 0.000000 0.000000 0.000000
# 3 -0.002314 -0.006558 0.013252 0.000000 0.000000 0.000000
# 4 0.000000 0.000000 0.000000 -0.082205 0.000000 0.000000
# 5 0.000000 0.000000 0.000000 0.000000 0.031290 0.000000
# 6 0.000000 0.000000 0.000000 0.000000 0.000000 -0.211029
#
#
# Mechanical properties :
#
#
# Convention : Reuss Voigt Hill
#
# Bulk Modulus (GPa) = 79.09798 94.30128 86.69963
# Shear Modulus (GPa) = -25.12032 17.43975 -3.84029
#
# Velocity S-wave (km/s) = -3.65424 3.04477 -1.42878
# Velocity P-wave (km/s) = 4.92365 7.90504 6.58529
#
# Compressibility (1/GPa) = 0.01264255
#
# Stress axis : x y z
#
# Youngs Moduli (GPa) = 77.92009 104.39308 75.45962
#
# Poissons Ratio (x) = 0.27554 0.17462
# Poissons Ratio (y) = 0.20567 0.49484
# Poissons Ratio (z) = 0.18032 0.68457
#
# Static dielectric constant tensor:
#      x y z
#    x 1.641900 0.000000 0.000000 
#    y 0.000000 1.685400 0.000000 
#    z 0.000000 0.000000 1.590410 
# 
# From -- ./inp_files/6078.got.cif
#   From: 2010.05.17/outbox.cif.g08.bks.cpg/sg51_4_cif.got.tgz:6078.got - 2010.06.03 11:52:47.
