data_PCOD9401017
_publ_section_title
;
Structure prediction by ZEFSAII (Michael W. Deem and Ramdas Pophale) SiO2 
 PCOD9401017
Probable space group: P M M A
;
_chemical_formula_sum "Si O2"
_cell_formula_units_Z 64
_cell_length_a 17.905579
_cell_length_b 14.279420
_cell_length_c 12.176307
_cell_angle_alpha 90.000000
_cell_angle_beta 90.000000
_cell_angle_gamma 90.000000
_cell_volume 3113.253795
_symmetry_space_group_name_H-M "P M M A"
_symmetry_group_IT_number 51
_symmetry_cell_setting 'orthorhombic'
loop_
_space_group_symop_operation_xyz
x,y,z
1/2-x,-y,z
1/2+x,-y,-z
-x,y,-z
-x,-y,-z
1/2+x,y,-z
1/2-x,y,z
x,-y,z
loop_
_atom_site_type_symbol
_atom_site_label
_atom_site_fract_x
_atom_site_fract_y
_atom_site_fract_z
Si Si1 0.914571 0.604804 0.924802
Si Si2 0.336718 0.855365 0.273195
Si Si3 0.589668 0.761813 0.292439
Si Si4 0.171060 0.633018 0.281816
Si Si5 0.334570 0.606541 0.846236
Si Si6 0.525434 0.185688 0.878400
Si Si7 0.089569 0.106336 0.510105
Si Si8 0.512996 0.597951 0.627598
O O1 0.948816 0.500000 0.908719
O O2 0.843769 0.605113 0.843818
O O3 0.956524 0.701252 0.891184
O O4 0.889603 0.613587 0.050098
O O5 0.250000 0.889587 0.254176
O O6 0.329592 0.744341 0.285168
O O7 0.401060 0.863420 0.177369
O O8 0.371276 0.887122 0.390485
O O9 0.648145 0.691387 0.236137
O O10 0.545379 0.824276 0.203114
O O11 0.616874 0.820548 0.397461
O O12 0.525536 0.689989 0.329834
O O13 0.250000 0.599727 0.323498
O O14 0.099969 0.600619 0.348014
O O15 0.250000 0.616916 0.887030
O O16 0.340129 0.500000 0.801459
O O17 0.500000 0.154087 0.000000
O O18 0.000000 0.122831 0.500000
O O19 0.099967 0.000000 0.549788
O O20 0.500000 0.596853 0.500000
O O21 0.483195 0.500000 0.675161
#
# Coordination Sequence:
#
# PCOD9401017 Si02
#       8
#     8   8   8   8   8   8   8   8
#     4  10  19  31  51  82 120 164 217 268 304 350
#     4  10  21  40  65  93 127 165 211 270 331 389
#     4  12  21  38  62  86 126 168 210 264 322 383
#     4  10  19  32  53  79 112 156 205 257 314 366
#     4  10  22  37  54  84 128 175 220 264 315 374
#     4  11  21  36  57  94 125 171 218 262 321 390
#     4  11  23  42  71  99 123 157 208 272 336 394
#     4  11  22  34  51  78 114 160 206 251 304 367
#
# _framework density 20.557271
#
# number of rings (size 3 to 8) (size 9 to 14) (size 15 to 20)
#    0.000    1.375    5.000    2.250    0.000    3.500 
#    0.000    0.625    0.000    2.250    0.000    0.000 
#    0.000    0.000    0.000    0.000    0.000    0.000 
#
# Total GULP energy -356748.351852 kJ/mol
# GULP energy per Si atom -5574.192998 kJ/mol
# Density = 2.051048 g / cm^3
# Si number density = 20.557271 Si / 1000 Ang^3
#
#
#
# Elastic Constant Matrix: (Units=GPa)
#
#
# Indices 1 2 3 4 5 6 
#
# 1 86.8533 5.0068 41.2632 0.0000 0.0000 0.0000
# 2 5.0068 72.6614 34.5742 0.0000 0.0000 0.0000
# 3 41.2632 34.5742 122.6193 0.0000 0.0000 0.0000
# 4 0.0000 0.0000 0.0000 14.8600 0.0000 0.0000
# 5 0.0000 0.0000 0.0000 0.0000 9.9224 0.0000
# 6 0.0000 0.0000 0.0000 0.0000 0.0000 -19.7494
#
#
#
# Elastic Compliance Matrix: (Units=1/GPa)
#
#
# Indices 1 2 3 4 5 6 
#
# 1 0.013837 0.001458 -0.005067 0.000000 0.000000 0.000000
# 2 0.001458 0.016049 -0.005016 0.000000 0.000000 0.000000
# 3 -0.005067 -0.005016 0.011275 0.000000 0.000000 0.000000
# 4 0.000000 0.000000 0.000000 0.067295 0.000000 0.000000
# 5 0.000000 0.000000 0.000000 0.000000 0.100782 0.000000
# 6 0.000000 0.000000 0.000000 0.000000 0.000000 -0.050634
#
#
# Mechanical properties :
#
#
# Convention : Reuss Voigt Hill
#
# Bulk Modulus (GPa) = 41.82379 49.31361 45.56870
# Shear Modulus (GPa) = 27.20004 14.42593 20.81299
#
# Velocity S-wave (km/s) = 3.64144 2.65192 3.18534
# Velocity P-wave (km/s) = 6.17003 5.78078 5.97857
#
# Compressibility (1/GPa) = 0.02390984
#
# Stress axis : x y z
#
# Youngs Moduli (GPa) = 72.26939 62.31074 88.69318
#
# Poissons Ratio (x) = -0.09083 0.44945
# Poissons Ratio (y) = -0.10535 0.44486
# Poissons Ratio (z) = 0.36622 0.31253
#
# Static dielectric constant tensor:
#      x y z
#    x 1.767170 0.000000 0.000000 
#    y 0.000000 1.748450 0.000000 
#    z 0.000000 0.000000 1.740370 
# 
# From -- ./inp_files/17611.got.cif
#   From: 2010.05.17/outbox.cif.g08.bks.cpg/sg51_9_cif.got.tgz:17611.got - 2010.06.03 11:52:47.
