data_PCOD9401495
_publ_section_title
;
Structure prediction by ZEFSAII (Michael W. Deem and Ramdas Pophale) SiO2 
 PCOD9401495
Probable space group: P M M A
;
_chemical_formula_sum "Si O2"
_cell_formula_units_Z 56
_cell_length_a 9.405126
_cell_length_b 14.201780
_cell_length_c 21.383934
_cell_angle_alpha 90.000000
_cell_angle_beta 90.000000
_cell_angle_gamma 90.000000
_cell_volume 2856.242021
_symmetry_space_group_name_H-M "P M M A"
_symmetry_group_IT_number 51
_symmetry_cell_setting 'orthorhombic'
loop_
_space_group_symop_operation_xyz
x,y,z
1/2-x,-y,z
1/2+x,-y,-z
-x,y,-z
-x,-y,-z
1/2+x,y,-z
1/2-x,y,z
x,-y,z
loop_
_atom_site_type_symbol
_atom_site_label
_atom_site_fract_x
_atom_site_fract_y
_atom_site_fract_z
Si Si1 0.421344 0.782068 0.562231
Si Si2 0.536003 0.293403 0.137503
Si Si3 0.417302 0.890714 0.800734
Si Si4 0.583158 0.388198 0.613277
Si Si5 0.750000 0.389376 0.896718
Si Si6 0.250000 0.610906 0.953522
Si Si7 0.094774 0.610818 0.732463
Si Si8 0.416300 0.886833 0.326623
O O1 0.500000 0.819046 0.500000
O O2 0.250000 0.786685 0.558665
O O3 0.480371 0.675968 0.571910
O O4 0.486225 0.838551 0.621035
O O5 0.548826 0.181605 0.143805
O O6 0.382107 0.335557 0.131101
O O7 0.619199 0.337534 0.079368
O O8 0.592483 0.332178 0.203682
O O9 0.250000 0.880765 0.784085
O O10 0.515382 0.866679 0.741187
O O11 0.441548 0.000000 0.816889
O O12 0.750000 0.365648 0.604378
O O13 0.563906 0.500000 0.602777
O O14 0.531108 0.368080 0.684329
O O15 0.750000 0.500000 0.880576
O O16 0.750000 0.382512 0.972048
O O17 0.250000 0.500000 0.936920
O O18 0.250000 0.627131 0.701424
O O19 0.085878 0.500000 0.747990
O O20 0.250000 0.857725 0.330479
O O21 0.421175 0.000000 0.334652
#
# Coordination Sequence:
#
# PCOD9401495 Si02
#       8
#     8   8   8   8   4   4   8   8
#     4  12  25  41  62  86 119 163 208 252 299 361
#     4  12  22  37  61  89 119 164 205 255 313 364
#     4  10  21  39  64  95 126 160 205 255 309 370
#     4  10  22  39  59  85 119 157 201 257 313 365
#     4  11  26  40  59  89 125 163 207 258 306 366
#     4  11  22  42  63  85 121 165 211 254 304 372
#     4  10  19  32  54  84 116 150 194 247 307 375
#     4  10  22  41  67  97 127 156 193 248 311 367
#
# _framework density 19.606179999999998
#
# number of rings (size 3 to 8) (size 9 to 14) (size 15 to 20)
#    0.000    1.286    1.429    4.714    2.000    3.429 
#    0.000    0.000    0.000    2.571    0.000    0.000 
#    0.000    0.000    0.000    0.000    0.000    0.000 
#
# Total GULP energy -312866.218216 kJ/mol
# GULP energy per Si atom -5586.896754 kJ/mol
# Density = 1.956156 g / cm^3
# Si number density = 19.606180 Si / 1000 Ang^3
#
#
#
# Elastic Constant Matrix: (Units=GPa)
#
#
# Indices 1 2 3 4 5 6 
#
# 1 168.9421 51.1978 27.4356 0.0000 0.0000 0.0000
# 2 51.1978 94.8604 45.4777 0.0000 0.0000 0.0000
# 3 27.4356 45.4777 52.0713 0.0000 0.0000 0.0000
# 4 0.0000 0.0000 0.0000 -8.1061 0.0000 0.0000
# 5 0.0000 0.0000 0.0000 0.0000 32.0846 0.0000
# 6 0.0000 0.0000 0.0000 0.0000 0.0000 30.1357
#
#
#
# Elastic Compliance Matrix: (Units=1/GPa)
#
#
# Indices 1 2 3 4 5 6 
#
# 1 0.007091 -0.003502 -0.000677 0.000000 0.000000 0.000000
# 2 -0.003502 0.019865 -0.015504 0.000000 0.000000 0.000000
# 3 -0.000677 -0.015504 0.033102 0.000000 0.000000 0.000000
# 4 0.000000 0.000000 0.000000 -0.123365 0.000000 0.000000
# 5 0.000000 0.000000 0.000000 0.000000 0.031168 0.000000
# 6 0.000000 0.000000 0.000000 0.000000 0.000000 0.033183
#
#
# Mechanical properties :
#
#
# Convention : Reuss Voigt Hill
#
# Bulk Modulus (GPa) = 48.33152 62.67736 55.50444
# Shear Modulus (GPa) = 105.68961 23.60703 64.64832
#
# Velocity S-wave (km/s) = 7.35005 3.47372 5.74848
# Velocity P-wave (km/s) = 9.83543 6.93733 8.51065
#
# Compressibility (1/GPa) = 0.02069043
#
# Stress axis : x y z
#
# Youngs Moduli (GPa) = 141.03373 50.33959 30.20942
#
# Poissons Ratio (x) = 0.17630 0.02046
# Poissons Ratio (y) = 0.49394 0.46838
# Poissons Ratio (z) = 0.09550 0.78048
#
# Static dielectric constant tensor:
#      x y z
#    x 1.649730 0.000000 0.000000 
#    y 0.000000 1.718380 0.000000 
#    z 0.000000 0.000000 1.668410 
# 
# From -- ./inp_files/32090.got.cif
#   From: 2010.05.17/outbox.cif.g08.bks.cpg/sg51_17_cif.got.tgz:32090.got - 2010.06.03 11:52:47.
