data_PCOD9401443
_publ_section_title
;
Structure prediction by ZEFSAII (Michael W. Deem and Ramdas Pophale) SiO2 
 PCOD9401443
Probable space group: P M M A
;
_chemical_formula_sum "Si O2"
_cell_formula_units_Z 48
_cell_length_a 8.624085
_cell_length_b 32.630353
_cell_length_c 9.209122
_cell_angle_alpha 90.000000
_cell_angle_beta 90.000000
_cell_angle_gamma 90.000000
_cell_volume 2591.510822
_symmetry_space_group_name_H-M "P M M A"
_symmetry_group_IT_number 51
_symmetry_cell_setting 'orthorhombic'
loop_
_space_group_symop_operation_xyz
x,y,z
1/2-x,-y,z
1/2+x,-y,-z
-x,y,-z
-x,-y,-z
1/2+x,y,-z
1/2-x,y,z
x,-y,z
loop_
_atom_site_type_symbol
_atom_site_label
_atom_site_fract_x
_atom_site_fract_y
_atom_site_fract_z
Si Si1 0.565101 0.870257 0.664351
Si Si2 0.563978 0.044733 0.334943
Si Si3 0.563422 0.366245 0.835482
Si Si4 0.435801 0.711055 0.662004
Si Si5 0.563697 0.792739 0.162413
Si Si6 0.562860 0.456030 0.835174
O O1 0.500000 0.866894 0.500000
O O2 0.750000 0.870029 0.658351
O O3 0.507442 0.913833 0.728641
O O4 0.502958 0.832327 0.756264
O O5 0.500000 0.043720 0.500000
O O6 0.750000 0.048396 0.339122
O O7 0.524564 0.000000 0.269576
O O8 0.750000 0.364141 0.839696
O O9 0.498742 0.329395 0.740576
O O10 0.516252 0.411475 0.775397
O O11 0.500000 0.362793 0.000000
O O12 0.500000 0.713792 0.500000
O O13 0.250000 0.709398 0.658427
O O14 0.482164 0.751531 0.751760
O O15 0.750000 0.795135 0.160541
O O16 0.500000 0.790837 0.000000
O O17 0.750000 0.456082 0.839289
O O18 0.513147 0.500000 0.768623
O O19 0.500000 0.456180 0.000000
#
# Coordination Sequence:
#
# PCOD9401443 Si02
#       6
#     8   8   8   8   8   8
#     4  11  21  34  55  82 113 147 183 225 270 317
#     4   9  16  27  46  74 108 144 182 224 267 312
#     4  10  19  32  53  80 111 144 179 221 266 315
#     4  11  24  40  59  81 107 139 176 220 268 321
#     4  11  24  41  60  82 108 139 176 218 266 321
#     4   8  14  25  43  70 103 138 175 215 259 306
#
# _framework density 18.522013999999999
#
# number of rings (size 3 to 8) (size 9 to 14) (size 15 to 20)
#    0.000    2.000    0.000    5.500    0.000    7.000 
#    0.000    0.000    0.000    1.000    0.000    0.000 
#    0.000    0.000    0.000    0.000    0.000    0.000 
#
# Total GULP energy -267742.098972 kJ/mol
# GULP energy per Si atom -5577.960395 kJ/mol
# Density = 1.847986 g / cm^3
# Si number density = 18.522014 Si / 1000 Ang^3
#
#
#
# Elastic Constant Matrix: (Units=GPa)
#
#
# Indices 1 2 3 4 5 6 
#
# 1 73.2839 68.3028 32.7653 0.0000 0.0000 0.0000
# 2 68.3028 246.7730 84.0973 0.0000 0.0000 0.0000
# 3 32.7653 84.0973 83.1542 0.0000 0.0000 0.0000
# 4 0.0000 0.0000 0.0000 23.1931 0.0000 0.0000
# 5 0.0000 0.0000 0.0000 0.0000 25.2395 0.0000
# 6 0.0000 0.0000 0.0000 0.0000 0.0000 29.0705
#
#
#
# Elastic Compliance Matrix: (Units=1/GPa)
#
#
# Indices 1 2 3 4 5 6 
#
# 1 0.018966 -0.004124 -0.003302 0.000000 0.000000 0.000000
# 2 -0.004124 0.007080 -0.005536 0.000000 0.000000 0.000000
# 3 -0.003302 -0.005536 0.018925 0.000000 0.000000 0.000000
# 4 0.000000 0.000000 0.000000 0.043116 0.000000 0.000000
# 5 0.000000 0.000000 0.000000 0.000000 0.039620 0.000000
# 6 0.000000 0.000000 0.000000 0.000000 0.000000 0.034399
#
#
# Mechanical properties :
#
#
# Convention : Reuss Voigt Hill
#
# Bulk Modulus (GPa) = 52.49991 85.94910 69.22450
# Shear Modulus (GPa) = 25.72281 30.03700 27.87991
#
# Velocity S-wave (km/s) = 3.73066 4.03139 3.88394
# Velocity P-wave (km/s) = 6.85297 8.25675 7.58740
#
# Compressibility (1/GPa) = 0.01904765
#
# Stress axis : x y z
#
# Youngs Moduli (GPa) = 52.72671 141.23870 52.83923
#
# Poissons Ratio (x) = 0.58247 0.17449
# Poissons Ratio (y) = 0.21745 0.29249
# Poissons Ratio (z) = 0.17412 0.78183
#
# Static dielectric constant tensor:
#      x y z
#    x 1.624730 0.000000 0.000000 
#    y 0.000000 1.696460 0.000000 
#    z 0.000000 0.000000 1.605590 
# 
# From -- ./inp_files/5988.got.cif
#   From: 2010.05.17/outbox.cif.g08.bks.cpg/sg51_3_cif.got.tgz:5988.got - 2010.06.03 11:52:47.
