data_PCOD9401134
_publ_section_title
;
Structure prediction by ZEFSAII (Michael W. Deem and Ramdas Pophale) SiO2 
 PCOD9401134
Probable space group: P M M A
;
_chemical_formula_sum "Si O2"
_cell_formula_units_Z 64
_cell_length_a 24.841751
_cell_length_b 7.475161
_cell_length_c 15.089011
_cell_angle_alpha 90.000000
_cell_angle_beta 90.000000
_cell_angle_gamma 90.000000
_cell_volume 2801.970318
_symmetry_space_group_name_H-M "P M M A"
_symmetry_group_IT_number 51
_symmetry_cell_setting 'orthorhombic'
loop_
_space_group_symop_operation_xyz
x,y,z
1/2-x,-y,z
1/2+x,-y,-z
-x,y,-z
-x,-y,-z
1/2+x,y,-z
1/2-x,y,z
x,-y,z
loop_
_atom_site_type_symbol
_atom_site_label
_atom_site_fract_x
_atom_site_fract_y
_atom_site_fract_z
Si Si1 0.311283 0.214647 0.367387
Si Si2 0.025796 0.283700 0.593369
Si Si3 0.693405 0.793806 0.266230
Si Si4 0.645588 0.711394 0.439635
Si Si5 0.630946 0.780841 0.810820
Si Si6 0.010421 0.788972 0.207770
Si Si7 0.311565 0.782228 0.009724
Si Si8 0.103096 0.218632 0.860003
O O1 0.250000 0.282378 0.369763
O O2 0.341113 0.255401 0.458727
O O3 0.343713 0.279374 0.281981
O O4 0.308617 0.000000 0.360089
O O5 0.025143 0.500000 0.592816
O O6 0.087150 0.219227 0.588266
O O7 0.000000 0.225008 0.500000
O O8 0.998776 0.229184 0.686028
O O9 0.750000 0.710143 0.238536
O O10 0.688147 0.790048 0.371489
O O11 0.639327 0.720638 0.223410
O O12 0.695042 0.000000 0.236704
O O13 0.646281 0.500000 0.425435
O O14 0.569177 0.718078 0.818182
O O15 0.668731 0.728887 0.892567
O O16 0.629917 0.000000 0.810212
O O17 0.957838 0.716896 0.156017
O O18 0.012091 0.000000 0.188426
O O19 0.250000 0.723439 0.990631
O O20 0.310276 0.000000 0.006368
O O21 0.359203 0.727410 0.942390
O O22 0.099368 0.000000 0.862324
#
# Coordination Sequence:
#
# PCOD9401134 Si02
#       8
#     8   8   8   8   8   8   8   8
#     4  10  20  34  51  72 101 136 173 213 257 310
#     4  10  21  36  52  71  99 137 178 215 253 306
#     4  10  19  32  50  72 102 137 170 205 247 301
#     4  11  22  34  50  74 101 131 170 215 259 306
#     4   9  18  31  49  75 104 135 172 214 262 307
#     4  10  19  32  51  77 107 135 168 215 262 305
#     4   9  16  28  48  75 108 142 172 207 256 313
#     4   9  17  29  47  74 106 138 171 205 249 304
#
# _framework density 22.841070999999999
#
# number of rings (size 3 to 8) (size 9 to 14) (size 15 to 20)
#    0.000    2.250    1.250    2.250    0.000    6.250 
#    0.000    2.500    0.000    0.000    0.000    4.375 
#    0.000    6.000    0.000    0.000    0.000    0.000 
#
# Total GULP energy -357401.916706 kJ/mol
# GULP energy per Si atom -5584.404949 kJ/mol
# Density = 2.278908 g / cm^3
# Si number density = 22.841071 Si / 1000 Ang^3
#
#
#
# Elastic Constant Matrix: (Units=GPa)
#
#
# Indices 1 2 3 4 5 6 
#
# 1 104.2960 2.7589 26.1960 0.0000 0.0000 0.0000
# 2 2.7589 66.3243 -11.5341 0.0000 0.0000 0.0000
# 3 26.1960 -11.5341 105.1184 0.0000 0.0000 0.0000
# 4 0.0000 0.0000 0.0000 -100.8124 0.0000 0.0000
# 5 0.0000 0.0000 0.0000 0.0000 56.2227 0.0000
# 6 0.0000 0.0000 0.0000 0.0000 0.0000 -42.8141
#
#
#
# Elastic Compliance Matrix: (Units=1/GPa)
#
#
# Indices 1 2 3 4 5 6 
#
# 1 0.010280 -0.000890 -0.002659 0.000000 0.000000 0.000000
# 2 -0.000890 0.015448 0.001917 0.000000 0.000000 0.000000
# 3 -0.002659 0.001917 0.010386 0.000000 0.000000 0.000000
# 4 0.000000 0.000000 0.000000 -0.009919 0.000000 0.000000
# 5 0.000000 0.000000 0.000000 0.000000 0.017786 0.000000
# 6 0.000000 0.000000 0.000000 0.000000 0.000000 -0.023357
#
#
# Mechanical properties :
#
#
# Convention : Reuss Voigt Hill
#
# Bulk Modulus (GPa) = 30.44305 34.50893 32.47599
# Shear Modulus (GPa) = 143.51960 -0.25957 71.63001
#
# Velocity S-wave (km/s) = 7.93539 -0.33748 5.60609
# Velocity P-wave (km/s) = 9.86497 3.87159 7.49356
#
# Compressibility (1/GPa) = 0.03284822
#
# Stress axis : x y z
#
# Youngs Moduli (GPa) = 97.28006 64.73416 96.28224
#
# Poissons Ratio (x) = 0.05762 0.25605
# Poissons Ratio (y) = 0.08659 -0.18456
# Poissons Ratio (z) = 0.25871 -0.12408
#
# Static dielectric constant tensor:
#      x y z
#    x 1.854200 0.000000 0.000000 
#    y 0.000000 1.895320 0.000000 
#    z 0.000000 0.000000 1.827850 
# 
# From -- ./inp_files/26190.got.cif
#   From: 2010.05.17/outbox.cif.g08.bks.cpg/sg51_14_cif.got.tgz:26190.got - 2010.06.03 11:52:47.
