data_PCOD9401879
_publ_section_title
;
Structure prediction by ZEFSAII (Michael W. Deem and Ramdas Pophale) SiO2 
 PCOD9401879
Probable space group: P M M A
;
_chemical_formula_sum "Si O2"
_cell_formula_units_Z 64
_cell_length_a 9.370015
_cell_length_b 24.761972
_cell_length_c 14.826872
_cell_angle_alpha 90.000000
_cell_angle_beta 90.000000
_cell_angle_gamma 90.000000
_cell_volume 3440.131569
_symmetry_space_group_name_H-M "P M M A"
_symmetry_group_IT_number 51
_symmetry_cell_setting 'orthorhombic'
loop_
_space_group_symop_operation_xyz
x,y,z
1/2-x,-y,z
1/2+x,-y,-z
-x,y,-z
-x,-y,-z
1/2+x,y,-z
1/2-x,y,z
x,-y,z
loop_
_atom_site_type_symbol
_atom_site_label
_atom_site_fract_x
_atom_site_fract_y
_atom_site_fract_z
Si Si1 0.415821 0.645980 0.590552
Si Si2 0.082252 0.247706 0.711193
Si Si3 0.085268 0.565870 0.086688
Si Si4 0.417684 0.062361 0.266015
Si Si5 0.083508 0.101285 0.910043
Si Si6 0.079425 0.842312 0.404205
Si Si7 0.584440 0.232090 0.088135
Si Si8 0.080191 0.435554 0.287669
O O1 0.500000 0.659885 0.500000
O O2 0.250000 0.635179 0.570881
O O3 0.424615 0.696159 0.658737
O O4 0.491030 0.595538 0.638106
O O5 0.250000 0.230025 0.712949
O O6 0.034019 0.253191 0.814841
O O7 0.987595 0.204492 0.658032
O O8 0.250000 0.581663 0.078700
O O9 0.081127 0.500000 0.085709
O O10 0.033253 0.581508 0.186381
O O11 0.000000 0.585602 0.000000
O O12 0.250000 0.068936 0.241880
O O13 0.511358 0.078323 0.179741
O O14 0.445562 0.102219 0.349370
O O15 0.442249 0.000000 0.289832
O O16 0.250000 0.086621 0.915284
O O17 0.074004 0.166690 0.906161
O O18 0.000000 0.083563 0.000000
O O19 0.250000 0.834785 0.415846
O O20 0.000000 0.842223 0.500000
O O21 0.750000 0.246408 0.077190
O O22 0.500000 0.250223 0.000000
O O23 0.250000 0.424346 0.295634
O O24 0.062489 0.500000 0.295157
#
# Coordination Sequence:
#
# PCOD9401879 Si02
#       8
#     8   8   8   8   8   8   8   8
#     4  11  24  40  60  84 113 147 187 236 287 337
#     4  10  21  40  62  86 116 147 184 232 280 330
#     4   8  14  26  47  76 108 143 182 223 266 314
#     4  10  22  39  56  79 113 149 189 236 282 335
#     4  10  19  33  56  83 113 149 188 231 279 333
#     4  11  23  38  60  85 109 143 187 233 286 341
#     4   9  18  33  56  85 116 147 182 225 272 328
#     4   9  19  37  59  83 115 153 192 234 280 332
#
# _framework density 18.603939
#
# number of rings (size 3 to 8) (size 9 to 14) (size 15 to 20)
#    0.000    2.250    1.250    2.250    0.000    5.250 
#    0.000    1.875    0.000    3.000    0.000    0.000 
#    0.000    0.000    0.000    0.000    0.000    0.000 
#
# Total GULP energy -357248.393881 kJ/mol
# GULP energy per Si atom -5582.006154 kJ/mol
# Density = 1.856160 g / cm^3
# Si number density = 18.603939 Si / 1000 Ang^3
#
#
#
# Elastic Constant Matrix: (Units=GPa)
#
#
# Indices 1 2 3 4 5 6 
#
# 1 87.5307 38.5497 82.2930 0.0000 0.0000 0.0000
# 2 38.5497 29.0462 39.6798 0.0000 0.0000 0.0000
# 3 82.2930 39.6798 161.4089 0.0000 0.0000 0.0000
# 4 0.0000 0.0000 0.0000 -30.3902 0.0000 0.0000
# 5 0.0000 0.0000 0.0000 0.0000 37.9252 0.0000
# 6 0.0000 0.0000 0.0000 0.0000 0.0000 13.6098
#
#
#
# Elastic Compliance Matrix: (Units=1/GPa)
#
#
# Indices 1 2 3 4 5 6 
#
# 1 0.035489 -0.033700 -0.009809 0.000000 0.000000 0.000000
# 2 -0.033700 0.083838 -0.003428 0.000000 0.000000 0.000000
# 3 -0.009809 -0.003428 0.012039 0.000000 0.000000 0.000000
# 4 0.000000 0.000000 0.000000 -0.032905 0.000000 0.000000
# 5 0.000000 0.000000 0.000000 0.000000 0.026368 0.000000
# 6 0.000000 0.000000 0.000000 0.000000 0.000000 0.073477
#
#
# Mechanical properties :
#
#
# Convention : Reuss Voigt Hill
#
# Bulk Modulus (GPa) = 26.67329 66.55898 46.61614
# Shear Modulus (GPa) = 16.41087 12.05983 14.23535
#
# Velocity S-wave (km/s) = 2.97327 2.54882 2.76919
# Velocity P-wave (km/s) = 5.11426 6.67207 5.94441
#
# Compressibility (1/GPa) = 0.03749068
#
# Stress axis : x y z
#
# Youngs Moduli (GPa) = 28.17813 11.92782 83.06140
#
# Poissons Ratio (x) = 0.40197 0.81474
# Poissons Ratio (y) = 0.94960 0.28477
# Poissons Ratio (z) = 0.27640 0.04089
#
# Static dielectric constant tensor:
#      x y z
#    x 1.627310 0.000000 0.000000 
#    y 0.000000 1.639560 0.000000 
#    z 0.000000 0.000000 1.628910 
# 
# From -- ./inp_files/22202.got.cif
#   From: 2010.05.17/outbox.cif.g08.bks.cpg/sg51_12_cif.got.tgz:22202.got - 2010.06.03 11:52:47.
