data_PCOD9401402
_publ_section_title
;
Structure prediction by ZEFSAII (Michael W. Deem and Ramdas Pophale) SiO2 
 PCOD9401402
Probable space group: P M M A
;
_chemical_formula_sum "Si O2"
_cell_formula_units_Z 64
_cell_length_a 9.215485
_cell_length_b 15.463496
_cell_length_c 24.231866
_cell_angle_alpha 90.000000
_cell_angle_beta 90.000000
_cell_angle_gamma 90.000000
_cell_volume 3453.128514
_symmetry_space_group_name_H-M "P M M A"
_symmetry_group_IT_number 51
_symmetry_cell_setting 'orthorhombic'
loop_
_space_group_symop_operation_xyz
x,y,z
1/2-x,-y,z
1/2+x,-y,-z
-x,y,-z
-x,-y,-z
1/2+x,y,-z
1/2-x,y,z
x,-y,z
loop_
_atom_site_type_symbol
_atom_site_label
_atom_site_fract_x
_atom_site_fract_y
_atom_site_fract_z
Si Si1 0.920066 0.397745 0.444971
Si Si2 0.416683 0.895766 0.555466
Si Si3 0.579003 0.735361 0.150439
Si Si4 0.083114 0.861048 0.329334
Si Si5 0.588268 0.659674 0.657508
Si Si6 0.426064 0.401048 0.940433
Si Si7 0.075937 0.902302 0.784533
Si Si8 0.586584 0.594385 0.245191
O O1 0.750000 0.387228 0.451096
O O2 0.951022 0.500000 0.436234
O O3 0.000000 0.369603 0.500000
O O4 0.981279 0.347380 0.393407
O O5 0.500000 0.864467 0.500000
O O6 0.250000 0.863182 0.557370
O O7 0.501228 0.877887 0.612700
O O8 0.409679 0.000000 0.550999
O O9 0.750000 0.749307 0.138711
O O10 0.522805 0.677238 0.099428
O O11 0.522720 0.827739 0.172990
O O12 0.567372 0.670216 0.201917
O O13 0.250000 0.892756 0.332344
O O14 0.088763 0.757849 0.322255
O O15 0.000163 0.895332 0.275319
O O16 0.750000 0.634353 0.640273
O O17 0.528398 0.601904 0.706624
O O18 0.250000 0.396387 0.944419
O O19 0.459087 0.500000 0.920725
O O20 0.500000 0.391949 0.000000
O O21 0.250000 0.889401 0.776459
O O22 0.053649 0.000000 0.805570
O O23 0.750000 0.602769 0.269001
O O24 0.578628 0.500000 0.218228
#
# Coordination Sequence:
#
# PCOD9401402 Si02
#       8
#     8   8   8   8   8   8   8   8
#     4  10  21  37  56  75  95 126 170 217 266 321
#     4  10  21  37  57  79 101 128 166 215 274 338
#     4   9  17  32  54  80 111 144 182 228 270 315
#     4  11  23  37  53  75 105 140 177 218 272 334
#     4  11  23  36  50  72 103 136 170 211 262 320
#     4   9  17  31  53  82 116 154 192 228 270 318
#     4  10  20  35  57  82 106 139 184 231 280 329
#     4  10  19  32  53  78 103 137 177 216 264 318
#
# _framework density 18.533919000000001
#
# number of rings (size 3 to 8) (size 9 to 14) (size 15 to 20)
#    0.000    2.000    1.250    2.625    0.000    8.500 
#    0.000    1.250    0.000    1.875    0.000    0.000 
#    0.000    0.000    0.000    0.000    0.000    0.000 
#
# Total GULP energy -356939.023982 kJ/mol
# GULP energy per Si atom -5577.172250 kJ/mol
# Density = 1.849174 g / cm^3
# Si number density = 18.533919 Si / 1000 Ang^3
#
#
#
# Elastic Constant Matrix: (Units=GPa)
#
#
# Indices 1 2 3 4 5 6 
#
# 1 36.0506 32.0483 25.1711 0.0000 0.0000 0.0000
# 2 32.0483 107.0443 45.6263 0.0000 0.0000 0.0000
# 3 25.1711 45.6263 82.1959 0.0000 0.0000 0.0000
# 4 0.0000 0.0000 0.0000 26.5933 0.0000 0.0000
# 5 0.0000 0.0000 0.0000 0.0000 25.9819 0.0000
# 6 0.0000 0.0000 0.0000 0.0000 0.0000 18.0452
#
#
#
# Elastic Compliance Matrix: (Units=1/GPa)
#
#
# Indices 1 2 3 4 5 6 
#
# 1 0.041078 -0.009086 -0.007536 0.000000 0.000000 0.000000
# 2 -0.009086 0.014247 -0.005126 0.000000 0.000000 0.000000
# 3 -0.007536 -0.005126 0.017319 0.000000 0.000000 0.000000
# 4 0.000000 0.000000 0.000000 0.037603 0.000000 0.000000
# 5 0.000000 0.000000 0.000000 0.000000 0.038488 0.000000
# 6 0.000000 0.000000 0.000000 0.000000 0.000000 0.055416
#
#
# Mechanical properties :
#
#
# Convention : Reuss Voigt Hill
#
# Bulk Modulus (GPa) = 34.30741 47.88690 41.09716
# Shear Modulus (GPa) = 19.42770 22.28710 20.85740
#
# Velocity S-wave (km/s) = 3.24114 3.47147 3.35828
# Velocity P-wave (km/s) = 5.70591 6.47779 6.10406
#
# Compressibility (1/GPa) = 0.02914822
#
# Stress axis : x y z
#
# Youngs Moduli (GPa) = 24.34398 70.18917 57.73987
#
# Poissons Ratio (x) = 0.63777 0.43510
# Poissons Ratio (y) = 0.22120 0.29597
# Poissons Ratio (z) = 0.18345 0.35979
#
# Static dielectric constant tensor:
#      x y z
#    x 1.644090 0.000000 0.000000 
#    y 0.000000 1.700560 0.000000 
#    z 0.000000 0.000000 1.603220 
# 
# From -- ./inp_files/34858.got.cif
#   From: 2010.05.17/outbox.cif.g08.bks.cpg/sg51_18_cif.got.tgz:34858.got - 2010.06.03 11:52:47.
