data_PCOD9401336
_publ_section_title
;
Structure prediction by ZEFSAII (Michael W. Deem and Ramdas Pophale) SiO2 
 PCOD9401336
Probable space group: P M M A
;
_chemical_formula_sum "Si O2"
_cell_formula_units_Z 44
_cell_length_a 8.742853
_cell_length_b 29.620067
_cell_length_c 9.355843
_cell_angle_alpha 90.000000
_cell_angle_beta 90.000000
_cell_angle_gamma 90.000000
_cell_volume 2422.825513
_symmetry_space_group_name_H-M "P M M A"
_symmetry_group_IT_number 51
_symmetry_cell_setting 'orthorhombic'
loop_
_space_group_symop_operation_xyz
x,y,z
1/2-x,-y,z
1/2+x,-y,-z
-x,y,-z
-x,-y,-z
1/2+x,y,-z
1/2-x,y,z
x,-y,z
loop_
_atom_site_type_symbol
_atom_site_label
_atom_site_fract_x
_atom_site_fract_y
_atom_site_fract_z
Si Si1 0.433155 0.632002 0.159592
Si Si2 0.434869 0.000000 0.840504
Si Si3 0.566426 0.175815 0.160607
Si Si4 0.434502 0.087767 0.659107
Si Si5 0.066716 0.731392 0.160902
Si Si6 0.566919 0.550447 0.340868
O O1 0.250000 0.628920 0.152761
O O2 0.471299 0.681897 0.222543
O O3 0.499545 0.590775 0.248423
O O4 0.500000 0.629984 0.000000
O O5 0.482679 0.955541 0.752563
O O6 0.250000 0.000000 0.849165
O O7 0.500000 0.000000 0.000000
O O8 0.750000 0.177641 0.150579
O O9 0.520863 0.133425 0.257720
O O10 0.505006 0.223160 0.223990
O O11 0.500000 0.170542 0.000000
O O12 0.500000 0.086011 0.500000
O O13 0.250000 0.087060 0.650557
O O14 0.250000 0.735884 0.155647
O O15 0.000000 0.730180 0.000000
O O16 0.500000 0.553523 0.500000
O O17 0.750000 0.553962 0.346052
O O18 0.527828 0.500000 0.285097
#
# Coordination Sequence:
#
# PCOD9401336 Si02
#       6
#     8   4   8   8   8   8
#     4  10  20  34  54  80 108 138 175 218 264 313
#     4  10  21  38  58  82 108 136 175 218 258 308
#     4  10  19  32  52  78 104 135 175 215 255 305
#     4  10  22  37  54  78 108 140 175 214 260 310
#     4   9  17  30  50  76 104 136 172 212 259 307
#     4  10  21  37  56  77 103 137 175 215 262 316
#
# _framework density 18.160615
#
# number of rings (size 3 to 8) (size 9 to 14) (size 15 to 20)
#    0.000    2.182    0.000    4.091    0.000    5.818 
#    0.000    0.909    0.000    2.182    0.000    0.000 
#    0.000    0.000    0.000    0.000    0.000    0.000 
#
# Total GULP energy -245466.473758 kJ/mol
# GULP energy per Si atom -5578.783494 kJ/mol
# Density = 1.811928 g / cm^3
# Si number density = 18.160615 Si / 1000 Ang^3
#
#
#
# Elastic Constant Matrix: (Units=GPa)
#
#
# Indices 1 2 3 4 5 6 
#
# 1 56.0762 66.1579 31.5028 0.0000 0.0000 0.0000
# 2 66.1579 233.0010 92.6241 0.0000 0.0000 0.0000
# 3 31.5028 92.6241 91.2111 0.0000 0.0000 0.0000
# 4 0.0000 0.0000 0.0000 -29.7375 0.0000 0.0000
# 5 0.0000 0.0000 0.0000 0.0000 31.8250 0.0000
# 6 0.0000 0.0000 0.0000 0.0000 0.0000 30.8482
#
#
#
# Elastic Compliance Matrix: (Units=1/GPa)
#
#
# Indices 1 2 3 4 5 6 
#
# 1 0.027179 -0.006683 -0.002600 0.000000 0.000000 0.000000
# 2 -0.006683 0.008841 -0.006669 0.000000 0.000000 0.000000
# 3 -0.002600 -0.006669 0.018634 0.000000 0.000000 0.000000
# 4 0.000000 0.000000 0.000000 -0.033628 0.000000 0.000000
# 5 0.000000 0.000000 0.000000 0.000000 0.031422 0.000000
# 6 0.000000 0.000000 0.000000 0.000000 0.000000 0.032417
#
#
# Mechanical properties :
#
#
# Convention : Reuss Voigt Hill
#
# Bulk Modulus (GPa) = 43.96007 84.53976 64.24992
# Shear Modulus (GPa) = 40.20809 19.25404 29.73107
#
# Velocity S-wave (km/s) = 4.71045 3.25962 4.05052
# Velocity P-wave (km/s) = 7.33780 7.79866 7.57173
#
# Compressibility (1/GPa) = 0.02274792
#
# Stress axis : x y z
#
# Youngs Moduli (GPa) = 36.79365 113.11234 53.66455
#
# Poissons Ratio (x) = 0.75598 0.13953
# Poissons Ratio (y) = 0.24591 0.35791
# Poissons Ratio (z) = 0.09566 0.75439
#
# Static dielectric constant tensor:
#      x y z
#    x 1.610140 0.000000 0.000000 
#    y 0.000000 1.664780 0.000000 
#    z 0.000000 0.000000 1.578120 
# 
# From -- ./inp_files/5761.got.cif
#   From: 2010.05.17/outbox.cif.g08.bks.cpg/sg51_3_cif.got.tgz:5761.got - 2010.06.03 11:52:47.
