data_PCOD9401715
_publ_section_title
;
Structure prediction by ZEFSAII (Michael W. Deem and Ramdas Pophale) SiO2 
 PCOD9401715
Probable space group: P M M A
;
_chemical_formula_sum "Si O2"
_cell_formula_units_Z 48
_cell_length_a 8.665751
_cell_length_b 32.412144
_cell_length_c 9.803534
_cell_angle_alpha 90.000000
_cell_angle_beta 90.000000
_cell_angle_gamma 90.000000
_cell_volume 2753.573193
_symmetry_space_group_name_H-M "P M M A"
_symmetry_group_IT_number 51
_symmetry_cell_setting 'orthorhombic'
loop_
_space_group_symop_operation_xyz
x,y,z
1/2-x,-y,z
1/2+x,-y,-z
-x,y,-z
-x,-y,-z
1/2+x,y,-z
1/2-x,y,z
x,-y,z
loop_
_atom_site_type_symbol
_atom_site_label
_atom_site_fract_x
_atom_site_fract_y
_atom_site_fract_z
Si Si1 0.065447 0.839795 0.651142
Si Si2 0.064779 0.254901 0.651835
Si Si3 0.064289 0.589316 0.845010
Si Si4 0.435429 0.090220 0.153698
Si Si5 0.566013 0.325077 0.846354
Si Si6 0.435662 0.000000 0.153540
Si Si7 0.935777 0.500000 0.154289
O O1 0.250000 0.842831 0.647781
O O2 0.024960 0.792502 0.689410
O O3 0.000000 0.847155 0.500000
O O4 0.998776 0.873046 0.754821
O O5 0.250000 0.258728 0.650719
O O6 0.000000 0.262097 0.500000
O O7 0.993404 0.287451 0.755723
O O8 0.250000 0.592732 0.847698
O O9 0.020173 0.544486 0.783284
O O10 0.993999 0.631215 0.786006
O O11 0.000000 0.588232 0.000000
O O12 0.250000 0.092122 0.148960
O O13 0.482109 0.044699 0.211446
O O14 0.500000 0.093397 0.000000
O O15 0.750000 0.325735 0.852870
O O16 0.500000 0.321339 0.000000
O O17 0.250000 0.000000 0.148664
O O18 0.500000 0.000000 0.000000
O O19 0.750000 0.500000 0.145820
O O20 0.000000 0.500000 0.000000
#
# Coordination Sequence:
#
# PCOD9401715 Si02
#       7
#     8   8   8   8   8   4   4
#     4  10  21  37  56  77 102 132 167 207 254 302
#     4  10  21  38  57  76  99 130 167 207 251 304
#     4   9  15  25  40  62  93 127 162 201 246 294
#     4  10  19  33  54  79 107 137 172 210 250 295
#     4  11  21  33  50  74 103 134 168 209 254 297
#     4   8  16  30  49  74 103 136 170 206 246 292
#     4   8  14  22  36  58  87 124 161 196 239 292
#
# _framework density 17.431896999999999
#
# number of rings (size 3 to 8) (size 9 to 14) (size 15 to 20)
#    0.000    2.333    0.000    4.500    0.000    4.000 
#    0.000    0.417    0.000    0.000    0.000    0.583 
#    0.000    0.000    0.000    0.000    0.000    0.000 
#
# Total GULP energy -267461.659757 kJ/mol
# GULP energy per Si atom -5572.117912 kJ/mol
# Density = 1.739222 g / cm^3
# Si number density = 17.431897 Si / 1000 Ang^3
#
#
#
# Elastic Constant Matrix: (Units=GPa)
#
#
# Indices 1 2 3 4 5 6 
#
# 1 80.9252 70.8234 32.2118 0.0000 0.0000 0.0000
# 2 70.8234 207.7121 84.7356 0.0000 0.0000 0.0000
# 3 32.2118 84.7356 50.2563 0.0000 0.0000 0.0000
# 4 0.0000 0.0000 0.0000 -13.8359 0.0000 0.0000
# 5 0.0000 0.0000 0.0000 0.0000 25.9616 0.0000
# 6 0.0000 0.0000 0.0000 0.0000 0.0000 46.3817
#
#
#
# Elastic Compliance Matrix: (Units=1/GPa)
#
#
# Indices 1 2 3 4 5 6 
#
# 1 0.017834 -0.004541 -0.003773 0.000000 0.000000 0.000000
# 2 -0.004541 0.016579 -0.025042 0.000000 0.000000 0.000000
# 3 -0.003773 -0.025042 0.064539 0.000000 0.000000 0.000000
# 4 0.000000 0.000000 0.000000 -0.072276 0.000000 0.000000
# 5 0.000000 0.000000 0.000000 0.000000 0.038518 0.000000
# 6 0.000000 0.000000 0.000000 0.000000 0.000000 0.021560
#
#
# Mechanical properties :
#
#
# Convention : Reuss Voigt Hill
#
# Bulk Modulus (GPa) = 31.01959 79.38170 55.20064
# Shear Modulus (GPa) = 30.44836 21.77634 26.11235
#
# Velocity S-wave (km/s) = 4.18389 3.53827 3.87455
# Velocity P-wave (km/s) = 6.41664 7.89490 7.19385
#
# Compressibility (1/GPa) = 0.03223769
#
# Stress axis : x y z
#
# Youngs Moduli (GPa) = 56.07423 60.31906 15.49458
#
# Poissons Ratio (x) = 0.27393 0.05847
# Poissons Ratio (y) = 0.25465 0.38801
# Poissons Ratio (z) = 0.21159 1.51049
#
# Static dielectric constant tensor:
#      x y z
#    x 1.584410 0.000000 0.000000 
#    y 0.000000 1.654300 0.000000 
#    z 0.000000 0.000000 1.543500 
# 
# From -- ./inp_files/6234.got.cif
#   From: 2010.05.17/outbox.cif.g08.bks.cpg/sg51_4_cif.got.tgz:6234.got - 2010.06.03 11:52:47.
