data_PCOD9401263
_publ_section_title
;
Structure prediction by ZEFSAII (Michael W. Deem and Ramdas Pophale) SiO2 
 PCOD9401263
Probable space group: P M M A
;
_chemical_formula_sum "Si O2"
_cell_formula_units_Z 64
_cell_length_a 8.943830
_cell_length_b 14.472445
_cell_length_c 32.389343
_cell_angle_alpha 90.000000
_cell_angle_beta 90.000000
_cell_angle_gamma 90.000000
_cell_volume 4192.447011
_symmetry_space_group_name_H-M "P M M A"
_symmetry_group_IT_number 51
_symmetry_cell_setting 'orthorhombic'
loop_
_space_group_symop_operation_xyz
x,y,z
1/2-x,-y,z
1/2+x,-y,-z
-x,y,-z
-x,-y,-z
1/2+x,y,-z
1/2-x,y,z
x,-y,z
loop_
_atom_site_type_symbol
_atom_site_label
_atom_site_fract_x
_atom_site_fract_y
_atom_site_fract_z
Si Si1 0.427997 0.609086 0.380800
Si Si2 0.926232 0.106090 0.335931
Si Si3 0.070072 0.607053 0.217286
Si Si4 0.571624 0.894121 0.573879
Si Si5 0.574719 0.387861 0.132109
Si Si6 0.928981 0.389683 0.041901
Si Si7 0.069989 0.278140 0.297482
Si Si8 0.927641 0.711729 0.457967
O O1 0.250000 0.622148 0.388134
O O2 0.457063 0.500000 0.377806
O O3 0.464029 0.659312 0.337689
O O4 0.516601 0.654808 0.418343
O O5 0.750000 0.121652 0.343924
O O6 0.016268 0.116299 0.378852
O O7 0.989602 0.180907 0.304446
O O8 0.944867 0.000000 0.322096
O O9 0.250000 0.606636 0.216379
O O10 0.021276 0.500000 0.223025
O O11 0.023005 0.668956 0.256012
O O12 0.010527 0.641693 0.173199
O O13 0.750000 0.879706 0.571783
O O14 0.487228 0.816093 0.548397
O O15 0.538775 0.000000 0.561279
O O16 0.750000 0.365146 0.135799
O O17 0.564014 0.500000 0.131085
O O18 0.520011 0.354444 0.087007
O O19 0.750000 0.379688 0.040153
O O20 0.960954 0.500000 0.042073
O O21 0.000000 0.350911 0.000000
O O22 0.250000 0.265617 0.296377
O O23 0.750000 0.710851 0.460739
O O24 0.000000 0.674217 0.500000
#
# Coordination Sequence:
#
# PCOD9401263 Si02
#       8
#     8   8   8   8   8   8   8   8
#     4  10  21  38  58  77  98 125 156 191 229 266
#     4  10  20  33  51  76 102 125 149 180 219 263
#     4   9  17  28  42  63  89 118 153 190 227 267
#     4  10  20  36  58  81 104 128 152 180 219 266
#     4   8  14  24  35  49  74 108 144 185 231 274
#     4   8  13  20  30  45  66  95 136 184 231 274
#     4  10  19  32  52  74  97 123 152 186 225 268
#     4  12  25  40  58  78 102 128 156 188 223 267
#
# _framework density 15.265547
#
# number of rings (size 3 to 8) (size 9 to 14) (size 15 to 20)
#    0.000    2.375    1.250    3.000    0.000    4.750 
#    0.000    2.500    0.000    2.250    0.000    0.000 
#    0.000    0.000    0.000    0.000    0.000    0.625 
#
# Total GULP energy -356802.134095 kJ/mol
# GULP energy per Si atom -5575.033345 kJ/mol
# Density = 1.523080 g / cm^3
# Si number density = 15.265547 Si / 1000 Ang^3
#
#
#
# Elastic Constant Matrix: (Units=GPa)
#
#
# Indices 1 2 3 4 5 6 
#
# 1 43.5087 29.7560 42.9438 0.0000 0.0000 0.0000
# 2 29.7560 51.8223 38.1609 0.0000 0.0000 0.0000
# 3 42.9438 38.1609 130.1675 0.0000 0.0000 0.0000
# 4 0.0000 0.0000 0.0000 4.1214 0.0000 0.0000
# 5 0.0000 0.0000 0.0000 0.0000 26.3158 0.0000
# 6 0.0000 0.0000 0.0000 0.0000 0.0000 16.9041
#
#
#
# Elastic Compliance Matrix: (Units=1/GPa)
#
#
# Indices 1 2 3 4 5 6 
#
# 1 0.045271 -0.019125 -0.009329 0.000000 0.000000 0.000000
# 2 -0.019125 0.032689 -0.003274 0.000000 0.000000 0.000000
# 3 -0.009329 -0.003274 0.011720 0.000000 0.000000 0.000000
# 4 0.000000 0.000000 0.000000 0.242634 0.000000 0.000000
# 5 0.000000 0.000000 0.000000 0.000000 0.038000 0.000000
# 6 0.000000 0.000000 0.000000 0.000000 0.000000 0.059157
#
#
# Mechanical properties :
#
#
# Convention : Reuss Voigt Hill
#
# Bulk Modulus (GPa) = 38.13147 49.69112 43.91129
# Shear Modulus (GPa) = 9.96675 17.11079 13.53877
#
# Velocity S-wave (km/s) = 2.55795 3.35158 2.98129
# Velocity P-wave (km/s) = 5.81009 6.89922 6.37795
#
# Compressibility (1/GPa) = 0.02622506
#
# Stress axis : x y z
#
# Youngs Moduli (GPa) = 22.08902 30.59142 85.32553
#
# Poissons Ratio (x) = 0.58506 0.79598
# Poissons Ratio (y) = 0.42245 0.27933
# Poissons Ratio (z) = 0.20606 0.10015
#
# Static dielectric constant tensor:
#      x y z
#    x 1.510910 0.000000 0.000000 
#    y 0.000000 1.497630 0.000000 
#    z 0.000000 0.000000 1.523840 
# 
# From -- ./inp_files/37653.got.cif
#   From: 2010.05.17/outbox.cif.g08.bks.cpg/sg51_19_cif.got.tgz:37653.got - 2010.06.03 11:52:47.
