data_PCOD9401340
_publ_section_title
;
Structure prediction by ZEFSAII (Michael W. Deem and Ramdas Pophale) SiO2 
 PCOD9401340
Probable space group: P M M A
;
_chemical_formula_sum "Si O2"
_cell_formula_units_Z 60
_cell_length_a 19.092587
_cell_length_b 23.102188
_cell_length_c 7.542858
_cell_angle_alpha 90.000000
_cell_angle_beta 90.000000
_cell_angle_gamma 90.000000
_cell_volume 3327.007837
_symmetry_space_group_name_H-M "P M M A"
_symmetry_group_IT_number 51
_symmetry_cell_setting 'orthorhombic'
loop_
_space_group_symop_operation_xyz
x,y,z
1/2-x,-y,z
1/2+x,-y,-z
-x,y,-z
-x,-y,-z
1/2+x,y,-z
1/2-x,y,z
x,-y,z
loop_
_atom_site_type_symbol
_atom_site_label
_atom_site_fract_x
_atom_site_fract_y
_atom_site_fract_z
Si Si1 0.329286 0.748662 0.347548
Si Si2 0.330329 0.343631 0.618259
Si Si3 0.452247 0.432881 0.674358
Si Si4 0.129691 0.273546 0.958156
Si Si5 0.000000 0.641739 0.000000
Si Si6 0.923770 0.932457 0.416734
Si Si7 0.580844 0.857618 0.063588
Si Si8 0.165135 0.877183 0.287926
O O1 0.250000 0.753130 0.416180
O O2 0.361739 0.697791 0.464045
O O3 0.359097 0.813225 0.356598
O O4 0.328505 0.733248 0.140637
O O5 0.250000 0.360008 0.577748
O O6 0.379856 0.398690 0.643020
O O7 0.332194 0.304377 0.795267
O O8 0.500000 0.430473 0.500000
O O9 0.440275 0.500000 0.720289
O O10 0.491784 0.398932 0.830114
O O11 0.065845 0.315728 0.005789
O O12 0.103022 0.209356 0.908345
O O13 0.911174 0.893427 0.244077
O O14 0.866321 0.920948 0.569150
O O15 0.000000 0.918431 0.500000
O O16 0.924137 0.000000 0.366656
O O17 0.500000 0.859705 0.000000
O O18 0.629722 0.882613 0.905368
O O19 0.250000 0.878558 0.276392
#
# Coordination Sequence:
#
# PCOD9401340 Si02
#       8
#     8   8   8   8   4   8   8   8
#     4   9  18  33  53  78 109 141 172 217 278 336
#     4  10  20  34  54  81 110 144 183 226 279 337
#     4  10  21  36  53  75 106 146 189 232 274 321
#     4  10  19  32  53  83 112 140 176 226 281 336
#     4  10  19  32  52  78 105 138 178 224 274 324
#     4  11  24  40  60  84 115 156 198 242 289 341
#     4  11  21  38  61  91 118 152 195 238 292 355
#     4  10  22  40  61  86 118 152 190 239 294 348
#
# _framework density 18.034223999999998
#
# number of rings (size 3 to 8) (size 9 to 14) (size 15 to 20)
#    0.000    1.867    2.000    2.200    0.000    2.400 
#    0.000    0.667    0.000    0.000    0.000    3.733 
#    0.000    0.000    0.000    0.000    0.000    0.000 
#
# Total GULP energy -334672.137018 kJ/mol
# GULP energy per Si atom -5577.868950 kJ/mol
# Density = 1.799318 g / cm^3
# Si number density = 18.034224 Si / 1000 Ang^3
#
#
#
# Elastic Constant Matrix: (Units=GPa)
#
#
# Indices 1 2 3 4 5 6 
#
# 1 85.9549 34.4015 33.7731 0.0000 0.0000 0.0000
# 2 34.4015 98.9392 59.7108 0.0000 0.0000 0.0000
# 3 33.7731 59.7108 83.1073 0.0000 0.0000 0.0000
# 4 0.0000 0.0000 0.0000 26.7015 0.0000 0.0000
# 5 0.0000 0.0000 0.0000 0.0000 25.1339 0.0000
# 6 0.0000 0.0000 0.0000 0.0000 0.0000 15.6887
#
#
#
# Elastic Compliance Matrix: (Units=1/GPa)
#
#
# Indices 1 2 3 4 5 6 
#
# 1 0.014205 -0.002569 -0.003927 0.000000 0.000000 0.000000
# 2 -0.002569 0.018310 -0.012111 0.000000 0.000000 0.000000
# 3 -0.003927 -0.012111 0.022330 0.000000 0.000000 0.000000
# 4 0.000000 0.000000 0.000000 0.037451 0.000000 0.000000
# 5 0.000000 0.000000 0.000000 0.000000 0.039787 0.000000
# 6 0.000000 0.000000 0.000000 0.000000 0.000000 0.063740
#
#
# Mechanical properties :
#
#
# Convention : Reuss Voigt Hill
#
# Bulk Modulus (GPa) = 56.71935 58.19692 57.45814
# Shear Modulus (GPa) = 20.92804 22.84588 21.88696
#
# Velocity S-wave (km/s) = 3.41025 3.56308 3.48751
# Velocity P-wave (km/s) = 6.85753 7.01910 6.93878
#
# Compressibility (1/GPa) = 0.01763067
#
# Stress axis : x y z
#
# Youngs Moduli (GPa) = 70.39677 54.61580 44.78319
#
# Poissons Ratio (x) = 0.14033 0.17585
# Poissons Ratio (y) = 0.18088 0.54237
# Poissons Ratio (z) = 0.27642 0.66145
#
# Static dielectric constant tensor:
#      x y z
#    x 1.614750 0.000000 0.000000 
#    y 0.000000 1.617580 0.000000 
#    z 0.000000 0.000000 1.616770 
# 
# From -- ./inp_files/2658.got.cif
#   From: 2010.05.17/outbox.cif.g08.bks.cpg/sg51_2_cif.got.tgz:2658.got - 2010.06.03 11:52:47.
