data_PCOD9401502
_publ_section_title
;
Structure prediction by ZEFSAII (Michael W. Deem and Ramdas Pophale) SiO2 
 PCOD9401502
Probable space group: P M M A
;
_chemical_formula_sum "Si O2"
_cell_formula_units_Z 64
_cell_length_a 16.271263
_cell_length_b 22.195566
_cell_length_c 9.480033
_cell_angle_alpha 90.000000
_cell_angle_beta 90.000000
_cell_angle_gamma 90.000000
_cell_volume 3423.712892
_symmetry_space_group_name_H-M "P M M A"
_symmetry_group_IT_number 51
_symmetry_cell_setting 'orthorhombic'
loop_
_space_group_symop_operation_xyz
x,y,z
1/2-x,-y,z
1/2+x,-y,-z
-x,y,-z
-x,-y,-z
1/2+x,y,-z
1/2-x,y,z
x,-y,z
loop_
_atom_site_type_symbol
_atom_site_label
_atom_site_fract_x
_atom_site_fract_y
_atom_site_fract_z
Si Si1 0.032866 0.880009 0.347028
Si Si2 0.154730 0.069273 0.118488
Si Si3 0.084699 0.326507 0.184544
Si Si4 0.896445 0.297916 0.124160
Si Si5 0.920445 0.163722 0.097914
Si Si6 0.840791 0.667727 0.411384
Si Si7 0.346737 0.232473 0.396455
Si Si8 0.916358 0.568399 0.590808
O O1 0.090941 0.921599 0.247876
O O2 0.093018 0.823427 0.376000
O O3 0.000000 0.901945 0.500000
O O4 0.956664 0.860410 0.245918
O O5 0.250000 0.080731 0.159878
O O6 0.148544 0.000000 0.070487
O O7 0.129571 0.114550 0.992223
O O8 0.140981 0.278577 0.266188
O O9 0.079316 0.388488 0.272416
O O10 0.992194 0.301071 0.170506
O O11 0.114548 0.330317 0.024689
O O12 0.874353 0.227330 0.115353
O O13 0.849806 0.332230 0.246373
O O14 0.000000 0.177437 0.000000
O O15 0.750000 0.682939 0.455874
O O16 0.885129 0.726342 0.476308
O O17 0.859623 0.605138 0.483970
O O18 0.250000 0.213563 0.407492
O O19 0.892454 0.500000 0.623563
O O20 0.000000 0.567165 0.500000
#
# Coordination Sequence:
#
# PCOD9401502 Si02
#       8
#     8   8   8   8   8   8   8   8
#     4  11  21  34  58  90 119 150 191 245 299 357
#     4  10  23  43  62  81 114 160 205 247 290 345
#     4  10  19  32  55  80 114 149 185 236 290 340
#     4  11  18  33  53  86 118 145 179 233 295 346
#     4  10  19  34  59  87 115 153 194 230 288 352
#     4  10  22  35  54  82 113 151 186 233 293 347
#     4  10  20  34  54  83 115 151 190 228 286 354
#     4  10  20  36  57  78 103 150 202 238 279 341
#
# _framework density 18.693155999999998
#
# number of rings (size 3 to 8) (size 9 to 14) (size 15 to 20)
#    0.000    1.750    3.750    1.875    0.000    3.750 
#    0.000    3.125    0.000    1.500    0.000    0.000 
#    0.000    0.000    0.000    0.000    0.000    0.000 
#
# Total GULP energy -356558.335940 kJ/mol
# GULP energy per Si atom -5571.223999 kJ/mol
# Density = 1.865061 g / cm^3
# Si number density = 18.693156 Si / 1000 Ang^3
#
#
#
# Elastic Constant Matrix: (Units=GPa)
#
#
# Indices 1 2 3 4 5 6 
#
# 1 40.8419 25.9912 25.7680 0.0000 0.0000 0.0000
# 2 25.9912 110.1407 46.5573 0.0000 0.0000 0.0000
# 3 25.7680 46.5573 116.6131 0.0000 0.0000 0.0000
# 4 0.0000 0.0000 0.0000 12.9108 0.0000 0.0000
# 5 0.0000 0.0000 0.0000 0.0000 -5.6495 0.0000
# 6 0.0000 0.0000 0.0000 0.0000 0.0000 -76.0958
#
#
#
# Elastic Compliance Matrix: (Units=1/GPa)
#
#
# Indices 1 2 3 4 5 6 
#
# 1 0.030812 -0.005285 -0.004699 0.000000 0.000000 0.000000
# 2 -0.005285 0.011829 -0.003555 0.000000 0.000000 0.000000
# 3 -0.004699 -0.003555 0.011033 0.000000 0.000000 0.000000
# 4 0.000000 0.000000 0.000000 0.077454 0.000000 0.000000
# 5 0.000000 0.000000 0.000000 0.000000 -0.177008 0.000000
# 6 0.000000 0.000000 0.000000 0.000000 0.000000 -0.013141
#
#
# Mechanical properties :
#
#
# Convention : Reuss Voigt Hill
#
# Bulk Modulus (GPa) = 37.59768 51.58098 44.58933
# Shear Modulus (GPa) = -216.65863 -2.48162 -109.57012
#
# Velocity S-wave (km/s) = -10.77749 -1.15345 -7.66436
# Velocity P-wave (km/s) = 11.60671 5.08719 7.37686
#
# Compressibility (1/GPa) = 0.02659739
#
# Stress axis : x y z
#
# Youngs Moduli (GPa) = 32.45444 84.53683 90.63802
#
# Poissons Ratio (x) = 0.44678 0.42587
# Poissons Ratio (y) = 0.17152 0.32221
# Poissons Ratio (z) = 0.15249 0.30052
#
# Static dielectric constant tensor:
#      x y z
#    x 1.677050 0.000000 0.000000 
#    y 0.000000 1.642810 0.000000 
#    z 0.000000 0.000000 1.683800 
# 
# From -- ./inp_files/10017.got.cif
#   From: 2010.05.17/outbox.cif.g08.bks.cpg/sg51_6_cif.got.tgz:10017.got - 2010.06.03 11:52:47.
