data_PCOD9401923
_publ_section_title
;
Structure prediction by ZEFSAII (Michael W. Deem and Ramdas Pophale) SiO2 
 PCOD9401923
Probable space group: P M M A
;
_chemical_formula_sum "Si O2"
_cell_formula_units_Z 52
_cell_length_a 8.898409
_cell_length_b 23.570728
_cell_length_c 15.185275
_cell_angle_alpha 90.000000
_cell_angle_beta 90.000000
_cell_angle_gamma 90.000000
_cell_volume 3184.989618
_symmetry_space_group_name_H-M "P M M A"
_symmetry_group_IT_number 51
_symmetry_cell_setting 'orthorhombic'
loop_
_space_group_symop_operation_xyz
x,y,z
1/2-x,-y,z
1/2+x,-y,-z
-x,y,-z
-x,-y,-z
1/2+x,y,-z
1/2-x,y,z
x,-y,z
loop_
_atom_site_type_symbol
_atom_site_label
_atom_site_fract_x
_atom_site_fract_y
_atom_site_fract_z
Si Si1 0.932185 0.897569 0.787458
Si Si2 0.069543 0.209536 0.096044
Si Si3 0.569086 0.435291 0.771924
Si Si4 0.068578 0.338084 0.095561
Si Si5 0.430256 0.933117 0.407500
Si Si6 0.420360 0.431181 0.587956
Si Si7 0.569122 0.000000 0.098603
O O1 0.750000 0.905352 0.791956
O O2 0.970890 0.837452 0.831866
O O3 0.975252 0.903555 0.684487
O O4 0.009744 0.945851 0.846503
O O5 0.250000 0.208195 0.086372
O O6 0.026282 0.273793 0.122412
O O7 0.000000 0.197141 0.000000
O O8 0.750000 0.436048 0.772073
O O9 0.517904 0.500000 0.791503
O O10 0.516923 0.387915 0.840135
O O11 0.512473 0.418854 0.675459
O O12 0.250000 0.340178 0.091096
O O13 0.000000 0.347570 0.000000
O O14 0.500000 0.912687 0.500000
O O15 0.250000 0.929138 0.414578
O O16 0.469738 0.000000 0.398242
O O17 0.500000 0.409946 0.500000
O O18 0.250000 0.410844 0.594388
O O19 0.415718 0.500000 0.581936
O O20 0.750000 0.000000 0.093220
O O21 0.500000 0.000000 0.000000
#
# Coordination Sequence:
#
# PCOD9401923 Si02
#       7
#     8   8   8   8   8   8   4
#     4  10  19  34  52  71  96 126 159 195 237 279
#     4   9  18  32  51  70  91 122 159 196 234 280
#     4   9  17  29  45  66  94 125 156 193 238 286
#     4   9  18  32  48  68  92 122 160 198 236 280
#     4   9  17  30  48  69  95 123 153 190 229 273
#     4   9  16  26  42  65  92 120 151 187 229 279
#     4  12  24  34  47  70 101 130 155 190 236 282
#
# _framework density 16.326584
#
# number of rings (size 3 to 8) (size 9 to 14) (size 15 to 20)
#    0.000    2.615    0.769    1.615    0.000    5.231 
#    0.000    0.000    0.000    0.923    0.000    2.154 
#    0.000    0.000    0.000    0.000    0.000    0.000 
#
# Total GULP energy -289716.073629 kJ/mol
# GULP energy per Si atom -5571.462954 kJ/mol
# Density = 1.628942 g / cm^3
# Si number density = 16.326584 Si / 1000 Ang^3
#
#
#
# Elastic Constant Matrix: (Units=GPa)
#
#
# Indices 1 2 3 4 5 6 
#
# 1 17.8608 29.1260 33.5627 0.0000 0.0000 0.0000
# 2 29.1260 103.1914 98.2613 0.0000 0.0000 0.0000
# 3 33.5627 98.2613 160.1166 0.0000 0.0000 0.0000
# 4 0.0000 0.0000 0.0000 6.4328 0.0000 0.0000
# 5 0.0000 0.0000 0.0000 0.0000 30.4176 0.0000
# 6 0.0000 0.0000 0.0000 0.0000 0.0000 7.5198
#
#
#
# Elastic Compliance Matrix: (Units=1/GPa)
#
#
# Indices 1 2 3 4 5 6 
#
# 1 0.109535 -0.021782 -0.009593 0.000000 0.000000 0.000000
# 2 -0.021782 0.027647 -0.012401 0.000000 0.000000 0.000000
# 3 -0.009593 -0.012401 0.015866 0.000000 0.000000 0.000000
# 4 0.000000 0.000000 0.000000 0.155453 0.000000 0.000000
# 5 0.000000 0.000000 0.000000 0.000000 0.032876 0.000000
# 6 0.000000 0.000000 0.000000 0.000000 0.000000 0.132983
#
#
# Mechanical properties :
#
#
# Convention : Reuss Voigt Hill
#
# Bulk Modulus (GPa) = 15.26778 67.00764 41.13771
# Shear Modulus (GPa) = 8.56541 16.88863 12.72702
#
# Velocity S-wave (km/s) = 2.29296 3.21974 2.79503
# Velocity P-wave (km/s) = 4.04747 7.41306 5.97225
#
# Compressibility (1/GPa) = 0.06549740
#
# Stress axis : x y z
#
# Youngs Moduli (GPa) = 9.12949 36.17019 63.02611
#
# Poissons Ratio (x) = 0.78786 0.60460
# Poissons Ratio (y) = 0.19886 0.78157
# Poissons Ratio (z) = 0.08758 0.44854
#
# Static dielectric constant tensor:
#      x y z
#    x 1.551320 0.000000 0.000000 
#    y 0.000000 1.550600 0.000000 
#    z 0.000000 0.000000 1.529580 
# 
# From -- ./inp_files/22028.got.cif
#   From: 2010.05.17/outbox.cif.g08.bks.cpg/sg51_12_cif.got.tgz:22028.got - 2010.06.03 11:52:47.
