data_PCOD9401267
_publ_section_title
;
Structure prediction by ZEFSAII (Michael W. Deem and Ramdas Pophale) SiO2 
 PCOD9401267
Probable space group: P M M A
;
_chemical_formula_sum "Si O2"
_cell_formula_units_Z 64
_cell_length_a 14.773992
_cell_length_b 8.931341
_cell_length_c 28.505082
_cell_angle_alpha 90.000000
_cell_angle_beta 90.000000
_cell_angle_gamma 90.000000
_cell_volume 3761.290052
_symmetry_space_group_name_H-M "P M M A"
_symmetry_group_IT_number 51
_symmetry_cell_setting 'orthorhombic'
loop_
_space_group_symop_operation_xyz
x,y,z
1/2-x,-y,z
1/2+x,-y,-z
-x,y,-z
-x,-y,-z
1/2+x,y,-z
1/2-x,y,z
x,-y,z
loop_
_atom_site_type_symbol
_atom_site_label
_atom_site_fract_x
_atom_site_fract_y
_atom_site_fract_z
Si Si1 0.455399 0.679926 0.388328
Si Si2 0.856734 0.821795 0.699793
Si Si3 0.143697 0.823535 0.024368
Si Si4 0.896494 0.169696 0.518126
Si Si5 0.144209 0.679245 0.198905
Si Si6 0.644897 0.678474 0.075929
Si Si7 0.527673 0.820602 0.883919
Si Si8 0.847202 0.320276 0.423074
O O1 0.450458 0.500000 0.387348
O O2 0.415504 0.749043 0.341207
O O3 0.399727 0.742013 0.433071
O O4 0.560712 0.725732 0.396725
O O5 0.750000 0.795419 0.690006
O O6 0.876411 0.748274 0.750167
O O7 0.871241 0.000000 0.701842
O O8 0.250000 0.804925 0.036294
O O9 0.082585 0.781041 0.068467
O O10 0.128396 0.000000 0.014144
O O11 0.125158 0.731627 0.977303
O O12 0.849084 0.253395 0.475350
O O13 0.000000 0.162235 0.500000
O O14 0.863559 0.000000 0.524698
O O15 0.250000 0.714540 0.188298
O O16 0.134940 0.500000 0.200285
O O17 0.079966 0.748661 0.159590
O O18 0.750000 0.718247 0.085427
O O19 0.635539 0.500000 0.079236
O O20 0.573277 0.758665 0.109408
O O21 0.527615 0.000000 0.879769
O O22 0.750000 0.278931 0.401049
O O23 0.851267 0.500000 0.426674
#
# Coordination Sequence:
#
# PCOD9401267 Si02
#       8
#     8   8   8   8   8   8   8   8
#     4  10  19  32  52  75 100 132 169 208 250 299
#     4  10  21  37  56  77 102 131 163 203 252 303
#     4   9  18  32  49  72 104 139 173 209 252 304
#     4   9  17  29  45  67  96 129 166 207 247 288
#     4  10  21  37  57  81 107 132 161 202 253 308
#     4  10  21  35  50  71 102 139 178 219 259 299
#     4  11  21  33  53  78 104 137 174 211 254 305
#     4   9  18  32  49  71 101 136 171 206 246 292
#
# _framework density 17.015440000000002
#
# number of rings (size 3 to 8) (size 9 to 14) (size 15 to 20)
#    0.000    2.250    0.000    3.000    0.000    8.000 
#    0.000    1.250    0.000    0.750    0.000    1.750 
#    0.000    0.000    0.000    0.000    0.000    0.000 
#
# Total GULP energy -357139.043614 kJ/mol
# GULP energy per Si atom -5580.297556 kJ/mol
# Density = 1.697671 g / cm^3
# Si number density = 17.015440 Si / 1000 Ang^3
#
#
#
# Elastic Constant Matrix: (Units=GPa)
#
#
# Indices 1 2 3 4 5 6 
#
# 1 106.1113 54.0982 85.7097 0.0000 0.0000 0.0000
# 2 54.0982 61.1511 60.8123 0.0000 0.0000 0.0000
# 3 85.7097 60.8123 123.3862 0.0000 0.0000 0.0000
# 4 0.0000 0.0000 0.0000 33.6928 0.0000 0.0000
# 5 0.0000 0.0000 0.0000 0.0000 26.1576 0.0000
# 6 0.0000 0.0000 0.0000 0.0000 0.0000 19.4703
#
#
#
# Elastic Compliance Matrix: (Units=1/GPa)
#
#
# Indices 1 2 3 4 5 6 
#
# 1 0.023772 -0.009039 -0.012058 0.000000 0.000000 0.000000
# 2 -0.009039 0.035510 -0.011223 0.000000 0.000000 0.000000
# 3 -0.012058 -0.011223 0.022012 0.000000 0.000000 0.000000
# 4 0.000000 0.000000 0.000000 0.029680 0.000000 0.000000
# 5 0.000000 0.000000 0.000000 0.000000 0.038230 0.000000
# 6 0.000000 0.000000 0.000000 0.000000 0.000000 0.051360
#
#
# Mechanical properties :
#
#
# Convention : Reuss Voigt Hill
#
# Bulk Modulus (GPa) = 60.04406 76.87657 68.46032
# Shear Modulus (GPa) = 18.46685 21.86603 20.16644
#
# Velocity S-wave (km/s) = 3.29796 3.58868 3.44639
# Velocity P-wave (km/s) = 7.06163 7.90253 7.49389
#
# Compressibility (1/GPa) = 0.01665444
#
# Stress axis : x y z
#
# Youngs Moduli (GPa) = 42.06572 28.16130 45.42951
#
# Poissons Ratio (x) = 0.25455 0.54781
# Poissons Ratio (y) = 0.38023 0.50983
# Poissons Ratio (z) = 0.50725 0.31604
#
# Static dielectric constant tensor:
#      x y z
#    x 1.608870 0.000000 0.000000 
#    y 0.000000 1.569750 0.000000 
#    z 0.000000 0.000000 1.532460 
# 
# From -- ./inp_files/35631.got.cif
#   From: 2010.05.17/outbox.cif.g08.bks.cpg/sg51_18_cif.got.tgz:35631.got - 2010.06.03 11:52:47.
