data_PCOD9401890
_publ_section_title
;
Structure prediction by ZEFSAII (Michael W. Deem and Ramdas Pophale) SiO2 
 PCOD9401890
Probable space group: P M M A
;
_chemical_formula_sum "Si O2"
_cell_formula_units_Z 64
_cell_length_a 18.598860
_cell_length_b 7.692749
_cell_length_c 20.449530
_cell_angle_alpha 90.000000
_cell_angle_beta 90.000000
_cell_angle_gamma 90.000000
_cell_volume 2925.844350
_symmetry_space_group_name_H-M "P M M A"
_symmetry_group_IT_number 51
_symmetry_cell_setting 'orthorhombic'
loop_
_space_group_symop_operation_xyz
x,y,z
1/2-x,-y,z
1/2+x,-y,-z
-x,y,-z
-x,-y,-z
1/2+x,y,-z
1/2-x,y,z
x,-y,z
loop_
_atom_site_type_symbol
_atom_site_label
_atom_site_fract_x
_atom_site_fract_y
_atom_site_fract_z
Si Si1 0.167134 0.709890 0.462961
Si Si2 0.903870 0.300890 0.138536
Si Si3 0.441304 0.702686 0.720518
Si Si4 0.830605 0.710317 0.799913
Si Si5 0.057447 0.798728 0.090304
Si Si6 0.329199 0.797114 0.988243
Si Si7 0.832330 0.205997 0.390871
Si Si8 0.406336 0.711994 0.331625
O O1 0.250000 0.770252 0.455871
O O2 0.168225 0.500000 0.460530
O O3 0.141553 0.760704 0.535199
O O4 0.119313 0.773233 0.402555
O O5 0.879545 0.500000 0.144511
O O6 0.912961 0.221806 0.210991
O O7 0.850267 0.213548 0.087508
O O8 0.983330 0.293856 0.106981
O O9 0.456627 0.500000 0.735901
O O10 0.382583 0.713302 0.663921
O O11 0.516102 0.776236 0.692931
O O12 0.750000 0.765587 0.817425
O O13 0.834551 0.500000 0.805787
O O14 0.890444 0.787917 0.847129
O O15 0.849383 0.753987 0.725071
O O16 0.038609 0.000000 0.076253
O O17 0.105631 0.723023 0.031466
O O18 0.250000 0.721069 0.000510
O O19 0.326157 0.000000 0.007160
O O20 0.750000 0.271459 0.387235
O O21 0.831542 0.000000 0.379926
O O22 0.409953 0.500000 0.335410
#
# Coordination Sequence:
#
# PCOD9401890 Si02
#       8
#     8   8   8   8   8   8   8   8
#     4   9  17  32  57  84 109 145 191 231 273 332
#     4  11  23  40  62  88 117 149 191 242 294 342
#     4  10  21  38  59  82 113 147 184 232 282 339
#     4  10  19  33  56  85 118 154 192 236 283 330
#     4  11  22  38  60  85 117 157 195 232 280 343
#     4  10  23  42  61  84 117 155 194 236 285 344
#     4  10  22  39  57  79 110 146 186 235 287 337
#     4   9  17  33  55  82 115 148 186 230 280 334
#
# _framework density 21.874027999999999
#
# number of rings (size 3 to 8) (size 9 to 14) (size 15 to 20)
#    0.000    2.000    1.250    2.250    0.000    7.750 
#    0.000    6.250    0.000    1.500    0.000    0.000 
#    0.000    0.000    0.000    0.000    0.000    0.000 
#
# Total GULP energy -357581.586384 kJ/mol
# GULP energy per Si atom -5587.212287 kJ/mol
# Density = 2.182424 g / cm^3
# Si number density = 21.874028 Si / 1000 Ang^3
#
#
#
# Elastic Constant Matrix: (Units=GPa)
#
#
# Indices 1 2 3 4 5 6 
#
# 1 32.1346 -7.9453 23.4851 0.0000 0.0000 0.0000
# 2 -7.9453 39.6707 -8.2304 0.0000 0.0000 0.0000
# 3 23.4851 -8.2304 127.0625 0.0000 0.0000 0.0000
# 4 0.0000 0.0000 0.0000 24.5070 0.0000 0.0000
# 5 0.0000 0.0000 0.0000 0.0000 35.6128 0.0000
# 6 0.0000 0.0000 0.0000 0.0000 0.0000 1.5372
#
#
#
# Elastic Compliance Matrix: (Units=1/GPa)
#
#
# Indices 1 2 3 4 5 6 
#
# 1 0.037398 0.006138 -0.006515 0.000000 0.000000 0.000000
# 2 0.006138 0.026558 0.000586 0.000000 0.000000 0.000000
# 3 -0.006515 0.000586 0.009112 0.000000 0.000000 0.000000
# 4 0.000000 0.000000 0.000000 0.040805 0.000000 0.000000
# 5 0.000000 0.000000 0.000000 0.000000 0.028080 0.000000
# 6 0.000000 0.000000 0.000000 0.000000 0.000000 0.650530
#
#
# Mechanical properties :
#
#
# Convention : Reuss Voigt Hill
#
# Bulk Modulus (GPa) = 13.60772 23.72073 18.66422
# Shear Modulus (GPa) = 6.12325 25.10198 15.61261
#
# Velocity S-wave (km/s) = 1.67493 3.39126 2.67451
# Velocity P-wave (km/s) = 3.15832 5.11878 4.25305
#
# Compressibility (1/GPa) = 0.07348767
#
# Stress axis : x y z
#
# Youngs Moduli (GPa) = 26.73944 37.65279 109.74300
#
# Poissons Ratio (x) = -0.23113 0.71494
# Poissons Ratio (y) = -0.16414 -0.06428
# Poissons Ratio (z) = 0.17420 -0.02205
#
# Static dielectric constant tensor:
#      x y z
#    x 1.779120 0.000000 0.000000 
#    y 0.000000 1.832740 0.000000 
#    z 0.000000 0.000000 1.790690 
# 
# From -- ./inp_files/33852.got.cif
#   From: 2010.05.17/outbox.cif.g08.bks.cpg/sg51_17_cif.got.tgz:33852.got - 2010.06.03 11:52:47.
