data_PCOD9401654
_publ_section_title
;
Structure prediction by ZEFSAII (Michael W. Deem and Ramdas Pophale) SiO2 
 PCOD9401654
Probable space group: P M M A
;
_chemical_formula_sum "Si O2"
_cell_formula_units_Z 60
_cell_length_a 14.361799
_cell_length_b 14.712763
_cell_length_c 15.240776
_cell_angle_alpha 90.000000
_cell_angle_beta 90.000000
_cell_angle_gamma 90.000000
_cell_volume 3220.402563
_symmetry_space_group_name_H-M "P M M A"
_symmetry_group_IT_number 51
_symmetry_cell_setting 'orthorhombic'
loop_
_space_group_symop_operation_xyz
x,y,z
1/2-x,-y,z
1/2+x,-y,-z
-x,y,-z
-x,-y,-z
1/2+x,y,-z
1/2-x,y,z
x,-y,z
loop_
_atom_site_type_symbol
_atom_site_label
_atom_site_fract_x
_atom_site_fract_y
_atom_site_fract_z
Si Si1 0.362153 0.252410 0.736664
Si Si2 0.360588 0.309891 0.045605
Si Si3 0.636946 0.602364 0.612685
Si Si4 0.998330 0.104140 0.200085
Si Si5 0.500000 0.846141 0.000000
Si Si6 0.362977 0.396954 0.589239
Si Si7 0.638406 0.736441 0.764263
Si Si8 0.363087 0.402774 0.875073
O O1 0.250000 0.241231 0.736656
O O2 0.413530 0.157546 0.752983
O O3 0.388813 0.313745 0.652322
O O4 0.391541 0.316784 0.818109
O O5 0.250000 0.298158 0.038379
O O6 0.382187 0.321879 0.147703
O O7 0.411727 0.219350 0.014062
O O8 0.387508 0.386819 0.976413
O O9 0.750000 0.603359 0.613912
O O10 0.608927 0.500000 0.638437
O O11 0.608941 0.617455 0.511827
O O12 0.606729 0.679416 0.680129
O O13 0.987655 0.104978 0.093607
O O14 0.086390 0.168055 0.223811
O O15 0.007376 0.000000 0.228484
O O16 0.250000 0.399065 0.591695
O O17 0.392343 0.500000 0.615375
O O18 0.750000 0.749615 0.759926
O O19 0.250000 0.404693 0.868301
O O20 0.397841 0.500000 0.842928
#
# Coordination Sequence:
#
# PCOD9401654 Si02
#       8
#     8   8   8   8   4   8   8   8
#     4  10  19  33  53  77 109 140 167 207 258 312
#     4   9  17  30  49  73 102 134 168 204 249 308
#     4   8  14  28  53  83 110 138 174 211 251 302
#     4  11  23  37  55  76  99 132 177 225 270 313
#     4  10  19  36  55  70  98 132 169 220 269 308
#     4   8  14  27  52  84 112 140 174 208 247 302
#     4   9  19  35  55  75 103 138 172 215 261 304
#     4   9  16  27  46  71 101 137 169 196 236 297
#
# _framework density 18.631212000000001
#
# number of rings (size 3 to 8) (size 9 to 14) (size 15 to 20)
#    0.000    2.800    1.333    1.400    0.000    2.667 
#    0.000    5.000    0.000    5.600    0.000    3.733 
#    0.000    0.000    0.000    0.000    0.000    0.000 
#
# Total GULP energy -334466.801757 kJ/mol
# GULP energy per Si atom -5574.446696 kJ/mol
# Density = 1.858881 g / cm^3
# Si number density = 18.631212 Si / 1000 Ang^3
#
#
#
# Elastic Constant Matrix: (Units=GPa)
#
#
# Indices 1 2 3 4 5 6 
#
# 1 58.7684 14.1711 30.2973 0.0000 0.0000 0.0000
# 2 14.1711 113.6736 72.9952 0.0000 0.0000 0.0000
# 3 30.2973 72.9952 109.8023 0.0000 0.0000 0.0000
# 4 0.0000 0.0000 0.0000 26.6099 0.0000 0.0000
# 5 0.0000 0.0000 0.0000 0.0000 4.7470 0.0000
# 6 0.0000 0.0000 0.0000 0.0000 0.0000 19.5991
#
#
#
# Elastic Compliance Matrix: (Units=1/GPa)
#
#
# Indices 1 2 3 4 5 6 
#
# 1 0.020056 0.001838 -0.006756 0.000000 0.000000 0.000000
# 2 0.001838 0.015518 -0.010823 0.000000 0.000000 0.000000
# 3 -0.006756 -0.010823 0.018167 0.000000 0.000000 0.000000
# 4 0.000000 0.000000 0.000000 0.037580 0.000000 0.000000
# 5 0.000000 0.000000 0.000000 0.000000 0.210658 0.000000
# 6 0.000000 0.000000 0.000000 0.000000 0.000000 0.051023
#
#
# Mechanical properties :
#
#
# Convention : Reuss Voigt Hill
#
# Bulk Modulus (GPa) = 44.92764 57.46350 51.19557
# Shear Modulus (GPa) = 12.75827 21.17657 16.96742
#
# Velocity S-wave (km/s) = 2.61967 3.37503 3.02105
# Velocity P-wave (km/s) = 5.77207 6.78950 6.30135
#
# Compressibility (1/GPa) = 0.02225801
#
# Stress axis : x y z
#
# Youngs Moduli (GPa) = 49.86149 64.44016 55.04590
#
# Poissons Ratio (x) = -0.11844 0.37187
# Poissons Ratio (y) = -0.09164 0.59579
# Poissons Ratio (z) = 0.33685 0.69747
#
# Static dielectric constant tensor:
#      x y z
#    x 1.702230 0.000000 0.000000 
#    y 0.000000 1.597570 0.000000 
#    z 0.000000 0.000000 1.668510 
# 
# From -- ./inp_files/24360.got.cif
#   From: 2010.05.17/outbox.cif.g08.bks.cpg/sg51_13_cif.got.tgz:24360.got - 2010.06.03 11:52:47.
