data_PCOD9401538
_publ_section_title
;
Structure prediction by ZEFSAII (Michael W. Deem and Ramdas Pophale) SiO2 
 PCOD9401538
Probable space group: P M M A
;
_chemical_formula_sum "Si O2"
_cell_formula_units_Z 52
_cell_length_a 8.939591
_cell_length_b 14.239086
_cell_length_c 24.012696
_cell_angle_alpha 90.000000
_cell_angle_beta 90.000000
_cell_angle_gamma 90.000000
_cell_volume 3056.614616
_symmetry_space_group_name_H-M "P M M A"
_symmetry_group_IT_number 51
_symmetry_cell_setting 'orthorhombic'
loop_
_space_group_symop_operation_xyz
x,y,z
1/2-x,-y,z
1/2+x,-y,-z
-x,y,-z
-x,-y,-z
1/2+x,y,-z
1/2-x,y,z
x,-y,z
loop_
_atom_site_type_symbol
_atom_site_label
_atom_site_fract_x
_atom_site_fract_y
_atom_site_fract_z
Si Si1 0.429378 0.793507 0.938495
Si Si2 0.082673 0.610180 0.756971
Si Si3 0.568891 0.889492 0.260597
Si Si4 0.424418 0.249291 0.170522
Si Si5 0.078250 0.739141 0.649240
Si Si6 0.071806 0.000000 0.939570
Si Si7 0.928909 0.393396 0.561138
O O1 0.250000 0.784886 0.942378
O O2 0.499020 0.733710 0.889271
O O3 0.469065 0.899186 0.916139
O O4 0.500000 0.781342 0.000000
O O5 0.250000 0.630333 0.780696
O O6 0.065397 0.500000 0.751471
O O7 0.078839 0.660887 0.697708
O O8 0.957023 0.657533 0.794149
O O9 0.750000 0.882365 0.256056
O O10 0.499127 0.832946 0.208489
O O11 0.526443 0.833045 0.317429
O O12 0.529590 0.000000 0.261084
O O13 0.250000 0.229799 0.163506
O O14 0.250000 0.754788 0.630940
O O15 0.985707 0.691150 0.600069
O O16 0.250000 0.000000 0.944547
O O17 0.000000 0.000000 0.000000
O O18 0.750000 0.390007 0.557420
O O19 0.969759 0.500000 0.581721
O O20 0.000000 0.384331 0.500000
#
# Coordination Sequence:
#
# PCOD9401538 Si02
#       7
#     8   8   8   8   8   4   8
#     4  10  19  33  50  70  96 129 166 204 249 300
#     4   9  18  34  55  76  99 131 169 207 249 299
#     4   9  19  36  55  73  98 135 175 212 251 296
#     4  11  22  33  48  75 105 133 165 204 252 302
#     4   9  17  31  52  77 102 130 165 206 252 300
#     4   8  16  28  44  64  86 116 152 190 231 278
#     4  10  20  32  48  73 105 139 171 205 248 297
#
# _framework density 17.012284999999999
#
# number of rings (size 3 to 8) (size 9 to 14) (size 15 to 20)
#    0.000    2.462    0.000    3.692    1.077    5.231 
#    0.000    0.000    0.000    0.923    0.000    0.000 
#    0.000    0.000    0.000    0.000    0.000    0.000 
#
# Total GULP energy -289517.807359 kJ/mol
# GULP energy per Si atom -5567.650142 kJ/mol
# Density = 1.697356 g / cm^3
# Si number density = 17.012285 Si / 1000 Ang^3
#
#
#
# Elastic Constant Matrix: (Units=GPa)
#
#
# Indices 1 2 3 4 5 6 
#
# 1 53.7602 21.2851 34.3897 0.0000 0.0000 0.0000
# 2 21.2851 80.1377 27.5119 0.0000 0.0000 0.0000
# 3 34.3897 27.5119 69.7011 0.0000 0.0000 0.0000
# 4 0.0000 0.0000 0.0000 14.2487 0.0000 0.0000
# 5 0.0000 0.0000 0.0000 0.0000 27.3361 0.0000
# 6 0.0000 0.0000 0.0000 0.0000 0.0000 19.3693
#
#
#
# Elastic Compliance Matrix: (Units=1/GPa)
#
#
# Indices 1 2 3 4 5 6 
#
# 1 0.027828 -0.003097 -0.012508 0.000000 0.000000 0.000000
# 2 -0.003097 0.014779 -0.004305 0.000000 0.000000 0.000000
# 3 -0.012508 -0.004305 0.022217 0.000000 0.000000 0.000000
# 4 0.000000 0.000000 0.000000 0.070182 0.000000 0.000000
# 5 0.000000 0.000000 0.000000 0.000000 0.036582 0.000000
# 6 0.000000 0.000000 0.000000 0.000000 0.000000 0.051628
#
#
# Mechanical properties :
#
#
# Convention : Reuss Voigt Hill
#
# Bulk Modulus (GPa) = 39.99298 41.10804 40.55051
# Shear Modulus (GPa) = 18.42487 20.21831 19.32159
#
# Velocity S-wave (km/s) = 3.29452 3.45114 3.37374
# Velocity P-wave (km/s) = 6.16694 6.33219 6.25011
#
# Compressibility (1/GPa) = 0.02500439
#
# Stress axis : x y z
#
# Youngs Moduli (GPa) = 35.93441 67.66229 45.00963
#
# Poissons Ratio (x) = 0.20958 0.56296
# Poissons Ratio (y) = 0.11131 0.19378
# Poissons Ratio (z) = 0.44946 0.29131
#
# Static dielectric constant tensor:
#      x y z
#    x 1.588820 0.000000 0.000000 
#    y 0.000000 1.603600 0.000000 
#    z 0.000000 0.000000 1.558580 
# 
# From -- ./inp_files/31749.got.cif
#   From: 2010.05.17/outbox.cif.g08.bks.cpg/sg51_16_cif.got.tgz:31749.got - 2010.06.03 11:52:47.
