data_PCOD9401780
_publ_section_title
;
Structure prediction by ZEFSAII (Michael W. Deem and Ramdas Pophale) SiO2 
 PCOD9401780
Probable space group: P M M A
;
_chemical_formula_sum "Si O2"
_cell_formula_units_Z 48
_cell_length_a 19.011245
_cell_length_b 8.580631
_cell_length_c 16.694598
_cell_angle_alpha 90.000000
_cell_angle_beta 90.000000
_cell_angle_gamma 90.000000
_cell_volume 2723.364366
_symmetry_space_group_name_H-M "P M M A"
_symmetry_group_IT_number 51
_symmetry_cell_setting 'orthorhombic'
loop_
_space_group_symop_operation_xyz
x,y,z
1/2-x,-y,z
1/2+x,-y,-z
-x,y,-z
-x,-y,-z
1/2+x,y,-z
1/2-x,y,z
x,-y,z
loop_
_atom_site_type_symbol
_atom_site_label
_atom_site_fract_x
_atom_site_fract_y
_atom_site_fract_z
Si Si1 0.595274 0.183843 0.821227
Si Si2 0.533902 0.813606 0.583779
Si Si3 0.670007 0.690075 0.158351
Si Si4 0.960914 0.313916 0.260041
Si Si5 0.669881 0.313245 0.666129
Si Si6 0.333959 0.314853 0.023225
O O1 0.522581 0.271299 0.802253
O O2 0.648823 0.240624 0.751919
O O3 0.625093 0.225967 0.907819
O O4 0.584596 0.000000 0.812572
O O5 0.500000 0.761858 0.500000
O O6 0.483593 0.764122 0.656952
O O7 0.610320 0.742698 0.604177
O O8 0.540740 0.000000 0.582827
O O9 0.750000 0.741309 0.174157
O O10 0.670604 0.500000 0.157965
O O11 0.612945 0.739963 0.223162
O O12 0.649529 0.735852 0.067690
O O13 0.959318 0.500000 0.271064
O O14 0.750000 0.270744 0.644827
O O15 0.665595 0.500000 0.673234
O O16 0.250000 0.294698 0.033830
O O17 0.348586 0.500000 0.030355
#
# Coordination Sequence:
#
# PCOD9401780 Si02
#       6
#     8   8   8   8   8   8
#     4  11  21  31  46  71 105 138 168 204 247 298
#     4  10  21  37  56  77 104 136 166 199 245 303
#     4   8  16  32  53  75  97 126 167 212 253 291
#     4  10  19  33  55  77  98 127 165 208 252 299
#     4  10  20  34  54  79 104 131 167 209 251 296
#     4   9  17  31  50  70  96 131 171 211 247 288
#
# _framework density 17.625259
#
# number of rings (size 3 to 8) (size 9 to 14) (size 15 to 20)
#    0.000    2.333    0.000    6.500    0.000    5.667 
#    0.000    5.833    0.000    7.000    0.000    0.000 
#    0.000    0.000    0.000    0.000    0.000    0.000 
#
# Total GULP energy -267818.033577 kJ/mol
# GULP energy per Si atom -5579.542366 kJ/mol
# Density = 1.758514 g / cm^3
# Si number density = 17.625259 Si / 1000 Ang^3
#
#
#
# Elastic Constant Matrix: (Units=GPa)
#
#
# Indices 1 2 3 4 5 6 
#
# 1 104.6629 7.2329 69.0863 0.0000 0.0000 0.0000
# 2 7.2329 17.0894 0.7825 0.0000 0.0000 0.0000
# 3 69.0863 0.7825 81.6316 0.0000 0.0000 0.0000
# 4 0.0000 0.0000 0.0000 30.6159 0.0000 0.0000
# 5 0.0000 0.0000 0.0000 0.0000 20.3208 0.0000
# 6 0.0000 0.0000 0.0000 0.0000 0.0000 -10.2087
#
#
#
# Elastic Compliance Matrix: (Units=1/GPa)
#
#
# Indices 1 2 3 4 5 6 
#
# 1 0.022901 -0.008809 -0.019297 0.000000 0.000000 0.000000
# 2 -0.008809 0.061930 0.006862 0.000000 0.000000 0.000000
# 3 -0.019297 0.006862 0.028516 0.000000 0.000000 0.000000
# 4 0.000000 0.000000 0.000000 0.032663 0.000000 0.000000
# 5 0.000000 0.000000 0.000000 0.000000 0.049211 0.000000
# 6 0.000000 0.000000 0.000000 0.000000 0.000000 -0.097955
#
#
# Mechanical properties :
#
#
# Convention : Reuss Voigt Hill
#
# Bulk Modulus (GPa) = 14.11281 39.73193 26.92237
# Shear Modulus (GPa) = 30.60491 16.56441 23.58466
#
# Velocity S-wave (km/s) = 4.17156 3.06896 3.66200
# Velocity P-wave (km/s) = 5.58812 5.92871 5.76093
#
# Compressibility (1/GPa) = 0.07085759
#
# Stress axis : x y z
#
# Youngs Moduli (GPa) = 43.66643 16.14734 35.06828
#
# Poissons Ratio (x) = 0.14224 0.67671
# Poissons Ratio (y) = 0.38465 -0.24062
# Poissons Ratio (z) = 0.84263 -0.11080
#
# Static dielectric constant tensor:
#      x y z
#    x 1.602390 0.000000 0.000000 
#    y 0.000000 1.595220 0.000000 
#    z 0.000000 0.000000 1.581410 
# 
# From -- ./inp_files/30026.got.cif
#   From: 2010.05.17/outbox.cif.g08.bks.cpg/sg51_16_cif.got.tgz:30026.got - 2010.06.03 11:52:47.
