data_PCOD9401898
_publ_section_title
;
Structure prediction by ZEFSAII (Michael W. Deem and Ramdas Pophale) SiO2 
 PCOD9401898
Probable space group: P M M A
;
_chemical_formula_sum "Si O2"
_cell_formula_units_Z 48
_cell_length_a 16.979174
_cell_length_b 15.607758
_cell_length_c 9.658142
_cell_angle_alpha 90.000000
_cell_angle_beta 90.000000
_cell_angle_gamma 90.000000
_cell_volume 2559.473680
_symmetry_space_group_name_H-M "P M M A"
_symmetry_group_IT_number 51
_symmetry_cell_setting 'orthorhombic'
loop_
_space_group_symop_operation_xyz
x,y,z
1/2-x,-y,z
1/2+x,-y,-z
-x,y,-z
-x,-y,-z
1/2+x,y,-z
1/2-x,y,z
x,-y,z
loop_
_atom_site_type_symbol
_atom_site_label
_atom_site_fract_x
_atom_site_fract_y
_atom_site_fract_z
Si Si1 0.079833 0.000000 0.092150
Si Si2 0.154073 0.597181 0.286620
Si Si3 0.659665 0.716405 0.947299
Si Si4 0.156749 0.745927 0.499842
Si Si5 0.093152 0.805119 0.780418
Si Si6 0.413286 0.168037 0.267502
Si Si7 0.341795 0.000000 0.814369
O O1 0.082399 0.078712 0.193441
O O2 0.000000 0.000000 0.000000
O O3 0.149348 0.000000 0.980842
O O4 0.250000 0.598292 0.284319
O O5 0.128038 0.500000 0.310236
O O6 0.129457 0.631686 0.133707
O O7 0.130773 0.661729 0.411672
O O8 0.750000 0.704278 0.990731
O O9 0.652797 0.781103 0.818213
O O10 0.614134 0.762322 0.072062
O O11 0.250000 0.754299 0.483722
O O12 0.136465 0.752084 0.660401
O O13 0.111663 0.824467 0.425694
O O14 0.118698 0.907016 0.774473
O O15 0.000367 0.795049 0.754822
O O16 0.250000 0.000000 0.772237
#
# Coordination Sequence:
#
# PCOD9401898 Si02
#       7
#     4   8   8   8   8   8   4
#     4  12  20  37  55  82 107 147 194 237 273 326
#     4   8  16  34  59  84 110 143 184 233 286 340
#     4  10  19  33  57  84 109 141 185 234 279 333
#     4  10  22  38  57  82 112 148 192 235 281 340
#     4  12  22  37  55  82 117 152 185 230 289 338
#     4  11  21  36  57  78 110 150 195 227 277 338
#     4  12  24  35  55  81 115 151 185 235 282 315
#
# _framework density 18.753855999999999
#
# number of rings (size 3 to 8) (size 9 to 14) (size 15 to 20)
#    0.000    1.500    3.333    4.000    0.000    1.333 
#    0.000    3.333    0.000   20.000    0.000    0.000 
#    0.000    0.000    0.000    0.000    0.000    0.000 
#
# Total GULP energy -267279.241831 kJ/mol
# GULP energy per Si atom -5568.317538 kJ/mol
# Density = 1.871117 g / cm^3
# Si number density = 18.753856 Si / 1000 Ang^3
#
#
#
# Elastic Constant Matrix: (Units=GPa)
#
#
# Indices 1 2 3 4 5 6 
#
# 1 54.9533 9.7489 14.0115 0.0000 0.0000 0.0000
# 2 9.7489 97.7143 28.5714 0.0000 0.0000 0.0000
# 3 14.0115 28.5714 70.6120 0.0000 0.0000 0.0000
# 4 0.0000 0.0000 0.0000 108.6325 0.0000 0.0000
# 5 0.0000 0.0000 0.0000 0.0000 31.6589 0.0000
# 6 0.0000 0.0000 0.0000 0.0000 0.0000 9.0577
#
#
#
# Elastic Compliance Matrix: (Units=1/GPa)
#
#
# Indices 1 2 3 4 5 6 
#
# 1 0.019238 -0.000911 -0.003449 0.000000 0.000000 0.000000
# 2 -0.000911 0.011650 -0.004533 0.000000 0.000000 0.000000
# 3 -0.003449 -0.004533 0.016680 0.000000 0.000000 0.000000
# 4 0.000000 0.000000 0.000000 0.009205 0.000000 0.000000
# 5 0.000000 0.000000 0.000000 0.000000 0.031587 0.000000
# 6 0.000000 0.000000 0.000000 0.000000 0.000000 0.110403
#
#
# Mechanical properties :
#
#
# Convention : Reuss Voigt Hill
#
# Bulk Modulus (GPa) = 33.57623 36.43813 35.00718
# Shear Modulus (GPa) = 22.07722 41.26636 31.67179
#
# Velocity S-wave (km/s) = 3.43477 4.69595 4.11398
# Velocity P-wave (km/s) = 5.80282 6.99103 6.42445
#
# Compressibility (1/GPa) = 0.02978297
#
# Stress axis : x y z
#
# Youngs Moduli (GPa) = 51.97985 85.83465 59.95024
#
# Poissons Ratio (x) = 0.07819 0.20676
# Poissons Ratio (y) = 0.04735 0.27177
# Poissons Ratio (z) = 0.17927 0.38911
#
# Static dielectric constant tensor:
#      x y z
#    x 1.674500 0.000000 0.000000 
#    y 0.000000 1.683140 0.000000 
#    z 0.000000 0.000000 1.635430 
# 
# From -- ./inp_files/9682.got.cif
#   From: 2010.05.17/outbox.cif.g08.bks.cpg/sg51_5_cif.got.tgz:9682.got - 2010.06.03 11:52:47.
