data_PCOD9401878
_publ_section_title
;
Structure prediction by ZEFSAII (Michael W. Deem and Ramdas Pophale) SiO2 
 PCOD9401878
Probable space group: P M M A
;
_chemical_formula_sum "Si O2"
_cell_formula_units_Z 48
_cell_length_a 10.007451
_cell_length_b 8.955226
_cell_length_c 30.144922
_cell_angle_alpha 90.000000
_cell_angle_beta 90.000000
_cell_angle_gamma 90.000000
_cell_volume 2701.557324
_symmetry_space_group_name_H-M "P M M A"
_symmetry_group_IT_number 51
_symmetry_cell_setting 'orthorhombic'
loop_
_space_group_symop_operation_xyz
x,y,z
1/2-x,-y,z
1/2+x,-y,-z
-x,y,-z
-x,-y,-z
1/2+x,y,-z
1/2-x,y,z
x,-y,z
loop_
_atom_site_type_symbol
_atom_site_label
_atom_site_fract_x
_atom_site_fract_y
_atom_site_fract_z
Si Si1 0.588031 0.326408 0.192202
Si Si2 0.010027 0.178125 0.899039
Si Si3 0.093851 0.319905 0.623243
Si Si4 0.750000 0.321987 0.941028
Si Si5 0.087894 0.171106 0.716801
Si Si6 0.750000 0.677967 0.046640
Si Si7 0.906202 0.318032 0.541243
O O1 0.750000 0.318084 0.190289
O O2 0.550755 0.500000 0.188083
O O3 0.532914 0.232981 0.151130
O O4 0.544030 0.260372 0.239544
O O5 0.124539 0.247587 0.929792
O O6 0.876037 0.245983 0.918599
O O7 0.012349 0.000000 0.900936
O O8 0.250000 0.278943 0.613017
O O9 0.091475 0.500000 0.626541
O O10 0.054986 0.249904 0.670445
O O11 0.988607 0.274817 0.585363
O O12 0.750000 0.500000 0.933777
O O13 0.750000 0.297395 0.993991
O O14 0.250000 0.169439 0.718409
O O15 0.041564 0.000000 0.717910
O O16 0.750000 0.500000 0.054761
O O17 0.750000 0.269007 0.539478
O O18 0.902393 0.500000 0.540282
O O19 0.000000 0.270915 0.500000
#
# Coordination Sequence:
#
# PCOD9401878 Si02
#       7
#     8   8   8   4   8   4   8
#     4  10  19  33  56  83 112 144 183 227 275 332
#     4  12  24  38  60  88 118 149 187 237 289 340
#     4   9  16  27  45  70  99 130 167 210 260 315
#     4  11  25  43  61  81 115 155 193 233 282 343
#     4   9  17  29  48  75 105 134 171 220 270 316
#     4  11  23  41  63  87 113 151 195 235 280 337
#     4   9  16  26  43  69 101 135 171 214 261 309
#
# _framework density 17.767530000000001
#
# number of rings (size 3 to 8) (size 9 to 14) (size 15 to 20)
#    0.000    2.000    0.833    4.000    0.000    8.000 
#    0.000    0.000    1.833    1.000    0.000    0.000 
#    0.000    0.000    0.000    0.000    0.000    0.000 
#
# Total GULP energy -267842.983805 kJ/mol
# GULP energy per Si atom -5580.062163 kJ/mol
# Density = 1.772709 g / cm^3
# Si number density = 17.767530 Si / 1000 Ang^3
#
#
#
# Elastic Constant Matrix: (Units=GPa)
#
#
# Indices 1 2 3 4 5 6 
#
# 1 119.4325 51.4859 74.3969 0.0000 0.0000 0.0000
# 2 51.4859 96.2252 85.2692 0.0000 0.0000 0.0000
# 3 74.3969 85.2692 164.5037 0.0000 0.0000 0.0000
# 4 0.0000 0.0000 0.0000 -25.1667 0.0000 0.0000
# 5 0.0000 0.0000 0.0000 0.0000 7.1144 0.0000
# 6 0.0000 0.0000 0.0000 0.0000 0.0000 18.3262
#
#
#
# Elastic Compliance Matrix: (Units=1/GPa)
#
#
# Indices 1 2 3 4 5 6 
#
# 1 0.012110 -0.003008 -0.003918 0.000000 0.000000 0.000000
# 2 -0.003008 0.019968 -0.008990 0.000000 0.000000 0.000000
# 3 -0.003918 -0.008990 0.012510 0.000000 0.000000 0.000000
# 4 0.000000 0.000000 0.000000 -0.039735 0.000000 0.000000
# 5 0.000000 0.000000 0.000000 0.000000 0.140561 0.000000
# 6 0.000000 0.000000 0.000000 0.000000 0.000000 0.054567
#
#
# Mechanical properties :
#
#
# Convention : Reuss Voigt Hill
#
# Bulk Modulus (GPa) = 78.38503 89.16284 83.77393
# Shear Modulus (GPa) = 21.18066 11.32206 16.25136
#
# Velocity S-wave (km/s) = 3.45642 2.52709 3.02763
# Velocity P-wave (km/s) = 7.75512 7.66856 7.71196
#
# Compressibility (1/GPa) = 0.01275754
#
# Stress axis : x y z
#
# Youngs Moduli (GPa) = 82.57654 50.07988 79.93294
#
# Poissons Ratio (x) = 0.15064 0.31314
# Poissons Ratio (y) = 0.24839 0.71859
# Poissons Ratio (z) = 0.32350 0.45022
#
# Static dielectric constant tensor:
#      x y z
#    x 1.578570 0.000000 0.000000 
#    y 0.000000 1.587210 0.000000 
#    z 0.000000 0.000000 1.593010 
# 
# From -- ./inp_files/37191.got.cif
#   From: 2010.05.17/outbox.cif.g08.bks.cpg/sg51_19_cif.got.tgz:37191.got - 2010.06.03 11:52:47.
