data_PCOD9401840
_publ_section_title
;
Structure prediction by ZEFSAII (Michael W. Deem and Ramdas Pophale) SiO2 
 PCOD9401840
Probable space group: P M M A
;
_chemical_formula_sum "Si O2"
_cell_formula_units_Z 56
_cell_length_a 14.992837
_cell_length_b 20.572612
_cell_length_c 8.747790
_cell_angle_alpha 90.000000
_cell_angle_beta 90.000000
_cell_angle_gamma 90.000000
_cell_volume 2698.184254
_symmetry_space_group_name_H-M "P M M A"
_symmetry_group_IT_number 51
_symmetry_cell_setting 'orthorhombic'
loop_
_space_group_symop_operation_xyz
x,y,z
1/2-x,-y,z
1/2+x,-y,-z
-x,y,-z
-x,-y,-z
1/2+x,y,-z
1/2-x,y,z
x,-y,z
loop_
_atom_site_type_symbol
_atom_site_label
_atom_site_fract_x
_atom_site_fract_y
_atom_site_fract_z
Si Si1 0.355963 0.163158 0.835908
Si Si2 0.348884 0.299121 0.714862
Si Si3 0.855105 0.822668 0.799609
Si Si4 0.141605 0.571016 0.864396
Si Si5 0.642671 0.573586 0.774570
Si Si6 0.912081 0.300423 0.603538
Si Si7 0.504239 0.924277 0.683429
O O1 0.250000 0.153200 0.801234
O O2 0.389987 0.230958 0.763717
O O3 0.417800 0.107274 0.765339
O O4 0.365211 0.172857 0.017413
O O5 0.250000 0.297008 0.786900
O O6 0.391498 0.365591 0.775725
O O7 0.341651 0.300532 0.533812
O O8 0.750000 0.826250 0.764056
O O9 0.892666 0.756591 0.723810
O O10 0.910637 0.882631 0.733952
O O11 0.250000 0.569008 0.847325
O O12 0.107869 0.500000 0.812848
O O13 0.122849 0.577774 0.044379
O O14 0.750000 0.582611 0.758516
O O15 0.622015 0.500000 0.723572
O O16 0.593906 0.630392 0.685406
O O17 0.000000 0.291030 0.500000
O O18 0.500000 0.918954 0.500000
O O19 0.511820 0.000000 0.724534
#
# Coordination Sequence:
#
# PCOD9401840 Si02
#       7
#     8   8   8   8   8   8   8
#     4  10  22  40  65  95 126 165 211 257 304 361
#     4  10  19  33  55  82 112 146 192 248 303 365
#     4  11  23  41  66  92 121 162 213 263 311 368
#     4   8  15  30  54  81 107 142 194 255 314 372
#     4   9  18  35  57  78 106 149 200 253 312 380
#     4  12  24  36  54  83 121 161 202 255 318 380
#     4  11  25  44  66  95 131 166 200 245 306 373
#
# _framework density 20.754698000000001
#
# number of rings (size 3 to 8) (size 9 to 14) (size 15 to 20)
#    0.000    1.857    0.000    5.571    0.000    6.571 
#    0.000    6.429    0.000    1.714    0.000    0.000 
#    0.000    0.000    0.000    0.000    0.000    0.000 
#
# Total GULP energy -312721.933340 kJ/mol
# GULP energy per Si atom -5584.320238 kJ/mol
# Density = 2.070746 g / cm^3
# Si number density = 20.754698 Si / 1000 Ang^3
#
#
#
# Elastic Constant Matrix: (Units=GPa)
#
#
# Indices 1 2 3 4 5 6 
#
# 1 116.3941 63.0170 42.1326 0.0000 0.0000 0.0000
# 2 63.0170 192.3308 72.9090 0.0000 0.0000 0.0000
# 3 42.1326 72.9090 76.8852 0.0000 0.0000 0.0000
# 4 0.0000 0.0000 0.0000 41.0854 0.0000 0.0000
# 5 0.0000 0.0000 0.0000 0.0000 30.0462 0.0000
# 6 0.0000 0.0000 0.0000 0.0000 0.0000 15.0652
#
#
#
# Elastic Compliance Matrix: (Units=1/GPa)
#
#
# Indices 1 2 3 4 5 6 
#
# 1 0.011237 -0.002104 -0.004163 0.000000 0.000000 0.000000
# 2 -0.002104 0.008511 -0.006918 0.000000 0.000000 0.000000
# 3 -0.004163 -0.006918 0.021848 0.000000 0.000000 0.000000
# 4 0.000000 0.000000 0.000000 0.024340 0.000000 0.000000
# 5 0.000000 0.000000 0.000000 0.000000 0.033282 0.000000
# 6 0.000000 0.000000 0.000000 0.000000 0.000000 0.066378
#
#
# Mechanical properties :
#
#
# Convention : Reuss Voigt Hill
#
# Bulk Modulus (GPa) = 65.67394 82.41412 74.04403
# Shear Modulus (GPa) = 25.37524 31.07613 28.22568
#
# Velocity S-wave (km/s) = 3.50040 3.87370 3.69177
# Velocity P-wave (km/s) = 6.93172 7.73319 7.34340
#
# Compressibility (1/GPa) = 0.01522674
#
# Stress axis : x y z
#
# Youngs Moduli (GPa) = 88.98793 117.49165 45.77048
#
# Poissons Ratio (x) = 0.24718 0.19054
# Poissons Ratio (y) = 0.18721 0.31665
# Poissons Ratio (z) = 0.37046 0.81283
#
# Static dielectric constant tensor:
#      x y z
#    x 1.877070 0.000000 0.000000 
#    y 0.000000 1.731530 0.000000 
#    z 0.000000 0.000000 1.724930 
# 
# From -- ./inp_files/8563.got.cif
#   From: 2010.05.17/outbox.cif.g08.bks.cpg/sg51_5_cif.got.tgz:8563.got - 2010.06.03 11:52:47.
