data_PCOD9401741
_publ_section_title
;
Structure prediction by ZEFSAII (Michael W. Deem and Ramdas Pophale) SiO2 
 PCOD9401741
Probable space group: P M M A
;
_chemical_formula_sum "Si O2"
_cell_formula_units_Z 48
_cell_length_a 16.635232
_cell_length_b 7.522338
_cell_length_c 17.585982
_cell_angle_alpha 90.000000
_cell_angle_beta 90.000000
_cell_angle_gamma 90.000000
_cell_volume 2200.636591
_symmetry_space_group_name_H-M "P M M A"
_symmetry_group_IT_number 51
_symmetry_cell_setting 'orthorhombic'
loop_
_space_group_symop_operation_xyz
x,y,z
1/2-x,-y,z
1/2+x,-y,-z
-x,y,-z
-x,-y,-z
1/2+x,y,-z
1/2-x,y,z
x,-y,z
loop_
_atom_site_type_symbol
_atom_site_label
_atom_site_fract_x
_atom_site_fract_y
_atom_site_fract_z
Si Si1 0.429444 0.717504 0.840659
Si Si2 0.158920 0.282970 0.991040
Si Si3 0.158543 0.717474 0.689566
Si Si4 0.750000 0.209494 0.724584
Si Si5 0.109434 0.712470 0.158356
Si Si6 0.750000 0.787284 0.552813
Si Si7 0.083441 0.711601 0.535916
O O1 0.428240 0.500000 0.841227
O O2 0.372227 0.773799 0.772047
O O3 0.520008 0.777154 0.825144
O O4 0.399636 0.774863 0.923681
O O5 0.250000 0.232175 0.972326
O O6 0.156246 0.500000 0.992478
O O7 0.137756 0.220367 0.075761
O O8 0.250000 0.773330 0.675612
O O9 0.158053 0.500000 0.688981
O O10 0.102288 0.779479 0.620731
O O11 0.672594 0.254571 0.775208
O O12 0.750000 0.285000 0.639370
O O13 0.750000 0.000000 0.715255
O O14 0.104555 0.500000 0.150556
O O15 0.833719 0.735740 0.511571
O O16 0.750000 0.000000 0.553679
O O17 0.072147 0.500000 0.542919
O O18 0.000000 0.782317 0.500000
#
# Coordination Sequence:
#
# PCOD9401741 Si02
#       7
#     8   8   8   4   8   4   8
#     4   9  17  26  46  80 115 142 170 218 272 321
#     4   9  15  26  45  76 113 144 174 214 266 318
#     4   9  16  29  48  77 114 145 172 211 272 336
#     4  11  25  41  55  74 105 144 184 227 279 329
#     4  10  19  33  54  81 107 136 181 229 271 318
#     4  11  25  43  61  82 113 154 196 235 285 349
#     4  10  21  37  61  90 117 145 185 240 294 343
#
# _framework density 21.811869999999999
#
# number of rings (size 3 to 8) (size 9 to 14) (size 15 to 20)
#    0.000    2.333    1.667    1.500    2.333    5.667 
#    0.000    0.000    0.000    2.000    0.000    1.167 
#    0.000    0.000    0.000    0.000    0.000    0.000 
#
# Total GULP energy -268051.650910 kJ/mol
# GULP energy per Si atom -5584.409394 kJ/mol
# Density = 2.176223 g / cm^3
# Si number density = 21.811870 Si / 1000 Ang^3
#
#
#
# Elastic Constant Matrix: (Units=GPa)
#
#
# Indices 1 2 3 4 5 6 
#
# 1 93.6147 -6.1805 15.3292 0.0000 0.0000 0.0000
# 2 -6.1805 52.6379 -6.8283 0.0000 0.0000 0.0000
# 3 15.3292 -6.8283 112.6314 0.0000 0.0000 0.0000
# 4 0.0000 0.0000 0.0000 19.9956 0.0000 0.0000
# 5 0.0000 0.0000 0.0000 0.0000 2.6488 0.0000
# 6 0.0000 0.0000 0.0000 0.0000 0.0000 -51.9713
#
#
#
# Elastic Compliance Matrix: (Units=1/GPa)
#
#
# Indices 1 2 3 4 5 6 
#
# 1 0.010989 0.001105 -0.001429 0.000000 0.000000 0.000000
# 2 0.001105 0.019259 0.001017 0.000000 0.000000 0.000000
# 3 -0.001429 0.001017 0.009135 0.000000 0.000000 0.000000
# 4 0.000000 0.000000 0.000000 0.050011 0.000000 0.000000
# 5 0.000000 0.000000 0.000000 0.000000 0.377531 0.000000
# 6 0.000000 0.000000 0.000000 0.000000 0.000000 -0.019241
#
#
# Mechanical properties :
#
#
# Convention : Reuss Voigt Hill
#
# Bulk Modulus (GPa) = 24.52778 29.28054 26.90416
# Shear Modulus (GPa) = 10.87225 11.23885 11.05555
#
# Velocity S-wave (km/s) = 2.23503 2.27240 2.25380
# Velocity P-wave (km/s) = 4.23439 4.50981 4.37427
#
# Compressibility (1/GPa) = 0.04077010
#
# Stress axis : x y z
#
# Youngs Moduli (GPa) = 91.00038 51.92269 109.47362
#
# Poissons Ratio (x) = -0.05737 0.15640
# Poissons Ratio (y) = -0.10055 -0.11136
# Poissons Ratio (z) = 0.13000 -0.05282
#
# Static dielectric constant tensor:
#      x y z
#    x 1.759950 0.000000 0.000000 
#    y 0.000000 2.289530 0.000000 
#    z 0.000000 0.000000 1.780760 
# 
# From -- ./inp_files/29552.got.cif
#   From: 2010.05.17/outbox.cif.g08.bks.cpg/sg51_15_cif.got.tgz:29552.got - 2010.06.03 11:52:47.
