data_PCOD9401904
_publ_section_title
;
Structure prediction by ZEFSAII (Michael W. Deem and Ramdas Pophale) SiO2 
 PCOD9401904
Probable space group: P M M A
;
_chemical_formula_sum "Si O2"
_cell_formula_units_Z 64
_cell_length_a 25.588222
_cell_length_b 14.988171
_cell_length_c 9.201427
_cell_angle_alpha 90.000000
_cell_angle_beta 90.000000
_cell_angle_gamma 90.000000
_cell_volume 3528.937236
_symmetry_space_group_name_H-M "P M M A"
_symmetry_group_IT_number 51
_symmetry_cell_setting 'orthorhombic'
loop_
_space_group_symop_operation_xyz
x,y,z
1/2-x,-y,z
1/2+x,-y,-z
-x,y,-z
-x,-y,-z
1/2+x,y,-z
1/2-x,y,z
x,-y,z
loop_
_atom_site_type_symbol
_atom_site_label
_atom_site_fract_x
_atom_site_fract_y
_atom_site_fract_z
Si Si1 0.498698 0.707900 0.177250
Si Si2 0.104557 0.395025 0.825737
Si Si3 0.311365 0.271981 0.678090
Si Si4 0.188606 0.274236 0.332914
Si Si5 0.357690 0.101615 0.835098
Si Si6 0.483079 0.902717 0.830787
Si Si7 0.812534 0.100841 0.846236
Si Si8 0.894267 0.604315 0.824465
O O1 0.552315 0.658670 0.219665
O O2 0.495120 0.809999 0.231058
O O3 0.448321 0.651429 0.220097
O O4 0.500000 0.711050 0.000000
O O5 0.100094 0.500000 0.791460
O O6 0.153952 0.348173 0.752558
O O7 0.109837 0.386746 0.000557
O O8 0.250000 0.282187 0.711240
O O9 0.318635 0.276052 0.505223
O O10 0.331151 0.176899 0.738256
O O11 0.250000 0.289568 0.302223
O O12 0.174684 0.176970 0.268812
O O13 0.153217 0.346305 0.252834
O O14 0.420322 0.105596 0.823974
O O15 0.340996 0.000000 0.799523
O O16 0.341680 0.118330 0.002355
O O17 0.498332 0.000000 0.768197
O O18 0.500000 0.905083 0.000000
O O19 0.750000 0.103886 0.873295
O O20 0.825468 0.000000 0.798289
O O21 0.895536 0.500000 0.789509
#
# Coordination Sequence:
#
# PCOD9401904 Si02
#       8
#     8   8   8   8   8   8   8   8
#     4   9  17  32  56  84 114 143 175 224 282 335
#     4  10  20  36  59  84 109 139 183 239 290 333
#     4  11  23  38  54  78 113 153 192 229 279 338
#     4  10  23  39  55  77 112 155 190 227 278 337
#     4  10  19  33  57  86 113 144 186 232 276 325
#     4   9  17  28  49  85 118 143 173 215 272 334
#     4   9  18  33  54  81 109 139 182 232 274 318
#     4  10  21  37  60  86 108 140 187 235 283 335
#
# _framework density 18.135770000000001
#
# number of rings (size 3 to 8) (size 9 to 14) (size 15 to 20)
#    0.000    2.250    1.250    1.500    3.500    5.250 
#    0.000    4.375    0.000    1.500    0.000    1.750 
#    0.000    0.000    0.000    0.000    0.000    0.000 
#
# Total GULP energy -357092.746353 kJ/mol
# GULP energy per Si atom -5579.574162 kJ/mol
# Density = 1.809449 g / cm^3
# Si number density = 18.135770 Si / 1000 Ang^3
#
#
#
# Elastic Constant Matrix: (Units=GPa)
#
#
# Indices 1 2 3 4 5 6 
#
# 1 81.8926 81.6926 42.0456 0.0000 0.0000 0.0000
# 2 81.6926 175.6163 56.8789 0.0000 0.0000 0.0000
# 3 42.0456 56.8789 28.6156 0.0000 0.0000 0.0000
# 4 0.0000 0.0000 0.0000 20.2177 0.0000 0.0000
# 5 0.0000 0.0000 0.0000 0.0000 -15.5329 0.0000
# 6 0.0000 0.0000 0.0000 0.0000 0.0000 120.9239
#
#
#
# Elastic Compliance Matrix: (Units=1/GPa)
#
#
# Indices 1 2 3 4 5 6 
#
# 1 0.049856 0.001499 -0.076235 0.000000 0.000000 0.000000
# 2 0.001499 0.016030 -0.034065 0.000000 0.000000 0.000000
# 3 -0.076235 -0.034065 0.214670 0.000000 0.000000 0.000000
# 4 0.000000 0.000000 0.000000 0.049462 0.000000 0.000000
# 5 0.000000 0.000000 0.000000 0.000000 -0.064379 0.000000
# 6 0.000000 0.000000 0.000000 0.000000 0.000000 0.008270
#
#
# Mechanical properties :
#
#
# Convention : Reuss Voigt Hill
#
# Bulk Modulus (GPa) = 15.88437 71.92874 43.90656
# Shear Modulus (GPa) = 9.75619 32.15557 20.95588
#
# Velocity S-wave (km/s) = 2.32190 4.21532 3.40295
# Velocity P-wave (km/s) = 3.99573 7.96488 6.30100
#
# Compressibility (1/GPa) = 0.06295495
#
# Stress axis : x y z
#
# Youngs Moduli (GPa) = 20.05762 62.38278 4.65831
#
# Poissons Ratio (x) = -0.09351 0.35512
# Poissons Ratio (y) = -0.03007 0.15869
# Poissons Ratio (z) = 1.52908 2.12509
#
# Static dielectric constant tensor:
#      x y z
#    x 1.609790 0.000000 0.000000 
#    y 0.000000 1.636970 0.000000 
#    z 0.000000 0.000000 1.585510 
# 
# From -- ./inp_files/11851.got.cif
#   From: 2010.05.17/outbox.cif.g08.bks.cpg/sg51_6_cif.got.tgz:11851.got - 2010.06.03 11:52:47.
