data_PCOD9401712
_publ_section_title
;
Structure prediction by ZEFSAII (Michael W. Deem and Ramdas Pophale) SiO2 
 PCOD9401712
Probable space group: P M M A
;
_chemical_formula_sum "Si O2"
_cell_formula_units_Z 44
_cell_length_a 8.140516
_cell_length_b 30.081713
_cell_length_c 9.390847
_cell_angle_alpha 90.000000
_cell_angle_beta 90.000000
_cell_angle_gamma 90.000000
_cell_volume 2299.636868
_symmetry_space_group_name_H-M "P M M A"
_symmetry_group_IT_number 51
_symmetry_cell_setting 'orthorhombic'
loop_
_space_group_symop_operation_xyz
x,y,z
1/2-x,-y,z
1/2+x,-y,-z
-x,y,-z
-x,-y,-z
1/2+x,y,-z
1/2-x,y,z
x,-y,z
loop_
_atom_site_type_symbol
_atom_site_label
_atom_site_fract_x
_atom_site_fract_y
_atom_site_fract_z
Si Si1 0.948995 0.000000 0.164178
Si Si2 0.551921 0.730668 0.834447
Si Si3 0.448465 0.451014 0.336108
Si Si4 0.445517 0.086144 0.663307
Si Si5 0.053350 0.172369 0.164843
Si Si6 0.051200 0.634308 0.164528
O O1 0.009442 0.955996 0.246331
O O2 0.750000 0.000000 0.168224
O O3 0.000000 0.000000 0.000000
O O4 0.750000 0.730736 0.825819
O O5 0.493632 0.778902 0.780928
O O6 0.494679 0.682716 0.776761
O O7 0.500000 0.730332 0.000000
O O8 0.500000 0.446908 0.500000
O O9 0.250000 0.450691 0.329312
O O10 0.504254 0.500000 0.284707
O O11 0.510657 0.408714 0.248522
O O12 0.500000 0.084409 0.500000
O O13 0.250000 0.083479 0.665232
O O14 0.495009 0.131809 0.739529
O O15 0.250000 0.172756 0.166426
O O16 0.000000 0.166780 0.000000
O O17 0.250000 0.634072 0.170484
O O18 0.000000 0.631297 0.000000
#
# Coordination Sequence:
#
# PCOD9401712 Si02
#       6
#     4   8   8   8   8   8
#     4  10  23  40  60  84 108 136 173 212 251 300
#     4   8  15  28  47  70  98 130 163 201 245 291
#     4   9  18  32  48  66  91 124 161 200 243 293
#     4  11  23  39  57  80 109 141 174 211 257 303
#     4  10  19  33  54  79 105 136 174 213 251 297
#     4   9  17  30  48  71  98 126 159 201 247 294
#
# _framework density 19.133455000000001
#
# number of rings (size 3 to 8) (size 9 to 14) (size 15 to 20)
#    0.000    2.545    0.000    1.909    0.000    4.727 
#    0.000    0.909    0.000    2.182    0.000    0.000 
#    0.000    0.000    0.000    0.000    0.000    0.000 
#
# Total GULP energy -245231.967413 kJ/mol
# GULP energy per Si atom -5573.453805 kJ/mol
# Density = 1.908991 g / cm^3
# Si number density = 19.133455 Si / 1000 Ang^3
#
#
#
# Elastic Constant Matrix: (Units=GPa)
#
#
# Indices 1 2 3 4 5 6 
#
# 1 18.1744 21.8357 8.3286 0.0000 0.0000 0.0000
# 2 21.8357 255.8275 101.2186 0.0000 0.0000 0.0000
# 3 8.3286 101.2186 91.9565 0.0000 0.0000 0.0000
# 4 0.0000 0.0000 0.0000 -19.3724 0.0000 0.0000
# 5 0.0000 0.0000 0.0000 0.0000 27.5646 0.0000
# 6 0.0000 0.0000 0.0000 0.0000 0.0000 181.5777
#
#
#
# Elastic Compliance Matrix: (Units=1/GPa)
#
#
# Indices 1 2 3 4 5 6 
#
# 1 0.061316 -0.005379 0.000367 0.000000 0.000000 0.000000
# 2 -0.005379 0.007396 -0.007654 0.000000 0.000000 0.000000
# 3 0.000367 -0.007654 0.019267 0.000000 0.000000 0.000000
# 4 0.000000 0.000000 0.000000 -0.051620 0.000000 0.000000
# 5 0.000000 0.000000 0.000000 0.000000 0.036278 0.000000
# 6 0.000000 0.000000 0.000000 0.000000 0.000000 0.005507
#
#
# Mechanical properties :
#
#
# Convention : Reuss Voigt Hill
#
# Bulk Modulus (GPa) = 15.96230 69.85822 42.91026
# Shear Modulus (GPa) = 40.20598 53.59235 46.89917
#
# Velocity S-wave (km/s) = 4.58902 5.29817 4.95629
# Velocity P-wave (km/s) = 6.03651 8.60336 7.43159
#
# Compressibility (1/GPa) = 0.06264763
#
# Stress axis : x y z
#
# Youngs Moduli (GPa) = 16.30883 135.20145 51.90328
#
# Poissons Ratio (x) = 0.72722 -0.01905
# Poissons Ratio (y) = 0.08772 0.39728
# Poissons Ratio (z) = -0.00599 1.03486
#
# Static dielectric constant tensor:
#      x y z
#    x 1.760650 0.000000 0.000000 
#    y 0.000000 1.743550 0.000000 
#    z 0.000000 0.000000 1.601490 
# 
# From -- ./inp_files/5824.got.cif
#   From: 2010.05.17/outbox.cif.g08.bks.cpg/sg51_3_cif.got.tgz:5824.got - 2010.06.03 11:52:47.
