data_PCOD9401941
_publ_section_title
;
Structure prediction by ZEFSAII (Michael W. Deem and Ramdas Pophale) SiO2 
 PCOD9401941
Probable space group: P M M A
;
_chemical_formula_sum "Si O2"
_cell_formula_units_Z 48
_cell_length_a 10.686680
_cell_length_b 28.472887
_cell_length_c 7.370403
_cell_angle_alpha 90.000000
_cell_angle_beta 90.000000
_cell_angle_gamma 90.000000
_cell_volume 2242.670883
_symmetry_space_group_name_H-M "P M M A"
_symmetry_group_IT_number 51
_symmetry_cell_setting 'orthorhombic'
loop_
_space_group_symop_operation_xyz
x,y,z
1/2-x,-y,z
1/2+x,-y,-z
-x,y,-z
-x,-y,-z
1/2+x,y,-z
1/2-x,y,z
x,-y,z
loop_
_atom_site_type_symbol
_atom_site_label
_atom_site_fract_x
_atom_site_fract_y
_atom_site_fract_z
Si Si1 0.987955 0.740627 0.704481
Si Si2 0.008994 0.053787 0.721129
Si Si3 0.750000 0.899804 0.725458
Si Si4 0.608145 0.552415 0.649017
Si Si5 0.750000 0.791853 0.740360
Si Si6 0.395251 0.649533 0.150492
Si Si7 0.750000 0.112819 0.284997
Si Si8 0.750000 0.777365 0.297040
O O1 0.878970 0.768845 0.805002
O O2 0.936224 0.687562 0.699264
O O3 0.000000 0.759262 0.500000
O O4 0.127709 0.749682 0.771282
O O5 0.875107 0.073308 0.782179
O O6 0.000000 0.054202 0.500000
O O7 0.123830 0.086869 0.777005
O O8 0.030097 0.000000 0.776184
O O9 0.750000 0.846203 0.786795
O O10 0.750000 0.894316 0.504892
O O11 0.500000 0.556071 0.500000
O O12 0.750000 0.555742 0.570874
O O13 0.598065 0.500000 0.732067
O O14 0.595039 0.596044 0.782791
O O15 0.750000 0.781236 0.520284
O O16 0.250000 0.657607 0.099218
O O17 0.500000 0.657750 0.000000
O O18 0.750000 0.167979 0.241122
#
# Coordination Sequence:
#
# PCOD9401941 Si02
#       8
#     8   8   4   8   4   8   4   4
#     4  10  19  34  53  75 100 133 176 229 273 322
#     4   9  15  21  30  46  74 114 157 199 245 299
#     4   9  15  22  35  51  77 110 157 208 251 298
#     4   9  19  38  63  90 118 148 185 228 270 313
#     4   9  16  29  45  66  92 124 164 224 275 307
#     4  11  24  39  55  80 113 149 184 222 270 324
#     4   9  15  24  33  53  79 110 153 210 251 302
#     4   9  18  27  47  70  90 120 172 220 273 315
#
# _framework density 21.403051999999999
#
# number of rings (size 3 to 8) (size 9 to 14) (size 15 to 20)
#    0.000    2.500    0.833    2.000    1.167    7.000 
#    0.000    0.000    0.000    0.000    0.000    0.000 
#    0.000    0.000    0.000    0.000    0.000   58.333 
#
# Total GULP energy -267744.648618 kJ/mol
# GULP energy per Si atom -5578.013513 kJ/mol
# Density = 2.135434 g / cm^3
# Si number density = 21.403052 Si / 1000 Ang^3
#
#
#
# Elastic Constant Matrix: (Units=GPa)
#
#
# Indices 1 2 3 4 5 6 
#
# 1 202.0582 56.3236 7.1889 0.0000 0.0000 0.0000
# 2 56.3236 89.0408 -23.8789 0.0000 0.0000 0.0000
# 3 7.1889 -23.8789 34.9780 0.0000 0.0000 0.0000
# 4 0.0000 0.0000 0.0000 -24.5624 0.0000 0.0000
# 5 0.0000 0.0000 0.0000 0.0000 3.9098 0.0000
# 6 0.0000 0.0000 0.0000 0.0000 0.0000 34.3721
#
#
#
# Elastic Compliance Matrix: (Units=1/GPa)
#
#
# Indices 1 2 3 4 5 6 
#
# 1 0.006710 -0.005648 -0.005235 0.000000 0.000000 0.000000
# 2 -0.005648 0.018502 0.013792 0.000000 0.000000 0.000000
# 3 -0.005235 0.013792 0.039081 0.000000 0.000000 0.000000
# 4 0.000000 0.000000 0.000000 -0.040713 0.000000 0.000000
# 5 0.000000 0.000000 0.000000 0.000000 0.255767 0.000000
# 6 0.000000 0.000000 0.000000 0.000000 0.000000 0.029093
#
#
# Mechanical properties :
#
#
# Convention : Reuss Voigt Hill
#
# Bulk Modulus (GPa) = 14.26312 45.03827 29.65069
# Shear Modulus (GPa) = 15.33776 21.84014 18.58895
#
# Velocity S-wave (km/s) = 2.67987 3.19787 2.95026
# Velocity P-wave (km/s) = 4.03164 5.89269 5.04866
#
# Compressibility (1/GPa) = 0.07011091
#
# Stress axis : x y z
#
# Youngs Moduli (GPa) = 149.03655 54.04702 25.58792
#
# Poissons Ratio (x) = 0.30527 0.13395
# Poissons Ratio (y) = 0.84179 -0.35291
# Poissons Ratio (z) = 0.78020 -0.74542
#
# Static dielectric constant tensor:
#      x y z
#    x 1.816440 0.000000 0.000000 
#    y 0.000000 1.748030 0.000000 
#    z 0.000000 0.000000 1.827280 
# 
# From -- ./inp_files/6319.got.cif
#   From: 2010.05.17/outbox.cif.g08.bks.cpg/sg51_4_cif.got.tgz:6319.got - 2010.06.03 11:52:47.
