data_PCOD9401224
_publ_section_title
;
Structure prediction by ZEFSAII (Michael W. Deem and Ramdas Pophale) SiO2 
 PCOD9401224
Probable space group: P M M A
;
_chemical_formula_sum "Si O2"
_cell_formula_units_Z 64
_cell_length_a 25.407855
_cell_length_b 8.087900
_cell_length_c 15.626019
_cell_angle_alpha 90.000000
_cell_angle_beta 90.000000
_cell_angle_gamma 90.000000
_cell_volume 3211.087376
_symmetry_space_group_name_H-M "P M M A"
_symmetry_group_IT_number 51
_symmetry_cell_setting 'orthorhombic'
loop_
_space_group_symop_operation_xyz
x,y,z
1/2-x,-y,z
1/2+x,-y,-z
-x,y,-z
-x,-y,-z
1/2+x,y,-z
1/2-x,y,z
x,-y,z
loop_
_atom_site_type_symbol
_atom_site_label
_atom_site_fract_x
_atom_site_fract_y
_atom_site_fract_z
Si Si1 0.309865 0.300278 0.871039
Si Si2 0.150573 0.810739 0.539875
Si Si3 0.308258 0.797666 0.362819
Si Si4 0.689772 0.700012 0.933031
Si Si5 0.612204 0.804716 0.784392
Si Si6 0.886677 0.195436 0.279006
Si Si7 0.052487 0.690090 0.445609
Si Si8 0.506938 0.304689 0.729673
O O1 0.250000 0.246776 0.850885
O O2 0.310556 0.500000 0.869403
O O3 0.350916 0.237598 0.801891
O O4 0.321667 0.249829 0.968832
O O5 0.185035 0.739627 0.461389
O O6 0.140146 0.733138 0.633552
O O7 0.093628 0.801581 0.495151
O O8 0.168729 0.000000 0.552267
O O9 0.250000 0.751792 0.331126
O O10 0.354372 0.740122 0.298541
O O11 0.310973 0.000000 0.364371
O O12 0.750000 0.750684 0.913311
O O13 0.688054 0.500000 0.929719
O O14 0.648846 0.769359 0.865552
O O15 0.553587 0.731658 0.796371
O O16 0.606243 0.000000 0.773587
O O17 0.947153 0.246319 0.262358
O O18 0.887915 0.000000 0.292272
O O19 0.073094 0.500000 0.436458
O O20 0.033842 0.764845 0.356233
O O21 0.000000 0.677723 0.500000
O O22 0.503156 0.500000 0.717593
#
# Coordination Sequence:
#
# PCOD9401224 Si02
#       8
#     8   8   8   8   8   8   8   8
#     4   9  20  41  66  87 111 147 187 229 281 340
#     4  10  20  33  51  75 107 148 187 228 277 329
#     4   9  18  32  49  73 109 150 187 223 272 335
#     4   9  19  38  63  88 113 145 187 231 279 340
#     4  11  21  34  56  85 116 149 187 234 285 337
#     4  11  23  36  56  87 117 149 190 239 286 330
#     4  10  19  32  51  75 102 140 190 238 275 315
#     4  11  22  36  55  79 113 155 193 234 282 338
#
# _framework density 19.930942999999999
#
# number of rings (size 3 to 8) (size 9 to 14) (size 15 to 20)
#    0.000    2.000    2.500    2.250    0.000    3.250 
#    0.000    3.125    0.000    4.875    0.000    0.000 
#    0.000    0.000    0.000    0.000    0.000    0.000 
#
# Total GULP energy -356787.526196 kJ/mol
# GULP energy per Si atom -5574.805097 kJ/mol
# Density = 1.988558 g / cm^3
# Si number density = 19.930943 Si / 1000 Ang^3
#
#
#
# Elastic Constant Matrix: (Units=GPa)
#
#
# Indices 1 2 3 4 5 6 
#
# 1 98.4985 2.5550 62.9886 0.0000 0.0000 0.0000
# 2 2.5550 19.1367 5.7904 0.0000 0.0000 0.0000
# 3 62.9886 5.7904 106.1025 0.0000 0.0000 0.0000
# 4 0.0000 0.0000 0.0000 -72.4086 0.0000 0.0000
# 5 0.0000 0.0000 0.0000 0.0000 32.2532 0.0000
# 6 0.0000 0.0000 0.0000 0.0000 0.0000 36.0816
#
#
#
# Elastic Compliance Matrix: (Units=1/GPa)
#
#
# Indices 1 2 3 4 5 6 
#
# 1 0.016376 0.000768 -0.009764 0.000000 0.000000 0.000000
# 2 0.000768 0.053169 -0.003358 0.000000 0.000000 0.000000
# 3 -0.009764 -0.003358 0.015404 0.000000 0.000000 0.000000
# 4 0.000000 0.000000 0.000000 -0.013811 0.000000 0.000000
# 5 0.000000 0.000000 0.000000 0.000000 0.031005 0.000000
# 6 0.000000 0.000000 0.000000 0.000000 0.000000 0.027715
#
#
# Mechanical properties :
#
#
# Convention : Reuss Voigt Hill
#
# Bulk Modulus (GPa) = 16.59948 40.71175 28.65562
# Shear Modulus (GPa) = 28.62922 9.34550 18.98736
#
# Velocity S-wave (km/s) = 3.79413 2.16775 3.08986
# Velocity P-wave (km/s) = 5.24790 5.17071 5.20945
#
# Compressibility (1/GPa) = 0.06024284
#
# Stress axis : x y z
#
# Youngs Moduli (GPa) = 61.06349 18.80799 64.91613
#
# Poissons Ratio (x) = -0.01444 0.63383
# Poissons Ratio (y) = -0.04689 0.21796
# Poissons Ratio (z) = 0.59622 0.06315
#
# Static dielectric constant tensor:
#      x y z
#    x 1.716530 0.000000 0.000000 
#    y 0.000000 1.741360 0.000000 
#    z 0.000000 0.000000 1.740300 
# 
# From -- ./inp_files/26182.got.cif
#   From: 2010.05.17/outbox.cif.g08.bks.cpg/sg51_14_cif.got.tgz:26182.got - 2010.06.03 11:52:47.
