data_PCOD9401584
_publ_section_title
;
Structure prediction by ZEFSAII (Michael W. Deem and Ramdas Pophale) SiO2 
 PCOD9401584
Probable space group: P M M A
;
_chemical_formula_sum "Si O2"
_cell_formula_units_Z 48
_cell_length_a 14.656597
_cell_length_b 12.071260
_cell_length_c 14.958382
_cell_angle_alpha 90.000000
_cell_angle_beta 90.000000
_cell_angle_gamma 90.000000
_cell_volume 2646.490690
_symmetry_space_group_name_H-M "P M M A"
_symmetry_group_IT_number 51
_symmetry_cell_setting 'orthorhombic'
loop_
_space_group_symop_operation_xyz
x,y,z
1/2-x,-y,z
1/2+x,-y,-z
-x,y,-z
-x,-y,-z
1/2+x,y,-z
1/2-x,y,z
x,-y,z
loop_
_atom_site_type_symbol
_atom_site_label
_atom_site_fract_x
_atom_site_fract_y
_atom_site_fract_z
Si Si1 0.892949 0.000000 0.988262
Si Si2 0.856049 0.000000 0.198877
Si Si3 0.642302 0.628875 0.745836
Si Si4 0.015654 0.370651 0.604436
Si Si5 0.861205 0.374575 0.089613
Si Si6 0.142424 0.240802 0.082312
Si Si7 0.860565 0.237381 0.266704
O O1 0.867038 0.889249 0.935496
O O2 0.000000 0.000000 0.000000
O O3 0.857510 0.000000 0.090608
O O4 0.893441 0.114095 0.239341
O O5 0.750000 0.000000 0.223716
O O6 0.750000 0.649467 0.726838
O O7 0.635416 0.500000 0.775846
O O8 0.578287 0.642351 0.659947
O O9 0.607746 0.708997 0.824981
O O10 0.044389 0.500000 0.614949
O O11 0.089567 0.289573 0.648450
O O12 0.000000 0.349776 0.500000
O O13 0.750000 0.376948 0.085973
O O14 0.894746 0.500000 0.086733
O O15 0.883312 0.315115 0.182100
O O16 0.893731 0.304140 0.004945
O O17 0.250000 0.265915 0.085552
O O18 0.750000 0.237085 0.276839
#
# Coordination Sequence:
#
# PCOD9401584 Si02
#       7
#     4   4   8   8   8   8   8
#     4  12  24  32  48  78 113 154 192 227 266 316
#     4  10  20  38  57  76 110 154 191 229 279 328
#     4   9  19  36  57  80 109 148 188 226 274 332
#     4  10  22  39  59  84 113 143 180 233 291 344
#     4   9  16  27  48  78 108 139 175 217 266 321
#     4  10  19  33  52  74 108 147 184 223 265 320
#     4  10  20  35  58  83 111 146 186 231 279 335
#
# _framework density 18.137225999999998
#
# number of rings (size 3 to 8) (size 9 to 14) (size 15 to 20)
#    0.000    2.167    1.667    1.750    2.333    3.667 
#    0.000    2.083    0.000    4.000    0.000    2.333 
#    0.000    0.000    0.000    0.000    0.000    0.000 
#
# Total GULP energy -267878.802059 kJ/mol
# GULP energy per Si atom -5580.808376 kJ/mol
# Density = 1.809595 g / cm^3
# Si number density = 18.137226 Si / 1000 Ang^3
#
#
#
# Elastic Constant Matrix: (Units=GPa)
#
#
# Indices 1 2 3 4 5 6 
#
# 1 54.3003 23.2494 27.8404 0.0000 0.0000 0.0000
# 2 23.2494 148.2643 85.7043 0.0000 0.0000 0.0000
# 3 27.8404 85.7043 140.0345 0.0000 0.0000 0.0000
# 4 0.0000 0.0000 0.0000 -16.3077 0.0000 0.0000
# 5 0.0000 0.0000 0.0000 0.0000 25.3867 0.0000
# 6 0.0000 0.0000 0.0000 0.0000 0.0000 12.8734
#
#
#
# Elastic Compliance Matrix: (Units=1/GPa)
#
#
# Indices 1 2 3 4 5 6 
#
# 1 0.020677 -0.001340 -0.003291 0.000000 0.000000 0.000000
# 2 -0.001340 0.010524 -0.006174 0.000000 0.000000 0.000000
# 3 -0.003291 -0.006174 0.011574 0.000000 0.000000 0.000000
# 4 0.000000 0.000000 0.000000 -0.061321 0.000000 0.000000
# 5 0.000000 0.000000 0.000000 0.000000 0.039391 0.000000
# 6 0.000000 0.000000 0.000000 0.000000 0.000000 0.077679
#
#
# Mechanical properties :
#
#
# Convention : Reuss Voigt Hill
#
# Bulk Modulus (GPa) = 47.24851 68.46528 57.85690
# Shear Modulus (GPa) = 39.31121 18.11083 28.71102
#
# Velocity S-wave (km/s) = 4.66062 3.16340 3.98299
# Velocity P-wave (km/s) = 7.42085 7.15355 7.28842
#
# Compressibility (1/GPa) = 0.02116469
#
# Stress axis : x y z
#
# Youngs Moduli (GPa) = 48.36281 95.02042 86.39886
#
# Poissons Ratio (x) = 0.12735 0.28430
# Poissons Ratio (y) = 0.06482 0.53347
# Poissons Ratio (z) = 0.15914 0.58670
#
# Static dielectric constant tensor:
#      x y z
#    x 1.656210 0.000000 0.000000 
#    y 0.000000 1.608190 0.000000 
#    z 0.000000 0.000000 1.634750 
# 
# From -- ./inp_files/24076.got.cif
#   From: 2010.05.17/outbox.cif.g08.bks.cpg/sg51_13_cif.got.tgz:24076.got - 2010.06.03 11:52:47.
