data_PCOD9401954
_publ_section_title
;
Structure prediction by ZEFSAII (Michael W. Deem and Ramdas Pophale) SiO2 
 PCOD9401954
Probable space group: P M M A
;
_chemical_formula_sum "Si O2"
_cell_formula_units_Z 64
_cell_length_a 9.014931
_cell_length_b 25.151330
_cell_length_c 15.031644
_cell_angle_alpha 90.000000
_cell_angle_beta 90.000000
_cell_angle_gamma 90.000000
_cell_volume 3408.237449
_symmetry_space_group_name_H-M "P M M A"
_symmetry_group_IT_number 51
_symmetry_cell_setting 'orthorhombic'
loop_
_space_group_symop_operation_xyz
x,y,z
1/2-x,-y,z
1/2+x,-y,-z
-x,y,-z
-x,-y,-z
1/2+x,y,-z
1/2-x,y,z
x,-y,z
loop_
_atom_site_type_symbol
_atom_site_label
_atom_site_fract_x
_atom_site_fract_y
_atom_site_fract_z
Si Si1 0.569206 0.939939 0.719917
Si Si2 0.430186 0.740190 0.285738
Si Si3 0.572992 0.892492 0.908248
Si Si4 0.920309 0.435041 0.909569
Si Si5 0.929725 0.157645 0.597147
Si Si6 0.427537 0.639360 0.403890
Si Si7 0.078728 0.436075 0.727783
Si Si8 0.572935 0.765609 0.908422
O O1 0.750000 0.939236 0.721213
O O2 0.521390 0.921413 0.818481
O O3 0.524526 0.896741 0.646551
O O4 0.520866 0.000000 0.701087
O O5 0.250000 0.741094 0.281768
O O6 0.473726 0.793348 0.338909
O O7 0.473753 0.689108 0.342420
O O8 0.481829 0.739970 0.183626
O O9 0.750000 0.899373 0.914844
O O10 0.544619 0.829167 0.899397
O O11 0.500000 0.911174 0.000000
O O12 0.750000 0.417255 0.906279
O O13 0.919776 0.500000 0.910575
O O14 0.007182 0.418460 0.821301
O O15 0.000000 0.417655 0.000000
O O16 0.750000 0.158386 0.589746
O O17 0.000000 0.162665 0.500000
O O18 0.500000 0.643964 0.500000
O O19 0.250000 0.638912 0.411323
O O20 0.485626 0.587714 0.352737
O O21 0.250000 0.419488 0.721910
O O22 0.073957 0.500000 0.726097
O O23 0.750000 0.758517 0.915024
O O24 0.500000 0.746877 0.000000
#
# Coordination Sequence:
#
# PCOD9401954 Si02
#       8
#     8   8   8   8   8   8   8   8
#     4   9  17  30  49  72 100 138 179 214 257 319
#     4   9  18  35  58  79 104 139 176 214 262 320
#     4   9  16  28  48  72 100 134 172 212 254 307
#     4   9  16  28  50  81 115 150 188 228 269 315
#     4  10  19  34  54  75  99 132 175 221 267 317
#     4  11  23  39  59  82 108 139 178 227 278 328
#     4  10  21  38  59  83 113 149 187 226 270 324
#     4   9  16  30  52  78 105 136 172 210 255 309
#
# _framework density 18.778034999999999
#
# number of rings (size 3 to 8) (size 9 to 14) (size 15 to 20)
#    0.000    2.500    1.250    1.500    0.000    3.000 
#    0.000    3.750    0.000    2.250    0.000    0.000 
#    0.000    0.000    0.000    0.000    0.000    0.000 
#
# Total GULP energy -357102.783690 kJ/mol
# GULP energy per Si atom -5579.730995 kJ/mol
# Density = 1.873530 g / cm^3
# Si number density = 18.778035 Si / 1000 Ang^3
#
#
#
# Elastic Constant Matrix: (Units=GPa)
#
#
# Indices 1 2 3 4 5 6 
#
# 1 43.9864 27.6465 40.7508 0.0000 0.0000 0.0000
# 2 27.6465 29.5547 44.0149 0.0000 0.0000 0.0000
# 3 40.7508 44.0149 170.5602 0.0000 0.0000 0.0000
# 4 0.0000 0.0000 0.0000 14.0124 0.0000 0.0000
# 5 0.0000 0.0000 0.0000 0.0000 37.6376 0.0000
# 6 0.0000 0.0000 0.0000 0.0000 0.0000 5.9428
#
#
#
# Elastic Compliance Matrix: (Units=1/GPa)
#
#
# Indices 1 2 3 4 5 6 
#
# 1 0.055178 -0.051946 0.000222 0.000000 0.000000 0.000000
# 2 -0.051946 0.103859 -0.014391 0.000000 0.000000 0.000000
# 3 0.000222 -0.014391 0.009524 0.000000 0.000000 0.000000
# 4 0.000000 0.000000 0.000000 0.071366 0.000000 0.000000
# 5 0.000000 0.000000 0.000000 0.000000 0.026569 0.000000
# 6 0.000000 0.000000 0.000000 0.000000 0.000000 0.168270
#
#
# Mechanical properties :
#
#
# Convention : Reuss Voigt Hill
#
# Bulk Modulus (GPa) = 27.52435 52.10284 39.81360
# Shear Modulus (GPa) = 8.63401 20.29784 14.46592
#
# Velocity S-wave (km/s) = 2.14660 3.29132 2.77855
# Velocity P-wave (km/s) = 4.56437 6.50005 5.61623
#
# Compressibility (1/GPa) = 0.03633147
#
# Stress axis : x y z
#
# Youngs Moduli (GPa) = 18.12326 9.62840 105.00033
#
# Poissons Ratio (x) = 0.50015 -0.02329
# Poissons Ratio (y) = 0.94142 1.51106
# Poissons Ratio (z) = -0.00402 0.13856
#
# Static dielectric constant tensor:
#      x y z
#    x 1.631990 0.000000 0.000000 
#    y 0.000000 1.669930 0.000000 
#    z 0.000000 0.000000 1.626930 
# 
# From -- ./inp_files/22393.got.cif
#   From: 2010.05.17/outbox.cif.g08.bks.cpg/sg51_12_cif.got.tgz:22393.got - 2010.06.03 11:52:47.
