data_PCOD9401551
_publ_section_title
;
Structure prediction by ZEFSAII (Michael W. Deem and Ramdas Pophale) SiO2 
 PCOD9401551
Probable space group: P M M A
;
_chemical_formula_sum "Si O2"
_cell_formula_units_Z 48
_cell_length_a 7.627021
_cell_length_b 15.369879
_cell_length_c 19.387789
_cell_angle_alpha 90.000000
_cell_angle_beta 90.000000
_cell_angle_gamma 90.000000
_cell_volume 2272.760513
_symmetry_space_group_name_H-M "P M M A"
_symmetry_group_IT_number 51
_symmetry_cell_setting 'orthorhombic'
loop_
_space_group_symop_operation_xyz
x,y,z
1/2-x,-y,z
1/2+x,-y,-z
-x,y,-z
-x,-y,-z
1/2+x,y,-z
1/2-x,y,z
x,-y,z
loop_
_atom_site_type_symbol
_atom_site_label
_atom_site_fract_x
_atom_site_fract_y
_atom_site_fract_z
Si Si1 0.964739 0.402394 0.727697
Si Si2 0.040091 0.345443 0.424013
Si Si3 0.039136 0.901931 0.080490
Si Si4 0.541551 0.144878 0.574782
Si Si5 0.548175 0.906981 0.279143
Si Si6 0.051424 0.241185 0.185700
O O1 0.750000 0.396588 0.727050
O O2 0.012935 0.500000 0.748197
O O3 0.022407 0.386553 0.648103
O O4 0.027862 0.328635 0.781308
O O5 0.250000 0.344742 0.419962
O O6 0.977329 0.245254 0.424656
O O7 0.000000 0.383913 0.500000
O O8 0.250000 0.903702 0.090201
O O9 0.971820 0.820869 0.126159
O O10 0.973181 0.000000 0.097920
O O11 0.000000 0.888328 0.000000
O O12 0.500000 0.108028 0.500000
O O13 0.750000 0.144487 0.584718
O O14 0.458003 0.097305 0.638830
O O15 0.750000 0.899926 0.256870
O O16 0.445302 0.825721 0.249654
O O17 0.475564 0.000000 0.256020
O O18 0.250000 0.263024 0.163585
#
# Coordination Sequence:
#
# PCOD9401551 Si02
#       6
#     8   8   8   8   8   8
#     4   9  17  31  52  77 103 132 172 219 263 311
#     4   9  17  30  48  71  96 127 167 214 265 312
#     4   9  18  32  53  81 110 138 170 207 248 301
#     4  10  19  33  51  70  95 131 173 218 265 313
#     4  11  23  35  49  73 102 134 172 213 260 313
#     4  10  19  35  56  78 104 138 174 210 256 305
#
# _framework density 21.119691
#
# number of rings (size 3 to 8) (size 9 to 14) (size 15 to 20)
#    0.000    2.333    1.667    1.500    0.000    4.000 
#    0.000    1.667    0.000    2.000    0.000    0.000 
#    0.000    0.000    0.000    0.000    0.000    0.000 
#
# Total GULP energy -267773.696726 kJ/mol
# GULP energy per Si atom -5578.618682 kJ/mol
# Density = 2.107162 g / cm^3
# Si number density = 21.119691 Si / 1000 Ang^3
#
#
#
# Elastic Constant Matrix: (Units=GPa)
#
#
# Indices 1 2 3 4 5 6 
#
# 1 50.5707 5.7160 -3.4290 0.0000 0.0000 0.0000
# 2 5.7160 161.7373 74.1135 0.0000 0.0000 0.0000
# 3 -3.4290 74.1135 143.2498 0.0000 0.0000 0.0000
# 4 0.0000 0.0000 0.0000 32.5359 0.0000 0.0000
# 5 0.0000 0.0000 0.0000 0.0000 21.3437 0.0000
# 6 0.0000 0.0000 0.0000 0.0000 0.0000 -4.7152
#
#
#
# Elastic Compliance Matrix: (Units=1/GPa)
#
#
# Indices 1 2 3 4 5 6 
#
# 1 0.019986 -0.001213 0.001106 0.000000 0.000000 0.000000
# 2 -0.001213 0.008178 -0.004260 0.000000 0.000000 0.000000
# 3 0.001106 -0.004260 0.009211 0.000000 0.000000 0.000000
# 4 0.000000 0.000000 0.000000 0.030735 0.000000 0.000000
# 5 0.000000 0.000000 0.000000 0.000000 0.046852 0.000000
# 6 0.000000 0.000000 0.000000 0.000000 0.000000 -0.212079
#
#
# Mechanical properties :
#
#
# Convention : Reuss Voigt Hill
#
# Bulk Modulus (GPa) = 34.91462 56.48432 45.69947
# Shear Modulus (GPa) = -63.42381 28.44337 -17.49022
#
# Velocity S-wave (km/s) = -5.48597 3.67382 -2.88088
# Velocity P-wave (km/s) = 4.85388 6.69319 3.25874
#
# Compressibility (1/GPa) = 0.02864130
#
# Stress axis : x y z
#
# Youngs Moduli (GPa) = 50.03399 122.28182 108.56222
#
# Poissons Ratio (x) = 0.14835 -0.12008
# Poissons Ratio (y) = 0.06070 0.46248
# Poissons Ratio (z) = -0.05534 0.52092
#
# Static dielectric constant tensor:
#      x y z
#    x 1.811960 0.000000 0.000000 
#    y 0.000000 1.770940 0.000000 
#    z 0.000000 0.000000 1.771830 
# 
# From -- ./inp_files/27594.got.cif
#   From: 2010.05.17/outbox.cif.g08.bks.cpg/sg51_14_cif.got.tgz:27594.got - 2010.06.03 11:52:47.
