data_PCOD9401567
_publ_section_title
;
Structure prediction by ZEFSAII (Michael W. Deem and Ramdas Pophale) SiO2 
 PCOD9401567
Probable space group: P M M A
;
_chemical_formula_sum "Si O2"
_cell_formula_units_Z 52
_cell_length_a 8.675702
_cell_length_b 23.587922
_cell_length_c 14.597538
_cell_angle_alpha 90.000000
_cell_angle_beta 90.000000
_cell_angle_gamma 90.000000
_cell_volume 2987.266190
_symmetry_space_group_name_H-M "P M M A"
_symmetry_group_IT_number 51
_symmetry_cell_setting 'orthorhombic'
loop_
_space_group_symop_operation_xyz
x,y,z
1/2-x,-y,z
1/2+x,-y,-z
-x,y,-z
-x,-y,-z
1/2+x,y,-z
1/2-x,y,z
x,-y,z
loop_
_atom_site_type_symbol
_atom_site_label
_atom_site_fract_x
_atom_site_fract_y
_atom_site_fract_z
Si Si1 0.564480 0.779853 0.101966
Si Si2 0.434334 0.000000 0.102989
Si Si3 0.563901 0.435345 0.100681
Si Si4 0.565913 0.278777 0.598544
Si Si5 0.434959 0.146109 0.400668
Si Si6 0.063665 0.329264 0.780658
Si Si7 0.564657 0.892908 0.212750
O O1 0.750000 0.779298 0.097338
O O2 0.514712 0.722519 0.153244
O O3 0.518851 0.834700 0.161098
O O4 0.500000 0.783016 0.000000
O O5 0.494250 0.945071 0.157282
O O6 0.250000 0.000000 0.099329
O O7 0.500000 0.000000 0.000000
O O8 0.750000 0.433999 0.096290
O O9 0.516579 0.500000 0.122678
O O10 0.514345 0.388446 0.173993
O O11 0.500000 0.421314 0.000000
O O12 0.500000 0.295860 0.500000
O O13 0.750000 0.281099 0.596686
O O14 0.520487 0.212564 0.613411
O O15 0.501830 0.316197 0.680917
O O16 0.500000 0.129178 0.500000
O O17 0.250000 0.142372 0.400897
O O18 0.503873 0.111209 0.316380
O O19 0.250000 0.328629 0.775763
O O20 0.750000 0.896901 0.212747
#
# Coordination Sequence:
#
# PCOD9401567 Si02
#       7
#     8   4   8   8   8   8   8
#     4  10  21  33  50  76 107 140 174 219 271 320
#     4  12  26  44  63  84 111 148 192 230 272 326
#     4   9  18  32  51  75 106 146 187 226 269 319
#     4  10  20  33  53  80 110 143 179 220 271 328
#     4  10  20  35  57  85 114 146 180 223 273 331
#     4  10  19  33  51  76 109 142 179 224 273 323
#     4  11  22  39  60  83 111 146 185 227 274 326
#
# _framework density 17.407219999999999
#
# number of rings (size 3 to 8) (size 9 to 14) (size 15 to 20)
#    0.000    1.846    1.538    3.000    0.000    4.923 
#    0.000    0.385    0.000    0.462    0.000    0.000 
#    0.000    0.000    0.000    0.000    0.000    0.000 
#
# Total GULP energy -290423.637522 kJ/mol
# GULP energy per Si atom -5585.069952 kJ/mol
# Density = 1.736760 g / cm^3
# Si number density = 17.407220 Si / 1000 Ang^3
#
#
#
# Elastic Constant Matrix: (Units=GPa)
#
#
# Indices 1 2 3 4 5 6 
#
# 1 41.9887 38.2882 47.5699 0.0000 0.0000 0.0000
# 2 38.2882 107.8338 89.0075 0.0000 0.0000 0.0000
# 3 47.5699 89.0075 184.7443 0.0000 0.0000 0.0000
# 4 0.0000 0.0000 0.0000 32.1026 0.0000 0.0000
# 5 0.0000 0.0000 0.0000 0.0000 37.2572 0.0000
# 6 0.0000 0.0000 0.0000 0.0000 0.0000 13.0318
#
#
#
# Elastic Compliance Matrix: (Units=1/GPa)
#
#
# Indices 1 2 3 4 5 6 
#
# 1 0.038310 -0.009065 -0.005497 0.000000 0.000000 0.000000
# 2 -0.009065 0.017541 -0.006117 0.000000 0.000000 0.000000
# 3 -0.005497 -0.006117 0.009775 0.000000 0.000000 0.000000
# 4 0.000000 0.000000 0.000000 0.031150 0.000000 0.000000
# 5 0.000000 0.000000 0.000000 0.000000 0.026840 0.000000
# 6 0.000000 0.000000 0.000000 0.000000 0.000000 0.076736
#
#
# Mechanical properties :
#
#
# Convention : Reuss Voigt Hill
#
# Bulk Modulus (GPa) = 41.20623 76.03311 58.61967
# Shear Modulus (GPa) = 20.01597 27.12505 23.57051
#
# Velocity S-wave (km/s) = 3.39465 3.95177 3.68375
# Velocity P-wave (km/s) = 6.25205 8.03715 7.20014
#
# Compressibility (1/GPa) = 0.02426817
#
# Stress axis : x y z
#
# Youngs Moduli (GPa) = 26.10296 57.00801 102.29820
#
# Poissons Ratio (x) = 0.51680 0.56231
# Poissons Ratio (y) = 0.23663 0.62575
# Poissons Ratio (z) = 0.14348 0.34872
#
# Static dielectric constant tensor:
#      x y z
#    x 1.582560 0.000000 0.000000 
#    y 0.000000 1.590230 0.000000 
#    z 0.000000 0.000000 1.559660 
# 
# From -- ./inp_files/21541.got.cif
#   From: 2010.05.17/outbox.cif.g08.bks.cpg/sg51_11_cif.got.tgz:21541.got - 2010.06.03 11:52:47.
