data_PCOD9401498
_publ_section_title
;
Structure prediction by ZEFSAII (Michael W. Deem and Ramdas Pophale) SiO2 
 PCOD9401498
Probable space group: P M M A
;
_chemical_formula_sum "Si O2"
_cell_formula_units_Z 28
_cell_length_a 9.038064
_cell_length_b 7.518038
_cell_length_c 20.185921
_cell_angle_alpha 90.000000
_cell_angle_beta 90.000000
_cell_angle_gamma 90.000000
_cell_volume 1371.603227
_symmetry_space_group_name_H-M "P M M A"
_symmetry_group_IT_number 51
_symmetry_cell_setting 'orthorhombic'
loop_
_space_group_symop_operation_xyz
x,y,z
1/2-x,-y,z
1/2+x,-y,-z
-x,y,-z
-x,-y,-z
1/2+x,y,-z
1/2-x,y,z
x,-y,z
loop_
_atom_site_type_symbol
_atom_site_label
_atom_site_fract_x
_atom_site_fract_y
_atom_site_fract_z
Si Si1 0.422420 0.295343 0.339460
Si Si2 0.579150 0.784150 0.202636
Si Si3 0.420600 0.782719 0.067481
Si Si4 0.573580 0.000000 0.428033
O O1 0.250000 0.241069 0.340307
O O2 0.432194 0.500000 0.360718
O O3 0.485519 0.279483 0.265225
O O4 0.516886 0.169303 0.386641
O O5 0.750000 0.728118 0.207690
O O6 0.507527 0.726710 0.133258
O O7 0.576768 0.000000 0.204046
O O8 0.250000 0.726663 0.069396
O O9 0.421779 0.000000 0.067221
O O10 0.500000 0.725019 0.000000
O O11 0.500000 0.000000 0.500000
O O12 0.750000 0.000000 0.432984
#
# Coordination Sequence:
#
# PCOD9401498 Si02
#       4
#     8   8   8   4
#     4  11  24  42  66  96 130 168 210 257 309 368
#     4  10  19  32  54  84 118 160 207 257 312 370
#     4   9  16  26  43  71 109 153 202 258 313 370
#     4  12  26  46  72 100 131 168 205 252 306 366
#
# _framework density 20.414065999999998
#
# number of rings (size 3 to 8) (size 9 to 14) (size 15 to 20)
#    0.000    1.714    1.429    3.857    0.000    7.429 
#    0.000    0.000    0.000    0.857    0.000    0.000 
#    0.000    0.000    0.000    0.000    0.000    0.000 
#
# Total GULP energy -156647.197144 kJ/mol
# GULP energy per Si atom -5594.542755 kJ/mol
# Density = 2.036760 g / cm^3
# Si number density = 20.414066 Si / 1000 Ang^3
#
#
#
# Elastic Constant Matrix: (Units=GPa)
#
#
# Indices 1 2 3 4 5 6 
#
# 1 206.4674 46.8994 88.4796 0.0000 0.0000 0.0000
# 2 46.8994 76.3429 39.9745 0.0000 0.0000 0.0000
# 3 88.4796 39.9745 169.1684 0.0000 0.0000 0.0000
# 4 0.0000 0.0000 0.0000 -25.7106 0.0000 0.0000
# 5 0.0000 0.0000 0.0000 0.0000 45.7005 0.0000
# 6 0.0000 0.0000 0.0000 0.0000 0.0000 -5.2220
#
#
#
# Elastic Compliance Matrix: (Units=1/GPa)
#
#
# Indices 1 2 3 4 5 6 
#
# 1 0.006663 -0.002589 -0.002873 0.000000 0.000000 0.000000
# 2 -0.002589 0.015954 -0.002416 0.000000 0.000000 0.000000
# 3 -0.002873 -0.002416 0.007985 0.000000 0.000000 0.000000
# 4 0.000000 0.000000 0.000000 -0.038895 0.000000 0.000000
# 5 0.000000 0.000000 0.000000 0.000000 0.021882 0.000000
# 6 0.000000 0.000000 0.000000 0.000000 0.000000 -0.191499
#
#
# Mechanical properties :
#
#
# Convention : Reuss Voigt Hill
#
# Bulk Modulus (GPa) = 67.35732 89.18729 78.27231
# Shear Modulus (GPa) = -31.80531 21.39526 -5.20502
#
# Velocity S-wave (km/s) = -3.95145 3.24090 -1.59852
# Velocity P-wave (km/s) = 3.49980 7.60188 5.91765
#
# Compressibility (1/GPa) = 0.01484620
#
# Stress axis : x y z
#
# Youngs Moduli (GPa) = 150.09156 62.67962 125.23722
#
# Poissons Ratio (x) = 0.16226 0.35981
# Poissons Ratio (y) = 0.38853 0.30258
# Poissons Ratio (z) = 0.43122 0.15144
#
# Static dielectric constant tensor:
#      x y z
#    x 1.682570 0.000000 0.000000 
#    y 0.000000 1.779100 0.000000 
#    z 0.000000 0.000000 1.669140 
# 
# From -- ./inp_files/26858.got.cif
#   From: 2010.05.17/outbox.cif.g08.bks.cpg/sg51_14_cif.got.tgz:26858.got - 2010.06.03 11:52:47.
