data_PCOD9401026
_publ_section_title
;
Structure prediction by ZEFSAII (Michael W. Deem and Ramdas Pophale) SiO2 
 PCOD9401026
Probable space group: P M M A
;
_chemical_formula_sum "Si O2"
_cell_formula_units_Z 64
_cell_length_a 8.896068
_cell_length_b 15.705109
_cell_length_c 24.976684
_cell_angle_alpha 90.000000
_cell_angle_beta 90.000000
_cell_angle_gamma 90.000000
_cell_volume 3489.585375
_symmetry_space_group_name_H-M "P M M A"
_symmetry_group_IT_number 51
_symmetry_cell_setting 'orthorhombic'
loop_
_space_group_symop_operation_xyz
x,y,z
1/2-x,-y,z
1/2+x,-y,-z
-x,y,-z
-x,-y,-z
1/2+x,y,-z
1/2-x,y,z
x,-y,z
loop_
_atom_site_type_symbol
_atom_site_label
_atom_site_fract_x
_atom_site_fract_y
_atom_site_fract_z
Si Si1 0.068922 0.591479 0.559648
Si Si2 0.929353 0.230150 0.859839
Si Si3 0.931743 0.098694 0.646176
Si Si4 0.930293 0.769032 0.735758
Si Si5 0.924722 0.405931 0.140772
Si Si6 0.070477 0.900947 0.942271
Si Si7 0.430811 0.221396 0.559414
Si Si8 0.575648 0.406809 0.270859
O O1 0.250000 0.591471 0.556067
O O2 0.024606 0.500000 0.584762
O O3 0.027192 0.684149 0.582265
O O4 0.000000 0.591047 0.500000
O O5 0.750000 0.222390 0.862479
O O6 0.977664 0.219516 0.797625
O O7 0.979357 0.325198 0.876687
O O8 0.005264 0.160658 0.897330
O O9 0.750000 0.102066 0.641936
O O10 0.976541 0.152386 0.698718
O O11 0.003303 0.147871 0.596358
O O12 0.976174 0.000000 0.648879
O O13 0.750000 0.764073 0.735709
O O14 0.992155 0.679299 0.713932
O O15 0.750000 0.394962 0.125389
O O16 0.975827 0.500000 0.122911
O O17 0.927780 0.407185 0.205809
O O18 0.250000 0.892902 0.945054
O O19 0.033452 0.000000 0.930712
O O20 0.000000 0.880046 0.000000
O O21 0.500000 0.215504 0.500000
O O22 0.250000 0.215898 0.556703
O O23 0.750000 0.401777 0.287956
O O24 0.516244 0.500000 0.287613
#
# Coordination Sequence:
#
# PCOD9401026 Si02
#       8
#     8   8   8   8   8   8   8   8
#     4   8  14  26  46  73 103 131 157 188 232 288
#     4  10  19  31  52  81 109 139 175 215 260 313
#     4  10  22  40  57  72  97 134 173 216 264 308
#     4   9  19  34  52  76 105 138 175 213 256 306
#     4   8  14  26  45  70 102 140 179 216 254 299
#     4  10  21  37  56  78 105 137 174 218 266 314
#     4  10  20  35  57  82 105 131 166 208 252 302
#     4   8  14  26  46  72 102 136 171 208 252 300
#
# _framework density 18.340287
#
# number of rings (size 3 to 8) (size 9 to 14) (size 15 to 20)
#    0.000    2.875    0.000    1.875    0.000    3.750 
#    0.000    4.375    0.000    2.625    0.000    0.000 
#    0.000    0.000    0.000    0.000    0.000    0.000 
#
# Total GULP energy -356676.011704 kJ/mol
# GULP energy per Si atom -5573.062683 kJ/mol
# Density = 1.829854 g / cm^3
# Si number density = 18.340287 Si / 1000 Ang^3
#
#
#
# Elastic Constant Matrix: (Units=GPa)
#
#
# Indices 1 2 3 4 5 6 
#
# 1 28.6529 50.9333 33.3376 0.0000 0.0000 0.0000
# 2 50.9333 198.5646 81.4622 0.0000 0.0000 0.0000
# 3 33.3376 81.4622 85.5088 0.0000 0.0000 0.0000
# 4 0.0000 0.0000 0.0000 106.0675 0.0000 0.0000
# 5 0.0000 0.0000 0.0000 0.0000 18.2891 0.0000
# 6 0.0000 0.0000 0.0000 0.0000 0.0000 28.3259
#
#
#
# Elastic Compliance Matrix: (Units=1/GPa)
#
#
# Indices 1 2 3 4 5 6 
#
# 1 0.079263 -0.012564 -0.018933 0.000000 0.000000 0.000000
# 2 -0.012564 0.010259 -0.004875 0.000000 0.000000 0.000000
# 3 -0.018933 -0.004875 0.023720 0.000000 0.000000 0.000000
# 4 0.000000 0.000000 0.000000 0.009428 0.000000 0.000000
# 5 0.000000 0.000000 0.000000 0.000000 0.054677 0.000000
# 6 0.000000 0.000000 0.000000 0.000000 0.000000 0.035303
#
#
# Mechanical properties :
#
#
# Convention : Reuss Voigt Hill
#
# Bulk Modulus (GPa) = 24.69241 71.57693 48.13467
# Shear Modulus (GPa) = 16.72826 40.33606 28.53216
#
# Velocity S-wave (km/s) = 3.02338 4.69477 3.94853
# Velocity P-wave (km/s) = 5.06759 8.27646 6.86222
#
# Compressibility (1/GPa) = 0.04049827
#
# Stress axis : x y z
#
# Youngs Moduli (GPa) = 12.61616 97.47566 42.15769
#
# Poissons Ratio (x) = 1.22471 0.79817
# Poissons Ratio (y) = 0.15851 0.20552
# Poissons Ratio (z) = 0.23886 0.47519
#
# Static dielectric constant tensor:
#      x y z
#    x 1.613170 0.000000 0.000000 
#    y 0.000000 1.648180 0.000000 
#    z 0.000000 0.000000 1.640940 
# 
# From -- ./inp_files/34971.got.cif
#   From: 2010.05.17/outbox.cif.g08.bks.cpg/sg51_18_cif.got.tgz:34971.got - 2010.06.03 11:52:47.
