data_PCOD9401415
_publ_section_title
;
Structure prediction by ZEFSAII (Michael W. Deem and Ramdas Pophale) SiO2 
 PCOD9401415
Probable space group: P M M A
;
_chemical_formula_sum "Si O2"
_cell_formula_units_Z 64
_cell_length_a 15.183197
_cell_length_b 7.877254
_cell_length_c 25.189342
_cell_angle_alpha 90.000000
_cell_angle_beta 90.000000
_cell_angle_gamma 90.000000
_cell_volume 3012.693145
_symmetry_space_group_name_H-M "P M M A"
_symmetry_group_IT_number 51
_symmetry_cell_setting 'orthorhombic'
loop_
_space_group_symop_operation_xyz
x,y,z
1/2-x,-y,z
1/2+x,-y,-z
-x,y,-z
-x,-y,-z
1/2+x,y,-z
1/2-x,y,z
x,-y,z
loop_
_atom_site_type_symbol
_atom_site_label
_atom_site_fract_x
_atom_site_fract_y
_atom_site_fract_z
Si Si1 0.458586 0.701912 0.380273
Si Si2 0.652346 0.802075 0.398420
Si Si3 0.902379 0.206959 0.017201
Si Si4 0.656160 0.794824 0.904081
Si Si5 0.351743 0.708683 0.277326
Si Si6 0.649267 0.296567 0.520309
Si Si7 0.153089 0.202917 0.866271
Si Si8 0.476883 0.697261 0.183479
O O1 0.444786 0.500000 0.382424
O O2 0.562673 0.730497 0.373765
O O3 0.399402 0.764320 0.331528
O O4 0.420086 0.767695 0.436288
O O5 0.750000 0.728884 0.385175
O O6 0.641880 0.781466 0.462033
O O7 0.654596 0.000000 0.385300
O O8 0.872338 0.269398 0.074730
O O9 0.902021 0.000000 0.020174
O O10 0.846106 0.253948 0.965790
O O11 0.000000 0.259198 0.000000
O O12 0.750000 0.742001 0.880207
O O13 0.575336 0.723056 0.871456
O O14 0.649640 0.000000 0.901903
O O15 0.250000 0.763094 0.273601
O O16 0.350572 0.500000 0.276471
O O17 0.413231 0.769940 0.228935
O O18 0.750000 0.269665 0.539546
O O19 0.637301 0.500000 0.513109
O O20 0.250000 0.267050 0.851141
O O21 0.074710 0.235392 0.825344
O O22 0.158444 0.000000 0.871474
O O23 0.485984 0.500000 0.195039
#
# Coordination Sequence:
#
# PCOD9401415 Si02
#       8
#     8   8   8   8   8   8   8   8
#     4  10  19  33  56  81 102 132 178 227 267 303
#     4  10  21  35  50  73 110 151 180 206 252 313
#     4   9  15  28  52  78 104 134 172 218 260 306
#     4  10  19  32  53  79 105 135 174 217 259 308
#     4   9  19  37  59  81 105 135 172 215 265 318
#     4   9  17  30  51  80 110 138 173 218 262 307
#     4  10  20  36  58  80 104 138 180 222 264 312
#     4  11  22  36  55  78 108 141 174 214 265 322
#
# _framework density 21.243452000000001
#
# number of rings (size 3 to 8) (size 9 to 14) (size 15 to 20)
#    0.000    2.250    1.250    2.250    0.000    6.750 
#    0.000    3.125    0.000    7.875    0.000    0.000 
#    0.000    0.000    0.000    0.000    0.000    0.000 
#
# Total GULP energy -357115.883520 kJ/mol
# GULP energy per Si atom -5579.935680 kJ/mol
# Density = 2.119510 g / cm^3
# Si number density = 21.243452 Si / 1000 Ang^3
#
#
#
# Elastic Constant Matrix: (Units=GPa)
#
#
# Indices 1 2 3 4 5 6 
#
# 1 179.3813 3.5569 49.1668 0.0000 0.0000 0.0000
# 2 3.5569 15.8309 -0.3372 0.0000 0.0000 0.0000
# 3 49.1668 -0.3372 58.0777 0.0000 0.0000 0.0000
# 4 0.0000 0.0000 0.0000 12.2607 0.0000 0.0000
# 5 0.0000 0.0000 0.0000 0.0000 21.4514 0.0000
# 6 0.0000 0.0000 0.0000 0.0000 0.0000 15.8534
#
#
#
# Elastic Compliance Matrix: (Units=1/GPa)
#
#
# Indices 1 2 3 4 5 6 
#
# 1 0.007309 -0.001774 -0.006198 0.000000 0.000000 0.000000
# 2 -0.001774 0.063606 0.001871 0.000000 0.000000 0.000000
# 3 -0.006198 0.001871 0.022476 0.000000 0.000000 0.000000
# 4 0.000000 0.000000 0.000000 0.081562 0.000000 0.000000
# 5 0.000000 0.000000 0.000000 0.000000 0.046617 0.000000
# 6 0.000000 0.000000 0.000000 0.000000 0.000000 0.063078
#
#
# Mechanical properties :
#
#
# Convention : Reuss Voigt Hill
#
# Bulk Modulus (GPa) = 12.31685 39.78476 26.05080
# Shear Modulus (GPa) = 15.43633 23.30666 19.37150
#
# Velocity S-wave (km/s) = 2.69855 3.31588 3.02301
# Velocity P-wave (km/s) = 3.93956 5.78176 4.94716
#
# Compressibility (1/GPa) = 0.08118962
#
# Stress axis : x y z
#
# Youngs Moduli (GPa) = 136.82556 15.72176 44.49230
#
# Poissons Ratio (x) = 0.02789 0.27574
# Poissons Ratio (y) = 0.24274 -0.08325
# Poissons Ratio (z) = 0.84798 -0.02942
#
# Static dielectric constant tensor:
#      x y z
#    x 1.802710 0.000000 0.000000 
#    y 0.000000 1.782370 0.000000 
#    z 0.000000 0.000000 1.762360 
# 
# From -- ./inp_files/35841.got.cif
#   From: 2010.05.17/outbox.cif.g08.bks.cpg/sg51_18_cif.got.tgz:35841.got - 2010.06.03 11:52:47.
