data_PCOD9401393
_publ_section_title
;
Structure prediction by ZEFSAII (Michael W. Deem and Ramdas Pophale) SiO2 
 PCOD9401393
Probable space group: P M M A
;
_chemical_formula_sum "Si O2"
_cell_formula_units_Z 56
_cell_length_a 22.025545
_cell_length_b 9.590546
_cell_length_c 14.427174
_cell_angle_alpha 90.000000
_cell_angle_beta 90.000000
_cell_angle_gamma 90.000000
_cell_volume 3047.552990
_symmetry_space_group_name_H-M "P M M A"
_symmetry_group_IT_number 51
_symmetry_cell_setting 'orthorhombic'
loop_
_space_group_symop_operation_xyz
x,y,z
1/2-x,-y,z
1/2+x,-y,-z
-x,y,-z
-x,-y,-z
1/2+x,y,-z
1/2-x,y,z
x,-y,z
loop_
_atom_site_type_symbol
_atom_site_label
_atom_site_fract_x
_atom_site_fract_y
_atom_site_fract_z
Si Si1 0.319476 0.668218 0.854018
Si Si2 0.072793 0.668234 0.999329
Si Si3 0.884097 0.158781 0.825917
Si Si4 0.915136 0.662859 0.533095
Si Si5 0.395016 0.666179 0.680919
Si Si6 0.009377 0.159918 0.326760
Si Si7 0.680986 0.653945 0.693302
O O1 0.250000 0.718699 0.875643
O O2 0.316682 0.500000 0.861880
O O3 0.378416 0.708662 0.917574
O O4 0.338614 0.700625 0.747523
O O5 0.075068 0.500000 0.005345
O O6 0.098693 0.744312 0.089170
O O7 0.000000 0.704412 0.000000
O O8 0.938906 0.159607 0.751414
O O9 0.829953 0.229619 0.769604
O O10 0.872495 0.000000 0.854028
O O11 0.934484 0.500000 0.534334
O O12 0.893257 0.696489 0.429266
O O13 0.965277 0.758158 0.583458
O O14 0.859136 0.676724 0.603057
O O15 0.406140 0.500000 0.690821
O O16 0.452824 0.754697 0.712638
O O17 0.993997 0.000000 0.349507
O O18 0.750000 0.651585 0.665035
O O19 0.664051 0.500000 0.731596
#
# Coordination Sequence:
#
# PCOD9401393 Si02
#       7
#     8   8   8   8   8   8   8
#     4   9  19  35  54  78 107 138 175 219 267 322
#     4  10  20  35  57  82 106 136 176 221 269 323
#     4  10  21  35  52  76 104 133 167 211 263 314
#     4   9  18  31  49  76 106 135 172 217 260 303
#     4  10  19  32  53  77 102 136 174 213 257 305
#     4  10  20  33  50  75 107 139 171 211 260 314
#     4   9  18  33  52  74 102 136 172 210 254 307
#
# _framework density 18.375397
#
# number of rings (size 3 to 8) (size 9 to 14) (size 15 to 20)
#    0.000    2.429    0.000    2.143    0.000    6.857 
#    0.000    5.000    0.000    1.286    0.000    2.000 
#    0.000    0.000    0.000    0.000    0.000    0.000 
#
# Total GULP energy -311751.588601 kJ/mol
# GULP energy per Si atom -5566.992654 kJ/mol
# Density = 1.833357 g / cm^3
# Si number density = 18.375397 Si / 1000 Ang^3
#
#
#
# Elastic Constant Matrix: (Units=GPa)
#
#
# Indices 1 2 3 4 5 6 
#
# 1 113.7426 20.7246 40.0470 0.0000 0.0000 0.0000
# 2 20.7246 20.1360 19.0651 0.0000 0.0000 0.0000
# 3 40.0470 19.0651 84.1449 0.0000 0.0000 0.0000
# 4 0.0000 0.0000 0.0000 -0.9494 0.0000 0.0000
# 5 0.0000 0.0000 0.0000 0.0000 23.8516 0.0000
# 6 0.0000 0.0000 0.0000 0.0000 0.0000 5.9810
#
#
#
# Elastic Compliance Matrix: (Units=1/GPa)
#
#
# Indices 1 2 3 4 5 6 
#
# 1 0.011614 -0.008556 -0.003589 0.000000 0.000000 0.000000
# 2 -0.008556 0.069528 -0.011681 0.000000 0.000000 0.000000
# 3 -0.003589 -0.011681 0.016239 0.000000 0.000000 0.000000
# 4 0.000000 0.000000 0.000000 -1.053309 0.000000 0.000000
# 5 0.000000 0.000000 0.000000 0.000000 0.041926 0.000000
# 6 0.000000 0.000000 0.000000 0.000000 0.000000 0.167197
#
#
# Mechanical properties :
#
#
# Convention : Reuss Voigt Hill
#
# Bulk Modulus (GPa) = 20.10890 41.96635 31.03762
# Shear Modulus (GPa) = -7.32519 14.98909 3.83195
#
# Velocity S-wave (km/s) = -1.99877 2.85917 1.44565
# Velocity P-wave (km/s) = 2.37495 5.81272 4.44005
#
# Compressibility (1/GPa) = 0.04972922
#
# Stress axis : x y z
#
# Youngs Moduli (GPa) = 86.10051 14.38267 61.57953
#
# Poissons Ratio (x) = 0.12305 0.22102
# Poissons Ratio (y) = 0.73664 0.71934
# Poissons Ratio (z) = 0.30902 0.16801
#
# Static dielectric constant tensor:
#      x y z
#    x 1.666990 0.000000 0.000000 
#    y 0.000000 1.628060 0.000000 
#    z 0.000000 0.000000 1.637340 
# 
# From -- ./inp_files/25732.got.cif
#   From: 2010.05.17/outbox.cif.g08.bks.cpg/sg51_13_cif.got.tgz:25732.got - 2010.06.03 11:52:47.
