data_PCOD9401603
_publ_section_title
;
Structure prediction by ZEFSAII (Michael W. Deem and Ramdas Pophale) SiO2 
 PCOD9401603
Probable space group: P M M A
;
_chemical_formula_sum "Si O2"
_cell_formula_units_Z 64
_cell_length_a 8.922194
_cell_length_b 20.912349
_cell_length_c 20.105417
_cell_angle_alpha 90.000000
_cell_angle_beta 90.000000
_cell_angle_gamma 90.000000
_cell_volume 3751.349825
_symmetry_space_group_name_H-M "P M M A"
_symmetry_group_IT_number 51
_symmetry_cell_setting 'orthorhombic'
loop_
_space_group_symop_operation_xyz
x,y,z
1/2-x,-y,z
1/2+x,-y,-z
-x,y,-z
-x,-y,-z
1/2+x,y,-z
1/2-x,y,z
x,-y,z
loop_
_atom_site_type_symbol
_atom_site_label
_atom_site_fract_x
_atom_site_fract_y
_atom_site_fract_z
Si Si1 0.927001 0.730867 0.570476
Si Si2 0.927781 0.073245 0.293348
Si Si3 0.069857 0.693165 0.706774
Si Si4 0.929142 0.383424 0.930473
Si Si5 0.570401 0.428734 0.205143
Si Si6 0.926963 0.115213 0.570391
Si Si7 0.569595 0.188027 0.787044
Si Si8 0.429124 0.767309 0.068724
O O1 0.750000 0.717694 0.570448
O O2 0.945482 0.807867 0.578361
O O3 0.000000 0.713372 0.500000
O O4 0.006941 0.697404 0.632331
O O5 0.750000 0.086096 0.294085
O O6 0.992475 0.083025 0.367366
O O7 0.009032 0.123535 0.245663
O O8 0.952406 0.000000 0.272687
O O9 0.250000 0.698780 0.706136
O O10 0.027300 0.627764 0.744498
O O11 0.999645 0.752352 0.747148
O O12 0.750000 0.389161 0.933237
O O13 0.968959 0.307866 0.923213
O O14 0.993155 0.417960 0.865901
O O15 0.000000 0.405916 0.000000
O O16 0.750000 0.424424 0.195717
O O17 0.535061 0.500000 0.230060
O O18 0.750000 0.101153 0.570389
O O19 0.000000 0.097019 0.500000
O O20 0.750000 0.190847 0.781704
O O21 0.526396 0.196034 0.864381
O O22 0.250000 0.770438 0.062951
O O23 0.500000 0.790569 0.000000
#
# Coordination Sequence:
#
# PCOD9401603 Si02
#       8
#     8   8   8   8   8   8   8   8
#     4  10  20  34  55  83 113 142 177 224 271 323
#     4  11  24  39  55  79 111 147 186 226 269 322
#     4  11  21  34  57  83 109 144 182 226 275 321
#     4  10  19  33  52  77 109 145 185 225 270 324
#     4  10  22  38  54  77 110 148 188 227 272 326
#     4  10  20  34  54  79 110 148 184 222 267 319
#     4  11  21  36  57  83 111 142 181 227 273 323
#     4   9  19  33  53  81 111 139 175 223 272 322
#
# _framework density 17.060527
#
# number of rings (size 3 to 8) (size 9 to 14) (size 15 to 20)
#    0.000    1.750    2.500    2.250    0.000    4.750 
#    0.000    0.000    0.000    0.750    0.000    0.000 
#    0.000    0.000    0.000    0.000    0.000    0.000 
#
# Total GULP energy -357457.850962 kJ/mol
# GULP energy per Si atom -5585.278921 kJ/mol
# Density = 1.702170 g / cm^3
# Si number density = 17.060527 Si / 1000 Ang^3
#
#
#
# Elastic Constant Matrix: (Units=GPa)
#
#
# Indices 1 2 3 4 5 6 
#
# 1 65.6516 53.0691 54.3857 0.0000 0.0000 0.0000
# 2 53.0691 88.3922 66.1915 0.0000 0.0000 0.0000
# 3 54.3857 66.1915 141.5177 0.0000 0.0000 0.0000
# 4 0.0000 0.0000 0.0000 18.6756 0.0000 0.0000
# 5 0.0000 0.0000 0.0000 0.0000 34.9908 0.0000
# 6 0.0000 0.0000 0.0000 0.0000 0.0000 -28.1262
#
#
#
# Elastic Compliance Matrix: (Units=1/GPa)
#
#
# Indices 1 2 3 4 5 6 
#
# 1 0.031789 -0.015294 -0.005063 0.000000 0.000000 0.000000
# 2 -0.015294 0.024770 -0.005708 0.000000 0.000000 0.000000
# 3 -0.005063 -0.005708 0.011682 0.000000 0.000000 0.000000
# 4 0.000000 0.000000 0.000000 0.053546 0.000000 0.000000
# 5 0.000000 0.000000 0.000000 0.000000 0.028579 0.000000
# 6 0.000000 0.000000 0.000000 0.000000 0.000000 -0.035554
#
#
# Mechanical properties :
#
#
# Convention : Reuss Voigt Hill
#
# Bulk Modulus (GPa) = 62.07203 71.42822 66.75013
# Shear Modulus (GPa) = 29.01712 13.23573 21.12642
#
# Velocity S-wave (km/s) = 4.12859 2.78836 3.52280
# Velocity P-wave (km/s) = 7.69347 7.23360 7.46708
#
# Compressibility (1/GPa) = 0.01611032
#
# Stress axis : x y z
#
# Youngs Moduli (GPa) = 31.45724 40.37169 85.60316
#
# Poissons Ratio (x) = 0.61745 0.43343
# Poissons Ratio (y) = 0.48111 0.48862
# Poissons Ratio (z) = 0.15928 0.23044
#
# Static dielectric constant tensor:
#      x y z
#    x 1.567700 0.000000 0.000000 
#    y 0.000000 1.574990 0.000000 
#    z 0.000000 0.000000 1.558580 
# 
# From -- ./inp_files/28385.got.cif
#   From: 2010.05.17/outbox.cif.g08.bks.cpg/sg51_15_cif.got.tgz:28385.got - 2010.06.03 11:52:47.
