data_PCOD9401119
_publ_section_title
;
Structure prediction by ZEFSAII (Michael W. Deem and Ramdas Pophale) SiO2 
 PCOD9401119
Probable space group: P M M A
;
_chemical_formula_sum "Si O2"
_cell_formula_units_Z 52
_cell_length_a 8.634295
_cell_length_b 15.735957
_cell_length_c 23.981337
_cell_angle_alpha 90.000000
_cell_angle_beta 90.000000
_cell_angle_gamma 90.000000
_cell_volume 3258.317755
_symmetry_space_group_name_H-M "P M M A"
_symmetry_group_IT_number 51
_symmetry_cell_setting 'orthorhombic'
loop_
_space_group_symop_operation_xyz
x,y,z
1/2-x,-y,z
1/2+x,-y,-z
-x,y,-z
-x,-y,-z
1/2+x,y,-z
1/2-x,y,z
x,-y,z
loop_
_atom_site_type_symbol
_atom_site_label
_atom_site_fract_x
_atom_site_fract_y
_atom_site_fract_z
Si Si1 0.564262 0.155939 0.058662
Si Si2 0.438339 0.599153 0.318592
Si Si3 0.573236 0.603107 0.557660
Si Si4 0.435227 0.674806 0.106779
Si Si5 0.438172 0.093725 0.818174
Si Si6 0.564835 0.500000 0.061929
Si Si7 0.063344 0.271828 0.773599
O O1 0.750000 0.154834 0.056464
O O2 0.503573 0.251961 0.067007
O O3 0.515954 0.111116 0.117040
O O4 0.500000 0.121446 0.000000
O O5 0.250000 0.600153 0.318835
O O6 0.482744 0.500000 0.306374
O O7 0.494791 0.622163 0.381323
O O8 0.499204 0.668525 0.275252
O O9 0.500000 0.633716 0.500000
O O10 0.750000 0.632088 0.558082
O O11 0.573124 0.500000 0.555562
O O12 0.250000 0.677639 0.104949
O O13 0.498697 0.583832 0.090117
O O14 0.497787 0.692915 0.168424
O O15 0.250000 0.093793 0.818571
O O16 0.483781 0.171944 0.778095
O O17 0.491841 0.000000 0.801303
O O18 0.750000 0.500000 0.062752
O O19 0.500000 0.500000 0.000000
O O20 0.250000 0.275811 0.773283
#
# Coordination Sequence:
#
# PCOD9401119 Si02
#       7
#     8   8   8   8   8   4   8
#     4  10  19  32  50  71  93 116 144 181 227 281
#     4   9  18  31  46  66  97 135 168 195 229 276
#     4   8  14  25  41  62  90 126 164 199 231 265
#     4  11  22  36  51  66  88 120 152 187 234 279
#     4   8  16  32  51  69  91 119 150 188 238 288
#     4  12  24  38  52  68  88 112 151 194 231 276
#     4  10  20  33  50  72  95 121 156 199 236 274
#
# _framework density 15.959156
#
# number of rings (size 3 to 8) (size 9 to 14) (size 15 to 20)
#    0.000    2.462    0.000    5.308    1.077    1.231 
#    0.000    1.538    0.000   16.154    0.000    0.000 
#    0.000    0.615    0.000    1.385    0.000    2.154 
#
# Total GULP energy -289688.590744 kJ/mol
# GULP energy per Si atom -5570.934437 kJ/mol
# Density = 1.592283 g / cm^3
# Si number density = 15.959156 Si / 1000 Ang^3
#
#
#
# Elastic Constant Matrix: (Units=GPa)
#
#
# Indices 1 2 3 4 5 6 
#
# 1 44.5222 21.5191 28.1735 0.0000 0.0000 0.0000
# 2 21.5191 108.9100 52.3113 0.0000 0.0000 0.0000
# 3 28.1735 52.3113 109.9289 0.0000 0.0000 0.0000
# 4 0.0000 0.0000 0.0000 5.8886 0.0000 0.0000
# 5 0.0000 0.0000 0.0000 0.0000 26.6218 0.0000
# 6 0.0000 0.0000 0.0000 0.0000 0.0000 6.3398
#
#
#
# Elastic Compliance Matrix: (Units=1/GPa)
#
#
# Indices 1 2 3 4 5 6 
#
# 1 0.027383 -0.002644 -0.005760 0.000000 0.000000 0.000000
# 2 -0.002644 0.012158 -0.005108 0.000000 0.000000 0.000000
# 3 -0.005760 -0.005108 0.013004 0.000000 0.000000 0.000000
# 4 0.000000 0.000000 0.000000 0.169820 0.000000 0.000000
# 5 0.000000 0.000000 0.000000 0.000000 0.037563 0.000000
# 6 0.000000 0.000000 0.000000 0.000000 0.000000 0.157735
#
#
# Mechanical properties :
#
#
# Convention : Reuss Voigt Hill
#
# Bulk Modulus (GPa) = 39.18285 51.92988 45.55636
# Shear Modulus (GPa) = 11.03282 18.52718 14.78000
#
# Velocity S-wave (km/s) = 2.63214 3.41091 3.04651
# Velocity P-wave (km/s) = 5.81746 6.93703 6.40176
#
# Compressibility (1/GPa) = 0.02552137
#
# Stress axis : x y z
#
# Youngs Moduli (GPa) = 36.51841 82.25262 76.90189
#
# Poissons Ratio (x) = 0.21748 0.44294
# Poissons Ratio (y) = 0.09656 0.39280
# Poissons Ratio (z) = 0.21034 0.42013
#
# Static dielectric constant tensor:
#      x y z
#    x 1.540460 0.000000 0.000000 
#    y 0.000000 1.525520 0.000000 
#    z 0.000000 0.000000 1.541130 
# 
# From -- ./inp_files/34720.got.cif
#   From: 2010.05.17/outbox.cif.g08.bks.cpg/sg51_18_cif.got.tgz:34720.got - 2010.06.03 11:52:47.
