data_PCOD9401624
_publ_section_title
;
Structure prediction by ZEFSAII (Michael W. Deem and Ramdas Pophale) SiO2 
 PCOD9401624
Probable space group: P M M A
;
_chemical_formula_sum "Si O2"
_cell_formula_units_Z 64
_cell_length_a 8.651820
_cell_length_b 20.666509
_cell_length_c 20.360686
_cell_angle_alpha 90.000000
_cell_angle_beta 90.000000
_cell_angle_gamma 90.000000
_cell_volume 3640.550026
_symmetry_space_group_name_H-M "P M M A"
_symmetry_group_IT_number 51
_symmetry_cell_setting 'orthorhombic'
loop_
_space_group_symop_operation_xyz
x,y,z
1/2-x,-y,z
1/2+x,-y,-z
-x,y,-z
-x,-y,-z
1/2+x,y,-z
1/2-x,y,z
x,-y,z
loop_
_atom_site_type_symbol
_atom_site_label
_atom_site_fract_x
_atom_site_fract_y
_atom_site_fract_z
Si Si1 0.565495 0.250965 0.205769
Si Si2 0.436429 0.791153 0.431416
Si Si3 0.567011 0.790022 0.931156
Si Si4 0.436429 0.425124 0.428915
Si Si5 0.936464 0.683337 0.673264
Si Si6 0.565793 0.070834 0.102324
Si Si7 0.067384 0.107237 0.748436
Si Si8 0.434838 0.069709 0.387972
O O1 0.750000 0.252645 0.201119
O O2 0.497650 0.247139 0.132606
O O3 0.505391 0.306071 0.254664
O O4 0.522557 0.181913 0.239123
O O5 0.500000 0.765882 0.500000
O O6 0.250000 0.791720 0.433257
O O7 0.482638 0.744692 0.371896
O O8 0.495236 0.864499 0.420726
O O9 0.750000 0.786312 0.931495
O O10 0.516811 0.865523 0.924438
O O11 0.500000 0.765558 0.000000
O O12 0.500000 0.403991 0.500000
O O13 0.250000 0.422337 0.432128
O O14 0.482889 0.500000 0.419074
O O15 0.485135 0.379246 0.368887
O O16 0.750000 0.682941 0.678499
O O17 0.750000 0.077105 0.089471
O O18 0.546120 0.073692 0.181246
O O19 0.513062 0.000000 0.079009
O O20 0.250000 0.104066 0.732229
O O21 0.973088 0.077316 0.689009
O O22 0.250000 0.069562 0.396472
O O23 0.496276 0.000000 0.411279
#
# Coordination Sequence:
#
# PCOD9401624 Si02
#       8
#     8   8   8   8   8   8   8   8
#     4  10  20  34  53  76 100 127 165 209 255 304
#     4  10  21  34  47  65  90 120 160 205 253 303
#     4  11  22  36  53  72  99 132 167 208 259 315
#     4   9  18  32  51  78 113 150 184 216 254 303
#     4  10  19  33  53  76 102 134 171 212 254 297
#     4   9  18  32  48  68  95 124 160 206 255 313
#     4   9  17  30  47  67  89 115 150 197 250 303
#     4  10  20  32  45  61  84 114 151 200 255 307
#
# _framework density 17.57976
#
# number of rings (size 3 to 8) (size 9 to 14) (size 15 to 20)
#    0.000    2.250    1.250    3.000    0.000    5.000 
#    0.000    0.000    0.000    0.000    0.000    0.000 
#    0.000    0.500    0.000    1.375    0.000    2.000 
#
# Total GULP energy -357125.882420 kJ/mol
# GULP energy per Si atom -5580.091913 kJ/mol
# Density = 1.753975 g / cm^3
# Si number density = 17.579760 Si / 1000 Ang^3
#
#
#
# Elastic Constant Matrix: (Units=GPa)
#
#
# Indices 1 2 3 4 5 6 
#
# 1 20.9169 22.2438 30.2816 0.0000 0.0000 0.0000
# 2 22.2438 77.3206 49.5215 0.0000 0.0000 0.0000
# 3 30.2816 49.5215 122.9340 0.0000 0.0000 0.0000
# 4 0.0000 0.0000 0.0000 18.7725 0.0000 0.0000
# 5 0.0000 0.0000 0.0000 0.0000 28.6450 0.0000
# 6 0.0000 0.0000 0.0000 0.0000 0.0000 8.0751
#
#
#
# Elastic Compliance Matrix: (Units=1/GPa)
#
#
# Indices 1 2 3 4 5 6 
#
# 1 0.085478 -0.014967 -0.015026 0.000000 0.000000 0.000000
# 2 -0.014967 0.020051 -0.004390 0.000000 0.000000 0.000000
# 3 -0.015026 -0.004390 0.013604 0.000000 0.000000 0.000000
# 4 0.000000 0.000000 0.000000 0.053269 0.000000 0.000000
# 5 0.000000 0.000000 0.000000 0.000000 0.034910 0.000000
# 6 0.000000 0.000000 0.000000 0.000000 0.000000 0.123837
#
#
# Mechanical properties :
#
#
# Convention : Reuss Voigt Hill
#
# Bulk Modulus (GPa) = 19.85451 47.25171 33.55311
# Shear Modulus (GPa) = 11.99890 19.04018 15.51954
#
# Velocity S-wave (km/s) = 2.61538 3.29458 2.97443
# Velocity P-wave (km/s) = 4.52093 6.43499 5.56093
#
# Compressibility (1/GPa) = 0.05036640
#
# Stress axis : x y z
#
# Youngs Moduli (GPa) = 11.69892 49.87348 73.50604
#
# Poissons Ratio (x) = 0.74644 1.10452
# Poissons Ratio (y) = 0.17509 0.32272
# Poissons Ratio (z) = 0.17579 0.21896
#
# Static dielectric constant tensor:
#      x y z
#    x 1.589460 0.000000 0.000000 
#    y 0.000000 1.620650 0.000000 
#    z 0.000000 0.000000 1.598650 
# 
# From -- ./inp_files/32573.got.cif
#   From: 2010.05.17/outbox.cif.g08.bks.cpg/sg51_17_cif.got.tgz:32573.got - 2010.06.03 11:52:47.
