data_PCOD9401444
_publ_section_title
;
Structure prediction by ZEFSAII (Michael W. Deem and Ramdas Pophale) SiO2 
 PCOD9401444
Probable space group: P M M A
;
_chemical_formula_sum "Si O2"
_cell_formula_units_Z 48
_cell_length_a 8.679966
_cell_length_b 31.847681
_cell_length_c 9.295460
_cell_angle_alpha 90.000000
_cell_angle_beta 90.000000
_cell_angle_gamma 90.000000
_cell_volume 2569.607108
_symmetry_space_group_name_H-M "P M M A"
_symmetry_group_IT_number 51
_symmetry_cell_setting 'orthorhombic'
loop_
_space_group_symop_operation_xyz
x,y,z
1/2-x,-y,z
1/2+x,-y,-z
-x,y,-z
-x,-y,-z
1/2+x,y,-z
1/2-x,y,z
x,-y,z
loop_
_atom_site_type_symbol
_atom_site_label
_atom_site_fract_x
_atom_site_fract_y
_atom_site_fract_z
Si Si1 0.066261 0.123868 0.840436
Si Si2 0.065043 0.798494 0.339564
Si Si3 0.564513 0.362737 0.337338
Si Si4 0.434228 0.048999 0.341295
Si Si5 0.935836 0.545038 0.337407
Si Si6 0.565443 0.284854 0.839813
O O1 0.250000 0.125147 0.844121
O O2 0.003089 0.161198 0.740782
O O3 0.009350 0.080183 0.772330
O O4 0.000000 0.128953 0.000000
O O5 0.250000 0.801883 0.344094
O O6 0.023374 0.756599 0.251057
O O7 0.000000 0.795811 0.500000
O O8 0.500000 0.358863 0.500000
O O9 0.750000 0.360303 0.342776
O O10 0.518780 0.409238 0.278433
O O11 0.499632 0.325699 0.240200
O O12 0.500000 0.058512 0.500000
O O13 0.250000 0.054536 0.342258
O O14 0.468013 0.000000 0.310755
O O15 0.750000 0.544981 0.342774
O O16 0.984537 0.500000 0.270797
O O17 0.000000 0.544826 0.500000
O O18 0.750000 0.287419 0.845320
O O19 0.500000 0.281759 0.000000
#
# Coordination Sequence:
#
# PCOD9401444 Si02
#       6
#     8   8   8   8   8   8
#     4  12  25  41  62  88 121 157 194 238 287 340
#     4  11  24  42  64  89 116 148 187 230 278 333
#     4  10  19  32  53  80 111 145 183 228 275 328
#     4  10  21  39  63  90 121 158 200 244 289 338
#     4   8  14  25  43  70 103 138 176 220 270 321
#     4  11  24  40  59  82 111 146 184 229 280 335
#
# _framework density 18.679898999999999
#
# number of rings (size 3 to 8) (size 9 to 14) (size 15 to 20)
#    0.000    1.667    0.000    5.000    0.000    7.333 
#    0.000    0.000    0.000    0.500    0.000    0.000 
#    0.000    0.000    0.000    0.000    0.000    0.000 
#
# Total GULP energy -268091.093064 kJ/mol
# GULP energy per Si atom -5585.231106 kJ/mol
# Density = 1.863738 g / cm^3
# Si number density = 18.679899 Si / 1000 Ang^3
#
#
#
# Elastic Constant Matrix: (Units=GPa)
#
#
# Indices 1 2 3 4 5 6 
#
# 1 72.5468 63.8008 51.4013 0.0000 0.0000 0.0000
# 2 63.8008 143.7396 91.1785 0.0000 0.0000 0.0000
# 3 51.4013 91.1785 136.9697 0.0000 0.0000 0.0000
# 4 0.0000 0.0000 0.0000 -16.6703 0.0000 0.0000
# 5 0.0000 0.0000 0.0000 0.0000 33.3092 0.0000
# 6 0.0000 0.0000 0.0000 0.0000 0.0000 32.4514
#
#
#
# Elastic Compliance Matrix: (Units=1/GPa)
#
#
# Indices 1 2 3 4 5 6 
#
# 1 0.023409 -0.008339 -0.003233 0.000000 0.000000 0.000000
# 2 -0.008339 0.015013 -0.006864 0.000000 0.000000 0.000000
# 3 -0.003233 -0.006864 0.013084 0.000000 0.000000 0.000000
# 4 0.000000 0.000000 0.000000 -0.059987 0.000000 0.000000
# 5 0.000000 0.000000 0.000000 0.000000 0.030022 0.000000
# 6 0.000000 0.000000 0.000000 0.000000 0.000000 0.030815
#
#
# Mechanical properties :
#
#
# Convention : Reuss Voigt Hill
#
# Bulk Modulus (GPa) = 68.34544 85.11305 76.72925
# Shear Modulus (GPa) = 53.13086 19.60977 36.37032
#
# Velocity S-wave (km/s) = 5.33896 3.24354 4.41730
# Velocity P-wave (km/s) = 8.64136 7.72595 8.19645
#
# Compressibility (1/GPa) = 0.01463155
#
# Stress axis : x y z
#
# Youngs Moduli (GPa) = 42.71807 66.61002 76.43098
#
# Poissons Ratio (x) = 0.55549 0.24714
# Poissons Ratio (y) = 0.35624 0.52464
# Poissons Ratio (z) = 0.13813 0.45722
#
# Static dielectric constant tensor:
#      x y z
#    x 1.627920 0.000000 0.000000 
#    y 0.000000 1.671440 0.000000 
#    z 0.000000 0.000000 1.593000 
# 
# From -- ./inp_files/5996.got.cif
#   From: 2010.05.17/outbox.cif.g08.bks.cpg/sg51_3_cif.got.tgz:5996.got - 2010.06.03 11:52:47.
