data_PCOD9401726
_publ_section_title
;
Structure prediction by ZEFSAII (Michael W. Deem and Ramdas Pophale) SiO2 
 PCOD9401726
Probable space group: P M M A
;
_chemical_formula_sum "Si O2"
_cell_formula_units_Z 64
_cell_length_a 9.424995
_cell_length_b 22.296988
_cell_length_c 15.935644
_cell_angle_alpha 90.000000
_cell_angle_beta 90.000000
_cell_angle_gamma 90.000000
_cell_volume 3348.859658
_symmetry_space_group_name_H-M "P M M A"
_symmetry_group_IT_number 51
_symmetry_cell_setting 'orthorhombic'
loop_
_space_group_symop_operation_xyz
x,y,z
1/2-x,-y,z
1/2+x,-y,-z
-x,y,-z
-x,-y,-z
1/2+x,y,-z
1/2-x,y,z
x,-y,z
loop_
_atom_site_type_symbol
_atom_site_label
_atom_site_fract_x
_atom_site_fract_y
_atom_site_fract_z
Si Si1 0.417394 0.891778 0.755453
Si Si2 0.595648 0.240808 0.573183
Si Si3 0.581003 0.572097 0.587375
Si Si4 0.086447 0.096364 0.418345
Si Si5 0.087920 0.071564 0.080247
Si Si6 0.415802 0.620374 0.748327
Si Si7 0.088819 0.571656 0.921898
Si Si8 0.593083 0.753253 0.271031
O O1 0.250000 0.908525 0.752308
O O2 0.496664 0.909701 0.668165
O O3 0.500953 0.917990 0.834425
O O4 0.423211 0.819220 0.767286
O O5 0.500000 0.264975 0.500000
O O6 0.750000 0.265887 0.565176
O O7 0.599302 0.168253 0.567629
O O8 0.527701 0.253049 0.661209
O O9 0.500000 0.586042 0.500000
O O10 0.750000 0.584650 0.582096
O O11 0.565236 0.500000 0.601076
O O12 0.506630 0.605778 0.665683
O O13 0.250000 0.074021 0.412005
O O14 0.000000 0.073237 0.500000
O O15 0.250000 0.095138 0.084838
O O16 0.098830 0.000000 0.069198
O O17 0.000000 0.095383 0.000000
O O18 0.250000 0.604012 0.731343
O O19 0.469949 0.585335 0.829706
O O20 0.414293 0.690496 0.776244
O O21 0.250000 0.594970 0.924416
O O22 0.095091 0.500000 0.930463
O O23 0.000000 0.595809 0.000000
O O24 0.750000 0.755013 0.312797
#
# Coordination Sequence:
#
# PCOD9401726 Si02
#       8
#     8   8   8   8   8   8   8   8
#     4  10  19  33  54  79 110 146 181 219 266 318
#     4   9  16  26  42  63  90 127 171 216 256 294
#     4  10  21  36  54  77 105 139 181 228 278 331
#     4   9  16  27  45  71 102 137 179 221 259 302
#     4  10  21  38  61  88 114 140 176 223 272 322
#     4  10  20  35  54  75 103 138 175 216 263 314
#     4   9  18  33  54  77  97 120 155 202 255 307
#     4   9  19  33  48  70 102 139 176 213 255 309
#
# _framework density 19.110982
#
# number of rings (size 3 to 8) (size 9 to 14) (size 15 to 20)
#    0.000    2.500    0.000    2.250    0.000    7.000 
#    0.000    1.875    0.000    1.875    0.000    0.000 
#    0.000    0.000    0.000    0.000    0.000    0.000 
#
# Total GULP energy -356536.888580 kJ/mol
# GULP energy per Si atom -5570.888884 kJ/mol
# Density = 1.906749 g / cm^3
# Si number density = 19.110982 Si / 1000 Ang^3
#
#
#
# Elastic Constant Matrix: (Units=GPa)
#
#
# Indices 1 2 3 4 5 6 
#
# 1 145.3868 15.3051 73.2400 0.0000 0.0000 0.0000
# 2 15.3051 33.5198 10.4036 0.0000 0.0000 0.0000
# 3 73.2400 10.4036 125.9987 0.0000 0.0000 0.0000
# 4 0.0000 0.0000 0.0000 83.1529 0.0000 0.0000
# 5 0.0000 0.0000 0.0000 0.0000 29.9724 0.0000
# 6 0.0000 0.0000 0.0000 0.0000 0.0000 13.2489
#
#
#
# Elastic Compliance Matrix: (Units=1/GPa)
#
#
# Indices 1 2 3 4 5 6 
#
# 1 0.009981 -0.002829 -0.005568 0.000000 0.000000 0.000000
# 2 -0.002829 0.031420 -0.000950 0.000000 0.000000 0.000000
# 3 -0.005568 -0.000950 0.011252 0.000000 0.000000 0.000000
# 4 0.000000 0.000000 0.000000 0.012026 0.000000 0.000000
# 5 0.000000 0.000000 0.000000 0.000000 0.033364 0.000000
# 6 0.000000 0.000000 0.000000 0.000000 0.000000 0.075478
#
#
# Mechanical properties :
#
#
# Convention : Reuss Voigt Hill
#
# Bulk Modulus (GPa) = 29.44797 55.86699 42.65748
# Shear Modulus (GPa) = 24.56596 39.00528 31.78562
#
# Velocity S-wave (km/s) = 3.58919 4.52263 4.08267
# Velocity P-wave (km/s) = 5.71128 7.52121 6.67785
#
# Compressibility (1/GPa) = 0.03395820
#
# Stress axis : x y z
#
# Youngs Moduli (GPa) = 100.19005 31.82721 88.87596
#
# Poissons Ratio (x) = 0.09004 0.49487
# Poissons Ratio (y) = 0.28345 0.08441
# Poissons Ratio (z) = 0.55787 0.03023
#
# Static dielectric constant tensor:
#      x y z
#    x 1.686670 0.000000 0.000000 
#    y 0.000000 1.708990 0.000000 
#    z 0.000000 0.000000 1.628970 
# 
# From -- ./inp_files/22220.got.cif
#   From: 2010.05.17/outbox.cif.g08.bks.cpg/sg51_12_cif.got.tgz:22220.got - 2010.06.03 11:52:47.
