data_PCOD9401639
_publ_section_title
;
Structure prediction by ZEFSAII (Michael W. Deem and Ramdas Pophale) SiO2 
 PCOD9401639
Probable space group: P M M A
;
_chemical_formula_sum "Si O2"
_cell_formula_units_Z 40
_cell_length_a 8.598015
_cell_length_b 26.775921
_cell_length_c 9.527719
_cell_angle_alpha 90.000000
_cell_angle_beta 90.000000
_cell_angle_gamma 90.000000
_cell_volume 2193.469281
_symmetry_space_group_name_H-M "P M M A"
_symmetry_group_IT_number 51
_symmetry_cell_setting 'orthorhombic'
loop_
_space_group_symop_operation_xyz
x,y,z
1/2-x,-y,z
1/2+x,-y,-z
-x,y,-z
-x,-y,-z
1/2+x,y,-z
1/2-x,y,z
x,-y,z
loop_
_atom_site_type_symbol
_atom_site_label
_atom_site_fract_x
_atom_site_fract_y
_atom_site_fract_z
Si Si1 0.062629 0.000000 0.340904
Si Si2 0.938051 0.404403 0.342453
Si Si3 0.562182 0.500000 0.158182
Si Si4 0.062290 0.688837 0.843179
Si Si5 0.936718 0.108717 0.658390
Si Si6 0.936316 0.198265 0.156347
O O1 0.014860 0.053983 0.280658
O O2 0.000000 0.000000 0.500000
O O3 0.250000 0.000000 0.344753
O O4 0.750000 0.404523 0.347915
O O5 0.986891 0.451058 0.245535
O O6 0.989443 0.353390 0.265743
O O7 0.000000 0.408563 0.500000
O O8 0.750000 0.500000 0.151619
O O9 0.500000 0.500000 0.000000
O O10 0.250000 0.687384 0.849582
O O11 0.015746 0.745246 0.801403
O O12 0.000000 0.679019 0.000000
O O13 0.750000 0.110677 0.655758
O O14 0.000000 0.111405 0.500000
O O15 0.000207 0.155050 0.745015
O O16 0.750000 0.196462 0.155000
O O17 0.000000 0.190495 0.000000
#
# Coordination Sequence:
#
# PCOD9401639 Si02
#       6
#     4   8   4   8   8   8
#     4   8  16  30  49  72  99 130 166 206 252 304
#     4  10  21  36  53  78 108 137 170 212 256 301
#     4  10  21  36  56  80 106 136 175 214 252 302
#     4   9  19  35  54  75 101 133 172 211 252 304
#     4  10  19  33  53  77 103 133 169 211 256 306
#     4  10  20  35  53  75 103 136 172 213 258 307
#
# _framework density 18.235949999999999
#
# number of rings (size 3 to 8) (size 9 to 14) (size 15 to 20)
#    0.000    2.400    0.000    2.100    0.000    4.000 
#    0.000    2.500    0.000    0.000    0.000    0.000 
#    0.000    0.000    0.000    0.000    0.000    0.000 
#
# Total GULP energy -223087.174319 kJ/mol
# GULP energy per Si atom -5577.179358 kJ/mol
# Density = 1.819444 g / cm^3
# Si number density = 18.235950 Si / 1000 Ang^3
#
#
#
# Elastic Constant Matrix: (Units=GPa)
#
#
# Indices 1 2 3 4 5 6 
#
# 1 24.8035 41.7136 26.3021 0.0000 0.0000 0.0000
# 2 41.7136 204.1725 120.1288 0.0000 0.0000 0.0000
# 3 26.3021 120.1288 120.9212 0.0000 0.0000 0.0000
# 4 0.0000 0.0000 0.0000 43.3552 0.0000 0.0000
# 5 0.0000 0.0000 0.0000 0.0000 34.7090 0.0000
# 6 0.0000 0.0000 0.0000 0.0000 0.0000 23.1582
#
#
#
# Elastic Compliance Matrix: (Units=1/GPa)
#
#
# Indices 1 2 3 4 5 6 
#
# 1 0.061654 -0.011326 -0.002159 0.000000 0.000000 0.000000
# 2 -0.011326 0.013869 -0.011314 0.000000 0.000000 0.000000
# 3 -0.002159 -0.011314 0.019980 0.000000 0.000000 0.000000
# 4 0.000000 0.000000 0.000000 0.023065 0.000000 0.000000
# 5 0.000000 0.000000 0.000000 0.000000 0.028811 0.000000
# 6 0.000000 0.000000 0.000000 0.000000 0.000000 0.043181
#
#
# Mechanical properties :
#
#
# Convention : Reuss Voigt Hill
#
# Bulk Modulus (GPa) = 21.78465 80.68735 51.23600
# Shear Modulus (GPa) = 19.57260 31.02801 25.30030
#
# Velocity S-wave (km/s) = 3.27968 4.12937 3.72880
# Velocity P-wave (km/s) = 5.12968 8.19011 6.83343
#
# Compressibility (1/GPa) = 0.04590388
#
# Stress axis : x y z
#
# Youngs Moduli (GPa) = 16.21962 72.10427 50.05109
#
# Poissons Ratio (x) = 0.81666 0.10805
# Poissons Ratio (y) = 0.18370 0.56629
# Poissons Ratio (z) = 0.03501 0.81581
#
# Static dielectric constant tensor:
#      x y z
#    x 1.624680 0.000000 0.000000 
#    y 0.000000 1.665870 0.000000 
#    z 0.000000 0.000000 1.593810 
# 
# From -- ./inp_files/5603.got.cif
#   From: 2010.05.17/outbox.cif.g08.bks.cpg/sg51_3_cif.got.tgz:5603.got - 2010.06.03 11:52:47.
