data_PCOD9401268
_publ_section_title
;
Structure prediction by ZEFSAII (Michael W. Deem and Ramdas Pophale) SiO2 
 PCOD9401268
Probable space group: P M M A
;
_chemical_formula_sum "Si O2"
_cell_formula_units_Z 64
_cell_length_a 18.118762
_cell_length_b 9.107402
_cell_length_c 22.767497
_cell_angle_alpha 90.000000
_cell_angle_beta 90.000000
_cell_angle_gamma 90.000000
_cell_volume 3756.975086
_symmetry_space_group_name_H-M "P M M A"
_symmetry_group_IT_number 51
_symmetry_cell_setting 'orthorhombic'
loop_
_space_group_symop_operation_xyz
x,y,z
1/2-x,-y,z
1/2+x,-y,-z
-x,y,-z
-x,-y,-z
1/2+x,y,-z
1/2-x,y,z
x,-y,z
loop_
_atom_site_type_symbol
_atom_site_label
_atom_site_fract_x
_atom_site_fract_y
_atom_site_fract_z
Si Si1 0.168399 0.323973 0.797690
Si Si2 0.167921 0.326660 0.036826
Si Si3 0.466879 0.175300 0.363932
Si Si4 0.335205 0.823622 0.452128
Si Si5 0.973565 0.325846 0.886924
Si Si6 0.931494 0.667726 0.454155
Si Si7 0.989343 0.325738 0.247566
Si Si8 0.122337 0.174603 0.918172
O O1 0.250000 0.291806 0.773468
O O2 0.163067 0.500000 0.807292
O O3 0.097424 0.283583 0.758582
O O4 0.159116 0.245572 0.860412
O O5 0.250000 0.302773 0.060838
O O6 0.160818 0.500000 0.021973
O O7 0.104205 0.292135 0.083304
O O8 0.157582 0.235405 0.977576
O O9 0.391988 0.215593 0.399519
O O10 0.535968 0.243871 0.399303
O O11 0.470434 0.238406 0.298658
O O12 0.472261 0.000000 0.363972
O O13 0.250000 0.785202 0.440249
O O14 0.365795 0.745983 0.510714
O O15 0.339893 0.000000 0.459681
O O16 0.989707 0.500000 0.895769
O O17 0.976814 0.299880 0.817090
O O18 0.038025 0.231386 0.916209
O O19 0.913354 0.500000 0.438484
O O20 0.000000 0.665192 0.500000
O O21 0.993316 0.500000 0.259832
O O22 0.126573 0.000000 0.915286
#
# Coordination Sequence:
#
# PCOD9401268 Si02
#       8
#     8   8   8   8   8   8   8   8
#     4   9  18  34  54  73  95 126 163 203 250 302
#     4  10  20  34  52  72  95 126 164 204 248 301
#     4  10  19  32  52  75 100 135 173 203 240 293
#     4   9  18  33  52  75 104 135 168 207 247 288
#     4   9  19  36  54  70  93 129 169 206 247 296
#     4   9  17  30  50  75 101 128 159 197 240 284
#     4   9  18  33  52  73  97 127 166 210 248 285
#     4  11  21  31  48  75 102 126 156 198 250 306
#
# _framework density 17.034981999999999
#
# number of rings (size 3 to 8) (size 9 to 14) (size 15 to 20)
#    0.000    2.500    0.000    3.375    0.000    8.250 
#    0.000    1.250    0.000    3.000    0.000    0.000 
#    0.000    0.000    0.000    0.000    0.000    0.000 
#
# Total GULP energy -356895.424329 kJ/mol
# GULP energy per Si atom -5576.491005 kJ/mol
# Density = 1.699621 g / cm^3
# Si number density = 17.034982 Si / 1000 Ang^3
#
#
#
# Elastic Constant Matrix: (Units=GPa)
#
#
# Indices 1 2 3 4 5 6 
#
# 1 108.8016 36.8275 35.8043 0.0000 0.0000 0.0000
# 2 36.8275 39.5407 26.1034 0.0000 0.0000 0.0000
# 3 35.8043 26.1034 46.4303 0.0000 0.0000 0.0000
# 4 0.0000 0.0000 0.0000 14.2132 0.0000 0.0000
# 5 0.0000 0.0000 0.0000 0.0000 15.5962 0.0000
# 6 0.0000 0.0000 0.0000 0.0000 0.0000 8.2737
#
#
#
# Elastic Compliance Matrix: (Units=1/GPa)
#
#
# Indices 1 2 3 4 5 6 
#
# 1 0.014290 -0.009597 -0.005625 0.000000 0.000000 0.000000
# 2 -0.009597 0.046661 -0.018833 0.000000 0.000000 0.000000
# 3 -0.005625 -0.018833 0.036463 0.000000 0.000000 0.000000
# 4 0.000000 0.000000 0.000000 0.070357 0.000000 0.000000
# 5 0.000000 0.000000 0.000000 0.000000 0.064118 0.000000
# 6 0.000000 0.000000 0.000000 0.000000 0.000000 0.120865
#
#
# Mechanical properties :
#
#
# Convention : Reuss Voigt Hill
#
# Bulk Modulus (GPa) = 34.12224 43.58257 38.85241
# Shear Modulus (GPa) = 11.61085 14.01910 12.81497
#
# Velocity S-wave (km/s) = 2.61356 2.87184 2.74574
# Velocity P-wave (km/s) = 5.40201 6.05279 5.73664
#
# Compressibility (1/GPa) = 0.02930640
#
# Stress axis : x y z
#
# Youngs Moduli (GPa) = 69.97780 21.43107 27.42514
#
# Poissons Ratio (x) = 0.20566 0.15425
# Poissons Ratio (y) = 0.67155 0.51649
# Poissons Ratio (z) = 0.39359 0.40361
#
# Static dielectric constant tensor:
#      x y z
#    x 1.593090 0.000000 0.000000 
#    y 0.000000 1.571500 0.000000 
#    z 0.000000 0.000000 1.551910 
# 
# From -- ./inp_files/33918.got.cif
#   From: 2010.05.17/outbox.cif.g08.bks.cpg/sg51_17_cif.got.tgz:33918.got - 2010.06.03 11:52:47.
