data_PCOD9401171
_publ_section_title
;
Structure prediction by ZEFSAII (Michael W. Deem and Ramdas Pophale) SiO2 
 PCOD9401171
Probable space group: P M M A
;
_chemical_formula_sum "Si O2"
_cell_formula_units_Z 40
_cell_length_a 16.016872
_cell_length_b 7.752259
_cell_length_c 17.577722
_cell_angle_alpha 90.000000
_cell_angle_beta 90.000000
_cell_angle_gamma 90.000000
_cell_volume 2182.571955
_symmetry_space_group_name_H-M "P M M A"
_symmetry_group_IT_number 51
_symmetry_cell_setting 'orthorhombic'
loop_
_space_group_symop_operation_xyz
x,y,z
1/2-x,-y,z
1/2+x,-y,-z
-x,y,-z
-x,-y,-z
1/2+x,y,-z
1/2-x,y,z
x,-y,z
loop_
_atom_site_type_symbol
_atom_site_label
_atom_site_fract_x
_atom_site_fract_y
_atom_site_fract_z
Si Si1 0.076014 0.697799 0.309632
Si Si2 0.912589 0.790613 0.037607
Si Si3 0.842144 0.000000 0.311436
Si Si4 0.507611 0.000000 0.590098
Si Si5 0.411421 0.303564 0.786607
Si Si6 0.250000 0.208092 0.232578
Si Si7 0.750000 0.789478 0.942999
O O1 0.068594 0.500000 0.335396
O O2 0.054671 0.833132 0.375702
O O3 0.166767 0.729466 0.274538
O O4 0.005950 0.725918 0.244020
O O5 0.906700 0.725374 0.123565
O O6 0.912139 0.000000 0.040297
O O7 0.833313 0.734836 0.987518
O O8 0.000000 0.736358 0.000000
O O9 0.855803 0.833997 0.257882
O O10 0.915261 0.000000 0.373267
O O11 0.750000 0.000000 0.344837
O O12 0.500000 0.000000 0.500000
O O13 0.388353 0.500000 0.768281
O O14 0.250000 0.266407 0.144630
O O15 0.250000 0.000000 0.233201
O O16 0.750000 0.000000 0.942665
#
# Coordination Sequence:
#
# PCOD9401171 Si02
#       7
#     8   8   4   4   8   4   4
#     4  10  21  38  61  91 122 157 195 239 292 346
#     4  10  19  32  50  75 111 155 198 248 300 341
#     4  10  22  40  62  85 116 150 186 239 290 339
#     4  10  22  43  66  94 121 152 187 227 289 363
#     4  10  21  36  58  82 113 157 204 243 289 350
#     4  11  19  35  61  88 119 158 206 250 284 349
#     4   9  20  31  49  79 112 152 201 249 302 338
#
# _framework density 18.327002
#
# number of rings (size 3 to 8) (size 9 to 14) (size 15 to 20)
#    0.000    2.000    2.000    1.500    1.400    2.800 
#    1.800    2.000    0.000    0.000    0.000    0.000 
#    0.000    0.000    0.000    0.000    0.000    0.000 
#
# Total GULP energy -223446.308667 kJ/mol
# GULP energy per Si atom -5586.157717 kJ/mol
# Density = 1.828529 g / cm^3
# Si number density = 18.327002 Si / 1000 Ang^3
#
#
#
# Elastic Constant Matrix: (Units=GPa)
#
#
# Indices 1 2 3 4 5 6 
#
# 1 135.8206 48.8479 64.3241 0.0000 0.0000 0.0000
# 2 48.8479 95.3399 54.0435 0.0000 0.0000 0.0000
# 3 64.3241 54.0435 155.8809 0.0000 0.0000 0.0000
# 4 0.0000 0.0000 0.0000 5.6976 0.0000 0.0000
# 5 0.0000 0.0000 0.0000 0.0000 10.1049 0.0000
# 6 0.0000 0.0000 0.0000 0.0000 0.0000 4.4695
#
#
#
# Elastic Compliance Matrix: (Units=1/GPa)
#
#
# Indices 1 2 3 4 5 6 
#
# 1 0.009992 -0.003463 -0.002923 0.000000 0.000000 0.000000
# 2 -0.003463 0.014254 -0.003513 0.000000 0.000000 0.000000
# 3 -0.002923 -0.003513 0.008839 0.000000 0.000000 0.000000
# 4 0.000000 0.000000 0.000000 0.175513 0.000000 0.000000
# 5 0.000000 0.000000 0.000000 0.000000 0.098962 0.000000
# 6 0.000000 0.000000 0.000000 0.000000 0.000000 0.223740
#
#
# Mechanical properties :
#
#
# Convention : Reuss Voigt Hill
#
# Bulk Modulus (GPa) = 75.25239 80.16357 77.70798
# Shear Modulus (GPa) = 9.00046 18.70946 13.85496
#
# Velocity S-wave (km/s) = 2.21849 3.19857 2.75250
# Velocity P-wave (km/s) = 6.90741 7.58134 7.25221
#
# Compressibility (1/GPa) = 0.01328861
#
# Stress axis : x y z
#
# Youngs Moduli (GPa) = 100.07754 70.15409 113.13279
#
# Poissons Ratio (x) = 0.24293 0.33066
# Poissons Ratio (y) = 0.34655 0.39744
# Poissons Ratio (z) = 0.29250 0.24645
#
# Static dielectric constant tensor:
#      x y z
#    x 1.621690 0.000000 0.000000 
#    y 0.000000 1.654780 0.000000 
#    z 0.000000 0.000000 1.571330 
# 
# From -- ./inp_files/23853.got.cif
#   From: 2010.05.17/outbox.cif.g08.bks.cpg/sg51_12_cif.got.tgz:23853.got - 2010.06.03 11:52:47.
