data_PCOD9401166
_publ_section_title
;
Structure prediction by ZEFSAII (Michael W. Deem and Ramdas Pophale) SiO2 
 PCOD9401166
Probable space group: P M M A
;
_chemical_formula_sum "Si O2"
_cell_formula_units_Z 48
_cell_length_a 18.436599
_cell_length_b 13.383810
_cell_length_c 11.425850
_cell_angle_alpha 90.000000
_cell_angle_beta 90.000000
_cell_angle_gamma 90.000000
_cell_volume 2819.350632
_symmetry_space_group_name_H-M "P M M A"
_symmetry_group_IT_number 51
_symmetry_cell_setting 'orthorhombic'
loop_
_space_group_symop_operation_xyz
x,y,z
1/2-x,-y,z
1/2+x,-y,-z
-x,y,-z
-x,-y,-z
1/2+x,y,-z
1/2-x,y,z
x,-y,z
loop_
_atom_site_type_symbol
_atom_site_label
_atom_site_fract_x
_atom_site_fract_y
_atom_site_fract_z
Si Si1 0.835288 0.116225 0.915326
Si Si2 0.667887 0.199419 0.408389
Si Si3 0.432160 0.263570 0.928465
Si Si4 0.466141 0.113073 0.724045
Si Si5 0.835232 0.614727 0.246249
Si Si6 0.374483 0.883951 0.355425
O O1 0.750000 0.126510 0.942499
O O2 0.847212 0.133040 0.776627
O O3 0.856266 0.000000 0.938758
O O4 0.882055 0.193964 0.989528
O O5 0.750000 0.170393 0.374958
O O6 0.606649 0.130791 0.349615
O O7 0.654908 0.309842 0.355624
O O8 0.659076 0.187012 0.546938
O O9 0.464909 0.190002 0.830128
O O10 0.383643 0.343482 0.859557
O O11 0.500000 0.306469 0.000000
O O12 0.538513 0.127883 0.648063
O O13 0.468925 0.000000 0.768927
O O14 0.750000 0.620200 0.214426
O O15 0.852705 0.500000 0.273923
O O16 0.357465 0.000000 0.384988
#
# Coordination Sequence:
#
# PCOD9401166 Si02
#       6
#     8   8   8   8   8   8
#     4  10  20  32  49  77 112 147 179 208 245 300
#     4  10  20  33  52  76 100 131 175 222 262 304
#     4  11  20  33  54  78 104 138 174 216 257 308
#     4  10  20  32  49  74 108 145 177 207 248 301
#     4   9  20  39  59  77  98 128 170 222 275 316
#     4  10  19  32  50  74 109 147 174 201 245 304
#
# _framework density 17.025196999999999
#
# number of rings (size 3 to 8) (size 9 to 14) (size 15 to 20)
#    0.000    2.000    1.667    2.500    0.000    5.000 
#    0.000    0.000    0.000    9.000    0.000    2.333 
#    0.000    0.000    0.000    0.000    0.000    0.000 
#
# Total GULP energy -267806.862109 kJ/mol
# GULP energy per Si atom -5579.309627 kJ/mol
# Density = 1.698645 g / cm^3
# Si number density = 17.025197 Si / 1000 Ang^3
#
#
#
# Elastic Constant Matrix: (Units=GPa)
#
#
# Indices 1 2 3 4 5 6 
#
# 1 73.9537 35.5103 20.8171 0.0000 0.0000 0.0000
# 2 35.5103 73.4007 34.4917 0.0000 0.0000 0.0000
# 3 20.8171 34.4917 69.2237 0.0000 0.0000 0.0000
# 4 0.0000 0.0000 0.0000 15.6499 0.0000 0.0000
# 5 0.0000 0.0000 0.0000 0.0000 20.9386 0.0000
# 6 0.0000 0.0000 0.0000 0.0000 0.0000 19.2007
#
#
#
# Elastic Compliance Matrix: (Units=1/GPa)
#
#
# Indices 1 2 3 4 5 6 
#
# 1 0.017714 -0.007921 -0.001380 0.000000 0.000000 0.000000
# 2 -0.007921 0.021331 -0.008246 0.000000 0.000000 0.000000
# 3 -0.001380 -0.008246 0.018970 0.000000 0.000000 0.000000
# 4 0.000000 0.000000 0.000000 0.063898 0.000000 0.000000
# 5 0.000000 0.000000 0.000000 0.000000 0.047759 0.000000
# 6 0.000000 0.000000 0.000000 0.000000 0.000000 0.052082
#
#
# Mechanical properties :
#
#
# Convention : Reuss Voigt Hill
#
# Bulk Modulus (GPa) = 43.63124 44.24625 43.93875
# Shear Modulus (GPa) = 18.90439 19.54177 19.22308
#
# Velocity S-wave (km/s) = 3.33585 3.39162 3.36385
# Velocity P-wave (km/s) = 6.36555 6.43293 6.39933
#
# Compressibility (1/GPa) = 0.02291936
#
# Stress axis : x y z
#
# Youngs Moduli (GPa) = 56.45250 46.87979 52.71526
#
# Poissons Ratio (x) = 0.37135 0.07275
# Poissons Ratio (y) = 0.44718 0.43471
# Poissons Ratio (z) = 0.07791 0.38659
#
# Static dielectric constant tensor:
#      x y z
#    x 1.601490 0.000000 0.000000 
#    y 0.000000 1.540510 0.000000 
#    z 0.000000 0.000000 1.579920 
# 
# From -- ./inp_files/17277.got.cif
#   From: 2010.05.17/outbox.cif.g08.bks.cpg/sg51_9_cif.got.tgz:17277.got - 2010.06.03 11:52:47.
