data_PCOD9401565
_publ_section_title
;
Structure prediction by ZEFSAII (Michael W. Deem and Ramdas Pophale) SiO2 
 PCOD9401565
Probable space group: P M M A
;
_chemical_formula_sum "Si O2"
_cell_formula_units_Z 64
_cell_length_a 18.239813
_cell_length_b 13.094510
_cell_length_c 16.157031
_cell_angle_alpha 90.000000
_cell_angle_beta 90.000000
_cell_angle_gamma 90.000000
_cell_volume 3858.968126
_symmetry_space_group_name_H-M "P M M A"
_symmetry_group_IT_number 51
_symmetry_cell_setting 'orthorhombic'
loop_
_space_group_symop_operation_xyz
x,y,z
1/2-x,-y,z
1/2+x,-y,-z
-x,y,-z
-x,-y,-z
1/2+x,y,-z
1/2-x,y,z
x,-y,z
loop_
_atom_site_type_symbol
_atom_site_label
_atom_site_fract_x
_atom_site_fract_y
_atom_site_fract_z
Si Si1 0.459426 0.380365 0.088177
Si Si2 0.332121 0.380237 0.491843
Si Si3 0.337060 0.116928 0.944562
Si Si4 0.462298 0.744211 0.414332
Si Si5 0.662681 0.781059 0.879459
Si Si6 0.072058 0.244696 0.813787
Si Si7 0.059259 0.120917 0.258181
Si Si8 0.095221 0.379616 0.666453
O O1 0.449774 0.500000 0.102922
O O2 0.382667 0.320811 0.096496
O O3 0.515312 0.328764 0.151998
O O4 0.500000 0.366476 0.000000
O O5 0.250000 0.346756 0.474012
O O6 0.339616 0.500000 0.471957
O O7 0.391061 0.317392 0.441442
O O8 0.349502 0.370759 0.589466
O O9 0.250000 0.123500 0.928443
O O10 0.379264 0.195709 0.885715
O O11 0.360908 0.000000 0.929910
O O12 0.347953 0.145591 0.040817
O O13 0.500000 0.780602 0.500000
O O14 0.441105 0.831571 0.349865
O O15 0.518717 0.666215 0.369160
O O16 0.750000 0.766005 0.867447
O O17 0.622070 0.829234 0.799945
O O18 0.115293 0.305159 0.742177
O O19 0.019567 0.155900 0.778361
O O20 0.066978 0.000000 0.258135
O O21 0.089069 0.500000 0.688256
#
# Coordination Sequence:
#
# PCOD9401565 Si02
#       8
#     8   8   8   8   8   8   8   8
#     4  10  19  33  53  76 103 136 174 213 256 305
#     4   9  17  30  50  75 100 127 161 202 248 303
#     4  10  20  34  52  72  98 136 178 220 264 305
#     4   9  18  33  52  75 102 133 166 204 256 318
#     4  10  21  37  54  76 106 139 178 221 264 308
#     4  10  19  33  51  76 103 134 172 216 258 304
#     4  10  21  34  53  78 101 132 174 220 267 311
#     4   9  17  30  50  74 102 132 164 203 252 306
#
# _framework density 16.584745000000002
#
# number of rings (size 3 to 8) (size 9 to 14) (size 15 to 20)
#    0.000    2.375    1.250    1.500    0.000    3.750 
#    0.000    2.500    0.000    1.125    0.000    0.000 
#    0.000    0.000    0.000    0.000    0.000    0.000 
#
# Total GULP energy -356709.038326 kJ/mol
# GULP energy per Si atom -5573.578724 kJ/mol
# Density = 1.654700 g / cm^3
# Si number density = 16.584745 Si / 1000 Ang^3
#
#
#
# Elastic Constant Matrix: (Units=GPa)
#
#
# Indices 1 2 3 4 5 6 
#
# 1 69.3761 41.7922 38.2325 0.0000 0.0000 0.0000
# 2 41.7922 100.4061 44.9258 0.0000 0.0000 0.0000
# 3 38.2325 44.9258 88.0299 0.0000 0.0000 0.0000
# 4 0.0000 0.0000 0.0000 22.5625 0.0000 0.0000
# 5 0.0000 0.0000 0.0000 0.0000 10.4128 0.0000
# 6 0.0000 0.0000 0.0000 0.0000 0.0000 15.8531
#
#
#
# Elastic Compliance Matrix: (Units=1/GPa)
#
#
# Indices 1 2 3 4 5 6 
#
# 1 0.021568 -0.006202 -0.006202 0.000000 0.000000 0.000000
# 2 -0.006202 0.014690 -0.004803 0.000000 0.000000 0.000000
# 3 -0.006202 -0.004803 0.016505 0.000000 0.000000 0.000000
# 4 0.000000 0.000000 0.000000 0.044321 0.000000 0.000000
# 5 0.000000 0.000000 0.000000 0.000000 0.096036 0.000000
# 6 0.000000 0.000000 0.000000 0.000000 0.000000 0.063079
#
#
# Mechanical properties :
#
#
# Convention : Reuss Voigt Hill
#
# Bulk Modulus (GPa) = 54.50220 56.41256 55.45738
# Shear Modulus (GPa) = 16.85023 18.62311 17.73667
#
# Velocity S-wave (km/s) = 3.19095 3.35461 3.27380
# Velocity P-wave (km/s) = 6.81985 7.00665 6.91388
#
# Compressibility (1/GPa) = 0.01834788
#
# Stress axis : x y z
#
# Youngs Moduli (GPa) = 46.36410 68.07145 60.58822
#
# Poissons Ratio (x) = 0.42221 0.37577
# Poissons Ratio (y) = 0.28757 0.29103
# Poissons Ratio (z) = 0.28755 0.32698
#
# Static dielectric constant tensor:
#      x y z
#    x 1.541750 0.000000 0.000000 
#    y 0.000000 1.534140 0.000000 
#    z 0.000000 0.000000 1.577670 
# 
# From -- ./inp_files/25208.got.cif
#   From: 2010.05.17/outbox.cif.g08.bks.cpg/sg51_13_cif.got.tgz:25208.got - 2010.06.03 11:52:47.
