data_PCOD9401932
_publ_section_title
;
Structure prediction by ZEFSAII (Michael W. Deem and Ramdas Pophale) SiO2 
 PCOD9401932
Probable space group: P M M A
;
_chemical_formula_sum "Si O2"
_cell_formula_units_Z 64
_cell_length_a 24.062817
_cell_length_b 14.354582
_cell_length_c 9.798662
_cell_angle_alpha 90.000000
_cell_angle_beta 90.000000
_cell_angle_gamma 90.000000
_cell_volume 3384.572301
_symmetry_space_group_name_H-M "P M M A"
_symmetry_group_IT_number 51
_symmetry_cell_setting 'orthorhombic'
loop_
_space_group_symop_operation_xyz
x,y,z
1/2-x,-y,z
1/2+x,-y,-z
-x,y,-z
-x,-y,-z
1/2+x,y,-z
1/2-x,y,z
x,-y,z
loop_
_atom_site_type_symbol
_atom_site_label
_atom_site_fract_x
_atom_site_fract_y
_atom_site_fract_z
Si Si1 0.007925 0.389271 0.337359
Si Si2 0.451415 0.100251 0.892715
Si Si3 0.382842 0.389524 0.754147
Si Si4 0.317554 0.272311 0.539780
Si Si5 0.111770 0.742608 0.270753
Si Si6 0.141901 0.762821 0.961639
Si Si7 0.472565 0.106583 0.365495
Si Si8 0.185307 0.106363 0.736120
O O1 0.017247 0.500000 0.317882
O O2 0.061007 0.332557 0.280440
O O3 0.000000 0.373518 0.500000
O O4 0.948200 0.365225 0.269560
O O5 0.416276 0.189462 0.925189
O O6 0.478528 0.104907 0.745226
O O7 0.422262 0.000000 0.912217
O O8 0.500000 0.099564 0.000000
O O9 0.379487 0.500000 0.768988
O O10 0.346750 0.354418 0.625578
O O11 0.357254 0.334661 0.882618
O O12 0.250000 0.277903 0.541313
O O13 0.343314 0.273695 0.389349
O O14 0.336732 0.177969 0.621126
O O15 0.079054 0.837822 0.305511
O O16 0.141581 0.749646 0.123772
O O17 0.179927 0.838582 0.881033
O O18 0.500000 0.149822 0.500000
O O19 0.456140 0.000000 0.395439
O O20 0.250000 0.098992 0.707496
O O21 0.163479 0.000000 0.729952
#
# Coordination Sequence:
#
# PCOD9401932 Si02
#       8
#     8   8   8   8   8   8   8   8
#     4  10  20  36  60  88 118 151 194 239 292 352
#     4  10  19  34  52  76 117 159 195 231 277 341
#     4  10  22  41  64  88 115 153 196 242 289 349
#     4  10  23  41  63  89 113 149 197 246 297 348
#     4  12  23  36  58  86 125 157 186 241 297 351
#     4  11  23  35  57  88 120 157 194 233 290 359
#     4  10  22  34  50  81 118 157 199 240 283 337
#     4   9  20  41  64  84 110 150 202 250 289 337
#
# _framework density 18.909331999999999
#
# number of rings (size 3 to 8) (size 9 to 14) (size 15 to 20)
#    0.000    1.750    2.500    1.500    3.500    2.250 
#    0.000    1.250    0.000    1.500    0.000    1.750 
#    0.000    0.000    0.000    0.000    0.000    0.000 
#
# Total GULP energy -356713.287350 kJ/mol
# GULP energy per Si atom -5573.645115 kJ/mol
# Density = 1.886629 g / cm^3
# Si number density = 18.909332 Si / 1000 Ang^3
#
#
#
# Elastic Constant Matrix: (Units=GPa)
#
#
# Indices 1 2 3 4 5 6 
#
# 1 51.7843 24.3542 13.0182 0.0000 0.0000 0.0000
# 2 24.3542 105.8610 28.5535 0.0000 0.0000 0.0000
# 3 13.0182 28.5535 128.9713 0.0000 0.0000 0.0000
# 4 0.0000 0.0000 0.0000 14.8546 0.0000 0.0000
# 5 0.0000 0.0000 0.0000 0.0000 19.7729 0.0000
# 6 0.0000 0.0000 0.0000 0.0000 0.0000 24.4025
#
#
#
# Elastic Compliance Matrix: (Units=1/GPa)
#
#
# Indices 1 2 3 4 5 6 
#
# 1 0.021816 -0.004706 -0.001160 0.000000 0.000000 0.000000
# 2 -0.004706 0.011061 -0.001974 0.000000 0.000000 0.000000
# 3 -0.001160 -0.001974 0.008308 0.000000 0.000000 0.000000
# 4 0.000000 0.000000 0.000000 0.067319 0.000000 0.000000
# 5 0.000000 0.000000 0.000000 0.000000 0.050574 0.000000
# 6 0.000000 0.000000 0.000000 0.000000 0.000000 0.040979
#
#
# Mechanical properties :
#
#
# Convention : Reuss Voigt Hill
#
# Bulk Modulus (GPa) = 39.20828 46.49650 42.85239
# Shear Modulus (GPa) = 22.29757 26.51871 24.40814
#
# Velocity S-wave (km/s) = 3.43765 3.74894 3.59667
# Velocity P-wave (km/s) = 6.04454 6.58650 6.32133
#
# Compressibility (1/GPa) = 0.02550482
#
# Stress axis : x y z
#
# Youngs Moduli (GPa) = 45.83846 90.40439 120.36904
#
# Poissons Ratio (x) = 0.42544 0.13965
# Poissons Ratio (y) = 0.21571 0.23760
# Poissons Ratio (z) = 0.05318 0.17845
#
# Static dielectric constant tensor:
#      x y z
#    x 1.645420 0.000000 0.000000 
#    y 0.000000 1.701420 0.000000 
#    z 0.000000 0.000000 1.727940 
# 
# From -- ./inp_files/11873.got.cif
#   From: 2010.05.17/outbox.cif.g08.bks.cpg/sg51_6_cif.got.tgz:11873.got - 2010.06.03 11:52:47.
