data_PCOD9401011
_publ_section_title
;
Structure prediction by ZEFSAII (Michael W. Deem and Ramdas Pophale) SiO2 
 PCOD9401011
Probable space group: P M M A
;
_chemical_formula_sum "Si O2"
_cell_formula_units_Z 64
_cell_length_a 24.593646
_cell_length_b 9.099358
_cell_length_c 16.240261
_cell_angle_alpha 90.000000
_cell_angle_beta 90.000000
_cell_angle_gamma 90.000000
_cell_volume 3634.349373
_symmetry_space_group_name_H-M "P M M A"
_symmetry_group_IT_number 51
_symmetry_cell_setting 'orthorhombic'
loop_
_space_group_symop_operation_xyz
x,y,z
1/2-x,-y,z
1/2+x,-y,-z
-x,y,-z
-x,-y,-z
1/2+x,y,-z
1/2-x,y,z
x,-y,z
loop_
_atom_site_type_symbol
_atom_site_label
_atom_site_fract_x
_atom_site_fract_y
_atom_site_fract_z
Si Si1 0.523681 0.176711 0.280170
Si Si2 0.891811 0.670969 0.394942
Si Si3 0.938898 0.676189 0.974991
Si Si4 0.917083 0.676287 0.785432
Si Si5 0.312686 0.331591 0.761340
Si Si6 0.811918 0.173799 0.713810
Si Si7 0.188342 0.174246 0.483469
Si Si8 0.105691 0.173325 0.869101
O O1 0.556351 0.242947 0.358007
O O2 0.464569 0.246603 0.267450
O O3 0.558882 0.216035 0.197793
O O4 0.521207 0.000000 0.285985
O O5 0.905121 0.500000 0.409631
O O6 0.847313 0.678923 0.321778
O O7 0.860502 0.742572 0.471559
O O8 0.935185 0.500000 0.980721
O O9 0.926185 0.717686 0.881275
O O10 0.901723 0.747725 0.044314
O O11 0.000000 0.720208 0.000000
O O12 0.921775 0.500000 0.778301
O O13 0.858488 0.732090 0.756369
O O14 0.250000 0.301576 0.745094
O O15 0.318343 0.500000 0.791471
O O16 0.338675 0.222253 0.826547
O O17 0.750000 0.212811 0.738185
O O18 0.815539 0.191734 0.614936
O O19 0.819868 0.000000 0.731082
O O20 0.250000 0.222898 0.507984
O O21 0.184617 0.000000 0.501969
O O22 0.102479 0.000000 0.879897
#
# Coordination Sequence:
#
# PCOD9401011 Si02
#       8
#     8   8   8   8   8   8   8   8
#     4  10  20  34  52  77 111 147 179 215 266 323
#     4  10  19  31  51  80 112 142 180 226 269 313
#     4  10  20  35  55  78 107 140 175 214 264 322
#     4  11  22  36  58  85 109 138 178 224 271 320
#     4   9  18  32  49  70 103 146 181 211 259 319
#     4   9  20  40  62  82 108 143 179 219 271 325
#     4   9  18  34  56  80 107 142 183 223 267 322
#     4  10  20  32  50  77 105 135 176 223 263 304
#
# _framework density 17.609753999999999
#
# number of rings (size 3 to 8) (size 9 to 14) (size 15 to 20)
#    0.000    2.250    1.250    2.625    0.000    4.500 
#    0.000    2.500    0.000    4.500    0.000    0.000 
#    0.000    0.000    0.000    0.000    0.000    0.000 
#
# Total GULP energy -357033.472075 kJ/mol
# GULP energy per Si atom -5578.648001 kJ/mol
# Density = 1.756967 g / cm^3
# Si number density = 17.609754 Si / 1000 Ang^3
#
#
#
# Elastic Constant Matrix: (Units=GPa)
#
#
# Indices 1 2 3 4 5 6 
#
# 1 97.1018 45.1703 32.1464 0.0000 0.0000 0.0000
# 2 45.1703 48.7080 32.8375 0.0000 0.0000 0.0000
# 3 32.1464 32.8375 47.1078 0.0000 0.0000 0.0000
# 4 0.0000 0.0000 0.0000 24.1782 0.0000 0.0000
# 5 0.0000 0.0000 0.0000 0.0000 26.6890 0.0000
# 6 0.0000 0.0000 0.0000 0.0000 0.0000 29.8099
#
#
#
# Elastic Compliance Matrix: (Units=1/GPa)
#
#
# Indices 1 2 3 4 5 6 
#
# 1 0.018150 -0.016001 -0.001231 0.000000 0.000000 0.000000
# 2 -0.016001 0.052840 -0.025914 0.000000 0.000000 0.000000
# 3 -0.001231 -0.025914 0.040132 0.000000 0.000000 0.000000
# 4 0.000000 0.000000 0.000000 0.041360 0.000000 0.000000
# 5 0.000000 0.000000 0.000000 0.000000 0.037469 0.000000
# 6 0.000000 0.000000 0.000000 0.000000 0.000000 0.033546
#
#
# Mechanical properties :
#
#
# Convention : Reuss Voigt Hill
#
# Bulk Modulus (GPa) = 40.27617 45.91401 43.09509
# Shear Modulus (GPa) = 15.72001 21.65298 18.68649
#
# Velocity S-wave (km/s) = 2.99103 3.51037 3.26106
# Velocity P-wave (km/s) = 5.90335 6.52380 6.22131
#
# Compressibility (1/GPa) = 0.02482858
#
# Stress axis : x y z
#
# Youngs Moduli (GPa) = 55.09738 18.92494 24.91768
#
# Poissons Ratio (x) = 0.30283 0.03068
# Poissons Ratio (y) = 0.88164 0.64572
# Poissons Ratio (z) = 0.06784 0.49042
#
# Static dielectric constant tensor:
#      x y z
#    x 1.595560 0.000000 0.000000 
#    y 0.000000 1.591680 0.000000 
#    z 0.000000 0.000000 1.588110 
# 
# From -- ./inp_files/26305.got.cif
#   From: 2010.05.17/outbox.cif.g08.bks.cpg/sg51_14_cif.got.tgz:26305.got - 2010.06.03 11:52:47.
