data_PCOD9401892
_publ_section_title
;
Structure prediction by ZEFSAII (Michael W. Deem and Ramdas Pophale) SiO2 
 PCOD9401892
Probable space group: P M M A
;
_chemical_formula_sum "Si O2"
_cell_formula_units_Z 56
_cell_length_a 8.565253
_cell_length_b 15.422443
_cell_length_c 20.967108
_cell_angle_alpha 90.000000
_cell_angle_beta 90.000000
_cell_angle_gamma 90.000000
_cell_volume 2769.694711
_symmetry_space_group_name_H-M "P M M A"
_symmetry_group_IT_number 51
_symmetry_cell_setting 'orthorhombic'
loop_
_space_group_symop_operation_xyz
x,y,z
1/2-x,-y,z
1/2+x,-y,-z
-x,y,-z
-x,-y,-z
1/2+x,y,-z
1/2-x,y,z
x,-y,z
loop_
_atom_site_type_symbol
_atom_site_label
_atom_site_fract_x
_atom_site_fract_y
_atom_site_fract_z
Si Si1 0.062205 0.214350 0.566536
Si Si2 0.574210 0.399824 0.262101
Si Si3 0.940187 0.101618 0.309135
Si Si4 0.429295 0.666836 0.142162
Si Si5 0.562220 0.402781 0.596696
Si Si6 0.935427 0.500000 0.071101
Si Si7 0.563291 0.848249 0.165771
Si Si8 0.939301 0.000000 0.072013
O O1 0.250000 0.215735 0.565808
O O2 0.011570 0.161689 0.630540
O O3 0.000000 0.174769 0.500000
O O4 0.001096 0.313623 0.567606
O O5 0.750000 0.361849 0.257260
O O6 0.584271 0.500000 0.241766
O O7 0.452179 0.354370 0.216694
O O8 0.513363 0.399497 0.333336
O O9 0.750000 0.103647 0.308938
O O10 0.992856 0.135728 0.238984
O O11 0.985523 0.000000 0.316370
O O12 0.250000 0.674969 0.124371
O O13 0.504010 0.586542 0.105388
O O14 0.517883 0.756605 0.136159
O O15 0.750000 0.399058 0.598516
O O16 0.520187 0.500000 0.571329
O O17 0.750000 0.500000 0.071917
O O18 0.000000 0.500000 0.000000
O O19 0.750000 0.855174 0.169762
O O20 0.508163 0.919178 0.115139
O O21 0.750000 0.000000 0.069344
O O22 0.000000 0.000000 0.000000
#
# Coordination Sequence:
#
# PCOD9401892 Si02
#       8
#     8   8   8   8   8   4   8   4
#     4  11  23  38  59  87 122 163 207 260 320 386
#     4  10  19  33  56  85 118 157 202 250 303 363
#     4   9  18  37  66  94 119 154 208 265 319 376
#     4  12  24  38  60  91 127 166 209 260 313 368
#     4  10  21  37  58  85 120 160 204 259 317 371
#     4  12  26  46  66  88 122 168 217 264 315 376
#     4  10  20  39  67  96 124 163 215 267 320 376
#     4  10  22  40  66  96 129 166 204 256 317 382
#
# _framework density 20.218833
#
# number of rings (size 3 to 8) (size 9 to 14) (size 15 to 20)
#    0.000    1.571    1.429    4.071    0.000    4.286 
#    0.000    2.143    0.000    3.000    0.000    0.000 
#    0.000    0.000    0.000    0.000    0.000    0.000 
#
# Total GULP energy -312546.776755 kJ/mol
# GULP energy per Si atom -5581.192442 kJ/mol
# Density = 2.017281 g / cm^3
# Si number density = 20.218833 Si / 1000 Ang^3
#
#
#
# Elastic Constant Matrix: (Units=GPa)
#
#
# Indices 1 2 3 4 5 6 
#
# 1 25.9022 4.8705 23.8079 0.0000 0.0000 0.0000
# 2 4.8705 141.6487 75.7934 0.0000 0.0000 0.0000
# 3 23.8079 75.7934 145.8492 0.0000 0.0000 0.0000
# 4 0.0000 0.0000 0.0000 22.9514 0.0000 0.0000
# 5 0.0000 0.0000 0.0000 0.0000 29.3631 0.0000
# 6 0.0000 0.0000 0.0000 0.0000 0.0000 78.2628
#
#
#
# Elastic Compliance Matrix: (Units=1/GPa)
#
#
# Indices 1 2 3 4 5 6 
#
# 1 0.046586 0.003417 -0.009380 0.000000 0.000000 0.000000
# 2 0.003417 0.010030 -0.005770 0.000000 0.000000 0.000000
# 3 -0.009380 -0.005770 0.011386 0.000000 0.000000 0.000000
# 4 0.000000 0.000000 0.000000 0.043570 0.000000 0.000000
# 5 0.000000 0.000000 0.000000 0.000000 0.034056 0.000000
# 6 0.000000 0.000000 0.000000 0.000000 0.000000 0.012777
#
#
# Mechanical properties :
#
#
# Convention : Reuss Voigt Hill
#
# Bulk Modulus (GPa) = 22.45380 58.03819 40.24599
# Shear Modulus (GPa) = 25.41723 40.04404 32.73063
#
# Velocity S-wave (km/s) = 3.54942 4.45514 4.02782
# Velocity P-wave (km/s) = 5.28463 7.43181 6.44822
#
# Compressibility (1/GPa) = 0.04453589
#
# Stress axis : x y z
#
# Youngs Moduli (GPa) = 21.46562 99.70504 87.82648
#
# Poissons Ratio (x) = -0.34074 0.82386
# Poissons Ratio (y) = -0.07336 0.50675
# Poissons Ratio (z) = 0.20136 0.57529
#
# Static dielectric constant tensor:
#      x y z
#    x 1.695870 0.000000 0.000000 
#    y 0.000000 1.746260 0.000000 
#    z 0.000000 0.000000 1.757940 
# 
# From -- ./inp_files/32080.got.cif
#   From: 2010.05.17/outbox.cif.g08.bks.cpg/sg51_17_cif.got.tgz:32080.got - 2010.06.03 11:52:47.
