data_PCOD9401516
_publ_section_title
;
Structure prediction by ZEFSAII (Michael W. Deem and Ramdas Pophale) SiO2 
 PCOD9401516
Probable space group: P M M A
;
_chemical_formula_sum "Si O2"
_cell_formula_units_Z 58
_cell_length_a 23.796942
_cell_length_b 7.511141
_cell_length_c 14.639900
_cell_angle_alpha 90.000000
_cell_angle_beta 90.000000
_cell_angle_gamma 90.000000
_cell_volume 2616.767740
_symmetry_space_group_name_H-M "P M M A"
_symmetry_group_IT_number 51
_symmetry_cell_setting 'orthorhombic'
loop_
_space_group_symop_operation_xyz
x,y,z
1/2-x,-y,z
1/2+x,-y,-z
-x,y,-z
-x,-y,-z
1/2+x,y,-z
1/2-x,y,z
x,-y,z
loop_
_atom_site_type_symbol
_atom_site_label
_atom_site_fract_x
_atom_site_fract_y
_atom_site_fract_z
Si Si1 0.313756 0.283576 0.671833
Si Si2 0.391465 0.199385 0.209900
Si Si3 0.610449 0.285497 0.167032
Si Si4 0.250000 0.500000 0.440987
Si Si5 0.920845 0.796058 0.452994
Si Si6 0.937962 0.791595 0.975975
Si Si7 0.505402 0.704169 0.291224
Si Si8 0.844862 0.781050 0.607189
O O1 0.250000 0.225165 0.653573
O O2 0.314154 0.500000 0.664594
O O3 0.335171 0.233928 0.773635
O O4 0.362412 0.216883 0.604628
O O5 0.407648 0.286222 0.113488
O O6 0.450084 0.191112 0.265231
O O7 0.349472 0.272719 0.286274
O O8 0.370606 0.000000 0.190028
O O9 0.610022 0.500000 0.164739
O O10 0.556183 0.229404 0.226362
O O11 0.601029 0.221063 0.064819
O O12 0.298100 0.341914 0.437340
O O13 0.902157 0.734576 0.552596
O O14 0.968799 0.707742 0.392514
O O15 0.937556 0.000000 0.459557
O O16 0.947770 0.000000 0.953752
O O17 0.000000 0.716211 0.000000
O O18 0.493438 0.500000 0.267145
O O19 0.837359 0.000000 0.600664
#
# Coordination Sequence:
#
# PCOD9401516 Si02
#       8
#     8   8   8   2   8   8   8   8
#     4   9  19  34  55  79 112 149 191 240 298 355
#     4  10  21  39  59  84 122 157 192 246 299 355
#     4   9  18  32  49  80 116 151 184 239 296 347
#     4  12  26  44  76  84 114 158 210 266 314 338
#     4  10  21  36  55  84 120 157 195 239 296 355
#     4  10  19  32  56  84 110 149 195 235 290 355
#     4  10  20  33  55  85 124 157 193 234 289 360
#     4  10  25  44  64  93 122 156 206 255 308 362
#
# _framework density 22.164747999999999
#
# number of rings (size 3 to 8) (size 9 to 14) (size 15 to 20)
#    0.000    2.207    1.379    1.862    3.862    3.862 
#    0.000    2.759    1.517    0.000    0.000    0.000 
#    0.000    0.000    0.000    0.000    0.000    0.000 
#
# Total GULP energy -323174.298842 kJ/mol
# GULP energy per Si atom -5571.970670 kJ/mol
# Density = 2.211430 g / cm^3
# Si number density = 22.164748 Si / 1000 Ang^3
#
#
#
# Elastic Constant Matrix: (Units=GPa)
#
#
# Indices 1 2 3 4 5 6 
#
# 1 62.9887 8.5099 6.4036 0.0000 0.0000 0.0000
# 2 8.5099 71.0146 -0.4421 0.0000 0.0000 0.0000
# 3 6.4036 -0.4421 130.5376 0.0000 0.0000 0.0000
# 4 0.0000 0.0000 0.0000 -3.6879 0.0000 0.0000
# 5 0.0000 0.0000 0.0000 0.0000 3.0533 0.0000
# 6 0.0000 0.0000 0.0000 0.0000 0.0000 34.2374
#
#
#
# Elastic Compliance Matrix: (Units=1/GPa)
#
#
# Indices 1 2 3 4 5 6 
#
# 1 0.016221 -0.001949 -0.000802 0.000000 0.000000 0.000000
# 2 -0.001949 0.014316 0.000144 0.000000 0.000000 0.000000
# 3 -0.000802 0.000144 0.007700 0.000000 0.000000 0.000000
# 4 0.000000 0.000000 0.000000 -0.271159 0.000000 0.000000
# 5 0.000000 0.000000 0.000000 0.000000 0.327510 0.000000
# 6 0.000000 0.000000 0.000000 0.000000 0.000000 0.029208
#
#
# Mechanical properties :
#
#
# Convention : Reuss Voigt Hill
#
# Bulk Modulus (GPa) = 30.28174 32.60931 31.44553
# Shear Modulus (GPa) = 35.70973 23.39188 29.55081
#
# Velocity S-wave (km/s) = 4.01821 3.25216 3.65531
# Velocity P-wave (km/s) = 5.93463 5.37087 5.65977
#
# Compressibility (1/GPa) = 0.03302320
#
# Stress axis : x y z
#
# Youngs Moduli (GPa) = 61.64960 69.85180 129.86215
#
# Poissons Ratio (x) = 0.13612 0.10419
# Poissons Ratio (y) = 0.12014 -0.01871
# Poissons Ratio (z) = 0.04946 -0.01006
#
# Static dielectric constant tensor:
#      x y z
#    x 1.748170 0.000000 0.000000 
#    y 0.000000 1.845840 0.000000 
#    z 0.000000 0.000000 1.874750 
# 
# From -- ./inp_files/26112.got.cif
#   From: 2010.05.17/outbox.cif.g08.bks.cpg/sg51_14_cif.got.tgz:26112.got - 2010.06.03 11:52:47.
