data_PCOD9401348
_publ_section_title
;
Structure prediction by ZEFSAII (Michael W. Deem and Ramdas Pophale) SiO2 
 PCOD9401348
Probable space group: P M M A
;
_chemical_formula_sum "Si O2"
_cell_formula_units_Z 48
_cell_length_a 8.222270
_cell_length_b 32.460742
_cell_length_c 9.338413
_cell_angle_alpha 90.000000
_cell_angle_beta 90.000000
_cell_angle_gamma 90.000000
_cell_volume 2492.431629
_symmetry_space_group_name_H-M "P M M A"
_symmetry_group_IT_number 51
_symmetry_cell_setting 'orthorhombic'
loop_
_space_group_symop_operation_xyz
x,y,z
1/2-x,-y,z
1/2+x,-y,-z
-x,y,-z
-x,-y,-z
1/2+x,y,-z
1/2-x,y,z
x,-y,z
loop_
_atom_site_type_symbol
_atom_site_label
_atom_site_fract_x
_atom_site_fract_y
_atom_site_fract_z
Si Si1 0.556070 0.786091 0.163418
Si Si2 0.946554 0.625389 0.163272
Si Si3 0.946476 0.955806 0.666269
Si Si4 0.555114 0.865883 0.665190
Si Si5 0.946705 0.706003 0.335972
Si Si6 0.553495 0.453786 0.336867
O O1 0.750000 0.784146 0.165001
O O2 0.504648 0.828171 0.240281
O O3 0.493714 0.746595 0.252356
O O4 0.500000 0.784612 0.000000
O O5 0.750000 0.625168 0.167410
O O6 0.002859 0.664652 0.255457
O O7 0.004906 0.582770 0.234706
O O8 0.000000 0.629016 0.000000
O O9 0.750000 0.955893 0.672131
O O10 0.002330 0.911066 0.720937
O O11 0.000000 0.955979 0.500000
O O12 0.003296 0.000000 0.728533
O O13 0.500000 0.861157 0.500000
O O14 0.750000 0.865808 0.666146
O O15 0.750000 0.706172 0.332557
O O16 0.000000 0.706500 0.500000
O O17 0.500000 0.445974 0.500000
O O18 0.750000 0.453847 0.333635
O O19 0.497507 0.500000 0.296874
#
# Coordination Sequence:
#
# PCOD9401348 Si02
#       6
#     8   8   8   8   8   8
#     4  11  23  38  55  76 103 135 172 213 260 311
#     4  10  21  36  53  77 108 139 173 212 256 306
#     4   8  14  25  43  69 100 132 166 206 251 297
#     4  10  19  32  52  78 107 138 173 213 256 304
#     4  10  22  38  57  80 104 133 170 212 256 305
#     4   9  18  33  53  77 105 137 175 218 260 304
#
# _framework density 19.258300999999999
#
# number of rings (size 3 to 8) (size 9 to 14) (size 15 to 20)
#    0.000    2.333    0.000    2.500    0.000    5.000 
#    0.000    0.000    0.000    0.500    0.000    0.000 
#    0.000    0.000    0.000    0.000    0.000    0.000 
#
# Total GULP energy -267767.309782 kJ/mol
# GULP energy per Si atom -5578.485620 kJ/mol
# Density = 1.921447 g / cm^3
# Si number density = 19.258301 Si / 1000 Ang^3
#
#
#
# Elastic Constant Matrix: (Units=GPa)
#
#
# Indices 1 2 3 4 5 6 
#
# 1 15.8587 23.7229 11.3498 0.0000 0.0000 0.0000
# 2 23.7229 226.9014 120.8784 0.0000 0.0000 0.0000
# 3 11.3498 120.8784 135.9607 0.0000 0.0000 0.0000
# 4 0.0000 0.0000 0.0000 -4.9834 0.0000 0.0000
# 5 0.0000 0.0000 0.0000 0.0000 31.2579 0.0000
# 6 0.0000 0.0000 0.0000 0.0000 0.0000 14.9867
#
#
#
# Elastic Compliance Matrix: (Units=1/GPa)
#
#
# Indices 1 2 3 4 5 6 
#
# 1 0.074877 -0.008547 0.001348 0.000000 0.000000 0.000000
# 2 -0.008547 0.009348 -0.007598 0.000000 0.000000 0.000000
# 3 0.001348 -0.007598 0.013998 0.000000 0.000000 0.000000
# 4 0.000000 0.000000 0.000000 -0.200668 0.000000 0.000000
# 5 0.000000 0.000000 0.000000 0.000000 0.031992 0.000000
# 6 0.000000 0.000000 0.000000 0.000000 0.000000 0.066726
#
#
# Mechanical properties :
#
#
# Convention : Reuss Voigt Hill
#
# Bulk Modulus (GPa) = 14.57091 76.73591 45.65341
# Shear Modulus (GPa) = 102.57853 23.10355 62.84104
#
# Velocity S-wave (km/s) = 7.30618 3.46738 5.71852
# Velocity P-wave (km/s) = 8.87446 7.48080 8.20727
#
# Compressibility (1/GPa) = 0.06862989
#
# Stress axis : x y z
#
# Youngs Moduli (GPa) = 13.35521 106.96929 71.44039
#
# Poissons Ratio (x) = 0.91422 -0.09629
# Poissons Ratio (y) = 0.11414 0.54280
# Poissons Ratio (z) = -0.01800 0.81275
#
# Static dielectric constant tensor:
#      x y z
#    x 1.685960 0.000000 0.000000 
#    y 0.000000 1.725910 0.000000 
#    z 0.000000 0.000000 1.605190 
# 
# From -- ./inp_files/5942.got.cif
#   From: 2010.05.17/outbox.cif.g08.bks.cpg/sg51_3_cif.got.tgz:5942.got - 2010.06.03 11:52:47.
