data_PCOD9401103
_publ_section_title
;
Structure prediction by ZEFSAII (Michael W. Deem and Ramdas Pophale) SiO2 
 PCOD9401103
Probable space group: P M M A
;
_chemical_formula_sum "Si O2"
_cell_formula_units_Z 64
_cell_length_a 8.988956
_cell_length_b 23.970947
_cell_length_c 19.736328
_cell_angle_alpha 90.000000
_cell_angle_beta 90.000000
_cell_angle_gamma 90.000000
_cell_volume 4252.661353
_symmetry_space_group_name_H-M "P M M A"
_symmetry_group_IT_number 51
_symmetry_cell_setting 'orthorhombic'
loop_
_space_group_symop_operation_xyz
x,y,z
1/2-x,-y,z
1/2+x,-y,-z
-x,y,-z
-x,-y,-z
1/2+x,y,-z
1/2-x,y,z
x,-y,z
loop_
_atom_site_type_symbol
_atom_site_label
_atom_site_fract_x
_atom_site_fract_y
_atom_site_fract_z
Si Si1 0.072646 0.435159 0.073111
Si Si2 0.427179 0.935066 0.293145
Si Si3 0.072700 0.754436 0.570026
Si Si4 0.071426 0.224317 0.926980
Si Si5 0.570601 0.158764 0.205078
Si Si6 0.072734 0.887726 0.571181
Si Si7 0.070435 0.337109 0.845774
Si Si8 0.569361 0.271957 0.284133
O O1 0.250000 0.428468 0.068260
O O2 0.040319 0.500000 0.089398
O O3 0.005464 0.392434 0.126833
O O4 0.000000 0.423132 0.000000
O O5 0.250000 0.927070 0.298090
O O6 0.493257 0.895423 0.235014
O O7 0.501601 0.917599 0.364297
O O8 0.457433 0.000000 0.279634
O O9 0.250000 0.747208 0.565247
O O10 0.045677 0.821006 0.578035
O O11 0.017146 0.725016 0.638622
O O12 0.000000 0.735918 0.500000
O O13 0.250000 0.223137 0.932884
O O14 0.029672 0.177907 0.870881
O O15 0.032643 0.284674 0.894681
O O16 0.000000 0.216705 0.000000
O O17 0.750000 0.152515 0.208225
O O18 0.530634 0.211621 0.252743
O O19 0.250000 0.896519 0.569775
O O20 0.000000 0.905635 0.500000
O O21 0.250000 0.342974 0.846849
O O22 0.023334 0.318346 0.770248
O O23 0.750000 0.273126 0.285435
#
# Coordination Sequence:
#
# PCOD9401103 Si02
#       8
#     8   8   8   8   8   8   8   8
#     4  10  20  32  45  63  92 129 165 197 226 259
#     4  11  23  35  47  66  90 114 145 187 229 270
#     4   9  16  27  44  65  90 119 148 179 216 263
#     4   9  18  30  48  72  96 118 144 181 227 273
#     4   9  17  33  51  66  86 116 149 179 219 274
#     4  10  19  32  50  68  89 118 150 184 220 264
#     4   9  17  29  47  69  94 123 155 190 223 263
#     4   8  14  28  47  66  90 119 148 182 226 267
#
# _framework density 15.0494
#
# number of rings (size 3 to 8) (size 9 to 14) (size 15 to 20)
#    0.000    2.625    1.250    3.000    0.000    4.500 
#    0.000    2.500    0.000    0.375    0.000    0.000 
#    0.000    0.500    0.000    1.125    0.000    2.000 
#
# Total GULP energy -356743.429713 kJ/mol
# GULP energy per Si atom -5574.116089 kJ/mol
# Density = 1.501515 g / cm^3
# Si number density = 15.049400 Si / 1000 Ang^3
#
#
#
# Elastic Constant Matrix: (Units=GPa)
#
#
# Indices 1 2 3 4 5 6 
#
# 1 31.7538 41.8664 44.2386 0.0000 0.0000 0.0000
# 2 41.8664 82.7813 68.4886 0.0000 0.0000 0.0000
# 3 44.2386 68.4886 153.0620 0.0000 0.0000 0.0000
# 4 0.0000 0.0000 0.0000 25.6565 0.0000 0.0000
# 5 0.0000 0.0000 0.0000 0.0000 27.9222 0.0000
# 6 0.0000 0.0000 0.0000 0.0000 0.0000 21.8912
#
#
#
# Elastic Compliance Matrix: (Units=1/GPa)
#
#
# Indices 1 2 3 4 5 6 
#
# 1 0.103909 -0.043990 -0.010349 0.000000 0.000000 0.000000
# 2 -0.043990 0.037804 -0.004201 0.000000 0.000000 0.000000
# 3 -0.010349 -0.004201 0.011404 0.000000 0.000000 0.000000
# 4 0.000000 0.000000 0.000000 0.038977 0.000000 0.000000
# 5 0.000000 0.000000 0.000000 0.000000 0.035814 0.000000
# 6 0.000000 0.000000 0.000000 0.000000 0.000000 0.045680
#
#
# Mechanical properties :
#
#
# Convention : Reuss Voigt Hill
#
# Bulk Modulus (GPa) = 27.74911 64.08715 45.91813
# Shear Modulus (GPa) = 12.41684 22.62755 17.52219
#
# Velocity S-wave (km/s) = 2.87552 3.88177 3.41590
# Velocity P-wave (km/s) = 5.43172 7.92262 6.79233
#
# Compressibility (1/GPa) = 0.03603719
#
# Stress axis : x y z
#
# Youngs Moduli (GPa) = 9.62385 26.45246 87.68643
#
# Poissons Ratio (x) = 1.16363 0.90743
# Poissons Ratio (y) = 0.42335 0.36841
# Poissons Ratio (z) = 0.09959 0.11114
#
# Static dielectric constant tensor:
#      x y z
#    x 1.503030 0.000000 0.000000 
#    y 0.000000 1.481400 0.000000 
#    z 0.000000 0.000000 1.504390 
# 
# From -- ./inp_files/32605.got.cif
#   From: 2010.05.17/outbox.cif.g08.bks.cpg/sg51_17_cif.got.tgz:32605.got - 2010.06.03 11:52:47.
