data_PCOD9401326
_publ_section_title
;
Structure prediction by ZEFSAII (Michael W. Deem and Ramdas Pophale) SiO2 
 PCOD9401326
Probable space group: P M M A
;
_chemical_formula_sum "Si O2"
_cell_formula_units_Z 52
_cell_length_a 8.798173
_cell_length_b 23.600284
_cell_length_c 14.686892
_cell_angle_alpha 90.000000
_cell_angle_beta 90.000000
_cell_angle_gamma 90.000000
_cell_volume 3049.577171
_symmetry_space_group_name_H-M "P M M A"
_symmetry_group_IT_number 51
_symmetry_cell_setting 'orthorhombic'
loop_
_space_group_symop_operation_xyz
x,y,z
1/2-x,-y,z
1/2+x,-y,-z
-x,y,-z
-x,-y,-z
1/2+x,y,-z
1/2-x,y,z
x,-y,z
loop_
_atom_site_type_symbol
_atom_site_label
_atom_site_fract_x
_atom_site_fract_y
_atom_site_fract_z
Si Si1 0.433508 0.500000 0.601286
Si Si2 0.933336 0.064871 0.599070
Si Si3 0.431680 0.216552 0.903347
Si Si4 0.432182 0.721428 0.399121
Si Si5 0.432461 0.650864 0.903727
Si Si6 0.433006 0.169034 0.278022
Si Si7 0.565974 0.613956 0.293094
O O1 0.250000 0.500000 0.595092
O O2 0.500000 0.500000 0.500000
O O3 0.479226 0.556223 0.656558
O O4 0.750000 0.066966 0.593097
O O5 0.981460 0.110888 0.673433
O O6 0.000000 0.079099 0.500000
O O7 0.977634 0.000000 0.620773
O O8 0.250000 0.214164 0.906358
O O9 0.476503 0.282914 0.890087
O O10 0.493682 0.180778 0.819331
O O11 0.500000 0.198394 0.000000
O O12 0.500000 0.723161 0.500000
O O13 0.250000 0.717568 0.404116
O O14 0.472548 0.778367 0.343947
O O15 0.497047 0.667460 0.345529
O O16 0.250000 0.648761 0.910258
O O17 0.479450 0.617303 0.813143
O O18 0.500000 0.631582 0.000000
O O19 0.250000 0.168368 0.268237
O O20 0.750000 0.618256 0.296250
#
# Coordination Sequence:
#
# PCOD9401326 Si02
#       7
#     4   8   8   8   8   8   8
#     4  10  22  38  57  74  98 134 175 216 253 302
#     4   9  18  33  52  74 103 140 178 215 255 302
#     4  10  19  32  52  77 105 137 169 208 257 311
#     4  11  22  33  49  74 104 135 166 209 258 304
#     4   9  18  32  52  76 103 132 164 203 252 305
#     4  10  20  33  50  76 106 135 171 212 257 306
#     4  10  20  37  55  75 101 134 172 211 255 305
#
# _framework density 17.051545000000001
#
# number of rings (size 3 to 8) (size 9 to 14) (size 15 to 20)
#    0.000    2.154    1.538    1.846    0.000    4.308 
#    0.000    0.385    0.000    0.462    0.000    0.000 
#    0.000    0.000    0.000    0.000    0.000    0.000 
#
# Total GULP energy -290219.834077 kJ/mol
# GULP energy per Si atom -5581.150655 kJ/mol
# Density = 1.701273 g / cm^3
# Si number density = 17.051545 Si / 1000 Ang^3
#
#
#
# Elastic Constant Matrix: (Units=GPa)
#
#
# Indices 1 2 3 4 5 6 
#
# 1 15.3947 32.8503 42.5040 0.0000 0.0000 0.0000
# 2 32.8503 108.2634 93.4734 0.0000 0.0000 0.0000
# 3 42.5040 93.4734 196.7053 0.0000 0.0000 0.0000
# 4 0.0000 0.0000 0.0000 30.2703 0.0000 0.0000
# 5 0.0000 0.0000 0.0000 0.0000 34.5250 0.0000
# 6 0.0000 0.0000 0.0000 0.0000 0.0000 17.8580
#
#
#
# Elastic Compliance Matrix: (Units=1/GPa)
#
#
# Indices 1 2 3 4 5 6 
#
# 1 0.270053 -0.053518 -0.032921 0.000000 0.000000 0.000000
# 2 -0.053518 0.026269 -0.000919 0.000000 0.000000 0.000000
# 3 -0.032921 -0.000919 0.012634 0.000000 0.000000 0.000000
# 4 0.000000 0.000000 0.000000 0.033036 0.000000 0.000000
# 5 0.000000 0.000000 0.000000 0.000000 0.028965 0.000000
# 6 0.000000 0.000000 0.000000 0.000000 0.000000 0.055997
#
#
# Mechanical properties :
#
#
# Convention : Reuss Voigt Hill
#
# Bulk Modulus (GPa) = 7.44936 73.11319 40.28128
# Shear Modulus (GPa) = 7.73494 26.63303 17.18399
#
# Velocity S-wave (km/s) = 2.13215 3.95639 3.17798
# Velocity P-wave (km/s) = 3.23104 7.99009 6.09431
#
# Compressibility (1/GPa) = 0.13423971
#
# Stress axis : x y z
#
# Youngs Moduli (GPa) = 3.70297 38.06786 79.15181
#
# Poissons Ratio (x) = 2.03732 2.60579
# Poissons Ratio (y) = 0.19818 0.07271
# Poissons Ratio (z) = 0.12191 0.03497
#
# Static dielectric constant tensor:
#      x y z
#    x 1.575840 0.000000 0.000000 
#    y 0.000000 1.568940 0.000000 
#    z 0.000000 0.000000 1.555350 
# 
# From -- ./inp_files/21542.got.cif
#   From: 2010.05.17/outbox.cif.g08.bks.cpg/sg51_11_cif.got.tgz:21542.got - 2010.06.03 11:52:47.
