data_PCOD9401568
_publ_section_title
;
Structure prediction by ZEFSAII (Michael W. Deem and Ramdas Pophale) SiO2 
 PCOD9401568
Probable space group: P M M A
;
_chemical_formula_sum "Si O2"
_cell_formula_units_Z 48
_cell_length_a 13.281630
_cell_length_b 15.389233
_cell_length_c 12.402462
_cell_angle_alpha 90.000000
_cell_angle_beta 90.000000
_cell_angle_gamma 90.000000
_cell_volume 2534.990042
_symmetry_space_group_name_H-M "P M M A"
_symmetry_group_IT_number 51
_symmetry_cell_setting 'orthorhombic'
loop_
_space_group_symop_operation_xyz
x,y,z
1/2-x,-y,z
1/2+x,-y,-z
-x,y,-z
-x,-y,-z
1/2+x,y,-z
1/2-x,y,z
x,-y,z
loop_
_atom_site_type_symbol
_atom_site_label
_atom_site_fract_x
_atom_site_fract_y
_atom_site_fract_z
Si Si1 0.961917 0.902642 0.124020
Si Si2 0.361496 0.686076 0.030700
Si Si3 0.873507 0.500000 0.671157
Si Si4 0.366626 0.814863 0.225706
Si Si5 0.534305 0.685021 0.620485
Si Si6 0.369005 0.725703 0.800471
Si Si7 0.415060 0.500000 0.090985
O O1 0.888943 0.827137 0.168802
O O2 0.059087 0.893749 0.201669
O O3 0.919597 0.000000 0.127240
O O4 0.000000 0.887693 0.000000
O O5 0.250000 0.719375 0.004712
O O6 0.393040 0.749510 0.126162
O O7 0.357472 0.589461 0.074127
O O8 0.408695 0.681198 0.912050
O O9 0.750000 0.500000 0.684617
O O10 0.910120 0.408986 0.619418
O O11 0.936317 0.500000 0.783024
O O12 0.250000 0.837518 0.221526
O O13 0.392025 0.758719 0.330986
O O14 0.500000 0.704872 0.500000
O O15 0.438293 0.692315 0.702302
O O16 0.250000 0.709420 0.779799
O O17 0.500000 0.500000 0.000000
#
# Coordination Sequence:
#
# PCOD9401568 Si02
#       7
#     8   8   4   8   8   8   4
#     4  10  20  33  56  90 125 153 183 230 291 361
#     4  10  19  33  51  79 110 146 189 226 280 346
#     4  12  23  39  61  85 117 156 198 247 295 340
#     4  10  20  36  60  83 115 153 189 235 290 354
#     4  11  24  40  59  85 114 152 207 250 289 334
#     4  10  22  39  59  82 119 159 192 239 294 349
#     4  12  22  29  52  83 115 151 187 233 281 338
#
# _framework density 18.934985000000001
#
# number of rings (size 3 to 8) (size 9 to 14) (size 15 to 20)
#    0.000    1.500    3.333    2.500    2.333    2.000 
#    0.000    2.917    0.000    8.000    0.000    9.333 
#    0.000    0.000    0.000    0.000    0.000    0.000 
#
# Total GULP energy -267306.904215 kJ/mol
# GULP energy per Si atom -5568.893838 kJ/mol
# Density = 1.889189 g / cm^3
# Si number density = 18.934985 Si / 1000 Ang^3
#
#
#
# Elastic Constant Matrix: (Units=GPa)
#
#
# Indices 1 2 3 4 5 6 
#
# 1 51.0056 -7.5159 -6.9825 0.0000 0.0000 0.0000
# 2 -7.5159 84.4184 8.2040 0.0000 0.0000 0.0000
# 3 -6.9825 8.2040 96.4369 0.0000 0.0000 0.0000
# 4 0.0000 0.0000 0.0000 8.2964 0.0000 0.0000
# 5 0.0000 0.0000 0.0000 0.0000 22.8559 0.0000
# 6 0.0000 0.0000 0.0000 0.0000 0.0000 -37.1075
#
#
#
# Elastic Compliance Matrix: (Units=1/GPa)
#
#
# Indices 1 2 3 4 5 6 
#
# 1 0.020029 0.001656 0.001309 0.000000 0.000000 0.000000
# 2 0.001656 0.012081 -0.000908 0.000000 0.000000 0.000000
# 3 0.001309 -0.000908 0.010542 0.000000 0.000000 0.000000
# 4 0.000000 0.000000 0.000000 0.120535 0.000000 0.000000
# 5 0.000000 0.000000 0.000000 0.000000 0.043752 0.000000
# 6 0.000000 0.000000 0.000000 0.000000 0.000000 -0.026949
#
#
# Mechanical properties :
#
#
# Convention : Reuss Voigt Hill
#
# Bulk Modulus (GPa) = 21.38277 24.36359 22.87318
# Shear Modulus (GPa) = 26.11454 14.68596 20.40025
#
# Velocity S-wave (km/s) = 3.71774 2.78798 3.28591
# Velocity P-wave (km/s) = 5.45400 4.82272 5.14805
#
# Compressibility (1/GPa) = 0.04676663
#
# Stress axis : x y z
#
# Youngs Moduli (GPa) = 49.92777 82.77168 94.86308
#
# Poissons Ratio (x) = -0.13707 -0.12421
# Poissons Ratio (y) = -0.08268 0.08612
# Poissons Ratio (z) = -0.06537 0.07515
#
# Static dielectric constant tensor:
#      x y z
#    x 1.738710 0.000000 0.000000 
#    y 0.000000 1.661310 0.000000 
#    z 0.000000 0.000000 1.661460 
# 
# From -- ./inp_files/16503.got.cif
#   From: 2010.05.17/outbox.cif.g08.bks.cpg/sg51_9_cif.got.tgz:16503.got - 2010.06.03 11:52:47.
