data_PCOD9401612
_publ_section_title
;
Structure prediction by ZEFSAII (Michael W. Deem and Ramdas Pophale) SiO2 
 PCOD9401612
Probable space group: P M M A
;
_chemical_formula_sum "Si O2"
_cell_formula_units_Z 48
_cell_length_a 17.700187
_cell_length_b 7.541780
_cell_length_c 16.750535
_cell_angle_alpha 90.000000
_cell_angle_beta 90.000000
_cell_angle_gamma 90.000000
_cell_volume 2236.044266
_symmetry_space_group_name_H-M "P M M A"
_symmetry_group_IT_number 51
_symmetry_cell_setting 'orthorhombic'
loop_
_space_group_symop_operation_xyz
x,y,z
1/2-x,-y,z
1/2+x,-y,-z
-x,y,-z
-x,-y,-z
1/2+x,y,-z
1/2-x,y,z
x,-y,z
loop_
_atom_site_type_symbol
_atom_site_label
_atom_site_fract_x
_atom_site_fract_y
_atom_site_fract_z
Si Si1 0.920022 0.215970 0.543877
Si Si2 0.893858 0.213604 0.199363
Si Si3 0.415994 0.709138 0.984681
Si Si4 0.250000 0.783082 0.702400
Si Si5 0.750000 0.784064 0.482265
Si Si6 0.832366 0.791818 0.857095
Si Si7 0.050770 0.782936 0.273844
O O1 0.834225 0.271048 0.515775
O O2 0.929496 0.268794 0.636367
O O3 0.000000 0.270545 0.500000
O O4 0.919522 0.000000 0.537654
O O5 0.892582 0.260086 0.106210
O O6 0.822709 0.277476 0.249069
O O7 0.969403 0.276479 0.242835
O O8 0.894028 0.000000 0.202637
O O9 0.418969 0.500000 0.998469
O O10 0.500000 0.783455 0.000000
O O11 0.361449 0.780581 0.052676
O O12 0.250000 0.731033 0.610493
O O13 0.250000 0.000000 0.702256
O O14 0.750000 0.000000 0.489032
O O15 0.750000 0.711080 0.850193
O O16 0.890419 0.718722 0.792574
O O17 0.827257 0.000000 0.838265
O O18 0.049744 0.000000 0.273861
#
# Coordination Sequence:
#
# PCOD9401612 Si02
#       7
#     8   8   8   4   4   8   8
#     4   9  16  25  40  65  99 137 169 199 250 310
#     4  10  19  33  53  74 102 137 174 215 256 305
#     4  11  23  38  54  74 102 135 175 219 266 316
#     4   9  18  30  47  74 103 134 172 209 253 307
#     4   9  16  26  42  66 103 138 162 203 255 307
#     4  10  21  35  53  76 104 137 176 216 257 308
#     4   9  17  29  47  70  99 138 175 207 249 305
#
# _framework density 21.466481000000002
#
# number of rings (size 3 to 8) (size 9 to 14) (size 15 to 20)
#    0.000    2.333    1.667    1.500    2.333    5.000 
#    0.000    0.000    0.000    0.000    0.000    0.000 
#    0.000   14.667    0.000    0.000    0.000    0.000 
#
# Total GULP energy -267814.032967 kJ/mol
# GULP energy per Si atom -5579.459020 kJ/mol
# Density = 2.141762 g / cm^3
# Si number density = 21.466481 Si / 1000 Ang^3
#
#
#
# Elastic Constant Matrix: (Units=GPa)
#
#
# Indices 1 2 3 4 5 6 
#
# 1 229.1637 1.9874 114.8494 0.0000 0.0000 0.0000
# 2 1.9874 50.1964 -13.7164 0.0000 0.0000 0.0000
# 3 114.8494 -13.7164 180.9325 0.0000 0.0000 0.0000
# 4 0.0000 0.0000 0.0000 -30.9581 0.0000 0.0000
# 5 0.0000 0.0000 0.0000 0.0000 613.3192 0.0000
# 6 0.0000 0.0000 0.0000 0.0000 0.0000 -26.5971
#
#
#
# Elastic Compliance Matrix: (Units=1/GPa)
#
#
# Indices 1 2 3 4 5 6 
#
# 1 0.006496 -0.001413 -0.004231 0.000000 0.000000 0.000000
# 2 -0.001413 0.020651 0.002463 0.000000 0.000000 0.000000
# 3 -0.004231 0.002463 0.008399 0.000000 0.000000 0.000000
# 4 0.000000 0.000000 0.000000 -0.032302 0.000000 0.000000
# 5 0.000000 0.000000 0.000000 0.000000 0.001630 0.000000
# 6 0.000000 0.000000 0.000000 0.000000 0.000000 -0.037598
#
#
# Mechanical properties :
#
#
# Convention : Reuss Voigt Hill
#
# Bulk Modulus (GPa) = 34.26625 74.05924 54.16275
# Shear Modulus (GPa) = -300.60981 134.96428 -82.82276
#
# Velocity S-wave (km/s) = -11.84655 7.93780 -6.21821
# Velocity P-wave (km/s) = 13.08143 10.88973 5.12530
#
# Compressibility (1/GPa) = 0.02918323
#
# Stress axis : x y z
#
# Youngs Moduli (GPa) = 153.93498 48.42467 119.06008
#
# Poissons Ratio (x) = 0.06844 0.50371
# Poissons Ratio (y) = 0.21755 -0.29320
# Poissons Ratio (z) = 0.65126 -0.11925
#
# Static dielectric constant tensor:
#      x y z
#    x 1.758210 0.000000 0.000000 
#    y 0.000000 1.787060 0.000000 
#    z 0.000000 0.000000 1.721490 
# 
# From -- ./inp_files/24841.got.cif
#   From: 2010.05.17/outbox.cif.g08.bks.cpg/sg51_13_cif.got.tgz:24841.got - 2010.06.03 11:52:47.
