data_PCOD9401572
_publ_section_title
;
Structure prediction by ZEFSAII (Michael W. Deem and Ramdas Pophale) SiO2 
 PCOD9401572
Probable space group: P M M A
;
_chemical_formula_sum "Si O2"
_cell_formula_units_Z 64
_cell_length_a 8.304062
_cell_length_b 20.459922
_cell_length_c 19.799170
_cell_angle_alpha 90.000000
_cell_angle_beta 90.000000
_cell_angle_gamma 90.000000
_cell_volume 3363.888107
_symmetry_space_group_name_H-M "P M M A"
_symmetry_group_IT_number 51
_symmetry_cell_setting 'orthorhombic'
loop_
_space_group_symop_operation_xyz
x,y,z
1/2-x,-y,z
1/2+x,-y,-z
-x,y,-z
-x,-y,-z
1/2+x,y,-z
1/2-x,y,z
x,-y,z
loop_
_atom_site_type_symbol
_atom_site_label
_atom_site_fract_x
_atom_site_fract_y
_atom_site_fract_z
Si Si1 0.063296 0.596876 0.572355
Si Si2 0.564556 0.572607 0.715130
Si Si3 0.945285 0.425081 0.076887
Si Si4 0.064263 0.324392 0.810426
Si Si5 0.559684 0.073281 0.215288
Si Si6 0.063287 0.754229 0.572904
Si Si7 0.550968 0.794581 0.279403
Si Si8 0.432057 0.079218 0.070859
O O1 0.250000 0.579152 0.581463
O O2 0.051126 0.675668 0.573111
O O3 0.000000 0.574694 0.500000
O O4 0.960649 0.572828 0.635129
O O5 0.750000 0.588894 0.730977
O O6 0.528645 0.500000 0.740770
O O7 0.448184 0.625143 0.748154
O O8 0.750000 0.424878 0.079938
O O9 0.997440 0.500000 0.094444
O O10 0.004874 0.367719 0.127481
O O11 0.000000 0.413120 0.000000
O O12 0.250000 0.310740 0.827936
O O13 0.996342 0.257462 0.778052
O O14 0.750000 0.068911 0.227600
O O15 0.497635 0.132550 0.260221
O O16 0.534132 0.093107 0.137227
O O17 0.490367 0.000000 0.225009
O O18 0.250000 0.772438 0.574343
O O19 0.993768 0.777165 0.644949
O O20 0.000000 0.777346 0.500000
O O21 0.750000 0.791431 0.279112
O O22 0.250000 0.101816 0.080889
O O23 0.429311 0.000000 0.065792
O O24 0.500000 0.104264 0.000000
#
# Coordination Sequence:
#
# PCOD9401572 Si02
#       8
#     8   8   8   8   8   8   8   8
#     4  10  19  33  52  72  97 131 169 208 249 296
#     4  11  23  35  48  71 102 133 165 206 254 301
#     4   9  18  32  52  75  97 126 165 206 252 304
#     4  10  19  35  55  74  97 130 170 212 255 302
#     4   9  17  30  50  75 102 134 170 207 253 311
#     4   9  17  31  51  74  97 127 165 205 248 295
#     4   9  17  32  53  76 102 131 165 207 255 302
#     4   9  16  27  45  69  98 131 167 205 242 287
#
# _framework density 19.025604000000001
#
# number of rings (size 3 to 8) (size 9 to 14) (size 15 to 20)
#    0.000    2.500    1.250    1.500    0.000    4.250 
#    0.000    3.125    0.000    1.875    0.000    0.000 
#    0.000    0.000    0.000    0.000    0.000    0.000 
#
# Total GULP energy -356537.477091 kJ/mol
# GULP energy per Si atom -5570.898080 kJ/mol
# Density = 1.898230 g / cm^3
# Si number density = 19.025604 Si / 1000 Ang^3
#
#
#
# Elastic Constant Matrix: (Units=GPa)
#
#
# Indices 1 2 3 4 5 6 
#
# 1 8.2679 15.6307 -1.6988 0.0000 0.0000 0.0000
# 2 15.6307 91.2410 60.7466 0.0000 0.0000 0.0000
# 3 -1.6988 60.7466 124.7044 0.0000 0.0000 0.0000
# 4 0.0000 0.0000 0.0000 3.5798 0.0000 0.0000
# 5 0.0000 0.0000 0.0000 0.0000 26.2323 0.0000
# 6 0.0000 0.0000 0.0000 0.0000 0.0000 5.4534
#
#
#
# Elastic Compliance Matrix: (Units=1/GPa)
#
#
# Indices 1 2 3 4 5 6 
#
# 1 0.259673 -0.069323 0.037306 0.000000 0.000000 0.000000
# 2 -0.069323 0.034727 -0.017861 0.000000 0.000000 0.000000
# 3 0.037306 -0.017861 0.017228 0.000000 0.000000 0.000000
# 4 0.000000 0.000000 0.000000 0.279345 0.000000 0.000000
# 5 0.000000 0.000000 0.000000 0.000000 0.038121 0.000000
# 6 0.000000 0.000000 0.000000 0.000000 0.000000 0.183371
#
#
# Mechanical properties :
#
#
# Convention : Reuss Voigt Hill
#
# Bulk Modulus (GPa) = 4.71982 41.50781 23.11381
# Shear Modulus (GPa) = 5.08728 17.02208 11.05468
#
# Velocity S-wave (km/s) = 1.63698 2.99439 2.41310
# Velocity P-wave (km/s) = 2.46153 5.81544 4.46533
#
# Compressibility (1/GPa) = 0.21187269
#
# Stress axis : x y z
#
# Youngs Moduli (GPa) = 3.85100 28.79578 58.04629
#
# Poissons Ratio (x) = 1.99621 -2.16549
# Poissons Ratio (y) = 0.26696 1.03676
# Poissons Ratio (z) = -0.14367 0.51432
#
# Static dielectric constant tensor:
#      x y z
#    x 1.678470 0.000000 0.000000 
#    y 0.000000 1.397520 0.000000 
#    z 0.000000 0.000000 1.674390 
# 
# From -- ./inp_files/32339.got.cif
#   From: 2010.05.17/outbox.cif.g08.bks.cpg/sg51_17_cif.got.tgz:32339.got - 2010.06.03 11:52:47.
