data_PCOD9401668
_publ_section_title
;
Structure prediction by ZEFSAII (Michael W. Deem and Ramdas Pophale) SiO2 
 PCOD9401668
Probable space group: P M M A
;
_chemical_formula_sum "Si O2"
_cell_formula_units_Z 64
_cell_length_a 8.697941
_cell_length_b 25.129134
_cell_length_c 15.814971
_cell_angle_alpha 90.000000
_cell_angle_beta 90.000000
_cell_angle_gamma 90.000000
_cell_volume 3456.705491
_symmetry_space_group_name_H-M "P M M A"
_symmetry_group_IT_number 51
_symmetry_cell_setting 'orthorhombic'
loop_
_space_group_symop_operation_xyz
x,y,z
1/2-x,-y,z
1/2+x,-y,-z
-x,y,-z
-x,-y,-z
1/2+x,y,-z
1/2-x,y,z
x,-y,z
loop_
_atom_site_type_symbol
_atom_site_label
_atom_site_fract_x
_atom_site_fract_y
_atom_site_fract_z
Si Si1 0.433761 0.733743 0.690168
Si Si2 0.933385 0.828759 0.911585
Si Si3 0.065232 0.439935 0.265010
Si Si4 0.932755 0.292301 0.869520
Si Si5 0.934920 0.642771 0.589521
Si Si6 0.934335 0.145244 0.268023
Si Si7 0.564355 0.938336 0.408599
Si Si8 0.068985 0.403531 0.913001
O O1 0.250000 0.726843 0.700543
O O2 0.523562 0.710158 0.770837
O O3 0.493880 0.700357 0.611240
O O4 0.466799 0.796726 0.691400
O O5 0.750000 0.831860 0.912916
O O6 0.976264 0.765966 0.903967
O O7 0.994554 0.855556 0.825731
O O8 0.000000 0.849530 0.000000
O O9 0.250000 0.436271 0.258688
O O10 0.024220 0.500000 0.290483
O O11 0.016264 0.397360 0.335447
O O12 0.998648 0.427995 0.172649
O O13 0.750000 0.300606 0.880238
O O14 0.024675 0.341035 0.908549
O O15 0.750000 0.645499 0.587740
O O16 0.000000 0.624256 0.500000
O O17 0.750000 0.141195 0.258677
O O18 0.987352 0.099530 0.332212
O O19 0.500000 0.921689 0.500000
O O20 0.750000 0.935947 0.412027
O O21 0.519503 0.000000 0.394755
O O22 0.250000 0.410037 0.913884
O O23 0.000000 0.425710 0.000000
#
# Coordination Sequence:
#
# PCOD9401668 Si02
#       8
#     8   8   8   8   8   8   8   8
#     4  10  19  33  54  81 114 148 182 221 272 328
#     4  10  20  32  50  77 111 150 189 229 274 324
#     4  10  23  44  65  83 108 142 181 230 281 331
#     4  10  19  33  53  79 111 146 183 222 269 324
#     4  11  23  39  61  85 113 145 182 226 275 332
#     4   9  19  34  53  80 114 150 187 229 277 330
#     4   9  18  34  56  81 110 146 188 235 283 330
#     4  12  24  37  58  85 113 146 183 225 273 329
#
# _framework density 18.51474
#
# number of rings (size 3 to 8) (size 9 to 14) (size 15 to 20)
#    0.000    1.875    1.250    3.000    0.000    5.250 
#    0.000    1.250    0.000    0.375    0.000    0.000 
#    0.000    0.000    0.000    0.000    0.000    0.000 
#
# Total GULP energy -357377.247693 kJ/mol
# GULP energy per Si atom -5584.019495 kJ/mol
# Density = 1.847260 g / cm^3
# Si number density = 18.514740 Si / 1000 Ang^3
#
#
#
# Elastic Constant Matrix: (Units=GPa)
#
#
# Indices 1 2 3 4 5 6 
#
# 1 18.5754 22.9413 31.8110 0.0000 0.0000 0.0000
# 2 22.9413 71.9513 63.6259 0.0000 0.0000 0.0000
# 3 31.8110 63.6259 147.0842 0.0000 0.0000 0.0000
# 4 0.0000 0.0000 0.0000 -0.7688 0.0000 0.0000
# 5 0.0000 0.0000 0.0000 0.0000 30.0525 0.0000
# 6 0.0000 0.0000 0.0000 0.0000 0.0000 16.1716
#
#
#
# Elastic Compliance Matrix: (Units=1/GPa)
#
#
# Indices 1 2 3 4 5 6 
#
# 1 0.102058 -0.021089 -0.012950 0.000000 0.000000 0.000000
# 2 -0.021089 0.026866 -0.007061 0.000000 0.000000 0.000000
# 3 -0.012950 -0.007061 0.012654 0.000000 0.000000 0.000000
# 4 0.000000 0.000000 0.000000 -1.300714 0.000000 0.000000
# 5 0.000000 0.000000 0.000000 0.000000 0.033275 0.000000
# 6 0.000000 0.000000 0.000000 0.000000 0.000000 0.061837
#
#
# Mechanical properties :
#
#
# Convention : Reuss Voigt Hill
#
# Bulk Modulus (GPa) = 16.84115 52.70747 34.77431
# Shear Modulus (GPa) = -5.19733 17.03992 5.92130
#
# Velocity S-wave (km/s) = -1.67727 3.03701 1.79028
# Velocity P-wave (km/s) = 2.31622 6.38964 4.80585
#
# Compressibility (1/GPa) = 0.05937837
#
# Stress axis : x y z
#
# Youngs Moduli (GPa) = 9.79839 37.22168 79.02643
#
# Poissons Ratio (x) = 0.78496 1.02340
# Poissons Ratio (y) = 0.20664 0.55799
# Poissons Ratio (z) = 0.12689 0.26281
#
# Static dielectric constant tensor:
#      x y z
#    x 1.616370 0.000000 0.000000 
#    y 0.000000 1.646100 0.000000 
#    z 0.000000 0.000000 1.661080 
# 
# From -- ./inp_files/22232.got.cif
#   From: 2010.05.17/outbox.cif.g08.bks.cpg/sg51_12_cif.got.tgz:22232.got - 2010.06.03 11:52:47.
