data_PCOD9401809
_publ_section_title
;
Structure prediction by ZEFSAII (Michael W. Deem and Ramdas Pophale) SiO2 
 PCOD9401809
Probable space group: P M M A
;
_chemical_formula_sum "Si O2"
_cell_formula_units_Z 64
_cell_length_a 34.301062
_cell_length_b 9.019938
_cell_length_c 11.456419
_cell_angle_alpha 90.000000
_cell_angle_beta 90.000000
_cell_angle_gamma 90.000000
_cell_volume 3544.541029
_symmetry_space_group_name_H-M "P M M A"
_symmetry_group_IT_number 51
_symmetry_cell_setting 'orthorhombic'
loop_
_space_group_symop_operation_xyz
x,y,z
1/2-x,-y,z
1/2+x,-y,-z
-x,y,-z
-x,-y,-z
1/2+x,y,-z
1/2-x,y,z
x,-y,z
loop_
_atom_site_type_symbol
_atom_site_label
_atom_site_fract_x
_atom_site_fract_y
_atom_site_fract_z
Si Si1 0.204205 0.175312 0.483749
Si Si2 0.639917 0.328052 0.668642
Si Si3 0.444134 0.677955 0.724860
Si Si4 0.942008 0.326773 0.544383
Si Si5 0.868864 0.677707 0.126928
Si Si6 0.478269 0.823352 0.231634
Si Si7 0.205009 0.178494 0.756320
Si Si8 0.101819 0.822491 0.111174
O O1 0.250000 0.196604 0.459981
O O2 0.177418 0.267769 0.397778
O O3 0.197705 0.214968 0.619760
O O4 0.195572 0.000000 0.471188
O O5 0.644246 0.500000 0.702419
O O6 0.603262 0.318161 0.580375
O O7 0.628125 0.231844 0.780634
O O8 0.447910 0.500000 0.729790
O O9 0.446698 0.721998 0.588792
O O10 0.402356 0.717438 0.778717
O O11 0.480041 0.750967 0.793082
O O12 0.953987 0.500000 0.554419
O O13 0.965094 0.233442 0.640358
O O14 0.866483 0.500000 0.120074
O O15 0.827526 0.743856 0.166013
O O16 0.883327 0.744508 0.005045
O O17 0.442798 0.780905 0.145367
O O18 0.481521 0.000000 0.231192
O O19 0.250000 0.219333 0.783490
O O20 0.202109 0.000000 0.767528
O O21 0.103674 0.000000 0.100026
#
# Coordination Sequence:
#
# PCOD9401809 Si02
#       8
#     8   8   8   8   8   8   8   8
#     4   9  18  33  54  82 115 146 174 208 258 322
#     4  10  19  33  55  80 106 138 178 223 268 315
#     4  10  21  35  52  77 110 144 175 214 268 325
#     4   9  18  33  52  75 106 141 173 211 267 328
#     4  11  23  38  57  82 109 140 184 230 270 316
#     4  10  21  35  53  78 105 137 180 226 268 313
#     4   9  19  37  60  85 114 147 178 211 261 321
#     4  10  22  40  57  74 103 143 184 226 273 322
#
# _framework density 18.055934000000001
#
# number of rings (size 3 to 8) (size 9 to 14) (size 15 to 20)
#    0.000    2.250    0.000    3.375    0.000    7.500 
#    0.000    4.375    0.000    3.750    0.000    0.000 
#    0.000    0.000    0.000    0.000    0.000    0.000 
#
# Total GULP energy -357321.728094 kJ/mol
# GULP energy per Si atom -5583.152001 kJ/mol
# Density = 1.801484 g / cm^3
# Si number density = 18.055934 Si / 1000 Ang^3
#
#
#
# Elastic Constant Matrix: (Units=GPa)
#
#
# Indices 1 2 3 4 5 6 
#
# 1 101.6557 38.1755 43.7133 0.0000 0.0000 0.0000
# 2 38.1755 30.6107 13.5506 0.0000 0.0000 0.0000
# 3 43.7133 13.5506 26.8555 0.0000 0.0000 0.0000
# 4 0.0000 0.0000 0.0000 25.1539 0.0000 0.0000
# 5 0.0000 0.0000 0.0000 0.0000 17.9151 0.0000
# 6 0.0000 0.0000 0.0000 0.0000 0.0000 34.6122
#
#
#
# Elastic Compliance Matrix: (Units=1/GPa)
#
#
# Indices 1 2 3 4 5 6 
#
# 1 0.051089 -0.034639 -0.065680 0.000000 0.000000 0.000000
# 2 -0.034639 0.065550 0.023308 0.000000 0.000000 0.000000
# 3 -0.065680 0.023308 0.132384 0.000000 0.000000 0.000000
# 4 0.000000 0.000000 0.000000 0.039755 0.000000 0.000000
# 5 0.000000 0.000000 0.000000 0.000000 0.055819 0.000000
# 6 0.000000 0.000000 0.000000 0.000000 0.000000 0.028892
#
#
# Mechanical properties :
#
#
# Convention : Reuss Voigt Hill
#
# Bulk Modulus (GPa) = 10.52627 38.88897 24.70762
# Shear Modulus (GPa) = 8.94172 19.78174 14.36173
#
# Velocity S-wave (km/s) = 2.22778 3.31355 2.82335
# Velocity P-wave (km/s) = 3.52984 6.01866 4.93376
#
# Compressibility (1/GPa) = 0.09500040
#
# Stress axis : x y z
#
# Youngs Moduli (GPa) = 19.57386 15.25552 7.55380
#
# Poissons Ratio (x) = 0.52844 0.49613
# Poissons Ratio (y) = 0.67802 -0.17606
# Poissons Ratio (z) = 1.28561 -0.35557
#
# Static dielectric constant tensor:
#      x y z
#    x 1.614360 0.000000 0.000000 
#    y 0.000000 1.602610 0.000000 
#    z 0.000000 0.000000 1.597240 
# 
# From -- ./inp_files/19656.got.cif
#   From: 2010.05.17/outbox.cif.g08.bks.cpg/sg51_10_cif.got.tgz:19656.got - 2010.06.03 11:52:47.
