data_PCOD9401511
_publ_section_title
;
Structure prediction by ZEFSAII (Michael W. Deem and Ramdas Pophale) SiO2 
 PCOD9401511
Probable space group: P M M A
;
_chemical_formula_sum "Si O2"
_cell_formula_units_Z 48
_cell_length_a 17.360305
_cell_length_b 10.921530
_cell_length_c 13.427898
_cell_angle_alpha 90.000000
_cell_angle_beta 90.000000
_cell_angle_gamma 90.000000
_cell_volume 2545.944122
_symmetry_space_group_name_H-M "P M M A"
_symmetry_group_IT_number 51
_symmetry_cell_setting 'orthorhombic'
loop_
_space_group_symop_operation_xyz
x,y,z
1/2-x,-y,z
1/2+x,-y,-z
-x,y,-z
-x,-y,-z
1/2+x,y,-z
1/2-x,y,z
x,-y,z
loop_
_atom_site_type_symbol
_atom_site_label
_atom_site_fract_x
_atom_site_fract_y
_atom_site_fract_z
Si Si1 0.158465 0.500000 0.711286
Si Si2 0.514490 0.857304 0.614110
Si Si3 0.840013 0.719608 0.661686
Si Si4 0.156691 0.500000 0.483700
Si Si5 0.433663 0.278354 0.793611
Si Si6 0.907609 0.862858 0.017279
Si Si7 0.900860 0.640290 0.873464
O O1 0.250000 0.500000 0.708648
O O2 0.128560 0.500000 0.596773
O O3 0.126660 0.618172 0.766890
O O4 0.500000 0.820692 0.500000
O O5 0.602822 0.832253 0.645020
O O6 0.464091 0.781991 0.692319
O O7 0.496155 0.000000 0.623389
O O8 0.750000 0.747469 0.650037
O O9 0.864886 0.618920 0.579848
O O10 0.855582 0.662355 0.770363
O O11 0.250000 0.500000 0.486480
O O12 0.399393 0.178038 0.868568
O O13 0.508703 0.338953 0.846766
O O14 0.876934 0.000000 0.996326
O O15 0.879155 0.749905 0.949036
O O16 0.000000 0.869380 0.000000
O O17 0.889593 0.500000 0.908478
#
# Coordination Sequence:
#
# PCOD9401511 Si02
#       7
#     4   8   8   4   8   8   8
#     4  11  22  35  55  85 110 142 188 243 288 344
#     4  10  21  36  56  84 116 153 200 247 290 345
#     4  10  20  35  56  83 117 154 186 234 301 357
#     4   9  18  33  52  75 110 146 183 217 275 348
#     4  10  20  35  57  80 113 148 192 238 296 341
#     4   9  19  34  56  81 112 151 194 237 285 348
#     4  10  19  32  55  85 113 146 193 239 286 344
#
# _framework density 18.853515999999999
#
# number of rings (size 3 to 8) (size 9 to 14) (size 15 to 20)
#    0.000    2.167    1.667    1.500    1.167    5.333 
#    0.000    3.333    0.000    4.000    0.000    0.000 
#    0.000    0.000    0.000    0.000    0.000    0.000 
#
# Total GULP energy -267776.862281 kJ/mol
# GULP energy per Si atom -5578.684631 kJ/mol
# Density = 1.881060 g / cm^3
# Si number density = 18.853516 Si / 1000 Ang^3
#
#
#
# Elastic Constant Matrix: (Units=GPa)
#
#
# Indices 1 2 3 4 5 6 
#
# 1 48.0394 24.2144 18.8308 0.0000 0.0000 0.0000
# 2 24.2144 132.9857 68.4147 0.0000 0.0000 0.0000
# 3 18.8308 68.4147 99.2034 0.0000 0.0000 0.0000
# 4 0.0000 0.0000 0.0000 22.8702 0.0000 0.0000
# 5 0.0000 0.0000 0.0000 0.0000 18.5644 0.0000
# 6 0.0000 0.0000 0.0000 0.0000 0.0000 14.9350
#
#
#
# Elastic Compliance Matrix: (Units=1/GPa)
#
#
# Indices 1 2 3 4 5 6 
#
# 1 0.023258 -0.003043 -0.002316 0.000000 0.000000 0.000000
# 2 -0.003043 0.012053 -0.007734 0.000000 0.000000 0.000000
# 3 -0.002316 -0.007734 0.015854 0.000000 0.000000 0.000000
# 4 0.000000 0.000000 0.000000 0.043725 0.000000 0.000000
# 5 0.000000 0.000000 0.000000 0.000000 0.053867 0.000000
# 6 0.000000 0.000000 0.000000 0.000000 0.000000 0.066957
#
#
# Mechanical properties :
#
#
# Convention : Reuss Voigt Hill
#
# Bulk Modulus (GPa) = 40.03661 55.90538 47.97099
# Shear Modulus (GPa) = 19.98192 22.52516 21.25354
#
# Velocity S-wave (km/s) = 3.25907 3.46026 3.36117
# Velocity P-wave (km/s) = 5.95346 6.75880 6.36887
#
# Compressibility (1/GPa) = 0.02497714
#
# Stress axis : x y z
#
# Youngs Moduli (GPa) = 42.99575 82.96898 63.07630
#
# Poissons Ratio (x) = 0.25251 0.14608
# Poissons Ratio (y) = 0.13085 0.48785
# Poissons Ratio (z) = 0.09958 0.64171
#
# Static dielectric constant tensor:
#      x y z
#    x 1.630020 0.000000 0.000000 
#    y 0.000000 1.661130 0.000000 
#    z 0.000000 0.000000 1.662340 
# 
# From -- ./inp_files/24962.got.cif
#   From: 2010.05.17/outbox.cif.g08.bks.cpg/sg51_13_cif.got.tgz:24962.got - 2010.06.03 11:52:47.
