data_PCOD9401204
_publ_section_title
;
Structure prediction by ZEFSAII (Michael W. Deem and Ramdas Pophale) SiO2 
 PCOD9401204
Probable space group: P M M A
;
_chemical_formula_sum "Si O2"
_cell_formula_units_Z 40
_cell_length_a 27.315403
_cell_length_b 7.515181
_cell_length_c 9.320291
_cell_angle_alpha 90.000000
_cell_angle_beta 90.000000
_cell_angle_gamma 90.000000
_cell_volume 1913.271178
_symmetry_space_group_name_H-M "P M M A"
_symmetry_group_IT_number 51
_symmetry_cell_setting 'orthorhombic'
loop_
_space_group_symop_operation_xyz
x,y,z
1/2-x,-y,z
1/2+x,-y,-z
-x,y,-z
-x,-y,-z
1/2+x,y,-z
1/2-x,y,z
x,-y,z
loop_
_atom_site_type_symbol
_atom_site_label
_atom_site_fract_x
_atom_site_fract_y
_atom_site_fract_z
Si Si1 0.144805 0.712279 0.085359
Si Si2 0.250000 0.704178 0.052768
Si Si3 0.644283 0.791926 0.579268
Si Si4 0.453434 0.786993 0.911048
Si Si5 0.750000 0.218072 0.610058
Si Si6 0.548794 0.218459 0.416466
O O1 0.150145 0.500000 0.096133
O O2 0.196316 0.782510 0.019063
O O3 0.138179 0.778596 0.248520
O O4 0.097302 0.752470 0.992206
O O5 0.250000 0.500000 0.001454
O O6 0.250000 0.712438 0.226709
O O7 0.698591 0.721725 0.543503
O O8 0.597565 0.717238 0.497318
O O9 0.645665 0.000000 0.542437
O O10 0.452364 0.721755 0.747992
O O11 0.459216 0.000000 0.902460
O O12 0.500000 0.717368 0.000000
O O13 0.750000 0.000000 0.617379
O O14 0.500000 0.273213 0.500000
O O15 0.549156 0.000000 0.418250
#
# Coordination Sequence:
#
# PCOD9401204 Si02
#       6
#     8   4   8   8   4   8
#     4  10  19  32  51  74 100 129 163 200 239 284
#     4   8  16  30  47  68  96 130 162 194 233 280
#     4   9  16  29  49  71  95 122 156 196 238 284
#     4  10  20  34  52  73  98 129 164 201 243 290
#     4   8  14  24  43  70  94 118 150 192 237 280
#     4   9  17  30  49  71  93 121 158 198 240 287
#
# _framework density 20.906600999999998
#
# number of rings (size 3 to 8) (size 9 to 14) (size 15 to 20)
#    0.000    2.800    0.000    1.800    0.000    4.400 
#    0.000    2.000    0.000    4.800    0.000    4.200 
#    0.000    0.000    0.000    0.000    0.000    0.000 
#
# Total GULP energy -223047.518202 kJ/mol
# GULP energy per Si atom -5576.187955 kJ/mol
# Density = 2.085902 g / cm^3
# Si number density = 20.906601 Si / 1000 Ang^3
#
#
#
# Elastic Constant Matrix: (Units=GPa)
#
#
# Indices 1 2 3 4 5 6 
#
# 1 270.1780 -1.2139 115.2349 0.0000 0.0000 0.0000
# 2 -1.2139 54.9613 -6.0813 0.0000 0.0000 0.0000
# 3 115.2349 -6.0813 95.0884 0.0000 0.0000 0.0000
# 4 0.0000 0.0000 0.0000 -66.6957 0.0000 0.0000
# 5 0.0000 0.0000 0.0000 0.0000 35.0324 0.0000
# 6 0.0000 0.0000 0.0000 0.0000 0.0000 15.8004
#
#
#
# Elastic Compliance Matrix: (Units=1/GPa)
#
#
# Indices 1 2 3 4 5 6 
#
# 1 0.007702 -0.000869 -0.009390 0.000000 0.000000 0.000000
# 2 -0.000869 0.018422 0.002231 0.000000 0.000000 0.000000
# 3 -0.009390 0.002231 0.022038 0.000000 0.000000 0.000000
# 4 0.000000 0.000000 0.000000 -0.014993 0.000000 0.000000
# 5 0.000000 0.000000 0.000000 0.000000 0.028545 0.000000
# 6 0.000000 0.000000 0.000000 0.000000 0.000000 0.063290
#
#
# Mechanical properties :
#
#
# Convention : Reuss Voigt Hill
#
# Bulk Modulus (GPa) = 31.14491 70.67858 50.91175
# Shear Modulus (GPa) = 32.94650 17.64661 25.29655
#
# Velocity S-wave (km/s) = 3.97405 2.90844 3.48225
# Velocity P-wave (km/s) = 5.99892 6.72004 6.36969
#
# Compressibility (1/GPa) = 0.03210797
#
# Stress axis : x y z
#
# Youngs Moduli (GPa) = 129.83364 54.28207 45.37575
#
# Poissons Ratio (x) = 0.04716 0.42606
# Poissons Ratio (y) = 0.11280 -0.10124
# Poissons Ratio (z) = 1.21909 -0.12111
#
# Static dielectric constant tensor:
#      x y z
#    x 1.795300 0.000000 0.000000 
#    y 0.000000 1.781100 0.000000 
#    z 0.000000 0.000000 1.689520 
# 
# From -- ./inp_files/12156.got.cif
#   From: 2010.05.17/outbox.cif.g08.bks.cpg/sg51_7_cif.got.tgz:12156.got - 2010.06.03 11:52:47.
