data_PCOD9401382
_publ_section_title
;
Structure prediction by ZEFSAII (Michael W. Deem and Ramdas Pophale) SiO2 
 PCOD9401382
Probable space group: P M M A
;
_chemical_formula_sum "Si O2"
_cell_formula_units_Z 48
_cell_length_a 21.306498
_cell_length_b 8.238375
_cell_length_c 15.455678
_cell_angle_alpha 90.000000
_cell_angle_beta 90.000000
_cell_angle_gamma 90.000000
_cell_volume 2712.949386
_symmetry_space_group_name_H-M "P M M A"
_symmetry_group_IT_number 51
_symmetry_cell_setting 'orthorhombic'
loop_
_space_group_symop_operation_xyz
x,y,z
1/2-x,-y,z
1/2+x,-y,-z
-x,y,-z
-x,-y,-z
1/2+x,y,-z
1/2-x,y,z
x,-y,z
loop_
_atom_site_type_symbol
_atom_site_label
_atom_site_fract_x
_atom_site_fract_y
_atom_site_fract_z
Si Si1 0.043551 0.302491 0.422093
Si Si2 0.154655 0.811514 0.187253
Si Si3 0.818166 0.304582 0.620146
Si Si4 0.318440 0.691160 0.000570
Si Si5 0.449244 0.191739 0.928373
Si Si6 0.979132 0.308814 0.773356
O O1 0.045123 0.500000 0.427527
O O2 0.116421 0.246080 0.422298
O O3 0.015228 0.263139 0.327496
O O4 0.000000 0.242807 0.500000
O O5 0.177189 0.741528 0.278708
O O6 0.178975 0.718885 0.103675
O O7 0.079522 0.790127 0.188841
O O8 0.171367 0.000000 0.180664
O O9 0.750000 0.246371 0.587115
O O10 0.818643 0.500000 0.613803
O O11 0.250000 0.749894 0.969676
O O12 0.323318 0.500000 0.982879
O O13 0.379142 0.776235 0.960930
O O14 0.463434 0.275426 0.836761
O O15 0.459102 0.000000 0.918519
O O16 0.500000 0.251967 0.000000
O O17 0.962784 0.500000 0.775915
#
# Coordination Sequence:
#
# PCOD9401382 Si02
#       6
#     8   8   8   8   8   8
#     4   8  15  29  50  75 100 126 162 207 255 301
#     4  11  20  30  46  71 102 134 166 202 251 307
#     4   9  17  29  46  69  97 129 163 199 245 304
#     4  11  23  36  51  72 100 136 176 216 257 304
#     4  11  22  35  53  77 103 136 175 213 252 301
#     4  10  19  32  53  76 100 135 172 212 256 299
#
# _framework density 17.692920999999998
#
# number of rings (size 3 to 8) (size 9 to 14) (size 15 to 20)
#    0.000    2.000    1.667    4.500    0.000    4.333 
#    0.000    0.000    0.000   13.500    0.000    4.667 
#    0.000    0.000    0.000    0.000    0.000    0.000 
#
# Total GULP energy -267737.753415 kJ/mol
# GULP energy per Si atom -5577.869863 kJ/mol
# Density = 1.765265 g / cm^3
# Si number density = 17.692921 Si / 1000 Ang^3
#
#
#
# Elastic Constant Matrix: (Units=GPa)
#
#
# Indices 1 2 3 4 5 6 
#
# 1 135.0500 5.2122 63.7989 0.0000 0.0000 0.0000
# 2 5.2122 23.4618 7.3422 0.0000 0.0000 0.0000
# 3 63.7989 7.3422 79.7664 0.0000 0.0000 0.0000
# 4 0.0000 0.0000 0.0000 -1.4554 0.0000 0.0000
# 5 0.0000 0.0000 0.0000 0.0000 -72.3007 0.0000
# 6 0.0000 0.0000 0.0000 0.0000 0.0000 6.4498
#
#
#
# Elastic Compliance Matrix: (Units=1/GPa)
#
#
# Indices 1 2 3 4 5 6 
#
# 1 0.011904 0.000345 -0.009553 0.000000 0.000000 0.000000
# 2 0.000345 0.043897 -0.004316 0.000000 0.000000 0.000000
# 3 -0.009553 -0.004316 0.020575 0.000000 0.000000 0.000000
# 4 0.000000 0.000000 0.000000 -0.687097 0.000000 0.000000
# 5 0.000000 0.000000 0.000000 0.000000 -0.013831 0.000000
# 6 0.000000 0.000000 0.000000 0.000000 0.000000 0.155044
#
#
# Mechanical properties :
#
#
# Convention : Reuss Voigt Hill
#
# Bulk Modulus (GPa) = 20.27307 43.44274 31.85791
# Shear Modulus (GPa) = -11.73661 -2.66627 -7.20144
#
# Velocity S-wave (km/s) = -2.57835 -1.22892 -2.01967
# Velocity P-wave (km/s) = 1.61842 4.75325 3.55054
#
# Compressibility (1/GPa) = 0.04932653
#
# Stress axis : x y z
#
# Youngs Moduli (GPa) = 84.00309 22.78079 48.60339
#
# Poissons Ratio (x) = -0.00786 0.46431
# Poissons Ratio (y) = -0.02898 0.20979
# Poissons Ratio (z) = 0.80249 0.09833
#
# Static dielectric constant tensor:
#      x y z
#    x 1.658550 0.000000 0.000000 
#    y 0.000000 1.599500 0.000000 
#    z 0.000000 0.000000 1.582960 
# 
# From -- ./inp_files/25436.got.cif
#   From: 2010.05.17/outbox.cif.g08.bks.cpg/sg51_13_cif.got.tgz:25436.got - 2010.06.03 11:52:47.
