data_PCOD9401665
_publ_section_title
;
Structure prediction by ZEFSAII (Michael W. Deem and Ramdas Pophale) SiO2 
 PCOD9401665
Probable space group: P M M A
;
_chemical_formula_sum "Si O2"
_cell_formula_units_Z 56
_cell_length_a 14.713175
_cell_length_b 7.586282
_cell_length_c 22.493323
_cell_angle_alpha 90.000000
_cell_angle_beta 90.000000
_cell_angle_gamma 90.000000
_cell_volume 2510.666355
_symmetry_space_group_name_H-M "P M M A"
_symmetry_group_IT_number 51
_symmetry_cell_setting 'orthorhombic'
loop_
_space_group_symop_operation_xyz
x,y,z
1/2-x,-y,z
1/2+x,-y,-z
-x,y,-z
-x,-y,-z
1/2+x,y,-z
1/2-x,y,z
x,-y,z
loop_
_atom_site_type_symbol
_atom_site_label
_atom_site_fract_x
_atom_site_fract_y
_atom_site_fract_z
Si Si1 0.543330 0.210161 0.787171
Si Si2 0.346523 0.211782 0.772823
Si Si3 0.354175 0.714947 0.963664
Si Si4 0.952129 0.711344 0.915408
Si Si5 0.024848 0.697653 0.437027
Si Si6 0.150944 0.210472 0.630799
Si Si7 0.851288 0.208631 0.671610
O O1 0.441666 0.286086 0.794108
O O2 0.586997 0.237952 0.851298
O O3 0.592908 0.280594 0.728372
O O4 0.533483 0.000000 0.777877
O O5 0.250000 0.282893 0.795660
O O6 0.349501 0.237555 0.701562
O O7 0.344848 0.000000 0.783035
O O8 0.250000 0.774443 0.950588
O O9 0.352076 0.500000 0.960532
O O10 0.442707 0.774768 0.925153
O O11 0.387268 0.766311 0.030189
O O12 0.956295 0.500000 0.918647
O O13 0.056904 0.500000 0.450707
O O14 0.097083 0.773507 0.390820
O O15 0.000000 0.785675 0.500000
O O16 0.931394 0.696650 0.400636
O O17 0.250000 0.263831 0.607941
O O18 0.140217 0.000000 0.621872
O O19 0.750000 0.283220 0.668938
O O20 0.844026 0.000000 0.682385
#
# Coordination Sequence:
#
# PCOD9401665 Si02
#       7
#     8   8   8   8   8   8   8
#     4  10  19  33  53  78 111 143 171 217 279 328
#     4   8  14  27  49  74  99 130 167 207 257 317
#     4   8  15  31  52  71  99 139 179 221 264 306
#     4   9  18  31  50  77 102 133 181 223 258 314
#     4  11  24  39  56  81 114 147 178 223 283 337
#     4   9  17  33  58  82 103 134 178 221 262 316
#     4  10  22  41  62  82 107 145 193 235 271 323
#
# _framework density 22.304834
#
# number of rings (size 3 to 8) (size 9 to 14) (size 15 to 20)
#    0.000    2.714    1.429    2.143    0.000    4.000 
#    0.000    4.286    0.000    0.857    0.000    0.000 
#    0.000    0.000    0.000    0.000    0.000    0.000 
#
# Total GULP energy -312224.640061 kJ/mol
# GULP energy per Si atom -5575.440001 kJ/mol
# Density = 2.225407 g / cm^3
# Si number density = 22.304834 Si / 1000 Ang^3
#
#
#
# Elastic Constant Matrix: (Units=GPa)
#
#
# Indices 1 2 3 4 5 6 
#
# 1 108.5557 5.1815 47.1553 0.0000 0.0000 0.0000
# 2 5.1815 42.4478 0.9267 0.0000 0.0000 0.0000
# 3 47.1553 0.9267 116.8466 0.0000 0.0000 0.0000
# 4 0.0000 0.0000 0.0000 5.5811 0.0000 0.0000
# 5 0.0000 0.0000 0.0000 0.0000 -4.7740 0.0000
# 6 0.0000 0.0000 0.0000 0.0000 0.0000 19.6309
#
#
#
# Elastic Compliance Matrix: (Units=1/GPa)
#
#
# Indices 1 2 3 4 5 6 
#
# 1 0.011238 -0.001273 -0.004525 0.000000 0.000000 0.000000
# 2 -0.001273 0.023707 0.000326 0.000000 0.000000 0.000000
# 3 -0.004525 0.000326 0.010382 0.000000 0.000000 0.000000
# 4 0.000000 0.000000 0.000000 0.179177 0.000000 0.000000
# 5 0.000000 0.000000 0.000000 0.000000 -0.209467 0.000000
# 6 0.000000 0.000000 0.000000 0.000000 0.000000 0.050940
#
#
# Mechanical properties :
#
#
# Convention : Reuss Voigt Hill
#
# Bulk Modulus (GPa) = 29.08529 41.59747 35.34138
# Shear Modulus (GPa) = 56.57188 18.39337 37.48262
#
# Velocity S-wave (km/s) = 5.04164 2.87476 4.10380
# Velocity P-wave (km/s) = 6.85267 5.45060 6.19145
#
# Compressibility (1/GPa) = 0.03438164
#
# Stress axis : x y z
#
# Youngs Moduli (GPa) = 88.98083 42.18229 96.32135
#
# Poissons Ratio (x) = 0.05370 0.43589
# Poissons Ratio (y) = 0.11328 -0.03138
# Poissons Ratio (z) = 0.40267 -0.01374
#
# Static dielectric constant tensor:
#      x y z
#    x 1.839420 0.000000 0.000000 
#    y 0.000000 1.824390 0.000000 
#    z 0.000000 0.000000 1.819280 
# 
# From -- ./inp_files/33385.got.cif
#   From: 2010.05.17/outbox.cif.g08.bks.cpg/sg51_17_cif.got.tgz:33385.got - 2010.06.03 11:52:47.
