data_PCOD9401353
_publ_section_title
;
Structure prediction by ZEFSAII (Michael W. Deem and Ramdas Pophale) SiO2 
 PCOD9401353
Probable space group: P M M A
;
_chemical_formula_sum "Si O2"
_cell_formula_units_Z 64
_cell_length_a 24.872446
_cell_length_b 8.690359
_cell_length_c 16.397389
_cell_angle_alpha 90.000000
_cell_angle_beta 90.000000
_cell_angle_gamma 90.000000
_cell_volume 3544.303584
_symmetry_space_group_name_H-M "P M M A"
_symmetry_group_IT_number 51
_symmetry_cell_setting 'orthorhombic'
loop_
_space_group_symop_operation_xyz
x,y,z
1/2-x,-y,z
1/2+x,-y,-z
-x,y,-z
-x,-y,-z
1/2+x,y,-z
1/2-x,y,z
x,-y,z
loop_
_atom_site_type_symbol
_atom_site_label
_atom_site_fract_x
_atom_site_fract_y
_atom_site_fract_z
Si Si1 0.610205 0.813893 0.106126
Si Si2 0.098891 0.184226 0.633254
Si Si3 0.975955 0.683563 0.221909
Si Si4 0.688984 0.185672 0.963591
Si Si5 0.938841 0.321290 0.531733
Si Si6 0.189268 0.684087 0.218381
Si Si7 0.690391 0.186407 0.250111
Si Si8 0.418245 0.182543 0.291389
O O1 0.554935 0.743999 0.141052
O O2 0.654222 0.767259 0.173905
O O3 0.604648 0.000000 0.106748
O O4 0.639299 0.768942 0.021867
O O5 0.056369 0.253098 0.698461
O O6 0.093275 0.248647 0.543140
O O7 0.157068 0.224167 0.669554
O O8 0.091662 0.000000 0.633775
O O9 0.974636 0.500000 0.223620
O O10 0.036660 0.742477 0.232781
O O11 0.750000 0.220132 0.996087
O O12 0.684430 0.262730 0.875568
O O13 0.686689 0.000000 0.955267
O O14 0.924991 0.500000 0.544359
O O15 0.931569 0.233728 0.616411
O O16 0.000000 0.313284 0.500000
O O17 0.250000 0.727538 0.245337
O O18 0.184596 0.500000 0.223231
O O19 0.141084 0.760734 0.267880
O O20 0.750000 0.249442 0.247745
O O21 0.693238 0.000000 0.246018
O O22 0.421891 0.000000 0.284128
#
# Coordination Sequence:
#
# PCOD9401353 Si02
#       8
#     8   8   8   8   8   8   8   8
#     4   9  17  30  51  80 112 147 188 231 273 321
#     4  10  19  32  52  78 107 142 184 228 271 320
#     4  11  21  34  52  78 114 150 182 224 279 336
#     4   9  17  32  57  86 114 147 191 238 279 325
#     4  11  22  36  57  83 111 143 180 225 277 334
#     4  10  22  41  63  86 115 148 182 226 281 336
#     4   8  14  26  46  73 106 143 181 220 264 313
#     4  12  24  39  62  86 110 142 185 234 279 332
#
# _framework density 18.057144000000001
#
# number of rings (size 3 to 8) (size 9 to 14) (size 15 to 20)
#    0.000    2.000    1.250    4.500    0.000    3.250 
#    0.000    1.250    0.000   18.375    0.000    0.000 
#    0.000    0.000    0.000    0.000    0.000    0.000 
#
# Total GULP energy -357009.837164 kJ/mol
# GULP energy per Si atom -5578.278706 kJ/mol
# Density = 1.801605 g / cm^3
# Si number density = 18.057144 Si / 1000 Ang^3
#
#
#
# Elastic Constant Matrix: (Units=GPa)
#
#
# Indices 1 2 3 4 5 6 
#
# 1 97.7298 39.8815 27.3986 0.0000 0.0000 0.0000
# 2 39.8815 69.7623 24.4145 0.0000 0.0000 0.0000
# 3 27.3986 24.4145 49.1904 0.0000 0.0000 0.0000
# 4 0.0000 0.0000 0.0000 13.6119 0.0000 0.0000
# 5 0.0000 0.0000 0.0000 0.0000 23.9548 0.0000
# 6 0.0000 0.0000 0.0000 0.0000 0.0000 18.2307
#
#
#
# Elastic Compliance Matrix: (Units=1/GPa)
#
#
# Indices 1 2 3 4 5 6 
#
# 1 0.014187 -0.006469 -0.004692 0.000000 0.000000 0.000000
# 2 -0.006469 0.020297 -0.006471 0.000000 0.000000 0.000000
# 3 -0.004692 -0.006471 0.026154 0.000000 0.000000 0.000000
# 4 0.000000 0.000000 0.000000 0.073465 0.000000 0.000000
# 5 0.000000 0.000000 0.000000 0.000000 0.041745 0.000000
# 6 0.000000 0.000000 0.000000 0.000000 0.000000 0.054853
#
#
# Mechanical properties :
#
#
# Convention : Reuss Voigt Hill
#
# Bulk Modulus (GPa) = 39.40747 44.45238 41.92992
# Shear Modulus (GPa) = 18.22008 19.49200 18.85604
#
# Velocity S-wave (km/s) = 3.17996 3.28908 3.23498
# Velocity P-wave (km/s) = 5.94592 6.25261 6.10119
#
# Compressibility (1/GPa) = 0.02537590
#
# Stress axis : x y z
#
# Youngs Moduli (GPa) = 70.48549 49.26840 38.23501
#
# Poissons Ratio (x) = 0.31870 0.17938
# Poissons Ratio (y) = 0.45595 0.24742
# Poissons Ratio (z) = 0.33069 0.31881
#
# Static dielectric constant tensor:
#      x y z
#    x 1.645020 0.000000 0.000000 
#    y 0.000000 1.610760 0.000000 
#    z 0.000000 0.000000 1.602640 
# 
# From -- ./inp_files/26167.got.cif
#   From: 2010.05.17/outbox.cif.g08.bks.cpg/sg51_14_cif.got.tgz:26167.got - 2010.06.03 11:52:47.
