data_PCOD9401888
_publ_section_title
;
Structure prediction by ZEFSAII (Michael W. Deem and Ramdas Pophale) SiO2 
 PCOD9401888
Probable space group: P M M A
;
_chemical_formula_sum "Si O2"
_cell_formula_units_Z 52
_cell_length_a 8.855013
_cell_length_b 20.853603
_cell_length_c 14.435891
_cell_angle_alpha 90.000000
_cell_angle_beta 90.000000
_cell_angle_gamma 90.000000
_cell_volume 2665.716123
_symmetry_space_group_name_H-M "P M M A"
_symmetry_group_IT_number 51
_symmetry_cell_setting 'orthorhombic'
loop_
_space_group_symop_operation_xyz
x,y,z
1/2-x,-y,z
1/2+x,-y,-z
-x,y,-z
-x,-y,-z
1/2+x,y,-z
1/2-x,y,z
x,-y,z
loop_
_atom_site_type_symbol
_atom_site_label
_atom_site_fract_x
_atom_site_fract_y
_atom_site_fract_z
Si Si1 0.920922 0.698097 0.358193
Si Si2 0.580339 0.256679 0.144070
Si Si3 0.929566 0.171455 0.593490
Si Si4 0.931289 0.869587 0.797398
Si Si5 0.067254 0.396264 0.905327
Si Si6 0.066762 0.000000 0.102531
Si Si7 0.929848 0.572065 0.706547
O O1 0.750000 0.697077 0.395803
O O2 0.911209 0.720390 0.250960
O O3 0.020999 0.754035 0.401691
O O4 0.994574 0.627967 0.354428
O O5 0.750000 0.243367 0.110672
O O6 0.486200 0.191812 0.144212
O O7 0.521331 0.320897 0.096621
O O8 0.750000 0.167013 0.589000
O O9 0.982238 0.139777 0.690468
O O10 0.000000 0.143260 0.500000
O O11 0.750000 0.868727 0.795828
O O12 0.981240 0.936022 0.842689
O O13 0.250000 0.400588 0.903489
O O14 0.000358 0.424126 0.810159
O O15 0.000000 0.424212 0.000000
O O16 0.250000 0.000000 0.097722
O O17 0.000000 0.000000 0.000000
O O18 0.750000 0.583380 0.713033
O O19 0.955633 0.500000 0.670860
#
# Coordination Sequence:
#
# PCOD9401888 Si02
#       7
#     8   8   8   8   8   4   8
#     4   9  17  31  51  75 102 132 168 211 255 307
#     4   8  16  30  48  70  95 124 163 211 261 311
#     4  10  19  33  56  85 113 143 177 218 270 324
#     4   9  19  35  55  77 107 145 181 220 267 320
#     4  10  20  32  46  66  93 126 166 218 275 329
#     4  10  22  40  57  78 108 146 191 230 267 314
#     4  10  20  33  49  69  95 131 173 215 263 321
#
# _framework density 19.506952999999999
#
# number of rings (size 3 to 8) (size 9 to 14) (size 15 to 20)
#    0.000    2.615    0.000    2.769    0.000    7.692 
#    0.000    3.462    0.000    0.462    0.000    0.000 
#    0.000    0.000    0.000    0.000    0.000    0.000 
#
# Total GULP energy -289948.929418 kJ/mol
# GULP energy per Si atom -5575.940950 kJ/mol
# Density = 1.946255 g / cm^3
# Si number density = 19.506953 Si / 1000 Ang^3
#
#
#
# Elastic Constant Matrix: (Units=GPa)
#
#
# Indices 1 2 3 4 5 6 
#
# 1 43.1245 36.9897 12.9139 0.0000 0.0000 0.0000
# 2 36.9897 135.3339 32.9935 0.0000 0.0000 0.0000
# 3 12.9139 32.9935 69.3916 0.0000 0.0000 0.0000
# 4 0.0000 0.0000 0.0000 8.4466 0.0000 0.0000
# 5 0.0000 0.0000 0.0000 0.0000 23.2690 0.0000
# 6 0.0000 0.0000 0.0000 0.0000 0.0000 21.7250
#
#
#
# Elastic Compliance Matrix: (Units=1/GPa)
#
#
# Indices 1 2 3 4 5 6 
#
# 1 0.030519 -0.007869 -0.001938 0.000000 0.000000 0.000000
# 2 -0.007869 0.010387 -0.003474 0.000000 0.000000 0.000000
# 3 -0.001938 -0.003474 0.016424 0.000000 0.000000 0.000000
# 4 0.000000 0.000000 0.000000 0.118391 0.000000 0.000000
# 5 0.000000 0.000000 0.000000 0.000000 0.042976 0.000000
# 6 0.000000 0.000000 0.000000 0.000000 0.000000 0.046030
#
#
# Mechanical properties :
#
#
# Convention : Reuss Voigt Hill
#
# Bulk Modulus (GPa) = 32.50295 45.96048 39.23171
# Shear Modulus (GPa) = 16.58139 21.68500 19.13319
#
# Velocity S-wave (km/s) = 2.91868 3.33777 3.13523
# Velocity P-wave (km/s) = 5.29686 6.20213 5.76728
#
# Compressibility (1/GPa) = 0.03076644
#
# Stress axis : x y z
#
# Youngs Moduli (GPa) = 32.76700 96.27555 60.88823
#
# Poissons Ratio (x) = 0.75758 0.11801
# Poissons Ratio (y) = 0.25784 0.21154
# Poissons Ratio (z) = 0.06351 0.33448
#
# Static dielectric constant tensor:
#      x y z
#    x 1.675260 0.000000 0.000000 
#    y 0.000000 1.682910 0.000000 
#    z 0.000000 0.000000 1.713570 
# 
# From -- ./inp_files/21550.got.cif
#   From: 2010.05.17/outbox.cif.g08.bks.cpg/sg51_11_cif.got.tgz:21550.got - 2010.06.03 11:52:47.
