data_PCOD9401716
_publ_section_title
;
Structure prediction by ZEFSAII (Michael W. Deem and Ramdas Pophale) SiO2 
 PCOD9401716
Probable space group: P M M A
;
_chemical_formula_sum "Si O2"
_cell_formula_units_Z 64
_cell_length_a 20.107243
_cell_length_b 17.579728
_cell_length_c 9.372448
_cell_angle_alpha 90.000000
_cell_angle_beta 90.000000
_cell_angle_gamma 90.000000
_cell_volume 3312.971633
_symmetry_space_group_name_H-M "P M M A"
_symmetry_group_IT_number 51
_symmetry_cell_setting 'orthorhombic'
loop_
_space_group_symop_operation_xyz
x,y,z
1/2-x,-y,z
1/2+x,-y,-z
-x,y,-z
-x,-y,-z
1/2+x,y,-z
1/2-x,y,z
x,-y,z
loop_
_atom_site_type_symbol
_atom_site_label
_atom_site_fract_x
_atom_site_fract_y
_atom_site_fract_z
Si Si1 0.446563 0.084257 0.605980
Si Si2 0.965527 0.711097 0.652903
Si Si3 0.037100 0.410420 0.847776
Si Si4 0.324322 0.303281 0.241034
Si Si5 0.175526 0.140408 0.085741
Si Si6 0.675221 0.408716 0.027002
Si Si7 0.325159 0.908225 0.761480
Si Si8 0.969388 0.136700 0.844078
O O1 0.500000 0.119470 0.500000
O O2 0.376970 0.121810 0.644606
O O3 0.483699 0.080999 0.756519
O O4 0.432141 0.000000 0.547557
O O5 0.885648 0.699219 0.650573
O O6 0.973899 0.784369 0.756328
O O7 0.000000 0.718568 0.500000
O O8 0.999957 0.640805 0.733544
O O9 0.035556 0.500000 0.810839
O O10 0.113695 0.385740 0.873369
O O11 0.000000 0.401785 0.000000
O O12 0.250000 0.308764 0.303688
O O13 0.325329 0.226825 0.143220
O O14 0.334196 0.371217 0.127974
O O15 0.250000 0.109075 0.120201
O O16 0.106865 0.108086 0.149675
O O17 0.167960 0.131403 0.915164
O O18 0.750000 0.387478 0.075935
O O19 0.672177 0.500000 0.014387
O O20 0.250000 0.898468 0.712321
O O21 0.336274 0.000000 0.781051
O O22 0.000000 0.147641 0.000000
#
# Coordination Sequence:
#
# PCOD9401716 Si02
#       8
#     8   8   8   8   8   8   8   8
#     4  10  21  36  53  78 112 143 174 214 261 316
#     4  11  23  36  53  78 111 144 177 217 267 321
#     4  10  19  33  54  79 107 137 178 224 264 311
#     4   9  18  33  54  76 103 138 175 217 262 314
#     4   9  18  32  51  78 105 131 171 224 268 302
#     4   9  17  30  51  79 106 134 173 221 267 309
#     4   9  17  31  52  77 106 139 175 215 261 313
#     4  11  21  35  57  80 103 138 179 222 265 312
#
# _framework density 19.318003999999998
#
# number of rings (size 3 to 8) (size 9 to 14) (size 15 to 20)
#    0.000    2.250    2.500    0.750    1.750    1.000 
#    0.000    1.250    0.000    3.750    0.000    0.000 
#    0.000    0.000    0.000    0.000    0.000    0.000 
#
# Total GULP energy -356571.084713 kJ/mol
# GULP energy per Si atom -5571.423199 kJ/mol
# Density = 1.927404 g / cm^3
# Si number density = 19.318004 Si / 1000 Ang^3
#
#
#
# Elastic Constant Matrix: (Units=GPa)
#
#
# Indices 1 2 3 4 5 6 
#
# 1 180.7166 30.5284 57.1101 0.0000 0.0000 0.0000
# 2 30.5284 34.3900 21.7136 0.0000 0.0000 0.0000
# 3 57.1101 21.7136 83.9848 0.0000 0.0000 0.0000
# 4 0.0000 0.0000 0.0000 21.7559 0.0000 0.0000
# 5 0.0000 0.0000 0.0000 0.0000 32.1169 0.0000
# 6 0.0000 0.0000 0.0000 0.0000 0.0000 155.1805
#
#
#
# Elastic Compliance Matrix: (Units=1/GPa)
#
#
# Indices 1 2 3 4 5 6 
#
# 1 0.007505 -0.004111 -0.004040 0.000000 0.000000 0.000000
# 2 -0.004111 0.037003 -0.006771 0.000000 0.000000 0.000000
# 3 -0.004040 -0.006771 0.016405 0.000000 0.000000 0.000000
# 4 0.000000 0.000000 0.000000 0.045965 0.000000 0.000000
# 5 0.000000 0.000000 0.000000 0.000000 0.031136 0.000000
# 6 0.000000 0.000000 0.000000 0.000000 0.000000 0.006444
#
#
# Mechanical properties :
#
#
# Convention : Reuss Voigt Hill
#
# Bulk Modulus (GPa) = 32.18814 57.53284 44.86049
# Shear Modulus (GPa) = 27.07691 54.45995 40.76843
#
# Velocity S-wave (km/s) = 3.74791 5.31531 4.59888
# Velocity P-wave (km/s) = 5.95210 8.21685 7.17440
#
# Compressibility (1/GPa) = 0.03106734
#
# Stress axis : x y z
#
# Youngs Moduli (GPa) = 133.24679 27.02489 60.95665
#
# Poissons Ratio (x) = 0.11110 0.24629
# Poissons Ratio (y) = 0.54778 0.41275
# Poissons Ratio (z) = 0.53838 0.18299
#
# Static dielectric constant tensor:
#      x y z
#    x 1.700640 0.000000 0.000000 
#    y 0.000000 1.692060 0.000000 
#    z 0.000000 0.000000 1.669930 
# 
# From -- ./inp_files/11184.got.cif
#   From: 2010.05.17/outbox.cif.g08.bks.cpg/sg51_6_cif.got.tgz:11184.got - 2010.06.03 11:52:47.
