data_PCOD9401556
_publ_section_title
;
Structure prediction by ZEFSAII (Michael W. Deem and Ramdas Pophale) SiO2 
 PCOD9401556
Probable space group: P M M A
;
_chemical_formula_sum "Si O2"
_cell_formula_units_Z 64
_cell_length_a 7.719523
_cell_length_b 20.656849
_cell_length_c 19.838664
_cell_angle_alpha 90.000000
_cell_angle_beta 90.000000
_cell_angle_gamma 90.000000
_cell_volume 3163.493616
_symmetry_space_group_name_H-M "P M M A"
_symmetry_group_IT_number 51
_symmetry_cell_setting 'orthorhombic'
loop_
_space_group_symop_operation_xyz
x,y,z
1/2-x,-y,z
1/2+x,-y,-z
-x,y,-z
-x,-y,-z
1/2+x,y,-z
1/2-x,y,z
x,-y,z
loop_
_atom_site_type_symbol
_atom_site_label
_atom_site_fract_x
_atom_site_fract_y
_atom_site_fract_z
Si Si1 0.543520 0.098872 0.072867
Si Si2 0.537067 0.426757 0.280959
Si Si3 0.541306 0.074048 0.421281
Si Si4 0.962381 0.293500 0.219485
Si Si5 0.542379 0.247242 0.073176
Si Si6 0.053397 0.178388 0.687273
Si Si7 0.450739 0.069234 0.219610
Si Si8 0.942577 0.578594 0.427283
O O1 0.750000 0.096916 0.081486
O O2 0.479794 0.173165 0.071402
O O3 0.462681 0.069229 0.139252
O O4 0.500000 0.070912 0.000000
O O5 0.750000 0.428702 0.283390
O O6 0.482826 0.500000 0.263395
O O7 0.488222 0.367235 0.234522
O O8 0.468463 0.409744 0.356103
O O9 0.500000 0.086290 0.500000
O O10 0.750000 0.072713 0.413266
O O11 0.477244 0.132641 0.372622
O O12 0.478133 0.000000 0.406099
O O13 0.750000 0.289260 0.220486
O O14 0.020932 0.275797 0.144000
O O15 0.022648 0.243571 0.278402
O O16 0.750000 0.246045 0.077016
O O17 0.500000 0.277418 0.000000
O O18 0.250000 0.194697 0.666232
O O19 0.053938 0.128638 0.749999
O O20 0.250000 0.076311 0.239108
O O21 0.517203 0.000000 0.244895
O O22 0.750000 0.604224 0.419343
O O23 0.937830 0.500000 0.431464
O O24 0.000000 0.602288 0.500000
#
# Coordination Sequence:
#
# PCOD9401556 Si02
#       8
#     8   8   8   8   8   8   8   8
#     4  10  19  33  51  71  96 128 165 203 242 288
#     4   8  14  25  44  71  99 126 160 201 242 288
#     4   9  18  32  51  72  94 125 164 204 250 300
#     4   9  16  29  49  72  97 125 161 202 245 290
#     4   9  17  30  49  72  94 122 159 198 239 286
#     4  10  19  34  53  73  96 126 165 208 249 294
#     4  11  23  35  48  70  99 130 162 200 247 294
#     4   8  13  22  38  61  88 120 156 190 225 267
#
# _framework density 20.230796000000002
#
# number of rings (size 3 to 8) (size 9 to 14) (size 15 to 20)
#    0.000    2.750    1.250    1.875    0.000    2.750 
#    0.000    1.875    0.000    1.875    0.000    0.000 
#    0.000    0.000    0.000    0.000    0.000    0.000 
#
# Total GULP energy -356373.234107 kJ/mol
# GULP energy per Si atom -5568.331783 kJ/mol
# Density = 2.018475 g / cm^3
# Si number density = 20.230796 Si / 1000 Ang^3
#
#
#
# Elastic Constant Matrix: (Units=GPa)
#
#
# Indices 1 2 3 4 5 6 
#
# 1 33.5394 2.6152 -2.6154 0.0000 0.0000 0.0000
# 2 2.6152 122.8549 71.5272 0.0000 0.0000 0.0000
# 3 -2.6154 71.5272 142.8996 0.0000 0.0000 0.0000
# 4 0.0000 0.0000 0.0000 33.0450 0.0000 0.0000
# 5 0.0000 0.0000 0.0000 0.0000 21.8290 0.0000
# 6 0.0000 0.0000 0.0000 0.0000 0.0000 -1.5729
#
#
#
# Elastic Compliance Matrix: (Units=1/GPa)
#
#
# Indices 1 2 3 4 5 6 
#
# 1 0.030017 -0.001353 0.001227 0.000000 0.000000 0.000000
# 2 -0.001353 0.011548 -0.005805 0.000000 0.000000 0.000000
# 3 0.001227 -0.005805 0.009926 0.000000 0.000000 0.000000
# 4 0.000000 0.000000 0.000000 0.030262 0.000000 0.000000
# 5 0.000000 0.000000 0.000000 0.000000 0.045811 0.000000
# 6 0.000000 0.000000 0.000000 0.000000 0.000000 -0.635751
#
#
# Mechanical properties :
#
#
# Convention : Reuss Voigt Hill
#
# Bulk Modulus (GPa) = 25.23466 49.14974 37.19220
# Shear Modulus (GPa) = -10.34951 25.84466 7.74758
#
# Velocity S-wave (km/s) = -2.26425 3.57808 1.95906
# Velocity P-wave (km/s) = 2.38006 6.43564 4.85191
#
# Compressibility (1/GPa) = 0.03962804
#
# Stress axis : x y z
#
# Youngs Moduli (GPa) = 33.31458 86.59269 100.74440
#
# Poissons Ratio (x) = 0.11717 -0.12358
# Poissons Ratio (y) = 0.04508 0.58484
# Poissons Ratio (z) = -0.04087 0.50269
#
# Static dielectric constant tensor:
#      x y z
#    x 1.791910 0.000000 0.000000 
#    y 0.000000 1.708080 0.000000 
#    z 0.000000 0.000000 1.756320 
# 
# From -- ./inp_files/32553.got.cif
#   From: 2010.05.17/outbox.cif.g08.bks.cpg/sg51_17_cif.got.tgz:32553.got - 2010.06.03 11:52:47.
