data_PCOD9401781
_publ_section_title
;
Structure prediction by ZEFSAII (Michael W. Deem and Ramdas Pophale) SiO2 
 PCOD9401781
Probable space group: P M M A
;
_chemical_formula_sum "Si O2"
_cell_formula_units_Z 56
_cell_length_a 16.574040
_cell_length_b 7.423903
_cell_length_c 19.624227
_cell_angle_alpha 90.000000
_cell_angle_beta 90.000000
_cell_angle_gamma 90.000000
_cell_volume 2414.644668
_symmetry_space_group_name_H-M "P M M A"
_symmetry_group_IT_number 51
_symmetry_cell_setting 'orthorhombic'
loop_
_space_group_symop_operation_xyz
x,y,z
1/2-x,-y,z
1/2+x,-y,-z
-x,y,-z
-x,-y,-z
1/2+x,y,-z
1/2-x,y,z
x,-y,z
loop_
_atom_site_type_symbol
_atom_site_label
_atom_site_fract_x
_atom_site_fract_y
_atom_site_fract_z
Si Si1 0.005610 0.286611 0.923512
Si Si2 0.104212 0.295669 0.697242
Si Si3 0.838367 0.216898 0.577894
Si Si4 0.839392 0.216616 0.844613
Si Si5 0.570291 0.707551 0.451378
Si Si6 0.926086 0.218404 0.710690
Si Si7 0.161178 0.279426 0.838393
O O1 0.020253 0.500000 0.928939
O O2 0.918535 0.264841 0.887950
O O3 0.082995 0.216590 0.880992
O O4 0.000000 0.212319 0.000000
O O5 0.133896 0.500000 0.685991
O O6 0.093304 0.211893 0.621895
O O7 0.154174 0.216798 0.759681
O O8 0.013246 0.296313 0.726649
O O9 0.750000 0.268565 0.601917
O O10 0.855377 0.287911 0.503014
O O11 0.901340 0.276082 0.634983
O O12 0.842006 0.000000 0.574671
O O13 0.750000 0.282685 0.865191
O O14 0.861098 0.271025 0.767187
O O15 0.835902 0.000000 0.845559
O O16 0.500000 0.789507 0.500000
O O17 0.546413 0.500000 0.438221
O O18 0.931948 0.000000 0.711366
O O19 0.250000 0.230661 0.865932
O O20 0.157827 0.500000 0.836118
#
# Coordination Sequence:
#
# PCOD9401781 Si02
#       7
#     8   8   8   8   8   8   8
#     4  10  21  37  60  89 117 147 185 230 276 327
#     4  10  19  33  55  78 102 137 186 231 273 331
#     4  10  21  35  51  74 104 139 179 223 273 331
#     4  10  21  37  58  85 117 152 188 227 275 332
#     4  10  20  33  50  74 102 134 177 229 279 328
#     4  10  19  33  55  79 106 142 184 227 273 325
#     4   9  18  34  56  80 108 144 184 226 274 328
#
# _framework density 23.191818000000001
#
# number of rings (size 3 to 8) (size 9 to 14) (size 15 to 20)
#    0.000    2.143    2.857    0.429    0.000    4.571 
#    0.000    2.857    0.000    4.286    0.000    0.000 
#    0.000    0.000    0.000    0.000    0.000    0.000 
#
# Total GULP energy -312532.965562 kJ/mol
# GULP energy per Si atom -5580.945814 kJ/mol
# Density = 2.313903 g / cm^3
# Si number density = 23.191818 Si / 1000 Ang^3
#
#
#
# Elastic Constant Matrix: (Units=GPa)
#
#
# Indices 1 2 3 4 5 6 
#
# 1 146.8763 -0.4281 66.2787 0.0000 0.0000 0.0000
# 2 -0.4281 76.0838 7.0720 0.0000 0.0000 0.0000
# 3 66.2787 7.0720 158.1433 0.0000 0.0000 0.0000
# 4 0.0000 0.0000 0.0000 4.8093 0.0000 0.0000
# 5 0.0000 0.0000 0.0000 0.0000 17.8400 0.0000
# 6 0.0000 0.0000 0.0000 0.0000 0.0000 13.6449
#
#
#
# Elastic Compliance Matrix: (Units=1/GPa)
#
#
# Indices 1 2 3 4 5 6 
#
# 1 0.008407 0.000376 -0.003540 0.000000 0.000000 0.000000
# 2 0.000376 0.013215 -0.000749 0.000000 0.000000 0.000000
# 3 -0.003540 -0.000749 0.007841 0.000000 0.000000 0.000000
# 4 0.000000 0.000000 0.000000 0.207929 0.000000 0.000000
# 5 0.000000 0.000000 0.000000 0.000000 0.056054 0.000000
# 6 0.000000 0.000000 0.000000 0.000000 0.000000 0.073288
#
#
# Mechanical properties :
#
#
# Convention : Reuss Voigt Hill
#
# Bulk Modulus (GPa) = 46.21588 58.54985 52.38286
# Shear Modulus (GPa) = 13.09684 27.80424 20.45054
#
# Velocity S-wave (km/s) = 2.37896 3.46624 2.97273
# Velocity P-wave (km/s) = 5.24565 6.42810 5.86674
#
# Compressibility (1/GPa) = 0.02163759
#
# Stress axis : x y z
#
# Youngs Moduli (GPa) = 118.94677 75.67099 127.54098
#
# Poissons Ratio (x) = -0.02848 0.45153
# Poissons Ratio (y) = -0.04477 0.09549
# Poissons Ratio (z) = 0.42111 0.05666
#
# Static dielectric constant tensor:
#      x y z
#    x 1.890300 0.000000 0.000000 
#    y 0.000000 1.906870 0.000000 
#    z 0.000000 0.000000 1.872280 
# 
# From -- ./inp_files/33451.got.cif
#   From: 2010.05.17/outbox.cif.g08.bks.cpg/sg51_17_cif.got.tgz:33451.got - 2010.06.03 11:52:47.
