data_PCOD9401718
_publ_section_title
;
Structure prediction by ZEFSAII (Michael W. Deem and Ramdas Pophale) SiO2 
 PCOD9401718
Probable space group: P M M A
;
_chemical_formula_sum "Si O2"
_cell_formula_units_Z 48
_cell_length_a 8.728267
_cell_length_b 31.966731
_cell_length_c 9.369130
_cell_angle_alpha 90.000000
_cell_angle_beta 90.000000
_cell_angle_gamma 90.000000
_cell_volume 2614.119968
_symmetry_space_group_name_H-M "P M M A"
_symmetry_group_IT_number 51
_symmetry_cell_setting 'orthorhombic'
loop_
_space_group_symop_operation_xyz
x,y,z
1/2-x,-y,z
1/2+x,-y,-z
-x,y,-z
-x,-y,-z
1/2+x,y,-z
1/2-x,y,z
x,-y,z
loop_
_atom_site_type_symbol
_atom_site_label
_atom_site_fract_x
_atom_site_fract_y
_atom_site_fract_z
Si Si1 0.565656 0.000000 0.160413
Si Si2 0.065904 0.336972 0.841298
Si Si3 0.565990 0.908989 0.159760
Si Si4 0.933111 0.166316 0.657997
Si Si5 0.564811 0.500000 0.159676
Si Si6 0.433812 0.261524 0.340486
Si Si7 0.565237 0.418574 0.340627
O O1 0.520896 0.954821 0.223585
O O2 0.750000 0.000000 0.152288
O O3 0.500000 0.000000 0.000000
O O4 0.250000 0.335704 0.847850
O O5 0.019929 0.376606 0.743746
O O6 0.003696 0.295315 0.765871
O O7 0.000000 0.341323 0.000000
O O8 0.750000 0.906743 0.155478
O O9 0.501224 0.869944 0.245177
O O10 0.500000 0.907524 0.000000
O O11 0.750000 0.162880 0.654277
O O12 0.971542 0.213824 0.704767
O O13 0.000000 0.161522 0.500000
O O14 0.750000 0.500000 0.150944
O O15 0.517103 0.458901 0.248238
O O16 0.500000 0.500000 0.000000
O O17 0.500000 0.267823 0.500000
O O18 0.250000 0.265707 0.345635
O O19 0.500000 0.419565 0.500000
O O20 0.750000 0.419164 0.349861
#
# Coordination Sequence:
#
# PCOD9401718 Si02
#       7
#     4   8   8   8   4   8   8
#     4   8  16  30  49  74 103 136 174 216 262 314
#     4  11  23  38  57  83 113 145 183 227 275 324
#     4  10  19  33  54  79 107 139 177 220 266 317
#     4  10  21  37  56  79 107 140 178 220 269 322
#     4  10  21  38  58  84 116 148 185 228 276 324
#     4  10  21  38  59  81 107 141 180 222 269 324
#     4  10  22  38  58  84 113 147 187 228 271 325
#
# _framework density 18.361820999999999
#
# number of rings (size 3 to 8) (size 9 to 14) (size 15 to 20)
#    0.000    2.000    0.000    3.250    0.000    6.667 
#    0.000    0.417    0.000    0.000    0.000    0.000 
#    0.000    0.000    0.000    0.000    0.000    0.000 
#
# Total GULP energy -267958.429265 kJ/mol
# GULP energy per Si atom -5582.467276 kJ/mol
# Density = 1.832003 g / cm^3
# Si number density = 18.361821 Si / 1000 Ang^3
#
#
#
# Elastic Constant Matrix: (Units=GPa)
#
#
# Indices 1 2 3 4 5 6 
#
# 1 48.7977 62.8080 42.5978 0.0000 0.0000 0.0000
# 2 62.8080 205.2280 115.8099 0.0000 0.0000 0.0000
# 3 42.5978 115.8099 133.0348 0.0000 0.0000 0.0000
# 4 0.0000 0.0000 0.0000 40.3433 0.0000 0.0000
# 5 0.0000 0.0000 0.0000 0.0000 37.8863 0.0000
# 6 0.0000 0.0000 0.0000 0.0000 0.0000 35.0316
#
#
#
# Elastic Compliance Matrix: (Units=1/GPa)
#
#
# Indices 1 2 3 4 5 6 
#
# 1 0.034699 -0.008549 -0.003668 0.000000 0.000000 0.000000
# 2 -0.008549 0.011684 -0.007434 0.000000 0.000000 0.000000
# 3 -0.003668 -0.007434 0.015162 0.000000 0.000000 0.000000
# 4 0.000000 0.000000 0.000000 0.024787 0.000000 0.000000
# 5 0.000000 0.000000 0.000000 0.000000 0.026395 0.000000
# 6 0.000000 0.000000 0.000000 0.000000 0.000000 0.028546
#
#
# Mechanical properties :
#
#
# Convention : Reuss Voigt Hill
#
# Bulk Modulus (GPa) = 44.95805 92.16576 68.56191
# Shear Modulus (GPa) = 26.59731 33.70855 30.15293
#
# Velocity S-wave (km/s) = 3.81006 4.28927 4.05675
# Velocity P-wave (km/s) = 6.62519 8.65064 7.70476
#
# Compressibility (1/GPa) = 0.02224296
#
# Stress axis : x y z
#
# Youngs Moduli (GPa) = 28.81953 85.58883 65.95226
#
# Poissons Ratio (x) = 0.73172 0.24193
# Poissons Ratio (y) = 0.24638 0.49026
# Poissons Ratio (z) = 0.10572 0.63623
#
# Static dielectric constant tensor:
#      x y z
#    x 1.617220 0.000000 0.000000 
#    y 0.000000 1.654940 0.000000 
#    z 0.000000 0.000000 1.589730 
# 
# From -- ./inp_files/6233.got.cif
#   From: 2010.05.17/outbox.cif.g08.bks.cpg/sg51_4_cif.got.tgz:6233.got - 2010.06.03 11:52:47.
