data_PCOD9401635
_publ_section_title
;
Structure prediction by ZEFSAII (Michael W. Deem and Ramdas Pophale) SiO2 
 PCOD9401635
Probable space group: P M M A
;
_chemical_formula_sum "Si O2"
_cell_formula_units_Z 64
_cell_length_a 19.264453
_cell_length_b 8.895821
_cell_length_c 21.986603
_cell_angle_alpha 90.000000
_cell_angle_beta 90.000000
_cell_angle_gamma 90.000000
_cell_volume 3767.912876
_symmetry_space_group_name_H-M "P M M A"
_symmetry_group_IT_number 51
_symmetry_cell_setting 'orthorhombic'
loop_
_space_group_symop_operation_xyz
x,y,z
1/2-x,-y,z
1/2+x,-y,-z
-x,y,-z
-x,-y,-z
1/2+x,y,-z
1/2-x,y,z
x,-y,z
loop_
_atom_site_type_symbol
_atom_site_label
_atom_site_fract_x
_atom_site_fract_y
_atom_site_fract_z
Si Si1 0.872470 0.671899 0.738943
Si Si2 0.527156 0.328442 0.319403
Si Si3 0.572509 0.318458 0.191795
Si Si4 0.926991 0.821053 0.853721
Si Si5 0.580844 0.320585 0.983440
Si Si6 0.673872 0.318323 0.609196
Si Si7 0.031326 0.179423 0.435321
Si Si8 0.332151 0.178812 0.906987
O O1 0.852940 0.500000 0.754213
O O2 0.876099 0.771100 0.799072
O O3 0.829579 0.725631 0.680652
O O4 0.950840 0.668332 0.711839
O O5 0.545033 0.500000 0.335866
O O6 0.574923 0.276463 0.263356
O O7 0.517873 0.232064 0.379806
O O8 0.567758 0.500000 0.188244
O O9 0.502326 0.249200 0.162914
O O10 0.635691 0.256720 0.152558
O O11 0.904945 0.752495 0.918063
O O12 0.932417 0.000000 0.856903
O O13 0.590826 0.500000 0.981135
O O14 0.500000 0.292513 0.000000
O O15 0.628358 0.248789 0.035347
O O16 0.750000 0.278354 0.584560
O O17 0.666746 0.500000 0.608133
O O18 0.607547 0.248484 0.576230
O O19 0.000000 0.227294 0.500000
O O20 0.036901 0.000000 0.434325
O O21 0.250000 0.203889 0.911343
O O22 0.345200 0.000000 0.904596
#
# Coordination Sequence:
#
# PCOD9401635 Si02
#       8
#     8   8   8   8   8   8   8   8
#     4   8  15  29  47  70 101 130 162 206 254 306
#     4   8  16  30  50  75 101 130 167 210 250 292
#     4  10  19  33  53  77 102 130 168 212 258 310
#     4  11  20  30  50  77 104 132 168 216 263 305
#     4  11  22  36  56  78 101 136 182 224 263 318
#     4   9  18  33  53  76 102 137 180 221 261 309
#     4  10  20  32  49  78 113 145 178 216 261 312
#     4  11  24  39  55  78 106 135 170 216 273 331
#
# _framework density 16.985531000000002
#
# number of rings (size 3 to 8) (size 9 to 14) (size 15 to 20)
#    0.000    2.250    1.250    4.125    0.000    7.750 
#    0.000    0.625    0.000    3.000    0.000    0.000 
#    0.000    0.000    0.000    0.000    0.000    0.000 
#
# Total GULP energy -356875.836775 kJ/mol
# GULP energy per Si atom -5576.184950 kJ/mol
# Density = 1.694687 g / cm^3
# Si number density = 16.985531 Si / 1000 Ang^3
#
#
#
# Elastic Constant Matrix: (Units=GPa)
#
#
# Indices 1 2 3 4 5 6 
#
# 1 78.2234 47.8830 61.8110 0.0000 0.0000 0.0000
# 2 47.8830 76.1562 64.5235 0.0000 0.0000 0.0000
# 3 61.8110 64.5235 148.8187 0.0000 0.0000 0.0000
# 4 0.0000 0.0000 0.0000 35.3849 0.0000 0.0000
# 5 0.0000 0.0000 0.0000 0.0000 17.7875 0.0000
# 6 0.0000 0.0000 0.0000 0.0000 0.0000 30.6714
#
#
#
# Elastic Compliance Matrix: (Units=1/GPa)
#
#
# Indices 1 2 3 4 5 6 
#
# 1 0.023082 -0.010100 -0.005208 0.000000 0.000000 0.000000
# 2 -0.010100 0.025175 -0.006720 0.000000 0.000000 0.000000
# 3 -0.005208 -0.006720 0.011796 0.000000 0.000000 0.000000
# 4 0.000000 0.000000 0.000000 0.028261 0.000000 0.000000
# 5 0.000000 0.000000 0.000000 0.000000 0.056219 0.000000
# 6 0.000000 0.000000 0.000000 0.000000 0.000000 0.032604
#
#
# Mechanical properties :
#
#
# Convention : Reuss Voigt Hill
#
# Bulk Modulus (GPa) = 62.51246 72.40369 67.45808
# Shear Modulus (GPa) = 22.07266 25.36750 23.72008
#
# Velocity S-wave (km/s) = 3.60877 3.86875 3.74101
# Velocity P-wave (km/s) = 7.36529 7.91678 7.64601
#
# Compressibility (1/GPa) = 0.01599681
#
# Stress axis : x y z
#
# Youngs Moduli (GPa) = 43.32453 39.72177 84.77346
#
# Poissons Ratio (x) = 0.40121 0.44146
# Poissons Ratio (y) = 0.43760 0.56968
# Poissons Ratio (z) = 0.22562 0.26693
#
# Static dielectric constant tensor:
#      x y z
#    x 1.577100 0.000000 0.000000 
#    y 0.000000 1.567010 0.000000 
#    z 0.000000 0.000000 1.581380 
# 
# From -- ./inp_files/33912.got.cif
#   From: 2010.05.17/outbox.cif.g08.bks.cpg/sg51_17_cif.got.tgz:33912.got - 2010.06.03 11:52:47.
