data_PCOD9401832
_publ_section_title
;
Structure prediction by ZEFSAII (Michael W. Deem and Ramdas Pophale) SiO2 
 PCOD9401832
Probable space group: P M M A
;
_chemical_formula_sum "Si O2"
_cell_formula_units_Z 40
_cell_length_a 7.607382
_cell_length_b 8.248524
_cell_length_c 29.059650
_cell_angle_alpha 90.000000
_cell_angle_beta 90.000000
_cell_angle_gamma 90.000000
_cell_volume 1823.483535
_symmetry_space_group_name_H-M "P M M A"
_symmetry_group_IT_number 51
_symmetry_cell_setting 'orthorhombic'
loop_
_space_group_symop_operation_xyz
x,y,z
1/2-x,-y,z
1/2+x,-y,-z
-x,y,-z
-x,-y,-z
1/2+x,y,-z
1/2-x,y,z
x,-y,z
loop_
_atom_site_type_symbol
_atom_site_label
_atom_site_fract_x
_atom_site_fract_y
_atom_site_fract_z
Si Si1 0.045326 0.324768 0.100691
Si Si2 0.539263 0.500000 0.553817
Si Si3 0.042472 0.816982 0.805556
Si Si4 0.461965 0.685639 0.295140
Si Si5 0.961473 0.000000 0.946198
Si Si6 0.464976 0.179862 0.392422
O O1 0.250000 0.330605 0.087055
O O2 0.966029 0.500000 0.089200
O O3 0.968097 0.164309 0.077173
O O4 0.038014 0.296383 0.155484
O O5 0.750000 0.500000 0.560227
O O6 0.500000 0.500000 0.500000
O O7 0.474684 0.333998 0.577703
O O8 0.250000 0.819173 0.814236
O O9 0.014443 0.757925 0.753742
O O10 0.972598 0.000000 0.810728
O O11 0.250000 0.683209 0.296252
O O12 0.523464 0.500000 0.299401
O O13 0.518864 0.787080 0.339615
O O14 0.750000 0.000000 0.939068
O O15 0.000000 0.000000 0.000000
O O16 0.250000 0.180077 0.393636
O O17 0.521989 0.000000 0.407413
#
# Coordination Sequence:
#
# PCOD9401832 Si02
#       6
#     8   4   8   8   4   8
#     4  10  21  39  62  86 113 150 195 237 278 332
#     4  10  20  36  56  80 108 140 184 230 277 332
#     4  11  23  36  52  80 118 155 189 229 282 338
#     4  10  19  33  55  82 109 142 187 233 277 331
#     4  10  22  40  62  88 118 150 190 240 287 334
#     4   9  17  32  55  80 107 140 180 228 274 323
#
# _framework density 21.936036000000001
#
# number of rings (size 3 to 8) (size 9 to 14) (size 15 to 20)
#    0.000    2.000    2.000    1.800    0.000    6.800 
#    0.000    1.000    0.000    1.200    0.000    0.000 
#    0.000    0.000    0.000    0.000    0.000    0.000 
#
# Total GULP energy -223490.665631 kJ/mol
# GULP energy per Si atom -5587.266641 kJ/mol
# Density = 2.188611 g / cm^3
# Si number density = 21.936036 Si / 1000 Ang^3
#
#
#
# Elastic Constant Matrix: (Units=GPa)
#
#
# Indices 1 2 3 4 5 6 
#
# 1 47.6310 12.5442 -9.2503 0.0000 0.0000 0.0000
# 2 12.5442 230.0105 80.8859 0.0000 0.0000 0.0000
# 3 -9.2503 80.8859 125.8246 0.0000 0.0000 0.0000
# 4 0.0000 0.0000 0.0000 17.5254 0.0000 0.0000
# 5 0.0000 0.0000 0.0000 0.0000 17.4307 0.0000
# 6 0.0000 0.0000 0.0000 0.0000 0.0000 -3.1841
#
#
#
# Elastic Compliance Matrix: (Units=1/GPa)
#
#
# Indices 1 2 3 4 5 6 
#
# 1 0.022207 -0.002307 0.003115 0.000000 0.000000 0.000000
# 2 -0.002307 0.005857 -0.003935 0.000000 0.000000 0.000000
# 3 0.003115 -0.003935 0.010706 0.000000 0.000000 0.000000
# 4 0.000000 0.000000 0.000000 0.057060 0.000000 0.000000
# 5 0.000000 0.000000 0.000000 0.000000 0.057370 0.000000
# 6 0.000000 0.000000 0.000000 0.000000 0.000000 -0.314059
#
#
# Mechanical properties :
#
#
# Convention : Reuss Voigt Hill
#
# Bulk Modulus (GPa) = 30.75184 63.53620 47.14402
# Shear Modulus (GPa) = -34.77864 27.64014 -3.56925
#
# Velocity S-wave (km/s) = -3.98610 3.55355 -1.27697
# Velocity P-wave (km/s) = 2.67133 6.77230 4.40046
#
# Compressibility (1/GPa) = 0.03251838
#
# Stress axis : x y z
#
# Youngs Moduli (GPa) = 45.03030 170.73111 93.40460
#
# Poissons Ratio (x) = 0.39383 -0.29100
# Poissons Ratio (y) = 0.10387 0.36753
# Poissons Ratio (z) = -0.14029 0.67180
#
# Static dielectric constant tensor:
#      x y z
#    x 1.816070 0.000000 0.000000 
#    y 0.000000 1.827430 0.000000 
#    z 0.000000 0.000000 1.742780 
# 
# From -- ./inp_files/36059.got.cif
#   From: 2010.05.17/outbox.cif.g08.bks.cpg/sg51_19_cif.got.tgz:36059.got - 2010.06.03 11:52:47.
