data_PCOD9401631
_publ_section_title
;
Structure prediction by ZEFSAII (Michael W. Deem and Ramdas Pophale) SiO2 
 PCOD9401631
Probable space group: P M M A
;
_chemical_formula_sum "Si O2"
_cell_formula_units_Z 52
_cell_length_a 8.029685
_cell_length_b 13.985743
_cell_length_c 24.796664
_cell_angle_alpha 90.000000
_cell_angle_beta 90.000000
_cell_angle_gamma 90.000000
_cell_volume 2784.692911
_symmetry_space_group_name_H-M "P M M A"
_symmetry_group_IT_number 51
_symmetry_cell_setting 'orthorhombic'
loop_
_space_group_symop_operation_xyz
x,y,z
1/2-x,-y,z
1/2+x,-y,-z
-x,y,-z
-x,-y,-z
1/2+x,y,-z
1/2-x,y,z
x,-y,z
loop_
_atom_site_type_symbol
_atom_site_label
_atom_site_fract_x
_atom_site_fract_y
_atom_site_fract_z
Si Si1 0.451902 0.607708 0.650790
Si Si2 0.553911 0.796494 0.168996
Si Si3 0.442244 0.888452 0.277470
Si Si4 0.559269 0.805760 0.382903
Si Si5 0.049597 0.889982 0.940624
Si Si6 0.951862 0.000000 0.437787
Si Si7 0.550698 0.607605 0.775996
O O1 0.250000 0.609523 0.649009
O O2 0.506523 0.500000 0.635143
O O3 0.513879 0.698306 0.615660
O O4 0.503292 0.622175 0.713242
O O5 0.750000 0.818213 0.171595
O O6 0.467837 0.856048 0.216482
O O7 0.491898 0.827197 0.110023
O O8 0.526179 0.687021 0.185501
O O9 0.250000 0.871333 0.292644
O O10 0.554368 0.831663 0.319516
O O11 0.479729 0.000000 0.282589
O O12 0.750000 0.799036 0.402140
O O13 0.484709 0.900381 0.411280
O O14 0.250000 0.892047 0.939193
O O15 0.989614 0.000000 0.934718
O O16 0.000000 0.855393 0.000000
O O17 0.000000 0.000000 0.500000
O O18 0.750000 0.000000 0.430893
O O19 0.750000 0.614801 0.779563
O O20 0.498403 0.500000 0.790231
#
# Coordination Sequence:
#
# PCOD9401631 Si02
#       7
#     8   8   8   8   8   4   8
#     4   9  17  30  50  76 104 137 174 210 258 318
#     4  11  21  33  51  74 102 137 174 211 256 315
#     4  11  22  32  46  74 108 139 169 206 260 315
#     4  10  19  33  53  76 104 138 173 216 262 310
#     4   9  19  35  53  73  97 129 169 212 258 307
#     4  10  22  38  56  78 104 142 187 222 267 314
#     4  10  20  32  47  72 106 138 170 212 260 309
#
# _framework density 18.673513
#
# number of rings (size 3 to 8) (size 9 to 14) (size 15 to 20)
#    0.000    2.000    2.308    1.846    0.000    4.308 
#    0.000    1.538    0.000    0.923    0.000    0.000 
#    0.000    0.000    0.000    0.000    0.000    0.000 
#
# Total GULP energy -289976.613818 kJ/mol
# GULP energy per Si atom -5576.473343 kJ/mol
# Density = 1.863101 g / cm^3
# Si number density = 18.673513 Si / 1000 Ang^3
#
#
#
# Elastic Constant Matrix: (Units=GPa)
#
#
# Indices 1 2 3 4 5 6 
#
# 1 14.4180 11.0849 -5.7191 0.0000 0.0000 0.0000
# 2 11.0849 132.0522 53.8932 0.0000 0.0000 0.0000
# 3 -5.7191 53.8932 70.7565 0.0000 0.0000 0.0000
# 4 0.0000 0.0000 0.0000 15.4983 0.0000 0.0000
# 5 0.0000 0.0000 0.0000 0.0000 19.6980 0.0000
# 6 0.0000 0.0000 0.0000 0.0000 0.0000 13.4744
#
#
#
# Elastic Compliance Matrix: (Units=1/GPa)
#
#
# Indices 1 2 3 4 5 6 
#
# 1 0.088216 -0.014968 0.018531 0.000000 0.000000 0.000000
# 2 -0.014968 0.013528 -0.011514 0.000000 0.000000 0.000000
# 3 0.018531 -0.011514 0.024401 0.000000 0.000000 0.000000
# 4 0.000000 0.000000 0.000000 0.064523 0.000000 0.000000
# 5 0.000000 0.000000 0.000000 0.000000 0.050767 0.000000
# 6 0.000000 0.000000 0.000000 0.000000 0.000000 0.074215
#
#
# Mechanical properties :
#
#
# Convention : Reuss Voigt Hill
#
# Bulk Modulus (GPa) = 9.07086 37.30498 23.18792
# Shear Modulus (GPa) = 13.57591 20.26531 16.92061
#
# Velocity S-wave (km/s) = 2.69925 3.29788 3.01346
# Velocity P-wave (km/s) = 3.81873 5.87556 4.95504
#
# Compressibility (1/GPa) = 0.11024313
#
# Stress axis : x y z
#
# Youngs Moduli (GPa) = 11.33580 73.91889 40.98246
#
# Poissons Ratio (x) = 1.10643 -0.75945
# Poissons Ratio (y) = 0.16968 0.47187
# Poissons Ratio (z) = -0.21006 0.85110
#
# Static dielectric constant tensor:
#      x y z
#    x 1.667830 0.000000 0.000000 
#    y 0.000000 1.701120 0.000000 
#    z 0.000000 0.000000 1.610480 
# 
# From -- ./inp_files/34736.got.cif
#   From: 2010.05.17/outbox.cif.g08.bks.cpg/sg51_18_cif.got.tgz:34736.got - 2010.06.03 11:52:47.
