data_PCOD9401177
_publ_section_title
;
Structure prediction by ZEFSAII (Michael W. Deem and Ramdas Pophale) SiO2 
 PCOD9401177
Probable space group: P M M A
;
_chemical_formula_sum "Si O2"
_cell_formula_units_Z 64
_cell_length_a 22.385716
_cell_length_b 14.148453
_cell_length_c 12.447072
_cell_angle_alpha 90.000000
_cell_angle_beta 90.000000
_cell_angle_gamma 90.000000
_cell_volume 3942.277106
_symmetry_space_group_name_H-M "P M M A"
_symmetry_group_IT_number 51
_symmetry_cell_setting 'orthorhombic'
loop_
_space_group_symop_operation_xyz
x,y,z
1/2-x,-y,z
1/2+x,-y,-z
-x,y,-z
-x,-y,-z
1/2+x,y,-z
1/2-x,y,z
x,-y,z
loop_
_atom_site_type_symbol
_atom_site_label
_atom_site_fract_x
_atom_site_fract_y
_atom_site_fract_z
Si Si1 0.319079 0.392058 0.576529
Si Si2 0.148092 0.390814 0.330035
Si Si3 0.819727 0.612285 0.077256
Si Si4 0.508905 0.387581 0.624499
Si Si5 0.182525 0.737810 0.135211
Si Si6 0.446805 0.109623 0.844947
Si Si7 0.582313 0.109602 0.901871
Si Si8 0.400003 0.706868 0.739581
O O1 0.250000 0.386583 0.607777
O O2 0.340488 0.500000 0.602185
O O3 0.325222 0.380627 0.449047
O O4 0.357754 0.315180 0.638257
O O5 0.157103 0.500000 0.297052
O O6 0.077243 0.373020 0.341411
O O7 0.176123 0.322134 0.243481
O O8 0.750000 0.626791 0.111068
O O9 0.828428 0.500000 0.064808
O O10 0.866281 0.653834 0.162994
O O11 0.827862 0.667312 0.965290
O O12 0.500000 0.356751 0.500000
O O13 0.497010 0.500000 0.626438
O O14 0.463213 0.337732 0.704869
O O15 0.250000 0.775195 0.125076
O O16 0.133557 0.819616 0.133408
O O17 0.517998 0.129677 0.847739
O O18 0.411954 0.185512 0.773784
O O19 0.438037 0.000000 0.813291
O O20 0.426587 0.118695 0.969336
O O21 0.596860 0.000000 0.879887
#
# Coordination Sequence:
#
# PCOD9401177 Si02
#       8
#     8   8   8   8   8   8   8   8
#     4  10  20  33  52  77 104 143 190 222 249 304
#     4  10  20  35  52  74 109 147 184 218 257 309
#     4  10  21  34  48  74 113 149 177 212 263 320
#     4  10  19  32  50  77 108 138 177 225 266 301
#     4  11  21  34  53  79 110 143 179 219 263 312
#     4   9  19  35  58  81 104 135 172 221 274 327
#     4   9  18  37  58  78 104 135 176 220 267 321
#     4  12  19  32  56  78 106 136 178 219 272 318
#
# _framework density 16.234272000000001
#
# number of rings (size 3 to 8) (size 9 to 14) (size 15 to 20)
#    0.000    1.875    2.500    3.750    0.000    2.500 
#    0.000    0.000    0.000    5.625    0.000    0.000 
#    0.000    0.000    0.000    0.000    0.000    0.000 
#
# Total GULP energy -357090.297832 kJ/mol
# GULP energy per Si atom -5579.535904 kJ/mol
# Density = 1.619732 g / cm^3
# Si number density = 16.234272 Si / 1000 Ang^3
#
#
#
# Elastic Constant Matrix: (Units=GPa)
#
#
# Indices 1 2 3 4 5 6 
#
# 1 76.0082 63.6570 29.1789 0.0000 0.0000 0.0000
# 2 63.6570 100.5468 45.4251 0.0000 0.0000 0.0000
# 3 29.1789 45.4251 59.5825 0.0000 0.0000 0.0000
# 4 0.0000 0.0000 0.0000 18.0378 0.0000 0.0000
# 5 0.0000 0.0000 0.0000 0.0000 28.0098 0.0000
# 6 0.0000 0.0000 0.0000 0.0000 0.0000 25.5556
#
#
#
# Elastic Compliance Matrix: (Units=1/GPa)
#
#
# Indices 1 2 3 4 5 6 
#
# 1 0.028010 -0.017597 -0.000301 0.000000 0.000000 0.000000
# 2 -0.017597 0.026226 -0.011377 0.000000 0.000000 0.000000
# 3 -0.000301 -0.011377 0.025605 0.000000 0.000000 0.000000
# 4 0.000000 0.000000 0.000000 0.055439 0.000000 0.000000
# 5 0.000000 0.000000 0.000000 0.000000 0.035702 0.000000
# 6 0.000000 0.000000 0.000000 0.000000 0.000000 0.039130
#
#
# Mechanical properties :
#
#
# Convention : Reuss Voigt Hill
#
# Bulk Modulus (GPa) = 46.96997 56.96218 51.96608
# Shear Modulus (GPa) = 18.13174 20.84574 19.48874
#
# Velocity S-wave (km/s) = 3.34560 3.58726 3.46854
# Velocity P-wave (km/s) = 6.62718 7.23338 6.93690
#
# Compressibility (1/GPa) = 0.02129020
#
# Stress axis : x y z
#
# Youngs Moduli (GPa) = 35.70191 38.12949 39.05538
#
# Poissons Ratio (x) = 0.67097 0.01176
# Poissons Ratio (y) = 0.62825 0.44433
# Poissons Ratio (z) = 0.01075 0.43380
#
# Static dielectric constant tensor:
#      x y z
#    x 1.553000 0.000000 0.000000 
#    y 0.000000 1.515110 0.000000 
#    z 0.000000 0.000000 1.538820 
# 
# From -- ./inp_files/18867.got.cif
#   From: 2010.05.17/outbox.cif.g08.bks.cpg/sg51_10_cif.got.tgz:18867.got - 2010.06.03 11:52:47.
