data_PCOD9401471
_publ_section_title
;
Structure prediction by ZEFSAII (Michael W. Deem and Ramdas Pophale) SiO2 
 PCOD9401471
Probable space group: P M M A
;
_chemical_formula_sum "Si O2"
_cell_formula_units_Z 64
_cell_length_a 20.677487
_cell_length_b 8.616756
_cell_length_c 20.552255
_cell_angle_alpha 90.000000
_cell_angle_beta 90.000000
_cell_angle_gamma 90.000000
_cell_volume 3661.854056
_symmetry_space_group_name_H-M "P M M A"
_symmetry_group_IT_number 51
_symmetry_cell_setting 'orthorhombic'
loop_
_space_group_symop_operation_xyz
x,y,z
1/2-x,-y,z
1/2+x,-y,-z
-x,y,-z
-x,-y,-z
1/2+x,y,-z
1/2-x,y,z
x,-y,z
loop_
_atom_site_type_symbol
_atom_site_label
_atom_site_fract_x
_atom_site_fract_y
_atom_site_fract_z
Si Si1 0.676641 0.187476 0.425735
Si Si2 0.324266 0.187376 0.095200
Si Si3 0.103256 0.685586 0.695167
Si Si4 0.564581 0.313987 0.812403
Si Si5 0.430851 0.812976 0.471542
Si Si6 0.676531 0.811003 0.054460
Si Si7 0.077632 0.813739 0.834811
Si Si8 0.455405 0.686165 0.333713
O O1 0.750000 0.232313 0.440927
O O2 0.654538 0.253677 0.356493
O O3 0.626282 0.240339 0.480902
O O4 0.673354 0.000000 0.422479
O O5 0.250000 0.231424 0.110916
O O6 0.376887 0.256392 0.143474
O O7 0.327899 0.000000 0.097723
O O8 0.336894 0.234815 0.020164
O O9 0.105896 0.500000 0.700774
O O10 0.108034 0.758785 0.766529
O O11 0.031634 0.728216 0.668490
O O12 0.561316 0.500000 0.813173
O O13 0.495376 0.250484 0.836765
O O14 0.571945 0.264770 0.736647
O O15 0.500000 0.758554 0.500000
O O16 0.424199 0.758142 0.397567
O O17 0.431460 0.000000 0.472096
O O18 0.750000 0.761969 0.071234
O O19 0.622707 0.759292 0.105690
O O20 0.676556 0.000000 0.055395
O O21 0.074739 0.000000 0.835900
O O22 0.450968 0.500000 0.337947
#
# Coordination Sequence:
#
# PCOD9401471 Si02
#       8
#     8   8   8   8   8   8   8   8
#     4  10  21  36  52  74 105 137 170 211 259 311
#     4   9  18  35  58  80 102 134 179 225 269 321
#     4  10  20  34  51  74 105 137 172 213 258 309
#     4  10  21  36  52  77 112 143 175 219 267 315
#     4  10  19  32  54  80 100 126 170 218 259 302
#     4   8  16  32  53  77 104 135 176 223 267 317
#     4  10  19  32  54  80 107 141 179 219 264 312
#     4   9  19  34  52  74 100 134 171 208 252 307
#
# _framework density 17.477485000000001
#
# number of rings (size 3 to 8) (size 9 to 14) (size 15 to 20)
#    0.000    2.500    1.250    2.625    0.000    4.750 
#    0.000    5.625    0.000    4.875    0.000    0.000 
#    0.000    0.000    0.000    0.000    0.000    0.000 
#
# Total GULP energy -356962.288758 kJ/mol
# GULP energy per Si atom -5577.535762 kJ/mol
# Density = 1.743771 g / cm^3
# Si number density = 17.477485 Si / 1000 Ang^3
#
#
#
# Elastic Constant Matrix: (Units=GPa)
#
#
# Indices 1 2 3 4 5 6 
#
# 1 136.7574 34.3183 109.9036 0.0000 0.0000 0.0000
# 2 34.3183 19.7855 29.4387 0.0000 0.0000 0.0000
# 3 109.9036 29.4387 144.7753 0.0000 0.0000 0.0000
# 4 0.0000 0.0000 0.0000 -50.9551 0.0000 0.0000
# 5 0.0000 0.0000 0.0000 0.0000 32.1415 0.0000
# 6 0.0000 0.0000 0.0000 0.0000 0.0000 10.1180
#
#
#
# Elastic Compliance Matrix: (Units=1/GPa)
#
#
# Indices 1 2 3 4 5 6 
#
# 1 0.023287 -0.020200 -0.013570 0.000000 0.000000 0.000000
# 2 -0.020200 0.089990 -0.002964 0.000000 0.000000 0.000000
# 3 -0.013570 -0.002964 0.017812 0.000000 0.000000 0.000000
# 4 0.000000 0.000000 0.000000 -0.019625 0.000000 0.000000
# 5 0.000000 0.000000 0.000000 0.000000 0.031112 0.000000
# 6 0.000000 0.000000 0.000000 0.000000 0.000000 0.098833
#
#
# Mechanical properties :
#
#
# Convention : Reuss Voigt Hill
#
# Bulk Modulus (GPa) = 17.35533 72.07103 44.71318
# Shear Modulus (GPa) = 14.96627 6.77139 10.86883
#
# Velocity S-wave (km/s) = 2.92946 1.97047 2.49645
# Velocity P-wave (km/s) = 4.62537 6.81931 5.82654
#
# Compressibility (1/GPa) = 0.05761918
#
# Stress axis : x y z
#
# Youngs Moduli (GPa) = 42.94229 11.11239 56.14320
#
# Poissons Ratio (x) = 0.22448 0.76188
# Poissons Ratio (y) = 0.86746 0.16639
# Poissons Ratio (z) = 0.58274 0.03293
#
# Static dielectric constant tensor:
#      x y z
#    x 1.582400 0.000000 0.000000 
#    y 0.000000 1.590900 0.000000 
#    z 0.000000 0.000000 1.584480 
# 
# From -- ./inp_files/33893.got.cif
#   From: 2010.05.17/outbox.cif.g08.bks.cpg/sg51_17_cif.got.tgz:33893.got - 2010.06.03 11:52:47.
