data_PCOD9401766
_publ_section_title
;
Structure prediction by ZEFSAII (Michael W. Deem and Ramdas Pophale) SiO2 
 PCOD9401766
Probable space group: P M M A
;
_chemical_formula_sum "Si O2"
_cell_formula_units_Z 52
_cell_length_a 25.585717
_cell_length_b 7.308877
_cell_length_c 12.241659
_cell_angle_alpha 90.000000
_cell_angle_beta 90.000000
_cell_angle_gamma 90.000000
_cell_volume 2289.225226
_symmetry_space_group_name_H-M "P M M A"
_symmetry_group_IT_number 51
_symmetry_cell_setting 'orthorhombic'
loop_
_space_group_symop_operation_xyz
x,y,z
1/2-x,-y,z
1/2+x,-y,-z
-x,y,-z
-x,-y,-z
1/2+x,y,-z
1/2-x,y,z
x,-y,z
loop_
_atom_site_type_symbol
_atom_site_label
_atom_site_fract_x
_atom_site_fract_y
_atom_site_fract_z
Si Si1 0.668380 0.292309 0.026037
Si Si2 0.602219 0.721918 0.439784
Si Si3 0.508859 0.289170 0.302969
Si Si4 0.391234 0.279178 0.305964
Si Si5 0.191615 0.722421 0.725792
Si Si6 0.550774 0.219977 0.067482
Si Si7 0.171617 0.000000 0.154452
O O1 0.686825 0.500000 0.014846
O O2 0.688107 0.158345 0.934358
O O3 0.680705 0.226237 0.148981
O O4 0.604895 0.289803 0.019202
O O5 0.600363 0.500000 0.431106
O O6 0.545772 0.788808 0.397449
O O7 0.614009 0.760640 0.565087
O O8 0.647214 0.785865 0.357399
O O9 0.498948 0.500000 0.333272
O O10 0.450986 0.218314 0.278530
O O11 0.542474 0.278450 0.192264
O O12 0.385444 0.500000 0.287813
O O13 0.351499 0.160583 0.236469
O O14 0.250000 0.778667 0.693900
O O15 0.190070 0.500000 0.724404
O O16 0.553269 0.000000 0.063029
O O17 0.500000 0.279885 0.000000
#
# Coordination Sequence:
#
# PCOD9401766 Si02
#       7
#     8   8   8   8   8   8   4
#     4  11  22  39  61  86 120 157 197 250 304 356
#     4   9  17  35  59  85 120 157 197 250 304 356
#     4  10  19  33  54  81 118 162 205 242 288 355
#     4  10  22  38  58  85 121 165 208 245 288 347
#     4   9  18  36  66  98 120 147 194 252 314 367
#     4  11  22  33  50  82 123 163 203 241 289 353
#     4  12  24  40  57  86 120 163 208 246 290 355
#
# _framework density 22.715109999999999
#
# number of rings (size 3 to 8) (size 9 to 14) (size 15 to 20)
#    0.000    1.846    2.308    2.308    3.231    4.308 
#    1.385    1.923    0.000    1.846    0.000    4.308 
#    0.000    0.000    0.000    0.000    0.000    0.000 
#
# Total GULP energy -289785.885884 kJ/mol
# GULP energy per Si atom -5572.805498 kJ/mol
# Density = 2.266341 g / cm^3
# Si number density = 22.715110 Si / 1000 Ang^3
#
#
#
# Elastic Constant Matrix: (Units=GPa)
#
#
# Indices 1 2 3 4 5 6 
#
# 1 62.9030 3.3008 20.3551 0.0000 0.0000 0.0000
# 2 3.3008 128.0990 30.6316 0.0000 0.0000 0.0000
# 3 20.3551 30.6316 94.7263 0.0000 0.0000 0.0000
# 4 0.0000 0.0000 0.0000 39.8364 0.0000 0.0000
# 5 0.0000 0.0000 0.0000 0.0000 -0.5275 0.0000
# 6 0.0000 0.0000 0.0000 0.0000 0.0000 -6.7328
#
#
#
# Elastic Compliance Matrix: (Units=1/GPa)
#
#
# Indices 1 2 3 4 5 6 
#
# 1 0.017112 0.000475 -0.003831 0.000000 0.000000 0.000000
# 2 0.000475 0.008474 -0.002842 0.000000 0.000000 0.000000
# 3 -0.003831 -0.002842 0.012299 0.000000 0.000000 0.000000
# 4 0.000000 0.000000 0.000000 0.025103 0.000000 0.000000
# 5 0.000000 0.000000 0.000000 0.000000 -1.895584 0.000000
# 6 0.000000 0.000000 0.000000 0.000000 0.000000 -0.148526
#
#
# Mechanical properties :
#
#
# Convention : Reuss Voigt Hill
#
# Bulk Modulus (GPa) = 39.23235 43.81148 41.52191
# Shear Modulus (GPa) = -2.55072 21.94461 9.69694
#
# Velocity S-wave (km/s) = -1.06083 3.11155 2.06838
# Velocity P-wave (km/s) = 3.97599 5.67788 4.90137
#
# Compressibility (1/GPa) = 0.02548917
#
# Stress axis : x y z
#
# Youngs Moduli (GPa) = 58.43791 118.00977 81.30747
#
# Poissons Ratio (x) = -0.05606 0.31147
# Poissons Ratio (y) = -0.02776 0.23110
# Poissons Ratio (z) = 0.22386 0.33542
#
# Static dielectric constant tensor:
#      x y z
#    x 1.862390 0.000000 0.000000 
#    y 0.000000 1.849400 0.000000 
#    z 0.000000 0.000000 1.799420 
# 
# From -- ./inp_files/19073.got.cif
#   From: 2010.05.17/outbox.cif.g08.bks.cpg/sg51_10_cif.got.tgz:19073.got - 2010.06.03 11:52:47.
