data_PCOD9401359
_publ_section_title
;
Structure prediction by ZEFSAII (Michael W. Deem and Ramdas Pophale) SiO2 
 PCOD9401359
Probable space group: P M M A
;
_chemical_formula_sum "Si O2"
_cell_formula_units_Z 56
_cell_length_a 16.547821
_cell_length_b 14.670036
_cell_length_c 12.799828
_cell_angle_alpha 90.000000
_cell_angle_beta 90.000000
_cell_angle_gamma 90.000000
_cell_volume 3107.249507
_symmetry_space_group_name_H-M "P M M A"
_symmetry_group_IT_number 51
_symmetry_cell_setting 'orthorhombic'
loop_
_space_group_symop_operation_xyz
x,y,z
1/2-x,-y,z
1/2+x,-y,-z
-x,y,-z
-x,-y,-z
1/2+x,y,-z
1/2-x,y,z
x,-y,z
loop_
_atom_site_type_symbol
_atom_site_label
_atom_site_fract_x
_atom_site_fract_y
_atom_site_fract_z
Si Si1 0.842846 0.776364 0.398094
Si Si2 0.846979 0.395544 0.272422
Si Si3 0.160462 0.208932 0.018645
Si Si4 0.374159 0.105895 0.803484
Si Si5 0.932817 0.895127 0.808774
Si Si6 0.092278 0.603418 0.961026
Si Si7 0.152144 0.893653 0.409050
O O1 0.750000 0.756107 0.426008
O O2 0.876170 0.681213 0.353382
O O3 0.843439 0.846410 0.301307
O O4 0.877894 0.827695 0.498559
O O5 0.750000 0.380572 0.251321
O O6 0.855234 0.500000 0.309257
O O7 0.895394 0.386748 0.163855
O O8 0.250000 0.189702 0.059478
O O9 0.095806 0.166205 0.096187
O O10 0.152400 0.162450 0.904988
O O11 0.144959 0.316214 0.009193
O O12 0.471239 0.109395 0.797794
O O13 0.349691 0.000000 0.811203
O O14 0.889173 0.870174 0.700704
O O15 0.910257 0.000000 0.832545
O O16 0.117819 0.500000 0.987437
O O17 0.000000 0.614466 0.000000
O O18 0.250000 0.887992 0.400586
O O19 0.133051 0.000000 0.433133
#
# Coordination Sequence:
#
# PCOD9401359 Si02
#       7
#     8   8   8   8   8   8   8
#     4  10  19  32  52  79 107 136 172 222 275 318
#     4   9  17  31  52  79 109 139 175 219 268 323
#     4  12  23  35  54  79 109 142 177 220 269 324
#     4  11  22  34  51  77 108 139 175 223 273 320
#     4  10  22  38  54  74 105 147 187 220 260 319
#     4  10  20  34  54  79 108 141 175 214 263 320
#     4   9  18  34  55  77 103 138 181 221 260 317
#
# _framework density 18.022369999999999
#
# number of rings (size 3 to 8) (size 9 to 14) (size 15 to 20)
#    0.000    1.857    1.429    3.429    0.000    5.714 
#    0.000    2.143    0.000    0.857    0.000    3.000 
#    0.000    0.000    0.000    0.000    0.000    0.000 
#
# Total GULP energy -312516.984281 kJ/mol
# GULP energy per Si atom -5580.660434 kJ/mol
# Density = 1.798135 g / cm^3
# Si number density = 18.022370 Si / 1000 Ang^3
#
#
#
# Elastic Constant Matrix: (Units=GPa)
#
#
# Indices 1 2 3 4 5 6 
#
# 1 35.6610 13.0243 8.9458 0.0000 0.0000 0.0000
# 2 13.0243 85.9604 34.0287 0.0000 0.0000 0.0000
# 3 8.9458 34.0287 61.6367 0.0000 0.0000 0.0000
# 4 0.0000 0.0000 0.0000 15.0042 0.0000 0.0000
# 5 0.0000 0.0000 0.0000 0.0000 58.7104 0.0000
# 6 0.0000 0.0000 0.0000 0.0000 0.0000 21.3265
#
#
#
# Elastic Compliance Matrix: (Units=1/GPa)
#
#
# Indices 1 2 3 4 5 6 
#
# 1 0.029950 -0.003605 -0.002357 0.000000 0.000000 0.000000
# 2 -0.003605 0.015321 -0.007935 0.000000 0.000000 0.000000
# 3 -0.002357 -0.007935 0.020947 0.000000 0.000000 0.000000
# 4 0.000000 0.000000 0.000000 0.066648 0.000000 0.000000
# 5 0.000000 0.000000 0.000000 0.000000 0.017033 0.000000
# 6 0.000000 0.000000 0.000000 0.000000 0.000000 0.046890
#
#
# Mechanical properties :
#
#
# Convention : Reuss Voigt Hill
#
# Bulk Modulus (GPa) = 26.02536 32.80617 29.41577
# Shear Modulus (GPa) = 21.06244 27.49218 24.27731
#
# Velocity S-wave (km/s) = 3.42231 3.90993 3.67422
# Velocity P-wave (km/s) = 5.48527 6.21498 5.86149
#
# Compressibility (1/GPa) = 0.03842406
#
# Stress axis : x y z
#
# Youngs Moduli (GPa) = 33.38940 65.27119 47.73960
#
# Poissons Ratio (x) = 0.23530 0.11250
# Poissons Ratio (y) = 0.12037 0.37882
# Poissons Ratio (z) = 0.07869 0.51793
#
# Static dielectric constant tensor:
#      x y z
#    x 1.625300 0.000000 0.000000 
#    y 0.000000 1.630950 0.000000 
#    z 0.000000 0.000000 1.586590 
# 
# From -- ./inp_files/16640.got.cif
#   From: 2010.05.17/outbox.cif.g08.bks.cpg/sg51_9_cif.got.tgz:16640.got - 2010.06.03 11:52:47.
