data_PCOD9401918
_publ_section_title
;
Structure prediction by ZEFSAII (Michael W. Deem and Ramdas Pophale) SiO2 
 PCOD9401918
Probable space group: P M M A
;
_chemical_formula_sum "Si O2"
_cell_formula_units_Z 40
_cell_length_a 8.953253
_cell_length_b 16.397019
_cell_length_c 14.900737
_cell_angle_alpha 90.000000
_cell_angle_beta 90.000000
_cell_angle_gamma 90.000000
_cell_volume 2187.527424
_symmetry_space_group_name_H-M "P M M A"
_symmetry_group_IT_number 51
_symmetry_cell_setting 'orthorhombic'
loop_
_space_group_symop_operation_xyz
x,y,z
1/2-x,-y,z
1/2+x,-y,-z
-x,y,-z
-x,-y,-z
1/2+x,y,-z
1/2-x,y,z
x,-y,z
loop_
_atom_site_type_symbol
_atom_site_label
_atom_site_fract_x
_atom_site_fract_y
_atom_site_fract_z
Si Si1 0.077954 0.713143 0.756062
Si Si2 0.418078 0.167577 0.920731
Si Si3 0.075544 0.402664 0.098146
Si Si4 0.570475 0.000000 0.658654
Si Si5 0.932142 0.000000 0.145931
Si Si6 0.570248 0.815559 0.595986
O O1 0.250000 0.690968 0.733415
O O2 0.082905 0.786170 0.827955
O O3 0.000151 0.642990 0.816814
O O4 0.993875 0.753041 0.671013
O O5 0.250000 0.155585 0.951186
O O6 0.489864 0.080492 0.902070
O O7 0.500000 0.213128 0.000000
O O8 0.250000 0.378377 0.092703
O O9 0.067276 0.500000 0.113750
O O10 0.000000 0.389367 0.000000
O O11 0.531917 0.088024 0.614364
O O12 0.750000 0.000000 0.669784
O O13 0.487855 0.000000 0.753179
O O14 0.750000 0.000000 0.146059
O O15 0.500000 0.794491 0.500000
O O16 0.750000 0.809860 0.594995
#
# Coordination Sequence:
#
# PCOD9401918 Si02
#       6
#     8   8   8   4   4   8
#     4  11  22  37  58  84 114 149 190 236 287 340
#     4  10  21  33  49  73 104 145 186 227 274 326
#     4  10  21  38  61  90 123 157 192 231 278 336
#     4  10  21  36  56  81 107 145 193 243 293 340
#     4  10  19  34  50  69 103 145 187 231 277 328
#     4  11  23  39  59  84 113 148 193 243 295 346
#
# _framework density 18.285484
#
# number of rings (size 3 to 8) (size 9 to 14) (size 15 to 20)
#    0.000    1.600    2.000    3.000    0.000    6.000 
#    0.000    0.000    0.000    0.600    0.000    0.000 
#    0.000    0.000    0.000    0.000    0.000    0.000 
#
# Total GULP energy -222950.622555 kJ/mol
# GULP energy per Si atom -5573.765564 kJ/mol
# Density = 1.824387 g / cm^3
# Si number density = 18.285484 Si / 1000 Ang^3
#
#
#
# Elastic Constant Matrix: (Units=GPa)
#
#
# Indices 1 2 3 4 5 6 
#
# 1 93.2728 44.9283 70.4546 0.0000 0.0000 0.0000
# 2 44.9283 93.6701 41.9009 0.0000 0.0000 0.0000
# 3 70.4546 41.9009 148.7573 0.0000 0.0000 0.0000
# 4 0.0000 0.0000 0.0000 8.3652 0.0000 0.0000
# 5 0.0000 0.0000 0.0000 0.0000 33.8472 0.0000
# 6 0.0000 0.0000 0.0000 0.0000 0.0000 24.9554
#
#
#
# Elastic Compliance Matrix: (Units=1/GPa)
#
#
# Indices 1 2 3 4 5 6 
#
# 1 0.019150 -0.005867 -0.007417 0.000000 0.000000 0.000000
# 2 -0.005867 0.014012 -0.001168 0.000000 0.000000 0.000000
# 3 -0.007417 -0.001168 0.010564 0.000000 0.000000 0.000000
# 4 0.000000 0.000000 0.000000 0.119542 0.000000 0.000000
# 5 0.000000 0.000000 0.000000 0.000000 0.029545 0.000000
# 6 0.000000 0.000000 0.000000 0.000000 0.000000 0.040071
#
#
# Mechanical properties :
#
#
# Convention : Reuss Voigt Hill
#
# Bulk Modulus (GPa) = 67.46857 72.25198 69.86027
# Shear Modulus (GPa) = 18.74546 25.32801 22.03673
#
# Velocity S-wave (km/s) = 3.20528 3.72579 3.47529
# Velocity P-wave (km/s) = 7.11870 7.62284 7.37508
#
# Compressibility (1/GPa) = 0.01482172
#
# Stress axis : x y z
#
# Youngs Moduli (GPa) = 52.21896 71.36490 94.65822
#
# Poissons Ratio (x) = 0.41872 0.70210
# Poissons Ratio (y) = 0.30639 0.11057
# Poissons Ratio (z) = 0.38732 0.08336
#
# Static dielectric constant tensor:
#      x y z
#    x 1.652090 0.000000 0.000000 
#    y 0.000000 1.672450 0.000000 
#    z 0.000000 0.000000 1.605110 
# 
# From -- ./inp_files/20544.got.cif
#   From: 2010.05.17/outbox.cif.g08.bks.cpg/sg51_11_cif.got.tgz:20544.got - 2010.06.03 11:52:47.
