data_PCOD9401132
_publ_section_title
;
Structure prediction by ZEFSAII (Michael W. Deem and Ramdas Pophale) SiO2 
 PCOD9401132
Probable space group: P M M A
;
_chemical_formula_sum "Si O2"
_cell_formula_units_Z 64
_cell_length_a 24.692353
_cell_length_b 9.259617
_cell_length_c 16.472680
_cell_angle_alpha 90.000000
_cell_angle_beta 90.000000
_cell_angle_gamma 90.000000
_cell_volume 3766.342079
_symmetry_space_group_name_H-M "P M M A"
_symmetry_group_IT_number 51
_symmetry_cell_setting 'orthorhombic'
loop_
_space_group_symop_operation_xyz
x,y,z
1/2-x,-y,z
1/2+x,-y,-z
-x,y,-z
-x,-y,-z
1/2+x,y,-z
1/2-x,y,z
x,-y,z
loop_
_atom_site_type_symbol
_atom_site_label
_atom_site_fract_x
_atom_site_fract_y
_atom_site_fract_z
Si Si1 0.188140 0.825625 0.470620
Si Si2 0.390099 0.830493 0.612963
Si Si3 0.972474 0.672316 0.277996
Si Si4 0.186699 0.165571 0.768523
Si Si5 0.916870 0.673796 0.802817
Si Si6 0.562500 0.830223 0.972966
Si Si7 0.311395 0.672619 0.297942
Si Si8 0.893401 0.328931 0.127140
O O1 0.250000 0.790262 0.498584
O O2 0.141157 0.778068 0.532665
O O3 0.180939 0.754918 0.382768
O O4 0.185535 0.000000 0.465299
O O5 0.442664 0.748677 0.646954
O O6 0.345779 0.817851 0.684793
O O7 0.402956 0.000000 0.602980
O O8 0.968710 0.500000 0.289085
O O9 0.939024 0.708080 0.195341
O O10 0.034570 0.711302 0.259702
O O11 0.250000 0.185358 0.755276
O O12 0.162087 0.276286 0.832480
O O13 0.177238 0.000000 0.796535
O O14 0.919541 0.500000 0.815470
O O15 0.927410 0.753097 0.887392
O O16 0.858778 0.710794 0.764610
O O17 0.574753 0.000000 0.967227
O O18 0.500000 0.814398 0.000000
O O19 0.595946 0.754397 0.044336
O O20 0.250000 0.703444 0.268908
O O21 0.315067 0.500000 0.312334
O O22 0.895106 0.500000 0.114183
#
# Coordination Sequence:
#
# PCOD9401132 Si02
#       8
#     8   8   8   8   8   8   8   8
#     4   9  17  31  52  76 102 134 173 214 256 303
#     4   9  17  29  48  74 103 135 172 211 253 299
#     4   9  18  31  48  72 101 134 168 204 252 306
#     4   9  17  30  48  70 101 138 172 209 253 300
#     4  10  20  36  56  76 102 135 169 209 261 314
#     4  11  22  34  53  80 104 127 166 213 254 303
#     4   9  19  36  57  79 101 129 169 215 259 302
#     4  10  19  32  50  72 101 134 169 209 250 301
#
# _framework density 16.992615000000001
#
# number of rings (size 3 to 8) (size 9 to 14) (size 15 to 20)
#    0.000    2.500    1.250    1.125    0.000    4.250 
#    0.000    1.250    0.000    8.250    0.000    0.000 
#    0.000    0.000    0.000    0.000    0.000    0.000 
#
# Total GULP energy -356774.907884 kJ/mol
# GULP energy per Si atom -5574.607936 kJ/mol
# Density = 1.695394 g / cm^3
# Si number density = 16.992615 Si / 1000 Ang^3
#
#
#
# Elastic Constant Matrix: (Units=GPa)
#
#
# Indices 1 2 3 4 5 6 
#
# 1 99.1638 41.3419 51.4787 0.0000 0.0000 0.0000
# 2 41.3419 35.4542 40.4444 0.0000 0.0000 0.0000
# 3 51.4787 40.4444 77.3088 0.0000 0.0000 0.0000
# 4 0.0000 0.0000 0.0000 28.7590 0.0000 0.0000
# 5 0.0000 0.0000 0.0000 0.0000 27.5058 0.0000
# 6 0.0000 0.0000 0.0000 0.0000 0.0000 22.7252
#
#
#
# Elastic Compliance Matrix: (Units=1/GPa)
#
#
# Indices 1 2 3 4 5 6 
#
# 1 0.019858 -0.020017 -0.002751 0.000000 0.000000 0.000000
# 2 -0.020017 0.090130 -0.033823 0.000000 0.000000 0.000000
# 3 -0.002751 -0.033823 0.032461 0.000000 0.000000 0.000000
# 4 0.000000 0.000000 0.000000 0.034772 0.000000 0.000000
# 5 0.000000 0.000000 0.000000 0.000000 0.036356 0.000000
# 6 0.000000 0.000000 0.000000 0.000000 0.000000 0.044004
#
#
# Mechanical properties :
#
#
# Convention : Reuss Voigt Hill
#
# Bulk Modulus (GPa) = 34.16756 53.16186 43.66471
# Shear Modulus (GPa) = 13.13998 21.04214 17.09106
#
# Velocity S-wave (km/s) = 2.78380 3.52278 3.17487
# Velocity P-wave (km/s) = 5.52120 6.92097 6.26033
#
# Compressibility (1/GPa) = 0.02926753
#
# Stress axis : x y z
#
# Youngs Moduli (GPa) = 50.35842 11.09505 30.80600
#
# Poissons Ratio (x) = 0.22209 0.08474
# Poissons Ratio (y) = 1.00805 1.04194
# Poissons Ratio (z) = 0.13852 0.37526
#
# Static dielectric constant tensor:
#      x y z
#    x 1.584240 0.000000 0.000000 
#    y 0.000000 1.568970 0.000000 
#    z 0.000000 0.000000 1.547480 
# 
# From -- ./inp_files/26266.got.cif
#   From: 2010.05.17/outbox.cif.g08.bks.cpg/sg51_14_cif.got.tgz:26266.got - 2010.06.03 11:52:47.
