data_PCOD9401839
_publ_section_title
;
Structure prediction by ZEFSAII (Michael W. Deem and Ramdas Pophale) SiO2 
 PCOD9401839
Probable space group: P M M A
;
_chemical_formula_sum "Si O2"
_cell_formula_units_Z 64
_cell_length_a 14.848905
_cell_length_b 9.050584
_cell_length_c 25.034694
_cell_angle_alpha 90.000000
_cell_angle_beta 90.000000
_cell_angle_gamma 90.000000
_cell_volume 3364.444121
_symmetry_space_group_name_H-M "P M M A"
_symmetry_group_IT_number 51
_symmetry_cell_setting 'orthorhombic'
loop_
_space_group_symop_operation_xyz
x,y,z
1/2-x,-y,z
1/2+x,-y,-z
-x,y,-z
-x,-y,-z
1/2+x,y,-z
1/2-x,y,z
x,-y,z
loop_
_atom_site_type_symbol
_atom_site_label
_atom_site_fract_x
_atom_site_fract_y
_atom_site_fract_z
Si Si1 0.144713 0.322372 0.226899
Si Si2 0.852014 0.823397 0.096224
Si Si3 0.895098 0.329957 0.483998
Si Si4 0.854084 0.674299 0.981150
Si Si5 0.531644 0.323114 0.878441
Si Si6 0.846298 0.823391 0.590203
Si Si7 0.354656 0.322900 0.637515
Si Si8 0.477380 0.822319 0.317758
O O1 0.250000 0.279258 0.229566
O O2 0.140092 0.500000 0.235106
O O3 0.100978 0.290509 0.169178
O O4 0.082792 0.241440 0.270188
O O5 0.750000 0.780039 0.113224
O O6 0.935113 0.753602 0.128146
O O7 0.857526 0.000000 0.097491
O O8 0.863086 0.765063 0.035503
O O9 0.863997 0.500000 0.486539
O O10 0.850405 0.237053 0.530674
O O11 0.876390 0.277147 0.423924
O O12 0.000000 0.327033 0.500000
O O13 0.750000 0.687761 0.962571
O O14 0.869628 0.500000 0.992880
O O15 0.921899 0.720387 0.934535
O O16 0.518624 0.500000 0.879935
O O17 0.750000 0.780488 0.614843
O O18 0.926771 0.771952 0.627752
O O19 0.851060 0.000000 0.588197
O O20 0.250000 0.292463 0.648255
O O21 0.369046 0.500000 0.640360
O O22 0.422776 0.242533 0.677346
O O23 0.479053 0.000000 0.315542
#
# Coordination Sequence:
#
# PCOD9401839 Si02
#       8
#     8   8   8   8   8   8   8   8
#     4  10  22  41  64  88 113 142 180 229 284 338
#     4  10  21  35  51  77 115 155 192 229 271 322
#     4  10  19  33  55  82 112 144 180 224 271 323
#     4   9  17  31  53  81 114 150 186 226 274 329
#     4  10  20  35  57  84 111 143 186 233 280 332
#     4  10  21  35  52  77 110 146 181 218 265 324
#     4  10  21  38  59  83 113 148 188 233 278 328
#     4  11  23  39  59  82 112 146 185 230 277 332
#
# _framework density 19.022459999999999
#
# number of rings (size 3 to 8) (size 9 to 14) (size 15 to 20)
#    0.000    2.000    1.250    2.250    0.000    7.750 
#    0.000    0.625    0.000    3.000    0.000    0.000 
#    0.000    0.000    0.000    0.000    0.000    0.000 
#
# Total GULP energy -357234.972973 kJ/mol
# GULP energy per Si atom -5581.796453 kJ/mol
# Density = 1.897916 g / cm^3
# Si number density = 19.022460 Si / 1000 Ang^3
#
#
#
# Elastic Constant Matrix: (Units=GPa)
#
#
# Indices 1 2 3 4 5 6 
#
# 1 150.1710 45.5476 46.1767 0.0000 0.0000 0.0000
# 2 45.5476 23.9202 22.0837 0.0000 0.0000 0.0000
# 3 46.1767 22.0837 48.8170 0.0000 0.0000 0.0000
# 4 0.0000 0.0000 0.0000 -13.2382 0.0000 0.0000
# 5 0.0000 0.0000 0.0000 0.0000 30.2914 0.0000
# 6 0.0000 0.0000 0.0000 0.0000 0.0000 24.7730
#
#
#
# Elastic Compliance Matrix: (Units=1/GPa)
#
#
# Indices 1 2 3 4 5 6 
#
# 1 0.015913 -0.028168 -0.002310 0.000000 0.000000 0.000000
# 2 -0.028168 0.121649 -0.028387 0.000000 0.000000 0.000000
# 3 -0.002310 -0.028387 0.035511 0.000000 0.000000 0.000000
# 4 0.000000 0.000000 0.000000 -0.075539 0.000000 0.000000
# 5 0.000000 0.000000 0.000000 0.000000 0.033013 0.000000
# 6 0.000000 0.000000 0.000000 0.000000 0.000000 0.040367
#
#
# Mechanical properties :
#
#
# Convention : Reuss Voigt Hill
#
# Bulk Modulus (GPa) = 18.06875 50.05824 34.06350
# Shear Modulus (GPa) = 16.28191 15.63858 15.96024
#
# Velocity S-wave (km/s) = 2.92880 2.87036 2.89973
# Velocity P-wave (km/s) = 4.57782 6.11210 5.39973
#
# Compressibility (1/GPa) = 0.05534418
#
# Stress axis : x y z
#
# Youngs Moduli (GPa) = 62.84255 8.22036 28.16048
#
# Poissons Ratio (x) = 0.23155 0.06504
# Poissons Ratio (y) = 1.77016 0.79938
# Poissons Ratio (z) = 0.14514 0.23335
#
# Static dielectric constant tensor:
#      x y z
#    x 1.704160 0.000000 0.000000 
#    y 0.000000 1.637930 0.000000 
#    z 0.000000 0.000000 1.642870 
# 
# From -- ./inp_files/35758.got.cif
#   From: 2010.05.17/outbox.cif.g08.bks.cpg/sg51_18_cif.got.tgz:35758.got - 2010.06.03 11:52:47.
