data_PCOD9401469
_publ_section_title
;
Structure prediction by ZEFSAII (Michael W. Deem and Ramdas Pophale) SiO2 
 PCOD9401469
Probable space group: P M M A
;
_chemical_formula_sum "Si O2"
_cell_formula_units_Z 64
_cell_length_a 14.897673
_cell_length_b 18.382521
_cell_length_c 12.738672
_cell_angle_alpha 90.000000
_cell_angle_beta 90.000000
_cell_angle_gamma 90.000000
_cell_volume 3488.571782
_symmetry_space_group_name_H-M "P M M A"
_symmetry_group_IT_number 51
_symmetry_cell_setting 'orthorhombic'
loop_
_space_group_symop_operation_xyz
x,y,z
1/2-x,-y,z
1/2+x,-y,-z
-x,y,-z
-x,-y,-z
1/2+x,y,-z
1/2-x,y,z
x,-y,z
loop_
_atom_site_type_symbol
_atom_site_label
_atom_site_fract_x
_atom_site_fract_y
_atom_site_fract_z
Si Si1 0.146206 0.834732 0.706189
Si Si2 0.855546 0.710331 0.126734
Si Si3 0.982498 0.916282 0.625090
Si Si4 0.497255 0.583430 0.836184
Si Si5 0.858879 0.217156 0.681944
Si Si6 0.447440 0.422296 0.608665
Si Si7 0.644902 0.692755 0.890229
Si Si8 0.147258 0.284704 0.529254
O O1 0.250000 0.857681 0.722463
O O2 0.120348 0.777803 0.798148
O O3 0.142912 0.787347 0.599254
O O4 0.073875 0.897243 0.687828
O O5 0.750000 0.695078 0.146182
O O6 0.914261 0.638314 0.146180
O O7 0.867017 0.729279 0.003910
O O8 0.908166 0.859201 0.664643
O O9 0.000000 0.906205 0.500000
O O10 0.956285 0.000000 0.640970
O O11 0.482340 0.500000 0.869917
O O12 0.509931 0.582343 0.710242
O O13 0.582870 0.621636 0.887379
O O14 0.750000 0.209345 0.674471
O O15 0.879805 0.255395 0.792614
O O16 0.893218 0.267707 0.584997
O O17 0.500000 0.425109 0.500000
O O18 0.397190 0.500000 0.619909
O O19 0.390527 0.350076 0.597448
O O20 0.750000 0.674087 0.878814
O O21 0.250000 0.303397 0.508629
#
# Coordination Sequence:
#
# PCOD9401469 Si02
#       8
#     8   8   8   8   8   8   8   8
#     4  10  20  36  58  83 109 141 179 223 268 317
#     4  10  21  38  58  81 108 141 186 233 275 320
#     4  11  23  36  56  87 119 149 172 205 269 333
#     4  11  22  35  53  78 110 147 185 230 284 329
#     4  10  21  37  58  84 110 142 184 225 266 319
#     4  10  21  33  48  74 108 145 181 223 276 329
#     4  10  22  38  57  80 106 143 190 232 270 319
#     4  10  19  32  54  79 102 138 182 225 270 316
#
# _framework density 18.345617000000001
#
# number of rings (size 3 to 8) (size 9 to 14) (size 15 to 20)
#    0.000    1.750    2.500    1.875    1.750    2.250 
#    0.000    3.750    0.000    6.000    0.000    3.500 
#    0.000    0.000    0.000    0.000    0.000    0.000 
#
# Total GULP energy -356968.440110 kJ/mol
# GULP energy per Si atom -5577.631877 kJ/mol
# Density = 1.830386 g / cm^3
# Si number density = 18.345617 Si / 1000 Ang^3
#
#
#
# Elastic Constant Matrix: (Units=GPa)
#
#
# Indices 1 2 3 4 5 6 
#
# 1 42.2653 27.5580 14.6483 0.0000 0.0000 0.0000
# 2 27.5580 76.7013 14.6726 0.0000 0.0000 0.0000
# 3 14.6483 14.6726 104.3780 0.0000 0.0000 0.0000
# 4 0.0000 0.0000 0.0000 7.6627 0.0000 0.0000
# 5 0.0000 0.0000 0.0000 0.0000 20.8891 0.0000
# 6 0.0000 0.0000 0.0000 0.0000 0.0000 -7.0797
#
#
#
# Elastic Compliance Matrix: (Units=1/GPa)
#
#
# Indices 1 2 3 4 5 6 
#
# 1 0.031748 -0.010846 -0.002931 0.000000 0.000000 0.000000
# 2 -0.010846 0.017103 -0.000882 0.000000 0.000000 0.000000
# 3 -0.002931 -0.000882 0.010116 0.000000 0.000000 0.000000
# 4 0.000000 0.000000 0.000000 0.130503 0.000000 0.000000
# 5 0.000000 0.000000 0.000000 0.000000 0.047872 0.000000
# 6 0.000000 0.000000 0.000000 0.000000 0.000000 -0.141250
#
#
# Mechanical properties :
#
#
# Convention : Reuss Voigt Hill
#
# Bulk Modulus (GPa) = 33.72800 37.45582 35.59191
# Shear Modulus (GPa) = 36.95706 15.39215 26.17460
#
# Velocity S-wave (km/s) = 4.49318 2.89971 3.78133
# Velocity P-wave (km/s) = 6.73371 5.62780 6.20544
#
# Compressibility (1/GPa) = 0.02964896
#
# Stress axis : x y z
#
# Youngs Moduli (GPa) = 31.49840 58.46866 98.85463
#
# Poissons Ratio (x) = 0.63415 0.28972
# Poissons Ratio (y) = 0.34163 0.08720
# Poissons Ratio (z) = 0.09231 0.05158
#
# Static dielectric constant tensor:
#      x y z
#    x 1.660690 0.000000 0.000000 
#    y 0.000000 1.623130 0.000000 
#    z 0.000000 0.000000 1.664520 
# 
# From -- ./inp_files/16841.got.cif
#   From: 2010.05.17/outbox.cif.g08.bks.cpg/sg51_9_cif.got.tgz:16841.got - 2010.06.03 11:52:47.
