data_PCOD9401560
_publ_section_title
;
Structure prediction by ZEFSAII (Michael W. Deem and Ramdas Pophale) SiO2 
 PCOD9401560
Probable space group: P M M A
;
_chemical_formula_sum "Si O2"
_cell_formula_units_Z 52
_cell_length_a 9.103270
_cell_length_b 23.397433
_cell_length_c 15.080033
_cell_angle_alpha 90.000000
_cell_angle_beta 90.000000
_cell_angle_gamma 90.000000
_cell_volume 3211.943729
_symmetry_space_group_name_H-M "P M M A"
_symmetry_group_IT_number 51
_symmetry_cell_setting 'orthorhombic'
loop_
_space_group_symop_operation_xyz
x,y,z
1/2-x,-y,z
1/2+x,-y,-z
-x,y,-z
-x,-y,-z
1/2+x,y,-z
1/2-x,y,z
x,-y,z
loop_
_atom_site_type_symbol
_atom_site_label
_atom_site_fract_x
_atom_site_fract_y
_atom_site_fract_z
Si Si1 0.927294 0.106639 0.224430
Si Si2 0.415770 0.569299 0.415037
Si Si3 0.573810 0.000000 0.096782
Si Si4 0.425734 0.790973 0.904199
Si Si5 0.075196 0.931381 0.406203
Si Si6 0.574564 0.339780 0.095208
Si Si7 0.428298 0.566486 0.217972
O O1 0.750000 0.105872 0.237372
O O2 0.969118 0.164185 0.171600
O O3 0.004200 0.097565 0.319257
O O4 0.964534 0.054961 0.156815
O O5 0.500000 0.591311 0.500000
O O6 0.250000 0.590539 0.417541
O O7 0.410481 0.500000 0.420927
O O8 0.478509 0.580459 0.318183
O O9 0.750000 0.000000 0.084037
O O10 0.500000 0.000000 0.000000
O O11 0.250000 0.796341 0.916785
O O12 0.456852 0.725616 0.875945
O O13 0.500000 0.801755 0.000000
O O14 0.250000 0.920805 0.409955
O O15 0.000000 0.914744 0.500000
O O16 0.052688 0.000000 0.396330
O O17 0.750000 0.346604 0.089828
O O18 0.503840 0.388315 0.155189
O O19 0.500000 0.345488 0.000000
O O20 0.250000 0.570628 0.215086
O O21 0.464170 0.500000 0.198307
#
# Coordination Sequence:
#
# PCOD9401560 Si02
#       7
#     8   8   4   8   8   8   8
#     4  10  19  33  51  73 101 132 165 203 248 292
#     4   8  14  25  42  65  93 122 150 182 224 275
#     4  10  20  30  45  70 101 132 159 194 242 290
#     4   9  19  34  52  73  98 129 165 205 244 290
#     4  10  20  33  51  75 102 133 168 207 249 297
#     4  10  20  34  51  71  95 127 166 204 245 292
#     4   9  18  32  49  71  99 128 159 200 249 296
#
# _framework density 16.189574
#
# number of rings (size 3 to 8) (size 9 to 14) (size 15 to 20)
#    0.000    2.615    0.769    2.308    0.000    3.692 
#    0.000    1.538    0.000    0.923    0.000    2.154 
#    0.000    0.000    0.000    0.000    0.000    0.000 
#
# Total GULP energy -289701.126892 kJ/mol
# GULP energy per Si atom -5571.175517 kJ/mol
# Density = 1.615273 g / cm^3
# Si number density = 16.189574 Si / 1000 Ang^3
#
#
#
# Elastic Constant Matrix: (Units=GPa)
#
#
# Indices 1 2 3 4 5 6 
#
# 1 46.7825 51.9476 63.6838 0.0000 0.0000 0.0000
# 2 51.9476 105.7031 97.6336 0.0000 0.0000 0.0000
# 3 63.6838 97.6336 154.5511 0.0000 0.0000 0.0000
# 4 0.0000 0.0000 0.0000 3.4940 0.0000 0.0000
# 5 0.0000 0.0000 0.0000 0.0000 35.2824 0.0000
# 6 0.0000 0.0000 0.0000 0.0000 0.0000 15.3963
#
#
#
# Elastic Compliance Matrix: (Units=1/GPa)
#
#
# Indices 1 2 3 4 5 6 
#
# 1 0.057396 -0.015275 -0.014001 0.000000 0.000000 0.000000
# 2 -0.015275 0.026779 -0.010623 0.000000 0.000000 0.000000
# 3 -0.014001 -0.010623 0.018950 0.000000 0.000000 0.000000
# 4 0.000000 0.000000 0.000000 0.286208 0.000000 0.000000
# 5 0.000000 0.000000 0.000000 0.000000 0.028343 0.000000
# 6 0.000000 0.000000 0.000000 0.000000 0.000000 0.064951
#
#
# Mechanical properties :
#
#
# Convention : Reuss Voigt Hill
#
# Bulk Modulus (GPa) = 42.86714 81.50742 62.18728
# Shear Modulus (GPa) = 8.76884 17.08599 12.92742
#
# Velocity S-wave (km/s) = 2.32983 3.25217 2.82884
# Velocity P-wave (km/s) = 5.81147 8.03474 7.01179
#
# Compressibility (1/GPa) = 0.02332789
#
# Stress axis : x y z
#
# Youngs Moduli (GPa) = 17.42277 37.34213 52.77007
#
# Poissons Ratio (x) = 0.57041 0.73882
# Poissons Ratio (y) = 0.26614 0.56057
# Poissons Ratio (z) = 0.24393 0.39668
#
# Static dielectric constant tensor:
#      x y z
#    x 1.545670 0.000000 0.000000 
#    y 0.000000 1.534620 0.000000 
#    z 0.000000 0.000000 1.542210 
# 
# From -- ./inp_files/21520.got.cif
#   From: 2010.05.17/outbox.cif.g08.bks.cpg/sg51_11_cif.got.tgz:21520.got - 2010.06.03 11:52:47.
