data_PCOD9401549
_publ_section_title
;
Structure prediction by ZEFSAII (Michael W. Deem and Ramdas Pophale) SiO2 
 PCOD9401549
Probable space group: P M M A
;
_chemical_formula_sum "Si O2"
_cell_formula_units_Z 44
_cell_length_a 7.474773
_cell_length_b 18.781904
_cell_length_c 14.799723
_cell_angle_alpha 90.000000
_cell_angle_beta 90.000000
_cell_angle_gamma 90.000000
_cell_volume 2077.740052
_symmetry_space_group_name_H-M "P M M A"
_symmetry_group_IT_number 51
_symmetry_cell_setting 'orthorhombic'
loop_
_space_group_symop_operation_xyz
x,y,z
1/2-x,-y,z
1/2+x,-y,-z
-x,y,-z
-x,-y,-z
1/2+x,y,-z
1/2-x,y,z
x,-y,z
loop_
_atom_site_type_symbol
_atom_site_label
_atom_site_fract_x
_atom_site_fract_y
_atom_site_fract_z
Si Si1 0.969271 0.141230 0.708730
Si Si2 0.463622 0.716860 0.394204
Si Si3 0.963642 0.644695 0.899602
Si Si4 0.535721 0.000000 0.606679
Si Si5 0.463721 0.807881 0.100562
Si Si6 0.968981 0.420917 0.713082
O O1 0.750000 0.140301 0.706852
O O2 0.028884 0.213151 0.658107
O O3 0.031068 0.071309 0.655911
O O4 0.026253 0.147443 0.813251
O O5 0.500000 0.721539 0.500000
O O6 0.250000 0.716468 0.381245
O O7 0.530308 0.643224 0.351044
O O8 0.750000 0.649034 0.890422
O O9 0.033288 0.726226 0.894334
O O10 0.026294 0.598559 0.815151
O O11 0.000000 0.616649 0.000000
O O12 0.500000 0.000000 0.500000
O O13 0.750000 0.000000 0.616876
O O14 0.250000 0.803282 0.109049
O O15 0.500000 0.835766 0.000000
O O16 0.750000 0.421422 0.711507
O O17 0.027893 0.500000 0.687187
#
# Coordination Sequence:
#
# PCOD9401549 Si02
#       6
#     8   8   8   4   8   8
#     4   9  17  32  53  73  97 129 161 191 233 289
#     4  10  19  33  51  70  92 122 160 199 237 282
#     4   9  16  28  47  69  93 122 156 193 232 277
#     4  10  20  34  53  76 100 128 161 200 241 282
#     4   9  16  29  49  72  96 125 159 193 230 277
#     4   9  17  30  48  68  92 125 161 193 232 286
#
# _framework density 21.176856000000001
#
# number of rings (size 3 to 8) (size 9 to 14) (size 15 to 20)
#    0.000    2.727    1.818    0.545    0.000    0.727 
#    0.000    3.182    0.000    1.091    0.000    0.000 
#    0.000    0.000    0.000    0.000    0.000    0.000 
#
# Total GULP energy -245595.464940 kJ/mol
# GULP energy per Si atom -5581.715112 kJ/mol
# Density = 2.112866 g / cm^3
# Si number density = 21.176856 Si / 1000 Ang^3
#
#
#
# Elastic Constant Matrix: (Units=GPa)
#
#
# Indices 1 2 3 4 5 6 
#
# 1 58.2785 8.8442 -3.3728 0.0000 0.0000 0.0000
# 2 8.8442 170.2631 113.4588 0.0000 0.0000 0.0000
# 3 -3.3728 113.4588 187.4235 0.0000 0.0000 0.0000
# 4 0.0000 0.0000 0.0000 17.0672 0.0000 0.0000
# 5 0.0000 0.0000 0.0000 0.0000 24.5955 0.0000
# 6 0.0000 0.0000 0.0000 0.0000 0.0000 -0.3458
#
#
#
# Elastic Compliance Matrix: (Units=1/GPa)
#
#
# Indices 1 2 3 4 5 6 
#
# 1 0.017528 -0.001878 0.001453 0.000000 0.000000 0.000000
# 2 -0.001878 0.010046 -0.006115 0.000000 0.000000 0.000000
# 3 0.001453 -0.006115 0.009064 0.000000 0.000000 0.000000
# 4 0.000000 0.000000 0.000000 0.058592 0.000000 0.000000
# 5 0.000000 0.000000 0.000000 0.000000 0.040658 0.000000
# 6 0.000000 0.000000 0.000000 0.000000 0.000000 -2.891457
#
#
# Mechanical properties :
#
#
# Convention : Reuss Voigt Hill
#
# Bulk Modulus (GPa) = 42.45309 72.64726 57.55018
# Shear Modulus (GPa) = -1.82840 28.06571 13.11866
#
# Velocity S-wave (km/s) = -0.93020 3.64442 2.49164
# Velocity P-wave (km/s) = 4.35164 7.21724 5.95925
#
# Compressibility (1/GPa) = 0.02355541
#
# Stress axis : x y z
#
# Youngs Moduli (GPa) = 57.05121 99.54408 110.33251
#
# Poissons Ratio (x) = 0.18699 -0.16027
# Poissons Ratio (y) = 0.10717 0.67470
# Poissons Ratio (z) = -0.08287 0.60873
#
# Static dielectric constant tensor:
#      x y z
#    x 1.808470 0.000000 0.000000 
#    y 0.000000 1.743730 0.000000 
#    z 0.000000 0.000000 1.744160 
# 
# From -- ./inp_files/15472.got.cif
#   From: 2010.05.17/outbox.cif.g08.bks.cpg/sg51_8_cif.got.tgz:15472.got - 2010.06.03 11:52:47.
