data_PCOD9401072
_publ_section_title
;
Structure prediction by ZEFSAII (Michael W. Deem and Ramdas Pophale) SiO2 
 PCOD9401072
Probable space group: P M M A
;
_chemical_formula_sum "Si O2"
_cell_formula_units_Z 64
_cell_length_a 8.285652
_cell_length_b 24.513975
_cell_length_c 19.880922
_cell_angle_alpha 90.000000
_cell_angle_beta 90.000000
_cell_angle_gamma 90.000000
_cell_volume 4038.098879
_symmetry_space_group_name_H-M "P M M A"
_symmetry_group_IT_number 51
_symmetry_cell_setting 'orthorhombic'
loop_
_space_group_symop_operation_xyz
x,y,z
1/2-x,-y,z
1/2+x,-y,-z
-x,y,-z
-x,-y,-z
1/2+x,y,-z
1/2-x,y,z
x,-y,z
loop_
_atom_site_type_symbol
_atom_site_label
_atom_site_fract_x
_atom_site_fract_y
_atom_site_fract_z
Si Si1 0.945189 0.438446 0.076160
Si Si2 0.442447 0.938802 0.290411
Si Si3 0.055518 0.757447 0.572399
Si Si4 0.055613 0.224108 0.924337
Si Si5 0.555521 0.161614 0.205037
Si Si6 0.056990 0.884108 0.572797
Si Si7 0.052855 0.332843 0.845716
Si Si8 0.553305 0.271081 0.283832
O O1 0.750000 0.438279 0.077069
O O2 0.999569 0.500000 0.093345
O O3 0.002526 0.390661 0.125535
O O4 0.000000 0.426762 0.000000
O O5 0.250000 0.940398 0.289630
O O6 0.497121 0.894905 0.235295
O O7 0.495972 0.917746 0.363731
O O8 0.505460 0.000000 0.278422
O O9 0.250000 0.757885 0.572774
O O10 0.001174 0.820821 0.578435
O O11 0.998999 0.725934 0.639084
O O12 0.000000 0.736470 0.500000
O O13 0.250000 0.224182 0.923573
O O14 0.001413 0.179009 0.869744
O O15 0.003907 0.283170 0.895039
O O16 0.000000 0.215448 0.000000
O O17 0.750000 0.160733 0.205311
O O18 0.507102 0.211938 0.253626
O O19 0.250000 0.883944 0.574405
O O20 0.000000 0.904830 0.500000
O O21 0.250000 0.333399 0.845438
O O22 0.000325 0.315901 0.770618
O O23 0.750000 0.272230 0.284115
#
# Coordination Sequence:
#
# PCOD9401072 Si02
#       8
#     8   8   8   8   8   8   8   8
#     4   9  16  25  38  58  85 119 154 182 208 240
#     4  11  23  35  47  65  87 110 138 174 213 253
#     4   9  16  26  42  62  83 108 135 166 203 249
#     4   9  17  28  46  68  89 111 138 172 214 260
#     4   9  17  32  49  64  82 108 140 171 207 259
#     4  10  19  32  49  67  87 113 143 174 207 248
#     4   8  14  24  40  61  86 116 146 178 209 245
#     4   8  13  25  43  61  81 107 140 172 209 251
#
# _framework density 15.849042000000001
#
# number of rings (size 3 to 8) (size 9 to 14) (size 15 to 20)
#    0.000    2.875    1.250    2.625    0.000    2.250 
#    0.000    0.000    0.000    1.875    0.000    0.000 
#    0.000    0.500    0.000    0.375    0.000    0.750 
#
# Total GULP energy -356535.377951 kJ/mol
# GULP energy per Si atom -5570.865280 kJ/mol
# Density = 1.581297 g / cm^3
# Si number density = 15.849042 Si / 1000 Ang^3
#
#
#
# Elastic Constant Matrix: (Units=GPa)
#
#
# Indices 1 2 3 4 5 6 
#
# 1 7.5519 12.3703 15.0654 0.0000 0.0000 0.0000
# 2 12.3703 109.8751 84.2526 0.0000 0.0000 0.0000
# 3 15.0654 84.2526 165.2092 0.0000 0.0000 0.0000
# 4 0.0000 0.0000 0.0000 27.7102 0.0000 0.0000
# 5 0.0000 0.0000 0.0000 0.0000 24.1408 0.0000
# 6 0.0000 0.0000 0.0000 0.0000 0.0000 7.9957
#
#
#
# Elastic Compliance Matrix: (Units=1/GPa)
#
#
# Indices 1 2 3 4 5 6 
#
# 1 0.170949 -0.011976 -0.009481 0.000000 0.000000 0.000000
# 2 -0.011976 0.015785 -0.006958 0.000000 0.000000 0.000000
# 3 -0.009481 -0.006958 0.010466 0.000000 0.000000 0.000000
# 4 0.000000 0.000000 0.000000 0.036088 0.000000 0.000000
# 5 0.000000 0.000000 0.000000 0.000000 0.041424 0.000000
# 6 0.000000 0.000000 0.000000 0.000000 0.000000 0.125068
#
#
# Mechanical properties :
#
#
# Convention : Reuss Voigt Hill
#
# Bulk Modulus (GPa) = 7.12405 56.22365 31.67385
# Shear Modulus (GPa) = 9.93247 23.36586 16.64917
#
# Velocity S-wave (km/s) = 2.50610 3.84380 3.24463
# Velocity P-wave (km/s) = 3.58869 7.43311 5.83652
#
# Compressibility (1/GPa) = 0.14036966
#
# Stress axis : x y z
#
# Youngs Moduli (GPa) = 5.84968 63.35211 95.54911
#
# Poissons Ratio (x) = 0.75871 0.90594
# Poissons Ratio (y) = 0.07006 0.66481
# Poissons Ratio (z) = 0.05546 0.44079
#
# Static dielectric constant tensor:
#      x y z
#    x 1.554010 0.000000 0.000000 
#    y 0.000000 1.528390 0.000000 
#    z 0.000000 0.000000 1.543780 
# 
# From -- ./inp_files/32606.got.cif
#   From: 2010.05.17/outbox.cif.g08.bks.cpg/sg51_17_cif.got.tgz:32606.got - 2010.06.03 11:52:47.
