data_PCOD9401437
_publ_section_title
;
Structure prediction by ZEFSAII (Michael W. Deem and Ramdas Pophale) SiO2 
 PCOD9401437
Probable space group: P M M A
;
_chemical_formula_sum "Si O2"
_cell_formula_units_Z 36
_cell_length_a 9.682564
_cell_length_b 18.322329
_cell_length_c 11.252252
_cell_angle_alpha 90.000000
_cell_angle_beta 90.000000
_cell_angle_gamma 90.000000
_cell_volume 1996.229657
_symmetry_space_group_name_H-M "P M M A"
_symmetry_group_IT_number 51
_symmetry_cell_setting 'orthorhombic'
loop_
_space_group_symop_operation_xyz
x,y,z
1/2-x,-y,z
1/2+x,-y,-z
-x,y,-z
-x,-y,-z
1/2+x,y,-z
1/2-x,y,z
x,-y,z
loop_
_atom_site_type_symbol
_atom_site_label
_atom_site_fract_x
_atom_site_fract_y
_atom_site_fract_z
Si Si1 0.904779 0.294559 0.286985
Si Si2 0.500000 0.804746 0.500000
Si Si3 0.588203 0.583831 0.621552
Si Si4 0.412156 0.842709 0.880413
Si Si5 0.403172 0.083105 0.310897
O O1 0.750000 0.325458 0.281849
O O2 0.923876 0.237266 0.180366
O O3 0.919500 0.246900 0.408013
O O4 0.019253 0.357162 0.292407
O O5 0.587700 0.858931 0.582614
O O6 0.500000 0.588520 0.500000
O O7 0.750000 0.599573 0.599987
O O8 0.577482 0.500000 0.663812
O O9 0.250000 0.857834 0.898813
O O10 0.480384 0.896860 0.784332
O O11 0.500000 0.846299 0.000000
O O12 0.250000 0.089455 0.256027
O O13 0.419991 0.000000 0.353198
#
# Coordination Sequence:
#
# PCOD9401437 Si02
#       5
#     8   4   8   8   8
#     4  10  20  33  53  80 108 139 176 218 264 313
#     4  10  19  32  53  80 110 140 178 214 261 320
#     4  10  20  32  49  76 111 147 179 212 254 306
#     4  10  22  39  58  80 104 135 179 225 272 319
#     4  10  21  36  55  79 108 143 179 219 269 321
#
# _framework density 18.033996999999999
#
# number of rings (size 3 to 8) (size 9 to 14) (size 15 to 20)
#    0.000    2.000    1.111    2.333    0.000    7.556 
#    0.000    0.000    0.000    0.667    0.000    0.000 
#    0.000    0.000    0.000    0.000    0.000    0.000 
#
# Total GULP energy -200816.085615 kJ/mol
# GULP energy per Si atom -5578.224600 kJ/mol
# Density = 1.799295 g / cm^3
# Si number density = 18.033997 Si / 1000 Ang^3
#
#
#
# Elastic Constant Matrix: (Units=GPa)
#
#
# Indices 1 2 3 4 5 6 
#
# 1 141.3161 51.9715 25.0180 0.0000 0.0000 0.0000
# 2 51.9715 84.8040 7.2350 0.0000 0.0000 0.0000
# 3 25.0180 7.2350 53.7468 0.0000 0.0000 0.0000
# 4 0.0000 0.0000 0.0000 7.6779 0.0000 0.0000
# 5 0.0000 0.0000 0.0000 0.0000 24.0386 0.0000
# 6 0.0000 0.0000 0.0000 0.0000 0.0000 23.8110
#
#
#
# Elastic Compliance Matrix: (Units=1/GPa)
#
#
# Indices 1 2 3 4 5 6 
#
# 1 0.009853 -0.005713 -0.003817 0.000000 0.000000 0.000000
# 2 -0.005713 0.015241 0.000608 0.000000 0.000000 0.000000
# 3 -0.003817 0.000608 0.020301 0.000000 0.000000 0.000000
# 4 0.000000 0.000000 0.000000 0.130244 0.000000 0.000000
# 5 0.000000 0.000000 0.000000 0.000000 0.041600 0.000000
# 6 0.000000 0.000000 0.000000 0.000000 0.000000 0.041997
#
#
# Mechanical properties :
#
#
# Convention : Reuss Voigt Hill
#
# Bulk Modulus (GPa) = 36.29785 49.81287 43.05536
# Shear Modulus (GPa) = 17.46637 24.14834 20.80736
#
# Velocity S-wave (km/s) = 3.11549 3.66327 3.40043
# Velocity P-wave (km/s) = 5.75438 6.75087 6.27245
#
# Compressibility (1/GPa) = 0.02754984
#
# Stress axis : x y z
#
# Youngs Moduli (GPa) = 101.49085 65.61222 49.25890
#
# Poissons Ratio (x) = 0.37482 0.18804
# Poissons Ratio (y) = 0.57979 -0.02993
# Poissons Ratio (z) = 0.38743 -0.03986
#
# Static dielectric constant tensor:
#      x y z
#    x 1.626910 0.000000 0.000000 
#    y 0.000000 1.620620 0.000000 
#    z 0.000000 0.000000 1.593680 
# 
# From -- ./inp_files/14014.got.cif
#   From: 2010.05.17/outbox.cif.g08.bks.cpg/sg51_8_cif.got.tgz:14014.got - 2010.06.03 11:52:47.
