data_PCOD9401186
_publ_section_title
;
Structure prediction by ZEFSAII (Michael W. Deem and Ramdas Pophale) SiO2 
 PCOD9401186
Probable space group: P M M A
;
_chemical_formula_sum "Si O2"
_cell_formula_units_Z 64
_cell_length_a 23.745762
_cell_length_b 9.184476
_cell_length_c 18.532977
_cell_angle_alpha 90.000000
_cell_angle_beta 90.000000
_cell_angle_gamma 90.000000
_cell_volume 4041.901084
_symmetry_space_group_name_H-M "P M M A"
_symmetry_group_IT_number 51
_symmetry_cell_setting 'orthorhombic'
loop_
_space_group_symop_operation_xyz
x,y,z
1/2-x,-y,z
1/2+x,-y,-z
-x,y,-z
-x,-y,-z
1/2+x,y,-z
1/2-x,y,z
x,-y,z
loop_
_atom_site_type_symbol
_atom_site_label
_atom_site_fract_x
_atom_site_fract_y
_atom_site_fract_z
Si Si1 0.181465 0.667504 0.572314
Si Si2 0.681492 0.167384 0.571868
Si Si3 0.683954 0.825629 0.280178
Si Si4 0.183144 0.671698 0.994940
Si Si5 0.183619 0.324817 0.280006
Si Si6 0.994339 0.675156 0.085671
Si Si7 0.119828 0.825441 0.866181
Si Si8 0.616764 0.676725 0.861486
O O1 0.250000 0.669098 0.570775
O O2 0.163344 0.500000 0.571399
O O3 0.162242 0.751247 0.500556
O O4 0.165579 0.746578 0.646520
O O5 0.750000 0.168120 0.570039
O O6 0.666032 0.250052 0.645285
O O7 0.663113 0.000000 0.572655
O O8 0.750000 0.789581 0.266258
O O9 0.646337 0.786230 0.211365
O O10 0.681091 0.000000 0.290613
O O11 0.250000 0.683823 0.002400
O O12 0.169211 0.500000 0.983515
O O13 0.160394 0.763266 0.928236
O O14 0.152795 0.720018 0.068492
O O15 0.250000 0.292987 0.266633
O O16 0.179030 0.500000 0.287220
O O17 0.146147 0.275002 0.212378
O O18 0.987450 0.500000 0.091736
O O19 0.052236 0.719014 0.125106
O O20 0.940774 0.754872 0.119001
O O21 0.000000 0.707199 0.000000
O O22 0.116750 0.000000 0.870568
O O23 0.618080 0.500000 0.860132
#
# Coordination Sequence:
#
# PCOD9401186 Si02
#       8
#     8   8   8   8   8   8   8   8
#     4   9  16  26  43  68  95 123 158 196 229 270
#     4   9  16  26  41  63  95 132 161 185 224 280
#     4   9  18  32  47  65  95 131 159 189 236 290
#     4  10  19  32  51  72  95 126 163 198 239 294
#     4   9  16  27  45  69  96 124 157 197 238 283
#     4  10  19  35  55  70  90 122 165 212 250 289
#     4  11  22  34  49  70  98 128 162 202 246 292
#     4   9  17  31  50  71  93 122 160 204 249 285
#
# _framework density 15.834133
#
# number of rings (size 3 to 8) (size 9 to 14) (size 15 to 20)
#    0.000    2.500    1.250    1.875    0.000    6.500 
#    0.000    2.500    0.000    1.500    0.000    0.875 
#    0.000    7.000    0.000    0.000    0.000    0.000 
#
# Total GULP energy -356790.691721 kJ/mol
# GULP energy per Si atom -5574.854558 kJ/mol
# Density = 1.579809 g / cm^3
# Si number density = 15.834133 Si / 1000 Ang^3
#
#
#
# Elastic Constant Matrix: (Units=GPa)
#
#
# Indices 1 2 3 4 5 6 
#
# 1 57.6149 27.8335 43.7089 0.0000 0.0000 0.0000
# 2 27.8335 45.9073 52.4866 0.0000 0.0000 0.0000
# 3 43.7089 52.4866 140.6623 0.0000 0.0000 0.0000
# 4 0.0000 0.0000 0.0000 166.5653 0.0000 0.0000
# 5 0.0000 0.0000 0.0000 0.0000 2.7746 0.0000
# 6 0.0000 0.0000 0.0000 0.0000 0.0000 14.4963
#
#
#
# Elastic Compliance Matrix: (Units=1/GPa)
#
#
# Indices 1 2 3 4 5 6 
#
# 1 0.025649 -0.011229 -0.003780 0.000000 0.000000 0.000000
# 2 -0.011229 0.042906 -0.012521 0.000000 0.000000 0.000000
# 3 -0.003780 -0.012521 0.012956 0.000000 0.000000 0.000000
# 4 0.000000 0.000000 0.000000 0.006004 0.000000 0.000000
# 5 0.000000 0.000000 0.000000 0.000000 0.360412 0.000000
# 6 0.000000 0.000000 0.000000 0.000000 0.000000 0.068983
#
#
# Mechanical properties :
#
#
# Convention : Reuss Voigt Hill
#
# Bulk Modulus (GPa) = 37.80530 54.69363 46.24947
# Shear Modulus (GPa) = 8.60901 44.77762 26.69332
#
# Velocity S-wave (km/s) = 2.33427 5.32359 4.11031
# Velocity P-wave (km/s) = 5.58505 8.50905 7.19711
#
# Compressibility (1/GPa) = 0.02645131
#
# Stress axis : x y z
#
# Youngs Moduli (GPa) = 38.98774 23.30655 77.18552
#
# Poissons Ratio (x) = 0.26171 0.29177
# Poissons Ratio (y) = 0.43780 0.96642
# Poissons Ratio (z) = 0.14738 0.29181
#
# Static dielectric constant tensor:
#      x y z
#    x 1.514410 0.000000 0.000000 
#    y 0.000000 1.530740 0.000000 
#    z 0.000000 0.000000 1.516220 
# 
# From -- ./inp_files/30880.got.cif
#   From: 2010.05.17/outbox.cif.g08.bks.cpg/sg51_16_cif.got.tgz:30880.got - 2010.06.03 11:52:47.
