data_PCOD9401033
_publ_section_title
;
Structure prediction by ZEFSAII (Michael W. Deem and Ramdas Pophale) SiO2 
 PCOD9401033
Probable space group: P M M A
;
_chemical_formula_sum "Si O2"
_cell_formula_units_Z 44
_cell_length_a 8.819987
_cell_length_b 13.935908
_cell_length_c 19.860006
_cell_angle_alpha 90.000000
_cell_angle_beta 90.000000
_cell_angle_gamma 90.000000
_cell_volume 2441.083252
_symmetry_space_group_name_H-M "P M M A"
_symmetry_group_IT_number 51
_symmetry_cell_setting 'orthorhombic'
loop_
_space_group_symop_operation_xyz
x,y,z
1/2-x,-y,z
1/2+x,-y,-z
-x,y,-z
-x,-y,-z
1/2+x,y,-z
1/2-x,y,z
x,-y,z
loop_
_atom_site_type_symbol
_atom_site_label
_atom_site_fract_x
_atom_site_fract_y
_atom_site_fract_z
Si Si1 0.567269 0.500000 0.074247
Si Si2 0.071331 0.000000 0.427618
Si Si3 0.068009 0.108469 0.177971
Si Si4 0.925011 0.134955 0.323578
Si Si5 0.065891 0.681151 0.833574
Si Si6 0.924712 0.359550 0.318262
Si Si7 0.429891 0.500000 0.424438
O O1 0.750000 0.500000 0.071609
O O2 0.523962 0.401924 0.113545
O O3 0.500000 0.500000 0.000000
O O4 0.000000 0.000000 0.500000
O O5 0.009210 0.911239 0.385526
O O6 0.250000 0.000000 0.430896
O O7 0.250000 0.114756 0.173916
O O8 0.011924 0.109197 0.255186
O O9 0.999541 0.211314 0.152259
O O10 0.025440 0.000000 0.150943
O O11 0.750000 0.104406 0.318068
O O12 0.924352 0.247703 0.333184
O O13 0.250000 0.691082 0.831021
O O14 0.019244 0.639713 0.759614
O O15 0.750000 0.393839 0.318553
O O16 0.016208 0.412639 0.376429
O O17 0.250000 0.500000 0.431836
O O18 0.500000 0.500000 0.500000
#
# Coordination Sequence:
#
# PCOD9401033 Si02
#       7
#     4   4   8   8   8   8   4
#     4  10  21  38  60  88 122 158 195 236 286 342
#     4  12  24  36  50  70 100 138 179 226 277 334
#     4  10  19  31  52  84 118 146 178 230 284 329
#     4  10  20  35  55  76 101 136 176 219 273 332
#     4   9  19  36  59  85 114 152 193 232 281 344
#     4   9  19  37  59  80 104 136 177 229 276 326
#     4  12  25  38  54  74 100 138 179 226 282 340
#
# _framework density 18.024785000000001
#
# number of rings (size 3 to 8) (size 9 to 14) (size 15 to 20)
#    0.000    2.000    0.909    4.364    0.000    7.636 
#    0.000    0.909    0.000    0.545    0.000    0.000 
#    0.000    0.000    0.000    0.000    0.000    0.000 
#
# Total GULP energy -245106.838266 kJ/mol
# GULP energy per Si atom -5570.609961 kJ/mol
# Density = 1.798376 g / cm^3
# Si number density = 18.024785 Si / 1000 Ang^3
#
#
#
# Elastic Constant Matrix: (Units=GPa)
#
#
# Indices 1 2 3 4 5 6 
#
# 1 68.6298 41.9756 41.0216 0.0000 0.0000 0.0000
# 2 41.9756 173.5155 74.4832 0.0000 0.0000 0.0000
# 3 41.0216 74.4832 111.2742 0.0000 0.0000 0.0000
# 4 0.0000 0.0000 0.0000 27.0119 0.0000 0.0000
# 5 0.0000 0.0000 0.0000 0.0000 25.4943 0.0000
# 6 0.0000 0.0000 0.0000 0.0000 0.0000 33.9245
#
#
#
# Elastic Compliance Matrix: (Units=1/GPa)
#
#
# Indices 1 2 3 4 5 6 
#
# 1 0.019304 -0.002266 -0.005600 0.000000 0.000000 0.000000
# 2 -0.002266 0.008353 -0.004756 0.000000 0.000000 0.000000
# 3 -0.005600 -0.004756 0.014234 0.000000 0.000000 0.000000
# 4 0.000000 0.000000 0.000000 0.037021 0.000000 0.000000
# 5 0.000000 0.000000 0.000000 0.000000 0.039224 0.000000
# 6 0.000000 0.000000 0.000000 0.000000 0.000000 0.029477
#
#
# Mechanical properties :
#
#
# Convention : Reuss Voigt Hill
#
# Bulk Modulus (GPa) = 60.06604 74.26448 67.16526
# Shear Modulus (GPa) = 28.02599 30.34874 29.18737
#
# Velocity S-wave (km/s) = 3.94745 4.10777 4.02841
# Velocity P-wave (km/s) = 7.36023 7.98681 7.67991
#
# Compressibility (1/GPa) = 0.01664834
#
# Stress axis : x y z
#
# Youngs Moduli (GPa) = 51.80276 119.72028 70.25247
#
# Poissons Ratio (x) = 0.27131 0.39338
# Poissons Ratio (y) = 0.11740 0.33410
# Poissons Ratio (z) = 0.29007 0.56935
#
# Static dielectric constant tensor:
#      x y z
#    x 1.617910 0.000000 0.000000 
#    y 0.000000 1.521600 0.000000 
#    z 0.000000 0.000000 1.582610 
# 
# From -- ./inp_files/27478.got.cif
#   From: 2010.05.17/outbox.cif.g08.bks.cpg/sg51_14_cif.got.tgz:27478.got - 2010.06.03 11:52:47.
