data_PCOD9401910
_publ_section_title
;
Structure prediction by ZEFSAII (Michael W. Deem and Ramdas Pophale) SiO2 
 PCOD9401910
Probable space group: P M M A
;
_chemical_formula_sum "Si O2"
_cell_formula_units_Z 56
_cell_length_a 16.309790
_cell_length_b 21.518891
_cell_length_c 8.964485
_cell_angle_alpha 90.000000
_cell_angle_beta 90.000000
_cell_angle_gamma 90.000000
_cell_volume 3146.252690
_symmetry_space_group_name_H-M "P M M A"
_symmetry_group_IT_number 51
_symmetry_cell_setting 'orthorhombic'
loop_
_space_group_symop_operation_xyz
x,y,z
1/2-x,-y,z
1/2+x,-y,-z
-x,y,-z
-x,-y,-z
1/2+x,y,-z
1/2-x,y,z
x,-y,z
loop_
_atom_site_type_symbol
_atom_site_label
_atom_site_fract_x
_atom_site_fract_y
_atom_site_fract_z
Si Si1 0.006745 0.073134 0.676592
Si Si2 0.658362 0.074619 0.850025
Si Si3 0.423416 0.728507 0.897212
Si Si4 0.033709 0.500000 0.673167
Si Si5 0.843720 0.142163 0.169409
Si Si6 0.516783 0.361553 0.675326
Si Si7 0.153597 0.374416 0.106554
Si Si8 0.152015 0.500000 0.931892
O O1 0.085649 0.109470 0.734977
O O2 0.000000 0.080251 0.500000
O O3 0.920494 0.092721 0.751970
O O4 0.017983 0.000000 0.711245
O O5 0.750000 0.087199 0.785631
O O6 0.653815 0.000000 0.874002
O O7 0.653382 0.109940 0.006764
O O8 0.369414 0.786200 0.846534
O O9 0.462870 0.688592 0.763590
O O10 0.500000 0.750452 0.000000
O O11 0.370660 0.680747 0.995035
O O12 0.004380 0.567890 0.721898
O O13 0.121333 0.500000 0.760117
O O14 0.000000 0.500000 0.500000
O O15 0.750000 0.135477 0.225168
O O16 0.500000 0.354844 0.500000
O O17 0.608901 0.358053 0.738139
O O18 0.250000 0.378883 0.128823
O O19 0.125910 0.438657 0.025322
O O20 0.250000 0.500000 0.929114
#
# Coordination Sequence:
#
# PCOD9401910 Si02
#       8
#     8   8   8   4   8   8   8   4
#     4  10  21  36  56  83 115 149 182 223 274 332
#     4   9  18  34  57  83 110 141 181 229 279 329
#     4  10  20  35  57  79 107 145 186 230 273 328
#     4  10  19  35  55  84 113 144 180 223 274 339
#     4  11  22  36  56  82 110 145 188 233 278 326
#     4  10  21  36  56  82 110 146 182 223 280 336
#     4  10  20  35  55  81 108 139 184 232 278 330
#     4  10  19  33  58  86 111 144 184 234 284 331
#
# _framework density 17.798950999999999
#
# number of rings (size 3 to 8) (size 9 to 14) (size 15 to 20)
#    0.000    2.000    1.429    2.571    0.000    3.714 
#    0.000    5.714    0.000    0.000    0.000    0.000 
#    0.000    0.000    0.000    0.000    0.000    0.000 
#
# Total GULP energy -311834.358878 kJ/mol
# GULP energy per Si atom -5568.470694 kJ/mol
# Density = 1.775844 g / cm^3
# Si number density = 17.798951 Si / 1000 Ang^3
#
#
#
# Elastic Constant Matrix: (Units=GPa)
#
#
# Indices 1 2 3 4 5 6 
#
# 1 133.7201 62.1154 61.1154 0.0000 0.0000 0.0000
# 2 62.1154 68.6562 31.5269 0.0000 0.0000 0.0000
# 3 61.1154 31.5269 68.4594 0.0000 0.0000 0.0000
# 4 0.0000 0.0000 0.0000 -416.8358 0.0000 0.0000
# 5 0.0000 0.0000 0.0000 0.0000 15.7763 0.0000
# 6 0.0000 0.0000 0.0000 0.0000 0.0000 27.5087
#
#
#
# Elastic Compliance Matrix: (Units=1/GPa)
#
#
# Indices 1 2 3 4 5 6 
#
# 1 0.017288 -0.010848 -0.010438 0.000000 0.000000 0.000000
# 2 -0.010848 0.025278 -0.001957 0.000000 0.000000 0.000000
# 3 -0.010438 -0.001957 0.024826 0.000000 0.000000 0.000000
# 4 0.000000 0.000000 0.000000 -0.002399 0.000000 0.000000
# 5 0.000000 0.000000 0.000000 0.000000 0.063386 0.000000
# 6 0.000000 0.000000 0.000000 0.000000 0.000000 0.036352
#
#
# Mechanical properties :
#
#
# Convention : Reuss Voigt Hill
#
# Bulk Modulus (GPa) = 47.82962 64.48347 56.15654
# Shear Modulus (GPa) = 22.91626 -66.97162 -22.02768
#
# Velocity S-wave (km/s) = 3.59208 -6.14072 -3.52175
# Velocity P-wave (km/s) = 6.64338 3.73770 3.88356
#
# Compressibility (1/GPa) = 0.02090755
#
# Stress axis : x y z
#
# Youngs Moduli (GPa) = 57.84468 39.55952 40.27984
#
# Poissons Ratio (x) = 0.42913 0.42042
# Poissons Ratio (y) = 0.62749 0.07883
# Poissons Ratio (z) = 0.60376 0.07742
#
# Static dielectric constant tensor:
#      x y z
#    x 1.621760 0.000000 0.000000 
#    y 0.000000 1.613330 0.000000 
#    z 0.000000 0.000000 1.588120 
# 
# From -- ./inp_files/8610.got.cif
#   From: 2010.05.17/outbox.cif.g08.bks.cpg/sg51_5_cif.got.tgz:8610.got - 2010.06.03 11:52:47.
