data_PCOD9401496
_publ_section_title
;
Structure prediction by ZEFSAII (Michael W. Deem and Ramdas Pophale) SiO2 
 PCOD9401496
Probable space group: P M M A
;
_chemical_formula_sum "Si O2"
_cell_formula_units_Z 48
_cell_length_a 15.501027
_cell_length_b 19.301572
_cell_length_c 7.547231
_cell_angle_alpha 90.000000
_cell_angle_beta 90.000000
_cell_angle_gamma 90.000000
_cell_volume 2258.087656
_symmetry_space_group_name_H-M "P M M A"
_symmetry_group_IT_number 51
_symmetry_cell_setting 'orthorhombic'
loop_
_space_group_symop_operation_xyz
x,y,z
1/2-x,-y,z
1/2+x,-y,-z
-x,y,-z
-x,-y,-z
1/2+x,y,-z
1/2-x,y,z
x,-y,z
loop_
_atom_site_type_symbol
_atom_site_label
_atom_site_fract_x
_atom_site_fract_y
_atom_site_fract_z
Si Si1 0.343766 0.839639 0.213240
Si Si2 0.344809 0.420529 0.594438
Si Si3 0.151461 0.193839 0.801355
Si Si4 0.527050 0.679740 0.291902
Si Si5 0.984120 0.077775 0.291412
Si Si6 0.343968 0.311591 0.270589
O O1 0.250000 0.873480 0.248822
O O2 0.428028 0.886490 0.223889
O O3 0.348799 0.769439 0.330292
O O4 0.342862 0.811375 0.013403
O O5 0.250000 0.415601 0.679826
O O6 0.358607 0.500000 0.540855
O O7 0.420953 0.391712 0.714981
O O8 0.342297 0.368647 0.426417
O O9 0.250000 0.197904 0.733137
O O10 0.092312 0.259209 0.754951
O O11 0.098508 0.125989 0.741458
O O12 0.500000 0.690163 0.500000
O O13 0.437705 0.678777 0.183480
O O14 0.000000 0.073687 0.500000
O O15 0.972391 0.000000 0.220249
O O16 0.250000 0.318274 0.178496
#
# Coordination Sequence:
#
# PCOD9401496 Si02
#       6
#     8   8   8   8   8   8
#     4  10  22  40  62  88 119 156 199 242 291 354
#     4   9  18  32  52  83 120 156 198 247 295 347
#     4  11  23  38  60  89 119 155 199 245 293 352
#     4  10  19  32  54  84 117 155 196 245 294 343
#     4  11  25  43  62  88 119 152 193 243 300 353
#     4   9  18  31  51  78 109 148 193 239 286 338
#
# _framework density 21.256924999999999
#
# number of rings (size 3 to 8) (size 9 to 14) (size 15 to 20)
#    0.000    2.000    1.667    1.500    2.333    6.333 
#    0.000    3.333    0.000    1.000    0.000   10.500 
#    0.000    0.000    0.000    0.000    0.000    0.000 
#
# Total GULP energy -267618.734126 kJ/mol
# GULP energy per Si atom -5575.390294 kJ/mol
# Density = 2.120854 g / cm^3
# Si number density = 21.256925 Si / 1000 Ang^3
#
#
#
# Elastic Constant Matrix: (Units=GPa)
#
#
# Indices 1 2 3 4 5 6 
#
# 1 230.6958 80.1358 17.2303 0.0000 0.0000 0.0000
# 2 80.1358 128.1967 10.0417 0.0000 0.0000 0.0000
# 3 17.2303 10.0417 33.8797 0.0000 0.0000 0.0000
# 4 0.0000 0.0000 0.0000 -9.4329 0.0000 0.0000
# 5 0.0000 0.0000 0.0000 0.0000 27.3305 0.0000
# 6 0.0000 0.0000 0.0000 0.0000 0.0000 15.0263
#
#
#
# Elastic Compliance Matrix: (Units=1/GPa)
#
#
# Indices 1 2 3 4 5 6 
#
# 1 0.005650 -0.003386 -0.001870 0.000000 0.000000 0.000000
# 2 -0.003386 0.010014 -0.001246 0.000000 0.000000 0.000000
# 3 -0.001870 -0.001246 0.030837 0.000000 0.000000 0.000000
# 4 0.000000 0.000000 0.000000 -0.106012 0.000000 0.000000
# 5 0.000000 0.000000 0.000000 0.000000 0.036589 0.000000
# 6 0.000000 0.000000 0.000000 0.000000 0.000000 0.066550
#
#
# Mechanical properties :
#
#
# Convention : Reuss Voigt Hill
#
# Bulk Modulus (GPa) = 29.85317 67.50977 48.68147
# Shear Modulus (GPa) = 73.74774 25.60908 49.67841
#
# Velocity S-wave (km/s) = 5.89651 3.47470 4.83954
# Velocity P-wave (km/s) = 7.77386 6.92286 7.36067
#
# Compressibility (1/GPa) = 0.03349728
#
# Stress axis : x y z
#
# Youngs Moduli (GPa) = 176.97761 99.85538 32.42885
#
# Poissons Ratio (x) = 0.33807 0.06065
# Poissons Ratio (y) = 0.59917 0.04042
# Poissons Ratio (z) = 0.33098 0.12446
#
# Static dielectric constant tensor:
#      x y z
#    x 1.853160 0.000000 0.000000 
#    y 0.000000 1.764180 0.000000 
#    z 0.000000 0.000000 1.819190 
# 
# From -- ./inp_files/8218.got.cif
#   From: 2010.05.17/outbox.cif.g08.bks.cpg/sg51_5_cif.got.tgz:8218.got - 2010.06.03 11:52:47.
