data_PCOD9401736
_publ_section_title
;
Structure prediction by ZEFSAII (Michael W. Deem and Ramdas Pophale) SiO2 
 PCOD9401736
Probable space group: P M M A
;
_chemical_formula_sum "Si O2"
_cell_formula_units_Z 48
_cell_length_a 31.455340
_cell_length_b 8.689250
_cell_length_c 9.915073
_cell_angle_alpha 90.000000
_cell_angle_beta 90.000000
_cell_angle_gamma 90.000000
_cell_volume 2710.020602
_symmetry_space_group_name_H-M "P M M A"
_symmetry_group_IT_number 51
_symmetry_cell_setting 'orthorhombic'
loop_
_space_group_symop_operation_xyz
x,y,z
1/2-x,-y,z
1/2+x,-y,-z
-x,y,-z
-x,-y,-z
1/2+x,y,-z
1/2-x,y,z
x,-y,z
loop_
_atom_site_type_symbol
_atom_site_label
_atom_site_fract_x
_atom_site_fract_y
_atom_site_fract_z
Si Si1 0.889791 0.815583 0.696702
Si Si2 0.016710 0.683787 0.349733
Si Si3 0.864154 0.315759 0.421674
Si Si4 0.064940 0.815646 0.775543
Si Si5 0.368768 0.814608 0.001835
Si Si6 0.701491 0.314650 0.193644
O O1 0.938474 0.763061 0.678335
O O2 0.863616 0.743140 0.573697
O O3 0.873781 0.765343 0.843989
O O4 0.887577 0.000000 0.688998
O O5 0.021878 0.500000 0.344527
O O6 0.000000 0.724256 0.500000
O O7 0.980533 0.738707 0.246352
O O8 0.869654 0.500000 0.419345
O O9 0.904231 0.239902 0.345222
O O10 0.822978 0.274567 0.332443
O O11 0.060643 0.000000 0.771315
O O12 0.090018 0.770995 0.911871
O O13 0.366422 0.000000 0.998330
O O14 0.327647 0.748903 0.926489
O O15 0.750000 0.259623 0.190072
O O16 0.701709 0.500000 0.185133
#
# Coordination Sequence:
#
# PCOD9401736 Si02
#       6
#     8   8   8   8   8   8
#     4  11  22  36  54  77 109 145 181 219 267 318
#     4  11  22  34  51  77 109 142 184 229 269 311
#     4  10  19  33  54  80 109 137 174 221 264 310
#     4  10  19  34  55  76 103 142 185 223 265 312
#     4   9  21  38  55  80 111 143 178 221 269 319
#     4   9  19  37  61  85 107 136 174 215 264 324
#
# _framework density 17.712043999999999
#
# number of rings (size 3 to 8) (size 9 to 14) (size 15 to 20)
#    0.000    2.000    1.667    2.000    0.000    4.333 
#    0.000    4.167    0.000    3.000    0.000    0.000 
#    0.000    0.000    0.000    0.000    0.000    0.000 
#
# Total GULP energy -267988.122865 kJ/mol
# GULP energy per Si atom -5583.085893 kJ/mol
# Density = 1.767173 g / cm^3
# Si number density = 17.712044 Si / 1000 Ang^3
#
#
#
# Elastic Constant Matrix: (Units=GPa)
#
#
# Indices 1 2 3 4 5 6 
#
# 1 102.1077 10.7591 53.8932 0.0000 0.0000 0.0000
# 2 10.7591 16.6750 20.8168 0.0000 0.0000 0.0000
# 3 53.8932 20.8168 149.2840 0.0000 0.0000 0.0000
# 4 0.0000 0.0000 0.0000 22.8850 0.0000 0.0000
# 5 0.0000 0.0000 0.0000 0.0000 14.5483 0.0000
# 6 0.0000 0.0000 0.0000 0.0000 0.0000 26.4196
#
#
#
# Elastic Compliance Matrix: (Units=1/GPa)
#
#
# Indices 1 2 3 4 5 6 
#
# 1 0.012212 -0.002877 -0.004008 0.000000 0.000000 0.000000
# 2 -0.002877 0.073288 -0.009181 0.000000 0.000000 0.000000
# 3 -0.004008 -0.009181 0.009426 0.000000 0.000000 0.000000
# 4 0.000000 0.000000 0.000000 0.043697 0.000000 0.000000
# 5 0.000000 0.000000 0.000000 0.000000 0.068737 0.000000
# 6 0.000000 0.000000 0.000000 0.000000 0.000000 0.037851
#
#
# Mechanical properties :
#
#
# Convention : Reuss Voigt Hill
#
# Bulk Modulus (GPa) = 15.92487 48.77833 32.35160
# Shear Modulus (GPa) = 16.76329 24.94375 20.85352
#
# Velocity S-wave (km/s) = 3.07975 3.75679 3.43500
# Velocity P-wave (km/s) = 4.65371 6.81303 5.83414
#
# Compressibility (1/GPa) = 0.06279485
#
# Stress axis : x y z
#
# Youngs Moduli (GPa) = 81.88752 13.64489 106.09351
#
# Poissons Ratio (x) = 0.03925 0.42517
# Poissons Ratio (y) = 0.23555 0.97405
# Poissons Ratio (z) = 0.32816 0.12527
#
# Static dielectric constant tensor:
#      x y z
#    x 1.580620 0.000000 0.000000 
#    y 0.000000 1.594790 0.000000 
#    z 0.000000 0.000000 1.609830 
# 
# From -- ./inp_files/12762.got.cif
#   From: 2010.05.17/outbox.cif.g08.bks.cpg/sg51_7_cif.got.tgz:12762.got - 2010.06.03 11:52:47.
