data_PCOD9401967
_publ_section_title
;
Structure prediction by ZEFSAII (Michael W. Deem and Ramdas Pophale) SiO2 
 PCOD9401967
Probable space group: P M M A
;
_chemical_formula_sum "Si O2"
_cell_formula_units_Z 48
_cell_length_a 17.649217
_cell_length_b 18.425983
_cell_length_c 8.335623
_cell_angle_alpha 90.000000
_cell_angle_beta 90.000000
_cell_angle_gamma 90.000000
_cell_volume 2710.779379
_symmetry_space_group_name_H-M "P M M A"
_symmetry_group_IT_number 51
_symmetry_cell_setting 'orthorhombic'
loop_
_space_group_symop_operation_xyz
x,y,z
1/2-x,-y,z
1/2+x,-y,-z
-x,y,-z
-x,-y,-z
1/2+x,y,-z
1/2-x,y,z
x,-y,z
loop_
_atom_site_type_symbol
_atom_site_label
_atom_site_fract_x
_atom_site_fract_y
_atom_site_fract_z
Si Si1 0.423639 0.809960 0.104237
Si Si2 0.077472 0.587469 0.824485
Si Si3 0.662761 0.412647 0.504042
Si Si4 0.906265 0.645491 0.835128
Si Si5 0.337060 0.915153 0.871683
Si Si6 0.489148 0.079699 0.687607
O O1 0.394693 0.731587 0.154521
O O2 0.455449 0.859743 0.245370
O O3 0.500000 0.797059 0.000000
O O4 0.363720 0.858159 0.006002
O O5 0.068622 0.500000 0.827381
O O6 0.119202 0.608763 0.659370
O O7 0.995145 0.624675 0.821827
O O8 0.117099 0.611234 0.991962
O O9 0.750000 0.391115 0.487808
O O10 0.658046 0.500000 0.510884
O O11 0.631339 0.383970 0.673021
O O12 0.250000 0.902247 0.822344
O O13 0.401754 0.906601 0.735945
O O14 0.341461 0.000000 0.924930
O O15 0.500000 0.076679 0.500000
O O16 0.508281 0.000000 0.758548
#
# Coordination Sequence:
#
# PCOD9401967 Si02
#       6
#     8   8   8   8   8   8
#     4  10  19  34  54  79 109 141 182 225 275 327
#     4  10  20  36  58  82 107 143 191 239 280 326
#     4  10  22  38  56  81 112 146 184 228 282 341
#     4  11  20  35  58  83 110 143 185 233 280 330
#     4   9  18  34  56  80 108 145 185 224 268 323
#     4   9  18  33  55  80 108 144 185 228 271 324
#
# _framework density 17.707084999999999
#
# number of rings (size 3 to 8) (size 9 to 14) (size 15 to 20)
#    0.000    2.167    1.667    3.000    0.000    6.000 
#    0.000    2.500    0.000    3.000    0.000    0.000 
#    0.000    0.000    0.000    0.000    0.000    0.000 
#
# Total GULP energy -267446.084353 kJ/mol
# GULP energy per Si atom -5571.793424 kJ/mol
# Density = 1.766678 g / cm^3
# Si number density = 17.707085 Si / 1000 Ang^3
#
#
#
# Elastic Constant Matrix: (Units=GPa)
#
#
# Indices 1 2 3 4 5 6 
#
# 1 74.9396 38.5486 52.9392 0.0000 0.0000 0.0000
# 2 38.5486 78.3250 40.8911 0.0000 0.0000 0.0000
# 3 52.9392 40.8911 131.3366 0.0000 0.0000 0.0000
# 4 0.0000 0.0000 0.0000 61.8813 0.0000 0.0000
# 5 0.0000 0.0000 0.0000 0.0000 9.9298 0.0000
# 6 0.0000 0.0000 0.0000 0.0000 0.0000 -32.0312
#
#
#
# Elastic Compliance Matrix: (Units=1/GPa)
#
#
# Indices 1 2 3 4 5 6 
#
# 1 0.021656 -0.007285 -0.006461 0.000000 0.000000 0.000000
# 2 -0.007285 0.017696 -0.002573 0.000000 0.000000 0.000000
# 3 -0.006461 -0.002573 0.011019 0.000000 0.000000 0.000000
# 4 0.000000 0.000000 0.000000 0.016160 0.000000 0.000000
# 5 0.000000 0.000000 0.000000 0.000000 0.100707 0.000000
# 6 0.000000 0.000000 0.000000 0.000000 0.000000 -0.031220
#
#
# Mechanical properties :
#
#
# Convention : Reuss Voigt Hill
#
# Bulk Modulus (GPa) = 56.39176 61.03988 58.71582
# Shear Modulus (GPa) = 28.64225 18.10413 23.37319
#
# Velocity S-wave (km/s) = 4.02625 3.20100 3.63711
# Velocity P-wave (km/s) = 7.31645 6.94325 7.13229
#
# Compressibility (1/GPa) = 0.01773309
#
# Stress axis : x y z
#
# Youngs Moduli (GPa) = 46.17758 56.50962 90.74939
#
# Poissons Ratio (x) = 0.41168 0.58631
# Poissons Ratio (y) = 0.33641 0.23351
# Poissons Ratio (z) = 0.29834 0.14541
#
# Static dielectric constant tensor:
#      x y z
#    x 1.591860 0.000000 0.000000 
#    y 0.000000 1.622540 0.000000 
#    z 0.000000 0.000000 1.606240 
# 
# From -- ./inp_files/8246.got.cif
#   From: 2010.05.17/outbox.cif.g08.bks.cpg/sg51_5_cif.got.tgz:8246.got - 2010.06.03 11:52:47.
