data_PCOD9401397
_publ_section_title
;
Structure prediction by ZEFSAII (Michael W. Deem and Ramdas Pophale) SiO2 
 PCOD9401397
Probable space group: P M M A
;
_chemical_formula_sum "Si O2"
_cell_formula_units_Z 40
_cell_length_a 10.246198
_cell_length_b 24.036078
_cell_length_c 9.874609
_cell_angle_alpha 90.000000
_cell_angle_beta 90.000000
_cell_angle_gamma 90.000000
_cell_volume 2431.903047
_symmetry_space_group_name_H-M "P M M A"
_symmetry_group_IT_number 51
_symmetry_cell_setting 'orthorhombic'
loop_
_space_group_symop_operation_xyz
x,y,z
1/2-x,-y,z
1/2+x,-y,-z
-x,y,-z
-x,-y,-z
1/2+x,y,-z
1/2-x,y,z
x,-y,z
loop_
_atom_site_type_symbol
_atom_site_label
_atom_site_fract_x
_atom_site_fract_y
_atom_site_fract_z
Si Si1 0.250000 0.064606 0.174633
Si Si2 0.750000 0.937913 0.152905
Si Si3 0.905854 0.226361 0.371510
Si Si4 0.401595 0.565346 0.878913
Si Si5 0.496494 0.136450 0.836959
Si Si6 0.099348 0.641731 0.619882
O O1 0.375418 0.102335 0.207262
O O2 0.250000 0.000000 0.224967
O O3 0.250000 0.059576 0.010870
O O4 0.877201 0.904629 0.192731
O O5 0.750000 0.000000 0.206811
O O6 0.750000 0.213398 0.391839
O O7 0.964920 0.191887 0.246257
O O8 0.913779 0.292683 0.347202
O O9 0.000000 0.214106 0.500000
O O10 0.250000 0.573231 0.919961
O O11 0.417787 0.500000 0.843982
O O12 0.426633 0.604057 0.750262
O O13 0.500000 0.578431 0.000000
O O14 0.500000 0.146406 0.000000
O O15 0.250000 0.632402 0.577934
O O16 0.000000 0.628456 0.500000
#
# Coordination Sequence:
#
# PCOD9401397 Si02
#       6
#     4   4   8   8   8   8
#     4   9  18  30  49  79 107 127 160 209 258 305
#     4   9  16  30  51  75 101 131 164 205 254 301
#     4  10  21  37  54  73 101 138 173 212 259 306
#     4   9  18  33  53  78 109 142 173 210 257 304
#     4  10  19  32  53  78 102 130 168 211 253 306
#     4   9  19  35  53  74 102 135 176 217 256 302
#
# _framework density 16.448022999999999
#
# number of rings (size 3 to 8) (size 9 to 14) (size 15 to 20)
#    0.000    2.600    1.000    0.600    1.400    4.400 
#    0.000    0.000    0.000    3.600    0.000    0.000 
#    0.000    0.000    0.000    0.000    0.000    0.000 
#
# Total GULP energy -222785.465515 kJ/mol
# GULP energy per Si atom -5569.636638 kJ/mol
# Density = 1.641059 g / cm^3
# Si number density = 16.448023 Si / 1000 Ang^3
#
#
#
# Elastic Constant Matrix: (Units=GPa)
#
#
# Indices 1 2 3 4 5 6 
#
# 1 154.3120 75.9383 79.5637 0.0000 0.0000 0.0000
# 2 75.9383 75.0053 72.5605 0.0000 0.0000 0.0000
# 3 79.5637 72.5605 89.8416 0.0000 0.0000 0.0000
# 4 0.0000 0.0000 0.0000 -174.1296 0.0000 0.0000
# 5 0.0000 0.0000 0.0000 0.0000 52.3054 0.0000
# 6 0.0000 0.0000 0.0000 0.0000 0.0000 -8.0748
#
#
#
# Elastic Compliance Matrix: (Units=1/GPa)
#
#
# Indices 1 2 3 4 5 6 
#
# 1 0.013239 -0.009427 -0.004111 0.000000 0.000000 0.000000
# 2 -0.009427 0.067681 -0.046314 0.000000 0.000000 0.000000
# 3 -0.004111 -0.046314 0.052177 0.000000 0.000000 0.000000
# 4 0.000000 0.000000 0.000000 -0.005743 0.000000 0.000000
# 5 0.000000 0.000000 0.000000 0.000000 0.019118 0.000000
# 6 0.000000 0.000000 0.000000 0.000000 0.000000 -0.123842
#
#
# Mechanical properties :
#
#
# Convention : Reuss Voigt Hill
#
# Bulk Modulus (GPa) = 74.66475 86.14266 80.40370
# Shear Modulus (GPa) = 34.06016 -19.90671 7.07673
#
# Velocity S-wave (km/s) = 4.55551 -3.48268 2.07649
# Velocity P-wave (km/s) = 8.55355 6.02613 7.39856
#
# Compressibility (1/GPa) = 0.01339320
#
# Stress axis : x y z
#
# Youngs Moduli (GPa) = 75.53473 14.77522 19.16549
#
# Poissons Ratio (x) = 0.13928 0.07879
# Poissons Ratio (y) = 0.71204 0.88764
# Poissons Ratio (z) = 0.31052 0.68430
#
# Static dielectric constant tensor:
#      x y z
#    x 1.563710 0.000000 0.000000 
#    y 0.000000 1.544740 0.000000 
#    z 0.000000 0.000000 1.521200 
# 
# From -- ./inp_files/5526.got.cif
#   From: 2010.05.17/outbox.cif.g08.bks.cpg/sg51_3_cif.got.tgz:5526.got - 2010.06.03 11:52:47.
