data_PCOD9401092
_publ_section_title
;
Structure prediction by ZEFSAII (Michael W. Deem and Ramdas Pophale) SiO2 
 PCOD9401092
Probable space group: P M M A
;
_chemical_formula_sum "Si O2"
_cell_formula_units_Z 36
_cell_length_a 8.388349
_cell_length_b 17.098276
_cell_length_c 14.721804
_cell_angle_alpha 90.000000
_cell_angle_beta 90.000000
_cell_angle_gamma 90.000000
_cell_volume 2111.493971
_symmetry_space_group_name_H-M "P M M A"
_symmetry_group_IT_number 51
_symmetry_cell_setting 'orthorhombic'
loop_
_space_group_symop_operation_xyz
x,y,z
1/2-x,-y,z
1/2+x,-y,-z
-x,y,-z
-x,-y,-z
1/2+x,y,-z
1/2-x,y,z
x,-y,z
loop_
_atom_site_type_symbol
_atom_site_label
_atom_site_fract_x
_atom_site_fract_y
_atom_site_fract_z
Si Si1 0.568220 0.906695 0.404496
Si Si2 0.057888 0.500000 0.603493
Si Si3 0.943249 0.088472 0.896793
Si Si4 0.566863 0.804141 0.739546
Si Si5 0.559606 0.672115 0.395700
O O1 0.500000 0.877640 0.500000
O O2 0.750000 0.878660 0.389889
O O3 0.451376 0.878138 0.327029
O O4 0.572601 0.000000 0.407313
O O5 0.250000 0.500000 0.608053
O O6 0.003991 0.414622 0.637215
O O7 0.000000 0.500000 0.500000
O O8 0.750000 0.089456 0.893702
O O9 0.001759 0.159580 0.832896
O O10 0.994145 0.000000 0.867359
O O11 0.000000 0.098165 0.000000
O O12 0.750000 0.782798 0.754755
O O13 0.490011 0.735458 0.679514
O O14 0.500000 0.685733 0.500000
O O15 0.750000 0.671855 0.401867
#
# Coordination Sequence:
#
# PCOD9401092 Si02
#       5
#     8   4   8   8   8
#     4  10  20  32  45  62  87 122 160 194 228 269
#     4   8  16  30  48  68  93 126 161 196 233 274
#     4   9  19  35  53  71  92 120 155 196 240 284
#     4  11  21  32  47  69  96 124 154 191 236 282
#     4  10  19  32  49  71  99 130 163 197 234 277
#
# _framework density 17.049537999999998
#
# number of rings (size 3 to 8) (size 9 to 14) (size 15 to 20)
#    0.000    2.222    0.000    3.333    0.000    4.889 
#    0.000    2.222    0.000    0.000    0.000    0.778 
#    0.000    0.000    0.000    0.000    0.000    0.000 
#
# Total GULP energy -200426.258377 kJ/mol
# GULP energy per Si atom -5567.396066 kJ/mol
# Density = 1.701073 g / cm^3
# Si number density = 17.049538 Si / 1000 Ang^3
#
#
#
# Elastic Constant Matrix: (Units=GPa)
#
#
# Indices 1 2 3 4 5 6 
#
# 1 23.3023 25.1212 5.6335 0.0000 0.0000 0.0000
# 2 25.1212 121.0637 58.3915 0.0000 0.0000 0.0000
# 3 5.6335 58.3915 81.3330 0.0000 0.0000 0.0000
# 4 0.0000 0.0000 0.0000 -274.1888 0.0000 0.0000
# 5 0.0000 0.0000 0.0000 0.0000 20.8200 0.0000
# 6 0.0000 0.0000 0.0000 0.0000 0.0000 1.4752
#
#
#
# Elastic Compliance Matrix: (Units=1/GPa)
#
#
# Indices 1 2 3 4 5 6 
#
# 1 0.057807 -0.015395 0.007048 0.000000 0.000000 0.000000
# 2 -0.015395 0.016735 -0.010948 0.000000 0.000000 0.000000
# 3 0.007048 -0.010948 0.019667 0.000000 0.000000 0.000000
# 4 0.000000 0.000000 0.000000 -0.003647 0.000000 0.000000
# 5 0.000000 0.000000 0.000000 0.000000 0.048031 0.000000
# 6 0.000000 0.000000 0.000000 0.000000 0.000000 0.677870
#
#
# Mechanical properties :
#
#
# Convention : Reuss Voigt Hill
#
# Bulk Modulus (GPa) = 17.97929 44.88793 31.43361
# Shear Modulus (GPa) = 5.72350 -41.27521 -17.77586
#
# Velocity S-wave (km/s) = 1.83419 -4.92560 -3.23244
# Velocity P-wave (km/s) = 3.87994 2.44205 2.13193
#
# Compressibility (1/GPa) = 0.05561956
#
# Stress axis : x y z
#
# Youngs Moduli (GPa) = 17.29904 59.75421 50.84624
#
# Poissons Ratio (x) = 0.91990 -0.35838
# Poissons Ratio (y) = 0.26631 0.55669
# Poissons Ratio (z) = -0.12193 0.65421
#
# Static dielectric constant tensor:
#      x y z
#    x 1.611730 0.000000 0.000000 
#    y 0.000000 1.645350 0.000000 
#    z 0.000000 0.000000 1.566670 
# 
# From -- ./inp_files/14025.got.cif
#   From: 2010.05.17/outbox.cif.g08.bks.cpg/sg51_8_cif.got.tgz:14025.got - 2010.06.03 11:52:47.
