data_PCOD9401069
_publ_section_title
;
Structure prediction by ZEFSAII (Michael W. Deem and Ramdas Pophale) SiO2 
 PCOD9401069
Probable space group: P M M A
;
_chemical_formula_sum "Si O2"
_cell_formula_units_Z 52
_cell_length_a 27.522546
_cell_length_b 7.370596
_cell_length_c 14.058783
_cell_angle_alpha 90.000000
_cell_angle_beta 90.000000
_cell_angle_gamma 90.000000
_cell_volume 2851.930521
_symmetry_space_group_name_H-M "P M M A"
_symmetry_group_IT_number 51
_symmetry_cell_setting 'orthorhombic'
loop_
_space_group_symop_operation_xyz
x,y,z
1/2-x,-y,z
1/2+x,-y,-z
-x,y,-z
-x,-y,-z
1/2+x,y,-z
1/2-x,y,z
x,-y,z
loop_
_atom_site_type_symbol
_atom_site_label
_atom_site_fract_x
_atom_site_fract_y
_atom_site_fract_z
Si Si1 0.946160 0.500000 0.961423
Si Si2 0.574696 0.217307 0.251574
Si Si3 0.110440 0.781660 0.350085
Si Si4 0.807589 0.500000 0.956963
Si Si5 0.371544 0.500000 0.867157
Si Si6 0.554474 0.778628 0.469125
Si Si7 0.533976 0.214304 0.811032
Si Si8 0.807641 0.216763 0.796750
O O1 0.941919 0.675016 0.895200
O O2 0.910795 0.500000 0.048625
O O3 0.000000 0.500000 0.000000
O O4 0.616843 0.326778 0.198562
O O5 0.567954 0.271417 0.361727
O O6 0.522676 0.259846 0.202336
O O7 0.581656 0.000000 0.246633
O O8 0.094896 0.717574 0.454539
O O9 0.063828 0.742504 0.284027
O O10 0.158174 0.723158 0.291501
O O11 0.114845 0.000000 0.356640
O O12 0.750000 0.500000 0.958032
O O13 0.822201 0.326914 0.891698
O O14 0.824498 0.500000 0.066111
O O15 0.500000 0.720869 0.500000
O O16 0.553221 0.000000 0.470885
O O17 0.537626 0.000000 0.827278
O O18 0.750000 0.248810 0.778607
O O19 0.814283 0.000000 0.810253
#
# Coordination Sequence:
#
# PCOD9401069 Si02
#       8
#     4   8   8   4   4   8   8   8
#     4  12  22  32  45  69 101 134 164 206 256 302
#     4  10  20  34  51  72 104 142 174 212 250 291
#     4   9  16  28  51  78 104 137 170 206 256 309
#     4  10  22  40  61  77  97 135 176 218 268 316
#     4  12  24  38  51  73 103 132 174 222 261 308
#     4   9  15  28  51  76 104 143 183 209 241 300
#     4  10  19  32  48  69 100 136 172 203 245 304
#     4   9  18  34  56  83 108 128 163 216 269 320
#
# _framework density 18.233263000000001
#
# number of rings (size 3 to 8) (size 9 to 14) (size 15 to 20)
#    0.000    2.154    3.077    0.923    0.000    1.538 
#    0.000    1.923    0.000    0.923    0.000    2.154 
#    0.000    0.000    0.000    0.000    0.000    0.000 
#
# Total GULP energy -290048.037309 kJ/mol
# GULP energy per Si atom -5577.846871 kJ/mol
# Density = 1.819176 g / cm^3
# Si number density = 18.233263 Si / 1000 Ang^3
#
#
#
# Elastic Constant Matrix: (Units=GPa)
#
#
# Indices 1 2 3 4 5 6 
#
# 1 68.3060 23.2964 36.9945 0.0000 0.0000 0.0000
# 2 23.2964 70.5938 41.0696 0.0000 0.0000 0.0000
# 3 36.9945 41.0696 131.5700 0.0000 0.0000 0.0000
# 4 0.0000 0.0000 0.0000 11.3186 0.0000 0.0000
# 5 0.0000 0.0000 0.0000 0.0000 31.7369 0.0000
# 6 0.0000 0.0000 0.0000 0.0000 0.0000 7.8418
#
#
#
# Elastic Compliance Matrix: (Units=1/GPa)
#
#
# Indices 1 2 3 4 5 6 
#
# 1 0.018013 -0.003663 -0.003921 0.000000 0.000000 0.000000
# 2 -0.003663 0.018054 -0.004606 0.000000 0.000000 0.000000
# 3 -0.003921 -0.004606 0.010141 0.000000 0.000000 0.000000
# 4 0.000000 0.000000 0.000000 0.088350 0.000000 0.000000
# 5 0.000000 0.000000 0.000000 0.000000 0.031509 0.000000
# 6 0.000000 0.000000 0.000000 0.000000 0.000000 0.127521
#
#
# Mechanical properties :
#
#
# Convention : Reuss Voigt Hill
#
# Bulk Modulus (GPa) = 45.81354 52.57676 49.19515
# Shear Modulus (GPa) = 15.37310 21.45344 18.41327
#
# Velocity S-wave (km/s) = 2.90683 3.43390 3.18130
# Velocity P-wave (km/s) = 6.03714 6.67985 6.36661
#
# Compressibility (1/GPa) = 0.02182761
#
# Stress axis : x y z
#
# Youngs Moduli (GPa) = 55.51489 55.39015 98.61191
#
# Poissons Ratio (x) = 0.20290 0.38670
# Poissons Ratio (y) = 0.20335 0.45416
# Poissons Ratio (z) = 0.21770 0.25510
#
# Static dielectric constant tensor:
#      x y z
#    x 1.668120 0.000000 0.000000 
#    y 0.000000 2.887680 0.000000 
#    z 0.000000 0.000000 1.647160 
# 
# From -- ./inp_files/19100.got.cif
#   From: 2010.05.17/outbox.cif.g08.bks.cpg/sg51_10_cif.got.tgz:19100.got - 2010.06.03 11:52:47.
