data_PCOD9401420
_publ_section_title
;
Structure prediction by ZEFSAII (Michael W. Deem and Ramdas Pophale) SiO2 
 PCOD9401420
Probable space group: P M M A
;
_chemical_formula_sum "Si O2"
_cell_formula_units_Z 64
_cell_length_a 9.278494
_cell_length_b 24.201865
_cell_length_c 15.446438
_cell_angle_alpha 90.000000
_cell_angle_beta 90.000000
_cell_angle_gamma 90.000000
_cell_volume 3468.603603
_symmetry_space_group_name_H-M "P M M A"
_symmetry_group_IT_number 51
_symmetry_cell_setting 'orthorhombic'
loop_
_space_group_symop_operation_xyz
x,y,z
1/2-x,-y,z
1/2+x,-y,-z
-x,y,-z
-x,-y,-z
1/2+x,y,-z
1/2-x,y,z
x,-y,z
loop_
_atom_site_type_symbol
_atom_site_label
_atom_site_fract_x
_atom_site_fract_y
_atom_site_fract_z
Si Si1 0.920241 0.869049 0.760282
Si Si2 0.919601 0.737020 0.760127
Si Si3 0.584810 0.265799 0.414221
Si Si4 0.583801 0.868794 0.414572
Si Si5 0.083621 0.567288 0.586284
Si Si6 0.422924 0.347800 0.092314
Si Si7 0.921209 0.565261 0.761204
Si Si8 0.080993 0.065640 0.910029
O O1 0.750000 0.881183 0.759304
O O2 0.936919 0.802801 0.770857
O O3 0.995447 0.885002 0.670231
O O4 0.001473 0.900379 0.836204
O O5 0.750000 0.725849 0.744301
O O6 0.961285 0.704577 0.846976
O O7 0.007583 0.718913 0.675412
O O8 0.500000 0.283852 0.500000
O O9 0.750000 0.283991 0.416250
O O10 0.584976 0.198467 0.416135
O O11 0.500000 0.887488 0.500000
O O12 0.750000 0.886954 0.412312
O O13 0.250000 0.584170 0.584342
O O14 0.080418 0.500000 0.585642
O O15 0.000000 0.585388 0.500000
O O16 0.006168 0.583762 0.675465
O O17 0.250000 0.347498 0.079124
O O18 0.459557 0.400102 0.153519
O O19 0.500000 0.348102 0.000000
O O20 0.750000 0.572782 0.745650
O O21 0.947484 0.500000 0.774290
O O22 0.250000 0.079950 0.915837
O O23 0.070632 0.000000 0.892388
O O24 0.000000 0.076295 0.000000
#
# Coordination Sequence:
#
# PCOD9401420 Si02
#       8
#     8   8   8   8   8   8   8   8
#     4  10  19  32  53  79 106 138 175 213 254 304
#     4   9  19  35  52  74 105 138 172 210 253 303
#     4   9  16  27  47  74 103 136 171 209 251 298
#     4   9  16  27  45  72 105 139 176 215 255 300
#     4   9  16  27  47  76 107 136 165 200 245 299
#     4  10  22  39  56  74 100 133 168 212 264 311
#     4   9  18  34  55  77 101 131 169 212 256 303
#     4  10  21  37  56  78 105 136 171 214 262 309
#
# _framework density 18.451229999999999
#
# number of rings (size 3 to 8) (size 9 to 14) (size 15 to 20)
#    0.000    2.625    0.000    1.875    0.000    7.500 
#    0.000    1.875    0.000    0.375    0.000    0.000 
#    0.000    0.000    0.000    0.000    0.000    0.000 
#
# Total GULP energy -357238.700994 kJ/mol
# GULP energy per Si atom -5581.854703 kJ/mol
# Density = 1.840923 g / cm^3
# Si number density = 18.451230 Si / 1000 Ang^3
#
#
#
# Elastic Constant Matrix: (Units=GPa)
#
#
# Indices 1 2 3 4 5 6 
#
# 1 152.8689 55.6624 126.6422 0.0000 0.0000 0.0000
# 2 55.6624 33.6315 62.3158 0.0000 0.0000 0.0000
# 3 126.6422 62.3158 218.1423 0.0000 0.0000 0.0000
# 4 0.0000 0.0000 0.0000 76.2393 0.0000 0.0000
# 5 0.0000 0.0000 0.0000 0.0000 43.9016 0.0000
# 6 0.0000 0.0000 0.0000 0.0000 0.0000 0.1470
#
#
#
# Elastic Compliance Matrix: (Units=1/GPa)
#
#
# Indices 1 2 3 4 5 6 
#
# 1 0.018063 -0.022233 -0.004135 0.000000 0.000000 0.000000
# 2 -0.022233 0.090538 -0.012956 0.000000 0.000000 0.000000
# 3 -0.004135 -0.012956 0.010686 0.000000 0.000000 0.000000
# 4 0.000000 0.000000 0.000000 0.013117 0.000000 0.000000
# 5 0.000000 0.000000 0.000000 0.000000 0.022778 0.000000
# 6 0.000000 0.000000 0.000000 0.000000 0.000000 6.804176
#
#
# Mechanical properties :
#
#
# Convention : Reuss Voigt Hill
#
# Bulk Modulus (GPa) = 24.60762 99.32037 61.96399
# Shear Modulus (GPa) = 0.70906 34.72574 17.71740
#
# Velocity S-wave (km/s) = 0.62058 4.34294 3.10212
# Velocity P-wave (km/s) = 3.72546 8.89346 6.81809
#
# Compressibility (1/GPa) = 0.04063782
#
# Stress axis : x y z
#
# Youngs Moduli (GPa) = 55.36290 11.04509 93.58186
#
# Poissons Ratio (x) = 0.24557 0.38696
# Poissons Ratio (y) = 1.23090 1.21246
# Poissons Ratio (z) = 0.22892 0.14310
#
# Static dielectric constant tensor:
#      x y z
#    x 1.614980 0.000000 0.000000 
#    y 0.000000 1.658160 0.000000 
#    z 0.000000 0.000000 1.599840 
# 
# From -- ./inp_files/22263.got.cif
#   From: 2010.05.17/outbox.cif.g08.bks.cpg/sg51_12_cif.got.tgz:22263.got - 2010.06.03 11:52:47.
