data_PCOD9401921
_publ_section_title
;
Structure prediction by ZEFSAII (Michael W. Deem and Ramdas Pophale) SiO2 
 PCOD9401921
Probable space group: P M M A
;
_chemical_formula_sum "Si O2"
_cell_formula_units_Z 56
_cell_length_a 18.653627
_cell_length_b 7.561058
_cell_length_c 20.307921
_cell_angle_alpha 90.000000
_cell_angle_beta 90.000000
_cell_angle_gamma 90.000000
_cell_volume 2864.252647
_symmetry_space_group_name_H-M "P M M A"
_symmetry_group_IT_number 51
_symmetry_cell_setting 'orthorhombic'
loop_
_space_group_symop_operation_xyz
x,y,z
1/2-x,-y,z
1/2+x,-y,-z
-x,y,-z
-x,-y,-z
1/2+x,y,-z
1/2-x,y,z
x,-y,z
loop_
_atom_site_type_symbol
_atom_site_label
_atom_site_fract_x
_atom_site_fract_y
_atom_site_fract_z
Si Si1 0.535312 0.789694 0.153610
Si Si2 0.831126 0.211502 0.507352
Si Si3 0.167754 0.217065 0.934270
Si Si4 0.830753 0.710585 0.658831
Si Si5 0.034374 0.295710 0.565607
Si Si6 0.430901 0.202691 0.048614
Si Si7 0.979637 0.713849 0.704960
O O1 0.610281 0.726296 0.121742
O O2 0.465968 0.715385 0.113948
O O3 0.523284 0.764333 0.230494
O O4 0.534716 0.000000 0.140539
O O5 0.750000 0.273716 0.499512
O O6 0.852153 0.259772 0.582326
O O7 0.882445 0.289222 0.452321
O O8 0.833068 0.000000 0.502487
O O9 0.250000 0.273060 0.924934
O O10 0.167786 0.000000 0.934904
O O11 0.133209 0.277279 0.004076
O O12 0.750000 0.783439 0.668357
O O13 0.826294 0.500000 0.668406
O O14 0.896665 0.776376 0.703008
O O15 0.009529 0.500000 0.567189
O O16 0.014880 0.221450 0.636617
O O17 0.000000 0.210699 0.500000
O O18 0.409655 0.000000 0.063674
O O19 0.500000 0.198187 0.000000
O O20 0.978791 0.500000 0.704026
#
# Coordination Sequence:
#
# PCOD9401921 Si02
#       7
#     8   8   8   8   8   8   8
#     4   9  17  29  46  70  99 129 158 193 242 291
#     4  10  20  32  48  73  99 119 147 197 258 305
#     4   8  13  24  46  73  96 123 163 203 232 268
#     4   9  17  32  52  68  86 119 160 198 237 286
#     4  10  19  34  52  70  91 122 169 213 242 286
#     4   7  11  22  41  64  89 116 149 187 224 269
#     4  10  20  33  49  70  95 126 164 201 239 289
#
# _framework density 19.551348000000001
#
# number of rings (size 3 to 8) (size 9 to 14) (size 15 to 20)
#    0.000    3.000    1.429    2.143    0.000    2.286 
#    0.000    1.429    0.000    7.714    0.000    0.000 
#    0.000    0.000    0.000    0.000    0.000    0.000 
#
# Total GULP energy -311831.153947 kJ/mol
# GULP energy per Si atom -5568.413463 kJ/mol
# Density = 1.950685 g / cm^3
# Si number density = 19.551348 Si / 1000 Ang^3
#
#
#
# Elastic Constant Matrix: (Units=GPa)
#
#
# Indices 1 2 3 4 5 6 
#
# 1 143.6952 4.3642 78.9957 0.0000 0.0000 0.0000
# 2 4.3642 47.0206 1.4477 0.0000 0.0000 0.0000
# 3 78.9957 1.4477 131.6621 0.0000 0.0000 0.0000
# 4 0.0000 0.0000 0.0000 16.8733 0.0000 0.0000
# 5 0.0000 0.0000 0.0000 0.0000 26.3270 0.0000
# 6 0.0000 0.0000 0.0000 0.0000 0.0000 12.0372
#
#
#
# Elastic Compliance Matrix: (Units=1/GPa)
#
#
# Indices 1 2 3 4 5 6 
#
# 1 0.010412 -0.000774 -0.006239 0.000000 0.000000 0.000000
# 2 -0.000774 0.021332 0.000230 0.000000 0.000000 0.000000
# 3 -0.006239 0.000230 0.011336 0.000000 0.000000 0.000000
# 4 0.000000 0.000000 0.000000 0.059265 0.000000 0.000000
# 5 0.000000 0.000000 0.000000 0.000000 0.037984 0.000000
# 6 0.000000 0.000000 0.000000 0.000000 0.000000 0.083076
#
#
# Mechanical properties :
#
#
# Convention : Reuss Voigt Hill
#
# Bulk Modulus (GPa) = 33.88205 54.66590 44.27398
# Shear Modulus (GPa) = 20.25852 26.88551 23.57201
#
# Velocity S-wave (km/s) = 3.22245 3.71229 3.47601
# Velocity P-wave (km/s) = 5.58686 6.81143 6.22931
#
# Compressibility (1/GPa) = 0.02951415
#
# Stress axis : x y z
#
# Youngs Moduli (GPa) = 96.03871 46.87775 88.21524
#
# Poissons Ratio (x) = 0.03630 0.55036
# Poissons Ratio (y) = 0.07437 -0.02029
# Poissons Ratio (z) = 0.59917 -0.01078
#
# Static dielectric constant tensor:
#      x y z
#    x 1.729360 0.000000 0.000000 
#    y 0.000000 1.758610 0.000000 
#    z 0.000000 0.000000 1.686460 
# 
# From -- ./inp_files/33675.got.cif
#   From: 2010.05.17/outbox.cif.g08.bks.cpg/sg51_17_cif.got.tgz:33675.got - 2010.06.03 11:52:47.
