data_PCOD9401987
_publ_section_title
;
Structure prediction by ZEFSAII (Michael W. Deem and Ramdas Pophale) SiO2 
 PCOD9401987
Probable space group: P M M A
;
_chemical_formula_sum "Si O2"
_cell_formula_units_Z 64
_cell_length_a 8.556756
_cell_length_b 20.190392
_cell_length_c 21.363456
_cell_angle_alpha 90.000000
_cell_angle_beta 90.000000
_cell_angle_gamma 90.000000
_cell_volume 3690.841622
_symmetry_space_group_name_H-M "P M M A"
_symmetry_group_IT_number 51
_symmetry_cell_setting 'orthorhombic'
loop_
_space_group_symop_operation_xyz
x,y,z
1/2-x,-y,z
1/2+x,-y,-z
-x,y,-z
-x,-y,-z
1/2+x,y,-z
1/2-x,y,z
x,-y,z
loop_
_atom_site_type_symbol
_atom_site_label
_atom_site_fract_x
_atom_site_fract_y
_atom_site_fract_z
Si Si1 0.436640 0.290267 0.566432
Si Si2 0.438393 0.790982 0.687768
Si Si3 0.063041 0.425639 0.383985
Si Si4 0.438216 0.925674 0.265652
Si Si5 0.936628 0.790690 0.066915
Si Si6 0.061326 0.574028 0.757216
Si Si7 0.938466 0.074617 0.881019
Si Si8 0.559563 0.288940 0.188475
O O1 0.500000 0.266444 0.500000
O O2 0.250000 0.288324 0.565827
O O3 0.493109 0.246559 0.625387
O O4 0.489732 0.365740 0.577759
O O5 0.250000 0.789076 0.687769
O O6 0.492767 0.866304 0.694261
O O7 0.491757 0.751985 0.750175
O O8 0.250000 0.422046 0.388004
O O9 0.013239 0.500000 0.403427
O O10 0.011011 0.417338 0.311680
O O11 0.250000 0.923126 0.268319
O O12 0.481997 0.916614 0.192346
O O13 0.487399 0.000000 0.284215
O O14 0.750000 0.788181 0.066117
O O15 0.994823 0.745993 0.125005
O O16 0.988829 0.866002 0.080166
O O17 0.000000 0.768629 0.000000
O O18 0.250000 0.577250 0.750156
O O19 0.020891 0.500000 0.779641
O O20 0.013033 0.634838 0.801071
O O21 0.750000 0.078163 0.884917
O O22 0.985655 0.000000 0.899898
O O23 0.750000 0.287015 0.187692
#
# Coordination Sequence:
#
# PCOD9401987 Si02
#       8
#     8   8   8   8   8   8   8   8
#     4  11  23  38  55  76 106 140 176 217 260 309
#     4  10  19  34  55  79 105 134 172 216 257 305
#     4  10  20  33  50  76 109 142 176 211 252 306
#     4   9  18  32  52  80 110 136 167 211 258 305
#     4  11  22  35  51  71 102 137 172 213 254 304
#     4   9  16  30  54  79 103 133 170 214 261 305
#     4   9  18  33  51  73 103 135 169 207 248 300
#     4   9  17  32  52  77 103 130 169 215 258 302
#
# _framework density 17.340218
#
# number of rings (size 3 to 8) (size 9 to 14) (size 15 to 20)
#    0.000    2.250    2.500    1.875    0.000    2.750 
#    0.000    2.500    0.000    0.750    0.000    0.000 
#    0.000    0.000    0.000    0.000    0.000    0.125 
#
# Total GULP energy -357056.500291 kJ/mol
# GULP energy per Si atom -5579.007817 kJ/mol
# Density = 1.730075 g / cm^3
# Si number density = 17.340218 Si / 1000 Ang^3
#
#
#
# Elastic Constant Matrix: (Units=GPa)
#
#
# Indices 1 2 3 4 5 6 
#
# 1 17.1376 17.8602 22.1945 0.0000 0.0000 0.0000
# 2 17.8602 116.1826 70.2437 0.0000 0.0000 0.0000
# 3 22.1945 70.2437 121.8628 0.0000 0.0000 0.0000
# 4 0.0000 0.0000 0.0000 20.7490 0.0000 0.0000
# 5 0.0000 0.0000 0.0000 0.0000 21.8972 0.0000
# 6 0.0000 0.0000 0.0000 0.0000 0.0000 19.7720
#
#
#
# Elastic Compliance Matrix: (Units=1/GPa)
#
#
# Indices 1 2 3 4 5 6 
#
# 1 0.078393 -0.005248 -0.011253 0.000000 0.000000 0.000000
# 2 -0.005248 0.013563 -0.006862 0.000000 0.000000 0.000000
# 3 -0.011253 -0.006862 0.014211 0.000000 0.000000 0.000000
# 4 0.000000 0.000000 0.000000 0.048195 0.000000 0.000000
# 5 0.000000 0.000000 0.000000 0.000000 0.045668 0.000000
# 6 0.000000 0.000000 0.000000 0.000000 0.000000 0.050577
#
#
# Mechanical properties :
#
#
# Convention : Reuss Voigt Hill
#
# Bulk Modulus (GPa) = 16.82319 52.86441 34.84380
# Shear Modulus (GPa) = 15.76570 22.14261 18.95415
#
# Velocity S-wave (km/s) = 3.01856 3.57732 3.30975
# Velocity P-wave (km/s) = 4.67674 6.90042 5.89439
#
# Compressibility (1/GPa) = 0.05944176
#
# Stress axis : x y z
#
# Youngs Moduli (GPa) = 12.75625 73.73247 70.36964
#
# Poissons Ratio (x) = 0.38692 0.79184
# Poissons Ratio (y) = 0.06694 0.48287
# Poissons Ratio (z) = 0.14354 0.50595
#
# Static dielectric constant tensor:
#      x y z
#    x 1.588810 0.000000 0.000000 
#    y 0.000000 1.598750 0.000000 
#    z 0.000000 0.000000 1.581750 
# 
# From -- ./inp_files/32439.got.cif
#   From: 2010.05.17/outbox.cif.g08.bks.cpg/sg51_17_cif.got.tgz:32439.got - 2010.06.03 11:52:47.
