data_PCOD9401389
_publ_section_title
;
Structure prediction by ZEFSAII (Michael W. Deem and Ramdas Pophale) SiO2 
 PCOD9401389
Probable space group: P M M A
;
_chemical_formula_sum "Si O2"
_cell_formula_units_Z 64
_cell_length_a 33.745498
_cell_length_b 9.312634
_cell_length_c 10.782575
_cell_angle_alpha 90.000000
_cell_angle_beta 90.000000
_cell_angle_gamma 90.000000
_cell_volume 3388.526327
_symmetry_space_group_name_H-M "P M M A"
_symmetry_group_IT_number 51
_symmetry_cell_setting 'orthorhombic'
loop_
_space_group_symop_operation_xyz
x,y,z
1/2-x,-y,z
1/2+x,-y,-z
-x,y,-z
-x,-y,-z
1/2+x,y,-z
1/2-x,y,z
x,-y,z
loop_
_atom_site_type_symbol
_atom_site_label
_atom_site_fract_x
_atom_site_fract_y
_atom_site_fract_z
Si Si1 0.631062 0.833761 0.320300
Si Si2 0.084296 0.167938 0.939206
Si Si3 0.632195 0.169016 0.818800
Si Si4 0.703731 0.330801 0.404310
Si Si5 0.204729 0.327950 0.302803
Si Si6 0.985305 0.666287 0.182814
Si Si7 0.437947 0.334032 0.556386
Si Si8 0.449310 0.167934 0.313765
O O1 0.610862 0.826047 0.185293
O O2 0.674577 0.767385 0.325626
O O3 0.603791 0.738480 0.410168
O O4 0.630799 0.000000 0.359589
O O5 0.045147 0.260705 0.912521
O O6 0.073457 0.000000 0.961018
O O7 0.111510 0.217150 0.053140
O O8 0.670992 0.253101 0.777395
O O9 0.597004 0.183283 0.718539
O O10 0.641585 0.000000 0.831208
O O11 0.750000 0.309446 0.375119
O O12 0.694642 0.500000 0.386832
O O13 0.698441 0.297342 0.550728
O O14 0.250000 0.284337 0.271741
O O15 0.202330 0.500000 0.288839
O O16 0.993059 0.500000 0.153378
O O17 0.963173 0.671235 0.317096
O O18 0.024758 0.757060 0.207175
O O19 0.433661 0.500000 0.519660
O O20 0.456464 0.246044 0.443754
O O21 0.459358 0.000000 0.320116
#
# Coordination Sequence:
#
# PCOD9401389 Si02
#       8
#     8   8   8   8   8   8   8   8
#     4  10  19  32  53  77 100 132 173 214 258 307
#     4   9  20  39  56  71 100 140 178 217 259 303
#     4  10  22  38  55  77 104 138 179 217 257 305
#     4   9  18  33  53  78 109 140 166 201 257 318
#     4   9  19  36  57  81 108 137 168 205 254 308
#     4  10  21  36  54  77 104 137 176 215 261 313
#     4  10  20  34  52  75 105 137 170 212 261 315
#     4  11  22  34  52  79 108 137 173 217 262 310
#
# _framework density 18.887267000000001
#
# number of rings (size 3 to 8) (size 9 to 14) (size 15 to 20)
#    0.000    2.250    0.000    3.375    0.000    8.500 
#    0.000    4.375    0.000    3.750    0.000    0.000 
#    0.000    0.000    0.000    0.000    0.000    0.000 
#
# Total GULP energy -357459.166879 kJ/mol
# GULP energy per Si atom -5585.299482 kJ/mol
# Density = 1.884428 g / cm^3
# Si number density = 18.887267 Si / 1000 Ang^3
#
#
#
# Elastic Constant Matrix: (Units=GPa)
#
#
# Indices 1 2 3 4 5 6 
#
# 1 67.8811 42.3852 6.5477 0.0000 0.0000 0.0000
# 2 42.3852 90.0517 25.7373 0.0000 0.0000 0.0000
# 3 6.5477 25.7373 47.3372 0.0000 0.0000 0.0000
# 4 0.0000 0.0000 0.0000 19.7299 0.0000 0.0000
# 5 0.0000 0.0000 0.0000 0.0000 25.4997 0.0000
# 6 0.0000 0.0000 0.0000 0.0000 0.0000 -37.8345
#
#
#
# Elastic Compliance Matrix: (Units=1/GPa)
#
#
# Indices 1 2 3 4 5 6 
#
# 1 0.021206 -0.010825 0.002952 0.000000 0.000000 0.000000
# 2 -0.010825 0.018674 -0.008656 0.000000 0.000000 0.000000
# 3 0.002952 -0.008656 0.025423 0.000000 0.000000 0.000000
# 4 0.000000 0.000000 0.000000 0.050685 0.000000 0.000000
# 5 0.000000 0.000000 0.000000 0.000000 0.039216 0.000000
# 6 0.000000 0.000000 0.000000 0.000000 0.000000 -0.026431
#
#
# Mechanical properties :
#
#
# Convention : Reuss Voigt Hill
#
# Bulk Modulus (GPa) = 31.01170 39.40117 35.20643
# Shear Modulus (GPa) = 28.97257 10.18566 19.57911
#
# Velocity S-wave (km/s) = 3.92085 2.32477 3.22317
# Velocity P-wave (km/s) = 6.07885 5.30213 5.70373
#
# Compressibility (1/GPa) = 0.03224590
#
# Stress axis : x y z
#
# Youngs Moduli (GPa) = 47.15653 53.55165 39.33496
#
# Poissons Ratio (x) = 0.57969 -0.11613
# Poissons Ratio (y) = 0.51047 0.34046
# Poissons Ratio (z) = -0.13922 0.46352
#
# Static dielectric constant tensor:
#      x y z
#    x 1.650810 0.000000 0.000000 
#    y 0.000000 1.633970 0.000000 
#    z 0.000000 0.000000 1.665260 
# 
# From -- ./inp_files/19576.got.cif
#   From: 2010.05.17/outbox.cif.g08.bks.cpg/sg51_10_cif.got.tgz:19576.got - 2010.06.03 11:52:47.
