data_PCOD9401297
_publ_section_title
;
Structure prediction by ZEFSAII (Michael W. Deem and Ramdas Pophale) SiO2 
 PCOD9401297
Probable space group: P M M A
;
_chemical_formula_sum "Si O2"
_cell_formula_units_Z 64
_cell_length_a 8.280672
_cell_length_b 17.880354
_cell_length_c 21.493373
_cell_angle_alpha 90.000000
_cell_angle_beta 90.000000
_cell_angle_gamma 90.000000
_cell_volume 3182.337752
_symmetry_space_group_name_H-M "P M M A"
_symmetry_group_IT_number 51
_symmetry_cell_setting 'orthorhombic'
loop_
_space_group_symop_operation_xyz
x,y,z
1/2-x,-y,z
1/2+x,-y,-z
-x,y,-z
-x,-y,-z
1/2+x,y,-z
1/2-x,y,z
x,-y,z
loop_
_atom_site_type_symbol
_atom_site_label
_atom_site_fract_x
_atom_site_fract_y
_atom_site_fract_z
Si Si1 0.945369 0.583568 0.206170
Si Si2 0.555680 0.752744 0.565382
Si Si3 0.061412 0.080848 0.410738
Si Si4 0.436774 0.214031 0.064504
Si Si5 0.056625 0.284397 0.296702
Si Si6 0.063524 0.120049 0.718194
Si Si7 0.058553 0.918702 0.858249
Si Si8 0.937307 0.379103 0.068738
O O1 0.750000 0.590815 0.204404
O O2 0.985869 0.500000 0.228219
O O3 0.005697 0.591149 0.134412
O O4 0.009463 0.646957 0.252590
O O5 0.500000 0.719092 0.500000
O O6 0.750000 0.756478 0.565505
O O7 0.491099 0.839017 0.568050
O O8 0.509450 0.711519 0.629765
O O9 0.250000 0.080087 0.428461
O O10 0.046419 0.087879 0.336253
O O11 0.989359 0.000000 0.429168
O O12 0.250000 0.235806 0.059785
O O13 0.463771 0.151420 0.115399
O O14 0.537123 0.289690 0.074037
O O15 0.500000 0.180416 0.000000
O O16 0.250000 0.274782 0.294161
O O17 0.974137 0.207894 0.274007
O O18 0.250000 0.110014 0.698990
O O19 0.040271 0.082302 0.784229
O O20 0.250000 0.908677 0.871595
O O21 0.007741 0.000000 0.882874
O O22 0.750000 0.398717 0.068365
O O23 0.000000 0.401278 0.000000
#
# Coordination Sequence:
#
# PCOD9401297 Si02
#       8
#     8   8   8   8   8   8   8   8
#     4  10  22  39  59  86 118 148 178 215 261 313
#     4   9  19  34  52  77 107 141 184 230 276 326
#     4   9  18  32  48  70 106 145 178 221 274 321
#     4  11  22  36  54  73  95 127 170 216 261 313
#     4  10  21  37  57  82 111 143 180 223 270 322
#     4  10  19  32  52  76 101 134 177 220 263 316
#     4  10  21  35  49  68  97 130 167 217 271 318
#     4  10  20  36  58  83 113 147 181 217 257 307
#
# _framework density 20.111001000000002
#
# number of rings (size 3 to 8) (size 9 to 14) (size 15 to 20)
#    0.000    2.125    0.000    4.875    0.000    9.500 
#    0.000    0.000    0.000    0.375    0.000    0.000 
#    0.000    0.000    0.000    0.000    0.000    0.000 
#
# Total GULP energy -357044.148713 kJ/mol
# GULP energy per Si atom -5578.814824 kJ/mol
# Density = 2.006523 g / cm^3
# Si number density = 20.111001 Si / 1000 Ang^3
#
#
#
# Elastic Constant Matrix: (Units=GPa)
#
#
# Indices 1 2 3 4 5 6 
#
# 1 15.7308 3.5218 17.4503 0.0000 0.0000 0.0000
# 2 3.5218 79.4701 48.4833 0.0000 0.0000 0.0000
# 3 17.4503 48.4833 99.6534 0.0000 0.0000 0.0000
# 4 0.0000 0.0000 0.0000 -37.7929 0.0000 0.0000
# 5 0.0000 0.0000 0.0000 0.0000 28.5429 0.0000
# 6 0.0000 0.0000 0.0000 0.0000 0.0000 -5.1645
#
#
#
# Elastic Compliance Matrix: (Units=1/GPa)
#
#
# Indices 1 2 3 4 5 6 
#
# 1 0.081744 0.007267 -0.017850 0.000000 0.000000 0.000000
# 2 0.007267 0.018541 -0.010293 0.000000 0.000000 0.000000
# 3 -0.017850 -0.010293 0.018168 0.000000 0.000000 0.000000
# 4 0.000000 0.000000 0.000000 -0.026460 0.000000 0.000000
# 5 0.000000 0.000000 0.000000 0.000000 0.035035 0.000000
# 6 0.000000 0.000000 0.000000 0.000000 0.000000 -0.193630
#
#
# Mechanical properties :
#
#
# Convention : Reuss Voigt Hill
#
# Bulk Modulus (GPa) = 13.03753 37.08499 25.06126
# Shear Modulus (GPa) = 6980.69889 5.47703 3493.08796
#
# Velocity S-wave (km/s) = 58.97983 1.65206 41.72139
# Velocity P-wave (km/s) = 68.15172 4.70311 48.30516
#
# Compressibility (1/GPa) = 0.07670166
#
# Stress axis : x y z
#
# Youngs Moduli (GPa) = 12.23338 53.93467 55.04108
#
# Poissons Ratio (x) = -0.39196 0.98247
# Poissons Ratio (y) = -0.08890 0.56654
# Poissons Ratio (z) = 0.21836 0.55516
#
# Static dielectric constant tensor:
#      x y z
#    x 1.714170 0.000000 0.000000 
#    y 0.000000 1.706360 0.000000 
#    z 0.000000 0.000000 1.746060 
# 
# From -- ./inp_files/32322.got.cif
#   From: 2010.05.17/outbox.cif.g08.bks.cpg/sg51_17_cif.got.tgz:32322.got - 2010.06.03 11:52:47.
