data_PCOD9401342
_publ_section_title
;
Structure prediction by ZEFSAII (Michael W. Deem and Ramdas Pophale) SiO2 
 PCOD9401342
Probable space group: P M M A
;
_chemical_formula_sum "Si O2"
_cell_formula_units_Z 40
_cell_length_a 8.680989
_cell_length_b 13.221009
_cell_length_c 20.141121
_cell_angle_alpha 90.000000
_cell_angle_beta 90.000000
_cell_angle_gamma 90.000000
_cell_volume 2311.625333
_symmetry_space_group_name_H-M "P M M A"
_symmetry_group_IT_number 51
_symmetry_cell_setting 'orthorhombic'
loop_
_space_group_symop_operation_xyz
x,y,z
1/2-x,-y,z
1/2+x,-y,-z
-x,y,-z
-x,-y,-z
1/2+x,y,-z
1/2-x,y,z
x,-y,z
loop_
_atom_site_type_symbol
_atom_site_label
_atom_site_fract_x
_atom_site_fract_y
_atom_site_fract_z
Si Si1 0.934891 0.714412 0.677579
Si Si2 0.065522 0.117597 0.072962
Si Si3 0.064009 0.280170 0.825782
Si Si4 0.072857 0.500000 0.833903
Si Si5 0.435836 0.884588 0.427022
Si Si6 0.072799 0.500000 0.672475
O O1 0.750000 0.714595 0.682396
O O2 0.984875 0.802482 0.627218
O O3 0.003974 0.732250 0.750742
O O4 0.990501 0.604112 0.653148
O O5 0.250000 0.127284 0.072475
O O6 0.994333 0.191707 0.127180
O O7 0.027103 0.000000 0.087214
O O8 0.000000 0.141289 0.000000
O O9 0.250000 0.283122 0.824238
O O10 0.005852 0.390572 0.851784
O O11 0.250000 0.500000 0.857171
O O12 0.073383 0.500000 0.753299
O O13 0.500000 0.861371 0.500000
O O14 0.250000 0.882528 0.429821
O O15 0.482836 0.000000 0.410006
O O16 0.250000 0.500000 0.650562
#
# Coordination Sequence:
#
# PCOD9401342 Si02
#       6
#     8   8   8   4   8   4
#     4  10  19  32  52  78 106 135 169 210 257 306
#     4  10  21  37  55  75 102 136 173 214 260 308
#     4  10  19  33  54  79 106 135 170 210 253 304
#     4   7  14  29  48  71 100 131 161 200 246 291
#     4   9  19  35  53  73 100 134 170 210 257 308
#     4   9  17  31  50  73 102 135 171 210 253 301
#
# _framework density 17.303842
#
# number of rings (size 3 to 8) (size 9 to 14) (size 15 to 20)
#    0.000    2.600    0.000    3.300    0.000    3.600 
#    0.000    4.500    0.000    0.000    0.000    0.000 
#    0.000    0.000    0.000    0.000    0.000    0.000 
#
# Total GULP energy -222955.707473 kJ/mol
# GULP energy per Si atom -5573.892687 kJ/mol
# Density = 1.726446 g / cm^3
# Si number density = 17.303842 Si / 1000 Ang^3
#
#
#
# Elastic Constant Matrix: (Units=GPa)
#
#
# Indices 1 2 3 4 5 6 
#
# 1 52.0375 50.0580 35.8775 0.0000 0.0000 0.0000
# 2 50.0580 167.0054 106.5259 0.0000 0.0000 0.0000
# 3 35.8775 106.5259 93.9825 0.0000 0.0000 0.0000
# 4 0.0000 0.0000 0.0000 -26.3382 0.0000 0.0000
# 5 0.0000 0.0000 0.0000 0.0000 28.0604 0.0000
# 6 0.0000 0.0000 0.0000 0.0000 0.0000 18.0211
#
#
#
# Elastic Compliance Matrix: (Units=1/GPa)
#
#
# Indices 1 2 3 4 5 6 
#
# 1 0.027446 -0.005572 -0.004162 0.000000 0.000000 0.000000
# 2 -0.005572 0.022747 -0.023656 0.000000 0.000000 0.000000
# 3 -0.004162 -0.023656 0.039042 0.000000 0.000000 0.000000
# 4 0.000000 0.000000 0.000000 -0.037968 0.000000 0.000000
# 5 0.000000 0.000000 0.000000 0.000000 0.035637 0.000000
# 6 0.000000 0.000000 0.000000 0.000000 0.000000 0.055490
#
#
# Mechanical properties :
#
#
# Convention : Reuss Voigt Hill
#
# Bulk Modulus (GPa) = 44.53128 77.54980 61.04054
# Shear Modulus (GPa) = 23.07746 11.98626 17.53186
#
# Velocity S-wave (km/s) = 3.65589 2.63476 3.18650
# Velocity P-wave (km/s) = 6.60390 7.36001 6.99219
#
# Compressibility (1/GPa) = 0.02245612
#
# Stress axis : x y z
#
# Youngs Moduli (GPa) = 36.43460 43.96130 25.61323
#
# Poissons Ratio (x) = 0.24496 0.10659
# Poissons Ratio (y) = 0.20302 0.60591
# Poissons Ratio (z) = 0.15163 1.03995
#
# Static dielectric constant tensor:
#      x y z
#    x 1.549260 0.000000 0.000000 
#    y 0.000000 1.613290 0.000000 
#    z 0.000000 0.000000 1.544670 
# 
# From -- ./inp_files/31471.got.cif
#   From: 2010.05.17/outbox.cif.g08.bks.cpg/sg51_16_cif.got.tgz:31471.got - 2010.06.03 11:52:47.
