data_PCOD9401664
_publ_section_title
;
Structure prediction by ZEFSAII (Michael W. Deem and Ramdas Pophale) SiO2 
 PCOD9401664
Probable space group: P M M A
;
_chemical_formula_sum "Si O2"
_cell_formula_units_Z 52
_cell_length_a 8.843109
_cell_length_b 23.343989
_cell_length_c 14.703647
_cell_angle_alpha 90.000000
_cell_angle_beta 90.000000
_cell_angle_gamma 90.000000
_cell_volume 3035.324419
_symmetry_space_group_name_H-M "P M M A"
_symmetry_group_IT_number 51
_symmetry_cell_setting 'orthorhombic'
loop_
_space_group_symop_operation_xyz
x,y,z
1/2-x,-y,z
1/2+x,-y,-z
-x,y,-z
-x,-y,-z
1/2+x,y,-z
1/2-x,y,z
x,-y,z
loop_
_atom_site_type_symbol
_atom_site_label
_atom_site_fract_x
_atom_site_fract_y
_atom_site_fract_z
Si Si1 0.932855 0.393121 0.708199
Si Si2 0.930672 0.066778 0.401930
Si Si3 0.568293 0.722682 0.599926
Si Si4 0.931909 0.647204 0.904005
Si Si5 0.067994 0.781113 0.095835
Si Si6 0.569465 0.500000 0.398927
Si Si7 0.432904 0.834357 0.285187
O O1 0.750000 0.400049 0.703858
O O2 0.971165 0.333165 0.659039
O O3 0.976834 0.387678 0.814217
O O4 0.011355 0.444548 0.655520
O O5 0.750000 0.071981 0.406467
O O6 0.000000 0.082864 0.500000
O O7 0.996365 0.108493 0.325832
O O8 0.969057 0.000000 0.385347
O O9 0.500000 0.719309 0.500000
O O10 0.750000 0.723763 0.593191
O O11 0.521617 0.780579 0.651514
O O12 0.750000 0.645513 0.909722
O O13 0.975453 0.714202 0.890288
O O14 0.000000 0.627876 0.000000
O O15 0.250000 0.782438 0.091029
O O16 0.021178 0.818366 0.182545
O O17 0.000000 0.800145 0.000000
O O18 0.750000 0.500000 0.405279
O O19 0.500000 0.500000 0.500000
O O20 0.250000 0.838338 0.287560
#
# Coordination Sequence:
#
# PCOD9401664 Si02
#       7
#     8   8   8   8   8   4   8
#     4  10  20  38  59  78 106 143 178 217 266 316
#     4  10  21  36  53  75 105 142 183 223 263 312
#     4  10  20  33  50  75 106 136 169 213 263 314
#     4   9  17  32  55  81 110 141 173 213 264 317
#     4   9  17  31  51  78 110 142 173 212 262 317
#     4  12  26  42  59  80 105 138 183 226 264 316
#     4  10  19  33  53  78 109 140 174 217 266 317
#
# _framework density 17.131612000000001
#
# number of rings (size 3 to 8) (size 9 to 14) (size 15 to 20)
#    0.000    2.154    1.538    2.077    0.000    5.846 
#    0.000    0.385    0.000    0.462    0.000    0.000 
#    0.000    0.000    0.000    0.000    0.000    0.000 
#
# Total GULP energy -290231.070323 kJ/mol
# GULP energy per Si atom -5581.366737 kJ/mol
# Density = 1.709262 g / cm^3
# Si number density = 17.131612 Si / 1000 Ang^3
#
#
#
# Elastic Constant Matrix: (Units=GPa)
#
#
# Indices 1 2 3 4 5 6 
#
# 1 28.9059 35.4690 48.4821 0.0000 0.0000 0.0000
# 2 35.4690 85.0194 74.8649 0.0000 0.0000 0.0000
# 3 48.4821 74.8649 186.9019 0.0000 0.0000 0.0000
# 4 0.0000 0.0000 0.0000 30.6808 0.0000 0.0000
# 5 0.0000 0.0000 0.0000 0.0000 33.5298 0.0000
# 6 0.0000 0.0000 0.0000 0.0000 0.0000 22.9992
#
#
#
# Elastic Compliance Matrix: (Units=1/GPa)
#
#
# Indices 1 2 3 4 5 6 
#
# 1 0.085843 -0.025035 -0.012240 0.000000 0.000000 0.000000
# 2 -0.025035 0.025472 -0.003709 0.000000 0.000000 0.000000
# 3 -0.012240 -0.003709 0.010011 0.000000 0.000000 0.000000
# 4 0.000000 0.000000 0.000000 0.032594 0.000000 0.000000
# 5 0.000000 0.000000 0.000000 0.000000 0.029824 0.000000
# 6 0.000000 0.000000 0.000000 0.000000 0.000000 0.043480
#
#
# Mechanical properties :
#
#
# Convention : Reuss Voigt Hill
#
# Bulk Modulus (GPa) = 25.40703 68.71769 47.06236
# Shear Modulus (GPa) = 15.51295 26.90936 21.21115
#
# Velocity S-wave (km/s) = 3.01244 3.96756 3.52252
# Velocity P-wave (km/s) = 5.19254 7.82224 6.63890
#
# Compressibility (1/GPa) = 0.03935919
#
# Stress axis : x y z
#
# Youngs Moduli (GPa) = 11.64916 39.25826 99.88928
#
# Poissons Ratio (x) = 0.98282 1.22262
# Poissons Ratio (y) = 0.29163 0.37050
# Poissons Ratio (z) = 0.14258 0.14561
#
# Static dielectric constant tensor:
#      x y z
#    x 1.575870 0.000000 0.000000 
#    y 0.000000 1.566490 0.000000 
#    z 0.000000 0.000000 1.566950 
# 
# From -- ./inp_files/21565.got.cif
#   From: 2010.05.17/outbox.cif.g08.bks.cpg/sg51_11_cif.got.tgz:21565.got - 2010.06.03 11:52:47.
