data_PCOD9401894
_publ_section_title
;
Structure prediction by ZEFSAII (Michael W. Deem and Ramdas Pophale) SiO2 
 PCOD9401894
Probable space group: P M M A
;
_chemical_formula_sum "Si O2"
_cell_formula_units_Z 40
_cell_length_a 9.256594
_cell_length_b 15.499058
_cell_length_c 14.859773
_cell_angle_alpha 90.000000
_cell_angle_beta 90.000000
_cell_angle_gamma 90.000000
_cell_volume 2131.909154
_symmetry_space_group_name_H-M "P M M A"
_symmetry_group_IT_number 51
_symmetry_cell_setting 'orthorhombic'
loop_
_space_group_symop_operation_xyz
x,y,z
1/2-x,-y,z
1/2+x,-y,-z
-x,y,-z
-x,-y,-z
1/2+x,y,-z
1/2-x,y,z
x,-y,z
loop_
_atom_site_type_symbol
_atom_site_label
_atom_site_fract_x
_atom_site_fract_y
_atom_site_fract_z
Si Si1 0.082551 0.644373 0.089245
Si Si2 0.423389 0.254365 0.596053
Si Si3 0.920872 0.096953 0.271311
Si Si4 0.077836 0.599238 0.289601
Si Si5 0.582076 0.146665 0.909750
O O1 0.250000 0.620407 0.079924
O O2 0.031237 0.609126 0.185251
O O3 0.072653 0.748698 0.094348
O O4 0.000000 0.615693 0.000000
O O5 0.500000 0.248240 0.500000
O O6 0.250000 0.261261 0.586537
O O7 0.456853 0.169944 0.656113
O O8 0.487887 0.335973 0.649305
O O9 0.750000 0.105432 0.250762
O O10 0.008545 0.111247 0.179863
O O11 0.946651 0.000000 0.305475
O O12 0.250000 0.620811 0.293316
O O13 0.060908 0.500000 0.317459
O O14 0.750000 0.122910 0.914054
O O15 0.500000 0.118522 0.000000
#
# Coordination Sequence:
#
# PCOD9401894 Si02
#       5
#     8   8   8   8   8
#     4   9  18  32  53  83 118 155 194 234 279 334
#     4  11  24  42  65  88 115 149 189 240 297 352
#     4  10  22  40  61  87 118 152 193 240 290 346
#     4  10  21  39  62  88 120 156 195 240 288 341
#     4  10  19  33  56  85 119 158 198 239 285 340
#
# _framework density 18.762525
#
# number of rings (size 3 to 8) (size 9 to 14) (size 15 to 20)
#    0.000    2.000    2.000    1.200    0.000    4.800 
#    0.000    0.000    0.000    0.000    0.000    0.000 
#    0.000    0.000    0.000    0.000    0.000    0.000 
#
# Total GULP energy -223438.592217 kJ/mol
# GULP energy per Si atom -5585.964805 kJ/mol
# Density = 1.871982 g / cm^3
# Si number density = 18.762525 Si / 1000 Ang^3
#
#
#
# Elastic Constant Matrix: (Units=GPa)
#
#
# Indices 1 2 3 4 5 6 
#
# 1 77.2950 65.2395 85.5434 0.0000 0.0000 0.0000
# 2 65.2395 98.4616 77.1292 0.0000 0.0000 0.0000
# 3 85.5434 77.1292 166.1087 0.0000 0.0000 0.0000
# 4 0.0000 0.0000 0.0000 -8.7260 0.0000 0.0000
# 5 0.0000 0.0000 0.0000 0.0000 38.0928 0.0000
# 6 0.0000 0.0000 0.0000 0.0000 0.0000 19.7102
#
#
#
# Elastic Compliance Matrix: (Units=1/GPa)
#
#
# Indices 1 2 3 4 5 6 
#
# 1 0.043770 -0.017829 -0.014262 0.000000 0.000000 0.000000
# 2 -0.017829 0.023225 -0.001602 0.000000 0.000000 0.000000
# 3 -0.014262 -0.001602 0.014109 0.000000 0.000000 0.000000
# 4 0.000000 0.000000 0.000000 -0.114600 0.000000 0.000000
# 5 0.000000 0.000000 0.000000 0.000000 0.026252 0.000000
# 6 0.000000 0.000000 0.000000 0.000000 0.000000 0.050735
#
#
# Mechanical properties :
#
#
# Convention : Reuss Voigt Hill
#
# Bulk Modulus (GPa) = 72.90541 88.63216 80.76878
# Shear Modulus (GPa) = 43.30845 17.41226 30.36036
#
# Velocity S-wave (km/s) = 4.80963 3.04967 4.02697
# Velocity P-wave (km/s) = 8.35372 7.72930 8.04757
#
# Compressibility (1/GPa) = 0.01371640
#
# Stress axis : x y z
#
# Youngs Moduli (GPa) = 22.84653 43.05741 70.87719
#
# Poissons Ratio (x) = 0.76769 1.01087
# Poissons Ratio (y) = 0.40734 0.11355
# Poissons Ratio (z) = 0.32584 0.06898
#
# Static dielectric constant tensor:
#      x y z
#    x 1.630570 0.000000 0.000000 
#    y 0.000000 1.670060 0.000000 
#    z 0.000000 0.000000 1.611170 
# 
# From -- ./inp_files/20467.got.cif
#   From: 2010.05.17/outbox.cif.g08.bks.cpg/sg51_11_cif.got.tgz:20467.got - 2010.06.03 11:52:47.
