data_PCOD9401387
_publ_section_title
;
Structure prediction by ZEFSAII (Michael W. Deem and Ramdas Pophale) SiO2 
 PCOD9401387
Probable space group: P M M A
;
_chemical_formula_sum "Si O2"
_cell_formula_units_Z 48
_cell_length_a 21.153076
_cell_length_b 8.815354
_cell_length_c 15.524693
_cell_angle_alpha 90.000000
_cell_angle_beta 90.000000
_cell_angle_gamma 90.000000
_cell_volume 2894.918273
_symmetry_space_group_name_H-M "P M M A"
_symmetry_group_IT_number 51
_symmetry_cell_setting 'orthorhombic'
loop_
_space_group_symop_operation_xyz
x,y,z
1/2-x,-y,z
1/2+x,-y,-z
-x,y,-z
-x,-y,-z
1/2+x,y,-z
1/2-x,y,z
x,-y,z
loop_
_atom_site_type_symbol
_atom_site_label
_atom_site_fract_x
_atom_site_fract_y
_atom_site_fract_z
Si Si1 0.319751 0.816988 0.505560
Si Si2 0.318471 0.681793 0.881121
Si Si3 0.493277 0.176067 0.735811
Si Si4 0.959425 0.683615 0.083040
Si Si5 0.446760 0.681625 0.429965
Si Si6 0.345311 0.823800 0.700131
O O1 0.250000 0.777189 0.471607
O O2 0.378652 0.742458 0.458414
O O3 0.322668 0.773902 0.606573
O O4 0.326522 0.000000 0.502411
O O5 0.250000 0.737381 0.915090
O O6 0.318547 0.500000 0.888873
O O7 0.385610 0.735558 0.920369
O O8 0.322050 0.727221 0.780694
O O9 0.490097 0.252814 0.829454
O O10 0.535168 0.257540 0.664160
O O11 0.421247 0.183258 0.701254
O O12 0.511185 0.000000 0.743727
O O13 0.959331 0.500000 0.087670
O O14 0.000000 0.729299 0.000000
O O15 0.500000 0.732288 0.500000
O O16 0.446840 0.500000 0.429550
O O17 0.326960 0.000000 0.713257
#
# Coordination Sequence:
#
# PCOD9401387 Si02
#       6
#     8   8   8   8   8   8
#     4  10  20  33  49  70 100 137 174 213 256 303
#     4   9  17  28  44  68  97 126 157 195 241 297
#     4  10  19  32  53  76  99 130 169 213 253 299
#     4   9  18  33  52  73 100 131 163 203 255 309
#     4  11  22  34  51  74 102 136 175 214 251 299
#     4   9  17  29  46  69  98 130 162 197 243 300
#
# _framework density 16.580779
#
# number of rings (size 3 to 8) (size 9 to 14) (size 15 to 20)
#    0.000    2.333    1.667    1.500    0.000    3.667 
#    0.000    0.000    0.000    1.000    0.000    2.333 
#    0.000    0.000    0.000    0.000    0.000    0.000 
#
# Total GULP energy -267570.635907 kJ/mol
# GULP energy per Si atom -5574.388248 kJ/mol
# Density = 1.654304 g / cm^3
# Si number density = 16.580779 Si / 1000 Ang^3
#
#
#
# Elastic Constant Matrix: (Units=GPa)
#
#
# Indices 1 2 3 4 5 6 
#
# 1 144.0277 35.8032 78.9684 0.0000 0.0000 0.0000
# 2 35.8032 24.7751 26.8227 0.0000 0.0000 0.0000
# 3 78.9684 26.8227 100.7316 0.0000 0.0000 0.0000
# 4 0.0000 0.0000 0.0000 19.9060 0.0000 0.0000
# 5 0.0000 0.0000 0.0000 0.0000 15.8912 0.0000
# 6 0.0000 0.0000 0.0000 0.0000 0.0000 10.8583
#
#
#
# Elastic Compliance Matrix: (Units=1/GPa)
#
#
# Indices 1 2 3 4 5 6 
#
# 1 0.014339 -0.012016 -0.008042 0.000000 0.000000 0.000000
# 2 -0.012016 0.066781 -0.008363 0.000000 0.000000 0.000000
# 3 -0.008042 -0.008363 0.018458 0.000000 0.000000 0.000000
# 4 0.000000 0.000000 0.000000 0.050236 0.000000 0.000000
# 5 0.000000 0.000000 0.000000 0.000000 0.062928 0.000000
# 6 0.000000 0.000000 0.000000 0.000000 0.000000 0.092095
#
#
# Mechanical properties :
#
#
# Convention : Reuss Voigt Hill
#
# Bulk Modulus (GPa) = 23.39804 61.41366 42.40585
# Shear Modulus (GPa) = 13.30055 17.86044 15.58050
#
# Velocity S-wave (km/s) = 2.83533 3.28560 3.06873
# Velocity P-wave (km/s) = 4.98608 7.17726 6.17956
#
# Compressibility (1/GPa) = 0.04273862
#
# Stress axis : x y z
#
# Youngs Moduli (GPa) = 69.73912 14.97429 54.17576
#
# Poissons Ratio (x) = 0.17993 0.43566
# Poissons Ratio (y) = 0.83796 0.45306
# Poissons Ratio (z) = 0.56082 0.12523
#
# Static dielectric constant tensor:
#      x y z
#    x 1.592110 0.000000 0.000000 
#    y 0.000000 1.561220 0.000000 
#    z 0.000000 0.000000 1.521690 
# 
# From -- ./inp_files/25453.got.cif
#   From: 2010.05.17/outbox.cif.g08.bks.cpg/sg51_13_cif.got.tgz:25453.got - 2010.06.03 11:52:47.
