data_PCOD9401617
_publ_section_title
;
Structure prediction by ZEFSAII (Michael W. Deem and Ramdas Pophale) SiO2 
 PCOD9401617
Probable space group: P M M A
;
_chemical_formula_sum "Si O2"
_cell_formula_units_Z 48
_cell_length_a 7.656455
_cell_length_b 15.332790
_cell_length_c 19.604800
_cell_angle_alpha 90.000000
_cell_angle_beta 90.000000
_cell_angle_gamma 90.000000
_cell_volume 2301.501902
_symmetry_space_group_name_H-M "P M M A"
_symmetry_group_IT_number 51
_symmetry_cell_setting 'orthorhombic'
loop_
_space_group_symop_operation_xyz
x,y,z
1/2-x,-y,z
1/2+x,-y,-z
-x,y,-z
-x,-y,-z
1/2+x,y,-z
1/2-x,y,z
x,-y,z
loop_
_atom_site_type_symbol
_atom_site_label
_atom_site_fract_x
_atom_site_fract_y
_atom_site_fract_z
Si Si1 0.542187 0.153740 0.924937
Si Si2 0.960217 0.598643 0.420335
Si Si3 0.959127 0.903279 0.228665
Si Si4 0.550762 0.257536 0.316500
Si Si5 0.462174 0.593526 0.217994
Si Si6 0.541624 0.352069 0.927581
O O1 0.750000 0.156484 0.922043
O O2 0.487489 0.113807 0.852330
O O3 0.470102 0.253014 0.926151
O O4 0.500000 0.114298 0.000000
O O5 0.750000 0.597234 0.410709
O O6 0.025382 0.500000 0.402886
O O7 0.028630 0.681232 0.376445
O O8 0.000000 0.611396 0.500000
O O9 0.750000 0.902390 0.237301
O O10 0.028367 0.828827 0.280659
O O11 0.026109 0.000000 0.244592
O O12 0.750000 0.236237 0.337394
O O13 0.549253 0.326675 0.255193
O O14 0.250000 0.601767 0.222958
O O15 0.512697 0.500000 0.247144
O O16 0.514380 0.598091 0.139242
O O17 0.750000 0.345377 0.923249
O O18 0.500000 0.392613 0.000000
#
# Coordination Sequence:
#
# PCOD9401617 Si02
#       6
#     8   8   8   8   8   8
#     4  10  19  33  53  74  99 132 173 223 276 324
#     4   9  18  33  54  82 112 139 169 203 242 294
#     4  10  21  36  54  77 103 134 175 220 268 319
#     4  10  20  35  55  77 105 137 170 211 256 302
#     4  10  20  33  49  72 102 134 169 209 255 308
#     4   9  18  31  46  66  93 127 167 209 253 302
#
# _framework density 20.855947
#
# number of rings (size 3 to 8) (size 9 to 14) (size 15 to 20)
#    0.000    2.333    1.667    1.000    0.000    4.000 
#    0.000    1.667    0.000    0.500    0.000    0.000 
#    0.000    0.000    0.000    0.000    0.000    0.000 
#
# Total GULP energy -267524.076633 kJ/mol
# GULP energy per Si atom -5573.418263 kJ/mol
# Density = 2.080848 g / cm^3
# Si number density = 20.855947 Si / 1000 Ang^3
#
#
#
# Elastic Constant Matrix: (Units=GPa)
#
#
# Indices 1 2 3 4 5 6 
#
# 1 42.1354 7.0108 -4.4580 0.0000 0.0000 0.0000
# 2 7.0108 153.5946 74.0032 0.0000 0.0000 0.0000
# 3 -4.4580 74.0032 145.4765 0.0000 0.0000 0.0000
# 4 0.0000 0.0000 0.0000 31.5347 0.0000 0.0000
# 5 0.0000 0.0000 0.0000 0.0000 21.7288 0.0000
# 6 0.0000 0.0000 0.0000 0.0000 0.0000 79.5463
#
#
#
# Elastic Compliance Matrix: (Units=1/GPa)
#
#
# Indices 1 2 3 4 5 6 
#
# 1 0.024239 -0.001940 0.001729 0.000000 0.000000 0.000000
# 2 -0.001940 0.008780 -0.004526 0.000000 0.000000 0.000000
# 3 0.001729 -0.004526 0.009229 0.000000 0.000000 0.000000
# 4 0.000000 0.000000 0.000000 0.031711 0.000000 0.000000
# 5 0.000000 0.000000 0.000000 0.000000 0.046022 0.000000
# 6 0.000000 0.000000 0.000000 0.000000 0.000000 0.012571
#
#
# Mechanical properties :
#
#
# Convention : Reuss Voigt Hill
#
# Bulk Modulus (GPa) = 30.51020 54.92427 42.71723
# Shear Modulus (GPa) = 32.69073 44.20534 38.44803
#
# Velocity S-wave (km/s) = 3.96340 4.60886 4.29826
# Velocity P-wave (km/s) = 5.96704 7.39691 6.72011
#
# Compressibility (1/GPa) = 0.03277593
#
# Stress axis : x y z
#
# Youngs Moduli (GPa) = 41.25629 113.89972 108.35279
#
# Poissons Ratio (x) = 0.22092 -0.18739
# Poissons Ratio (y) = 0.08002 0.49036
# Poissons Ratio (z) = -0.07135 0.51546
#
# Static dielectric constant tensor:
#      x y z
#    x 1.786070 0.000000 0.000000 
#    y 0.000000 1.777610 0.000000 
#    z 0.000000 0.000000 1.765290 
# 
# From -- ./inp_files/31627.got.cif
#   From: 2010.05.17/outbox.cif.g08.bks.cpg/sg51_16_cif.got.tgz:31627.got - 2010.06.03 11:52:47.
