data_PCOD9401936
_publ_section_title
;
Structure prediction by ZEFSAII (Michael W. Deem and Ramdas Pophale) SiO2 
 PCOD9401936
Probable space group: P M M A
;
_chemical_formula_sum "Si O2"
_cell_formula_units_Z 64
_cell_length_a 8.152753
_cell_length_b 26.882108
_cell_length_c 15.927490
_cell_angle_alpha 90.000000
_cell_angle_beta 90.000000
_cell_angle_gamma 90.000000
_cell_volume 3490.719464
_symmetry_space_group_name_H-M "P M M A"
_symmetry_group_IT_number 51
_symmetry_cell_setting 'orthorhombic'
loop_
_space_group_symop_operation_xyz
x,y,z
1/2-x,-y,z
1/2+x,-y,-z
-x,y,-z
-x,-y,-z
1/2+x,y,-z
1/2-x,y,z
x,-y,z
loop_
_atom_site_type_symbol
_atom_site_label
_atom_site_fract_x
_atom_site_fract_y
_atom_site_fract_z
Si Si1 0.563264 0.253185 0.406782
Si Si2 0.437920 0.445359 0.685727
Si Si3 0.448125 0.837537 0.903079
Si Si4 0.448010 0.053393 0.902411
Si Si5 0.553247 0.663667 0.089441
Si Si6 0.548868 0.251703 0.218209
Si Si7 0.443369 0.445458 0.130441
Si Si8 0.564435 0.639037 0.583496
O O1 0.500000 0.237911 0.500000
O O2 0.750000 0.236183 0.404043
O O3 0.488857 0.242247 0.313958
O O4 0.549299 0.313166 0.406443
O O5 0.250000 0.436735 0.659602
O O6 0.490735 0.500000 0.655224
O O7 0.450131 0.446042 0.785454
O O8 0.547842 0.400378 0.655984
O O9 0.250000 0.837268 0.902136
O O10 0.504608 0.892383 0.871694
O O11 0.502556 0.793258 0.842610
O O12 0.500000 0.830873 0.000000
O O13 0.250000 0.053328 0.897793
O O14 0.505667 0.000000 0.866085
O O15 0.500000 0.052989 0.000000
O O16 0.750000 0.661060 0.091615
O O17 0.499780 0.697211 0.169696
O O18 0.483644 0.607610 0.090168
O O19 0.500000 0.687079 0.000000
O O20 0.750000 0.253161 0.222055
O O21 0.250000 0.444824 0.150856
O O22 0.474045 0.500000 0.089634
O O23 0.500000 0.612345 0.500000
O O24 0.750000 0.656898 0.574568
#
# Coordination Sequence:
#
# PCOD9401936 Si02
#       8
#     8   8   8   8   8   8   8   8
#     4  10  19  34  53  72  93 117 151 192 237 286
#     4  10  20  34  51  70  92 117 144 177 221 272
#     4   9  16  28  44  65  96 132 167 199 234 275
#     4   8  13  21  36  59  88 124 164 202 235 268
#     4  11  22  36  53  73  97 125 158 193 233 282
#     4   9  19  33  50  70  95 128 158 190 235 285
#     4  10  21  37  55  73  91 114 149 191 233 278
#     4  11  21  33  49  68  90 115 144 179 224 277
#
# _framework density 18.334329
#
# number of rings (size 3 to 8) (size 9 to 14) (size 15 to 20)
#    0.000    2.250    0.000    4.500    0.000    3.000 
#    0.000    3.750    0.000    0.000    0.000    0.000 
#    0.000    0.500    0.000    0.375    0.000    1.000 
#
# Total GULP energy -356271.962816 kJ/mol
# GULP energy per Si atom -5566.749419 kJ/mol
# Density = 1.829260 g / cm^3
# Si number density = 18.334329 Si / 1000 Ang^3
#
#
#
# Elastic Constant Matrix: (Units=GPa)
#
#
# Indices 1 2 3 4 5 6 
#
# 1 23.6913 9.9748 5.4339 0.0000 0.0000 0.0000
# 2 9.9748 103.9206 44.3102 0.0000 0.0000 0.0000
# 3 5.4339 44.3102 99.1220 0.0000 0.0000 0.0000
# 4 0.0000 0.0000 0.0000 6.2050 0.0000 0.0000
# 5 0.0000 0.0000 0.0000 0.0000 20.6809 0.0000
# 6 0.0000 0.0000 0.0000 0.0000 0.0000 4.6420
#
#
#
# Elastic Compliance Matrix: (Units=1/GPa)
#
#
# Indices 1 2 3 4 5 6 
#
# 1 0.044021 -0.003949 -0.000648 0.000000 0.000000 0.000000
# 2 -0.003949 0.012243 -0.005256 0.000000 0.000000 0.000000
# 3 -0.000648 -0.005256 0.012474 0.000000 0.000000 0.000000
# 4 0.000000 0.000000 0.000000 0.161160 0.000000 0.000000
# 5 0.000000 0.000000 0.000000 0.000000 0.048354 0.000000
# 6 0.000000 0.000000 0.000000 0.000000 0.000000 0.215422
#
#
# Mechanical properties :
#
#
# Convention : Reuss Voigt Hill
#
# Bulk Modulus (GPa) = 20.39532 38.46352 29.42942
# Shear Modulus (GPa) = 9.43887 17.43993 13.43940
#
# Velocity S-wave (km/s) = 2.27142 3.08753 2.71037
# Velocity P-wave (km/s) = 4.24587 5.80818 5.08736
#
# Compressibility (1/GPa) = 0.04903086
#
# Stress axis : x y z
#
# Youngs Moduli (GPa) = 22.71652 81.67886 80.16748
#
# Poissons Ratio (x) = 0.32256 0.05194
# Poissons Ratio (y) = 0.08971 0.42140
# Poissons Ratio (z) = 0.01472 0.42934
#
# Static dielectric constant tensor:
#      x y z
#    x 1.595300 0.000000 0.000000 
#    y 0.000000 1.656450 0.000000 
#    z 0.000000 0.000000 1.691620 
# 
# From -- ./inp_files/22592.got.cif
#   From: 2010.05.17/outbox.cif.g08.bks.cpg/sg51_12_cif.got.tgz:22592.got - 2010.06.03 11:52:47.
