data_PCOD9401237
_publ_section_title
;
Structure prediction by ZEFSAII (Michael W. Deem and Ramdas Pophale) SiO2 
 PCOD9401237
Probable space group: P M M A
;
_chemical_formula_sum "Si O2"
_cell_formula_units_Z 44
_cell_length_a 8.583316
_cell_length_b 29.665930
_cell_length_c 9.381684
_cell_angle_alpha 90.000000
_cell_angle_beta 90.000000
_cell_angle_gamma 90.000000
_cell_volume 2388.877445
_symmetry_space_group_name_H-M "P M M A"
_symmetry_group_IT_number 51
_symmetry_cell_setting 'orthorhombic'
loop_
_space_group_symop_operation_xyz
x,y,z
1/2-x,-y,z
1/2+x,-y,-z
-x,y,-z
-x,-y,-z
1/2+x,y,-z
1/2-x,y,z
x,-y,z
loop_
_atom_site_type_symbol
_atom_site_label
_atom_site_fract_x
_atom_site_fract_y
_atom_site_fract_z
Si Si1 0.062001 0.903122 0.162042
Si Si2 0.938620 0.000000 0.836922
Si Si3 0.437538 0.804181 0.161969
Si Si4 0.936688 0.448162 0.657852
Si Si5 0.936863 0.279634 0.340212
Si Si6 0.436660 0.366946 0.841047
O O1 0.250000 0.903213 0.159165
O O2 0.011440 0.951482 0.226911
O O3 0.014738 0.854053 0.219727
O O4 0.000000 0.903347 0.000000
O O5 0.750000 0.000000 0.840056
O O6 0.000000 0.000000 0.000000
O O7 0.250000 0.801859 0.158389
O O8 0.502802 0.764273 0.257713
O O9 0.500000 0.799911 0.000000
O O10 0.750000 0.445567 0.655976
O O11 0.981857 0.500000 0.690344
O O12 0.000000 0.437488 0.500000
O O13 0.002977 0.412649 0.769147
O O14 0.750000 0.278810 0.343079
O O15 0.987365 0.324333 0.254470
O O16 0.000000 0.280854 0.500000
O O17 0.250000 0.367657 0.844385
O O18 0.500000 0.362067 0.000000
#
# Coordination Sequence:
#
# PCOD9401237 Si02
#       6
#     8   4   8   8   8   8
#     4   8  14  23  38  62  93 129 166 205 251 302
#     4   8  12  20  34  56  89 126 163 202 246 298
#     4  10  19  32  51  76 106 139 175 216 263 314
#     4  10  21  38  61  88 118 152 188 225 266 313
#     4  11  24  40  58  80 105 137 176 219 268 321
#     4  11  24  40  60  85 113 145 181 222 268 317
#
# _framework density 18.418693000000001
#
# number of rings (size 3 to 8) (size 9 to 14) (size 15 to 20)
#    0.000    2.182    0.000    3.273    0.000    8.000 
#    0.000    0.000    0.000    0.000    0.000    0.636 
#    0.000    0.000    0.000    0.000    0.000    0.000 
#
# Total GULP energy -245374.798907 kJ/mol
# GULP energy per Si atom -5576.699975 kJ/mol
# Density = 1.837677 g / cm^3
# Si number density = 18.418693 Si / 1000 Ang^3
#
#
#
# Elastic Constant Matrix: (Units=GPa)
#
#
# Indices 1 2 3 4 5 6 
#
# 1 36.2410 39.4448 29.3305 0.0000 0.0000 0.0000
# 2 39.4448 169.6187 94.6701 0.0000 0.0000 0.0000
# 3 29.3305 94.6701 106.9693 0.0000 0.0000 0.0000
# 4 0.0000 0.0000 0.0000 -20.5590 0.0000 0.0000
# 5 0.0000 0.0000 0.0000 0.0000 28.4753 0.0000
# 6 0.0000 0.0000 0.0000 0.0000 0.0000 23.8515
#
#
#
# Elastic Compliance Matrix: (Units=1/GPa)
#
#
# Indices 1 2 3 4 5 6 
#
# 1 0.038344 -0.006025 -0.005182 0.000000 0.000000 0.000000
# 2 -0.006025 0.012597 -0.009497 0.000000 0.000000 0.000000
# 3 -0.005182 -0.009497 0.019174 0.000000 0.000000 0.000000
# 4 0.000000 0.000000 0.000000 -0.048640 0.000000 0.000000
# 5 0.000000 0.000000 0.000000 0.000000 0.035118 0.000000
# 6 0.000000 0.000000 0.000000 0.000000 0.000000 0.041926
#
#
# Mechanical properties :
#
#
# Convention : Reuss Voigt Hill
#
# Bulk Modulus (GPa) = 34.83250 71.07998 52.95624
# Shear Modulus (GPa) = 33.44589 16.31247 24.87918
#
# Velocity S-wave (km/s) = 4.26592 2.97921 3.67925
# Velocity P-wave (km/s) = 6.57394 7.10699 6.84565
#
# Compressibility (1/GPa) = 0.02870882
#
# Stress axis : x y z
#
# Youngs Moduli (GPa) = 26.07960 79.38337 52.15378
#
# Poissons Ratio (x) = 0.47827 0.27025
# Poissons Ratio (y) = 0.15713 0.49529
# Poissons Ratio (z) = 0.13514 0.75388
#
# Static dielectric constant tensor:
#      x y z
#    x 1.622720 0.000000 0.000000 
#    y 0.000000 1.689400 0.000000 
#    z 0.000000 0.000000 1.582380 
# 
# From -- ./inp_files/5804.got.cif
#   From: 2010.05.17/outbox.cif.g08.bks.cpg/sg51_3_cif.got.tgz:5804.got - 2010.06.03 11:52:47.
