data_PCOD9401369
_publ_section_title
;
Structure prediction by ZEFSAII (Michael W. Deem and Ramdas Pophale) SiO2 
 PCOD9401369
Probable space group: P M M A
;
_chemical_formula_sum "Si O2"
_cell_formula_units_Z 56
_cell_length_a 8.879756
_cell_length_b 20.587591
_cell_length_c 15.631976
_cell_angle_alpha 90.000000
_cell_angle_beta 90.000000
_cell_angle_gamma 90.000000
_cell_volume 2857.725063
_symmetry_space_group_name_H-M "P M M A"
_symmetry_group_IT_number 51
_symmetry_cell_setting 'orthorhombic'
loop_
_space_group_symop_operation_xyz
x,y,z
1/2-x,-y,z
1/2+x,-y,-z
-x,y,-z
-x,-y,-z
1/2+x,y,-z
1/2-x,y,z
x,-y,z
loop_
_atom_site_type_symbol
_atom_site_label
_atom_site_fract_x
_atom_site_fract_y
_atom_site_fract_z
Si Si1 0.926375 0.248627 0.854920
Si Si2 0.070275 0.619572 0.914587
Si Si3 0.931277 0.929160 0.269996
Si Si4 0.570547 0.425826 0.275443
Si Si5 0.928649 0.670684 0.588629
Si Si6 0.924852 0.897643 0.911873
Si Si7 0.069777 0.210437 0.675095
O O1 0.750000 0.261044 0.835503
O O2 0.934377 0.180920 0.905699
O O3 0.997869 0.309166 0.903157
O O4 0.018808 0.237321 0.767776
O O5 0.250000 0.624236 0.923823
O O6 0.037167 0.583885 0.825109
O O7 0.000000 0.589373 0.000000
O O8 0.750000 0.926704 0.264421
O O9 0.977478 0.865364 0.323234
O O10 0.995420 0.922416 0.174064
O O11 0.975670 0.000000 0.304521
O O12 0.750000 0.414155 0.285984
O O13 0.537649 0.500000 0.299948
O O14 0.482699 0.375218 0.334039
O O15 0.750000 0.671302 0.583333
O O16 0.000000 0.646953 0.500000
O O17 0.990497 0.742911 0.607693
O O18 0.750000 0.915929 0.910107
O O19 0.000000 0.919284 0.000000
O O20 0.250000 0.215058 0.666460
#
# Coordination Sequence:
#
# PCOD9401369 Si02
#       7
#     8   8   8   8   8   8   8
#     4  10  19  32  52  79 111 149 197 249 302 357
#     4  11  22  35  56  84 119 162 208 255 302 353
#     4   9  19  35  55  79 109 150 195 238 293 358
#     4  10  23  44  66  90 125 166 206 251 304 360
#     4  12  25  42  68  98 127 158 199 246 300 364
#     4  10  20  31  45  69 103 145 194 247 301 353
#     4  10  19  35  60  88 120 154 192 242 298 354
#
# _framework density 19.596007
#
# number of rings (size 3 to 8) (size 9 to 14) (size 15 to 20)
#    0.000    1.714    1.429    3.429    0.000    5.429 
#    0.000    0.000    0.000    0.429    0.000    0.000 
#    0.000    0.000    0.000    0.000    0.000    0.000 
#
# Total GULP energy -312866.575257 kJ/mol
# GULP energy per Si atom -5586.903130 kJ/mol
# Density = 1.955141 g / cm^3
# Si number density = 19.596007 Si / 1000 Ang^3
#
#
#
# Elastic Constant Matrix: (Units=GPa)
#
#
# Indices 1 2 3 4 5 6 
#
# 1 78.8443 48.1299 41.9968 0.0000 0.0000 0.0000
# 2 48.1299 100.7331 32.7603 0.0000 0.0000 0.0000
# 3 41.9968 32.7603 74.0001 0.0000 0.0000 0.0000
# 4 0.0000 0.0000 0.0000 -3.0452 0.0000 0.0000
# 5 0.0000 0.0000 0.0000 0.0000 30.6942 0.0000
# 6 0.0000 0.0000 0.0000 0.0000 0.0000 8.1369
#
#
#
# Elastic Compliance Matrix: (Units=1/GPa)
#
#
# Indices 1 2 3 4 5 6 
#
# 1 0.022276 -0.007630 -0.009264 0.000000 0.000000 0.000000
# 2 -0.007630 0.014211 -0.001961 0.000000 0.000000 0.000000
# 3 -0.009264 -0.001961 0.019639 0.000000 0.000000 0.000000
# 4 0.000000 0.000000 0.000000 -0.328390 0.000000 0.000000
# 5 0.000000 0.000000 0.000000 0.000000 0.032579 0.000000
# 6 0.000000 0.000000 0.000000 0.000000 0.000000 0.122897
#
#
# Mechanical properties :
#
#
# Convention : Reuss Voigt Hill
#
# Bulk Modulus (GPa) = 54.30290 55.48350 54.89320
# Shear Modulus (GPa) = -68.54946 15.86989 -26.33979
#
# Velocity S-wave (km/s) = -5.92092 2.84888 -3.67023
# Velocity P-wave (km/s) = 4.35565 6.26072 3.18001
#
# Compressibility (1/GPa) = 0.01841522
#
# Stress axis : x y z
#
# Youngs Moduli (GPa) = 44.89209 70.36970 50.91911
#
# Poissons Ratio (x) = 0.53695 0.47171
# Poissons Ratio (y) = 0.34255 0.09984
# Poissons Ratio (z) = 0.41588 0.13797
#
# Static dielectric constant tensor:
#      x y z
#    x 1.651410 0.000000 0.000000 
#    y 0.000000 1.712500 0.000000 
#    z 0.000000 0.000000 1.676380 
# 
# From -- ./inp_files/21738.got.cif
#   From: 2010.05.17/outbox.cif.g08.bks.cpg/sg51_11_cif.got.tgz:21738.got - 2010.06.03 11:52:47.
