data_PCOD9401435
_publ_section_title
;
Structure prediction by ZEFSAII (Michael W. Deem and Ramdas Pophale) SiO2 
 PCOD9401435
Probable space group: P M M A
;
_chemical_formula_sum "Si O2"
_cell_formula_units_Z 64
_cell_length_a 18.309918
_cell_length_b 8.788196
_cell_length_c 22.188376
_cell_angle_alpha 90.000000
_cell_angle_beta 90.000000
_cell_angle_gamma 90.000000
_cell_volume 3570.357057
_symmetry_space_group_name_H-M "P M M A"
_symmetry_group_IT_number 51
_symmetry_cell_setting 'orthorhombic'
loop_
_space_group_symop_operation_xyz
x,y,z
1/2-x,-y,z
1/2+x,-y,-z
-x,y,-z
-x,-y,-z
1/2+x,y,-z
1/2-x,y,z
x,-y,z
loop_
_atom_site_type_symbol
_atom_site_label
_atom_site_fract_x
_atom_site_fract_y
_atom_site_fract_z
Si Si1 0.042808 0.317170 0.689883
Si Si2 0.165689 0.316576 0.779325
Si Si3 0.334848 0.316879 0.998768
Si Si4 0.025841 0.316546 0.434616
Si Si5 0.099774 0.181535 0.249782
Si Si6 0.088155 0.681676 0.123589
Si Si7 0.331634 0.816708 0.376073
Si Si8 0.926277 0.181289 0.110192
O O1 0.032702 0.500000 0.694251
O O2 0.121062 0.280649 0.718374
O O3 0.027806 0.272733 0.620687
O O4 0.980430 0.238946 0.730213
O O5 0.250000 0.269033 0.777711
O O6 0.163742 0.500000 0.787267
O O7 0.122196 0.242277 0.834370
O O8 0.250000 0.275382 0.990116
O O9 0.340985 0.500000 0.990735
O O10 0.362091 0.280488 0.066055
O O11 0.386498 0.236526 0.950468
O O12 0.028526 0.500000 0.436048
O O13 0.105124 0.255174 0.416315
O O14 0.000000 0.262223 0.500000
O O15 0.119191 0.255962 0.186389
O O16 0.151118 0.222635 0.306291
O O17 0.099028 0.000000 0.243442
O O18 0.081577 0.500000 0.127287
O O19 0.007496 0.750562 0.114472
O O20 0.250000 0.768351 0.392403
O O21 0.336196 0.000000 0.380460
O O22 0.930579 0.000000 0.112255
#
# Coordination Sequence:
#
# PCOD9401435 Si02
#       8
#     8   8   8   8   8   8   8   8
#     4   9  17  32  53  75 105 143 178 214 262 322
#     4  10  20  34  54  78 104 138 179 222 270 324
#     4  10  23  42  59  76 103 140 180 221 268 324
#     4   9  18  33  54  82 113 146 186 231 272 315
#     4  10  19  32  53  80 107 138 175 220 270 317
#     4  11  22  37  58  81 106 140 179 220 267 325
#     4   9  19  35  54  79 113 150 187 225 269 325
#     4  12  24  37  56  81 107 137 177 224 272 322
#
# _framework density 17.925379
#
# number of rings (size 3 to 8) (size 9 to 14) (size 15 to 20)
#    0.000    2.000    1.250    2.625    0.000    6.000 
#    0.000    0.625    0.000    2.250    0.000    0.000 
#    0.000    0.000    0.000    0.000    0.000    0.000 
#
# Total GULP energy -357315.698683 kJ/mol
# GULP energy per Si atom -5583.057792 kJ/mol
# Density = 1.788458 g / cm^3
# Si number density = 17.925379 Si / 1000 Ang^3
#
#
#
# Elastic Constant Matrix: (Units=GPa)
#
#
# Indices 1 2 3 4 5 6 
#
# 1 50.2188 15.1109 25.6531 0.0000 0.0000 0.0000
# 2 15.1109 22.6269 30.0827 0.0000 0.0000 0.0000
# 3 25.6531 30.0827 122.7367 0.0000 0.0000 0.0000
# 4 0.0000 0.0000 0.0000 15.7754 0.0000 0.0000
# 5 0.0000 0.0000 0.0000 0.0000 16.9739 0.0000
# 6 0.0000 0.0000 0.0000 0.0000 0.0000 5.4979
#
#
#
# Elastic Compliance Matrix: (Units=1/GPa)
#
#
# Indices 1 2 3 4 5 6 
#
# 1 0.025155 -0.014551 -0.001691 0.000000 0.000000 0.000000
# 2 -0.014551 0.073975 -0.015090 0.000000 0.000000 0.000000
# 3 -0.001691 -0.015090 0.012200 0.000000 0.000000 0.000000
# 4 0.000000 0.000000 0.000000 0.063390 0.000000 0.000000
# 5 0.000000 0.000000 0.000000 0.000000 0.058914 0.000000
# 6 0.000000 0.000000 0.000000 0.000000 0.000000 0.181887
#
#
# Mechanical properties :
#
#
# Convention : Reuss Voigt Hill
#
# Bulk Modulus (GPa) = 20.54842 37.47511 29.01177
# Shear Modulus (GPa) = 10.11314 15.96515 13.03915
#
# Velocity S-wave (km/s) = 2.37782 2.98761 2.69998
# Velocity P-wave (km/s) = 4.36199 5.73172 5.09311
#
# Compressibility (1/GPa) = 0.04866554
#
# Stress axis : x y z
#
# Youngs Moduli (GPa) = 39.75324 13.51809 81.97016
#
# Poissons Ratio (x) = 0.19670 0.13863
# Poissons Ratio (y) = 0.57844 1.23693
# Poissons Ratio (z) = 0.06723 0.20399
#
# Static dielectric constant tensor:
#      x y z
#    x 1.591210 0.000000 0.000000 
#    y 0.000000 1.604470 0.000000 
#    z 0.000000 0.000000 1.612810 
# 
# From -- ./inp_files/33871.got.cif
#   From: 2010.05.17/outbox.cif.g08.bks.cpg/sg51_17_cif.got.tgz:33871.got - 2010.06.03 11:52:47.
