data_PCOD9401135
_publ_section_title
;
Structure prediction by ZEFSAII (Michael W. Deem and Ramdas Pophale) SiO2 
 PCOD9401135
Probable space group: P M M A
;
_chemical_formula_sum "Si O2"
_cell_formula_units_Z 48
_cell_length_a 15.663409
_cell_length_b 10.269644
_cell_length_c 14.905044
_cell_angle_alpha 90.000000
_cell_angle_beta 90.000000
_cell_angle_gamma 90.000000
_cell_volume 2397.590116
_symmetry_space_group_name_H-M "P M M A"
_symmetry_group_IT_number 51
_symmetry_cell_setting 'orthorhombic'
loop_
_space_group_symop_operation_xyz
x,y,z
1/2-x,-y,z
1/2+x,-y,-z
-x,y,-z
-x,-y,-z
1/2+x,y,-z
1/2-x,y,z
x,-y,z
loop_
_atom_site_type_symbol
_atom_site_label
_atom_site_fract_x
_atom_site_fract_y
_atom_site_fract_z
Si Si1 0.651052 0.744981 0.620229
Si Si2 0.079475 0.154781 0.757108
Si Si3 0.250000 0.159536 0.852522
Si Si4 0.472429 0.500000 0.394193
Si Si5 0.250000 0.159375 0.060639
Si Si6 0.602583 0.153994 0.809397
Si Si7 0.842577 0.500000 0.370745
Si Si8 0.153950 0.208687 0.571547
O O1 0.750000 0.701971 0.611117
O O2 0.585346 0.625655 0.623903
O O3 0.642729 0.824424 0.711569
O O4 0.631239 0.826199 0.529826
O O5 0.165487 0.207722 0.801989
O O6 0.089371 0.172422 0.650237
O O7 0.993247 0.208533 0.800693
O O8 0.078743 0.000000 0.772667
O O9 0.250000 0.000000 0.848014
O O10 0.250000 0.195863 0.956739
O O11 0.500000 0.500000 0.500000
O O12 0.559907 0.500000 0.335079
O O13 0.333752 0.205628 0.114627
O O14 0.250000 0.000000 0.063608
O O15 0.595348 0.000000 0.826060
O O16 0.750000 0.500000 0.320470
O O17 0.841375 0.366113 0.426270
O O18 0.250000 0.159628 0.593320
#
# Coordination Sequence:
#
# PCOD9401135 Si02
#       8
#     8   8   4   4   4   8   4   8
#     4  11  22  35  53  77 108 146 183 221 264 307
#     4  10  20  33  51  79 107 135 174 215 261 320
#     4   9  18  34  55  76 103 134 171 222 279 319
#     4  12  21  33  54  75 105 139 186 226 258 296
#     4   9  18  36  55  74 103 138 173 222 273 317
#     4  10  21  35  53  78 109 142 181 217 260 327
#     4  10  20  33  48  71 100 137 178 215 253 298
#     4  10  19  32  50  72 105 141 175 215 256 308
#
# _framework density 20.020104
#
# number of rings (size 3 to 8) (size 9 to 14) (size 15 to 20)
#    0.000    1.833    3.333    1.250    0.000    1.333 
#    0.000    6.667    0.000    0.000    0.000    2.333 
#    0.000    4.000    0.000    0.000    0.000    0.000 
#
# Total GULP energy -267602.262361 kJ/mol
# GULP energy per Si atom -5575.047133 kJ/mol
# Density = 1.997454 g / cm^3
# Si number density = 20.020104 Si / 1000 Ang^3
#
#
#
# Elastic Constant Matrix: (Units=GPa)
#
#
# Indices 1 2 3 4 5 6 
#
# 1 171.2711 5.6349 47.1101 0.0000 0.0000 0.0000
# 2 5.6349 14.9875 -12.3159 0.0000 0.0000 0.0000
# 3 47.1101 -12.3159 91.9787 0.0000 0.0000 0.0000
# 4 0.0000 0.0000 0.0000 -324.5404 0.0000 0.0000
# 5 0.0000 0.0000 0.0000 0.0000 12.3642 0.0000
# 6 0.0000 0.0000 0.0000 0.0000 0.0000 21.0616
#
#
#
# Elastic Compliance Matrix: (Units=1/GPa)
#
#
# Indices 1 2 3 4 5 6 
#
# 1 0.007329 -0.006562 -0.004632 0.000000 0.000000 0.000000
# 2 -0.006562 0.080847 0.014186 0.000000 0.000000 0.000000
# 3 -0.004632 0.014186 0.015144 0.000000 0.000000 0.000000
# 4 0.000000 0.000000 0.000000 -0.003081 0.000000 0.000000
# 5 0.000000 0.000000 0.000000 0.000000 0.080879 0.000000
# 6 0.000000 0.000000 0.000000 0.000000 0.000000 0.047480
#
#
# Mechanical properties :
#
#
# Convention : Reuss Voigt Hill
#
# Bulk Modulus (GPa) = 9.14876 39.89950 24.52413
# Shear Modulus (GPa) = 19.30141 -42.36903 -11.53381
#
# Velocity S-wave (km/s) = 3.10837 -4.60534 -2.40284
# Velocity P-wave (km/s) = 4.17879 2.88200 2.13967
#
# Compressibility (1/GPa) = 0.10930440
#
# Stress axis : x y z
#
# Youngs Moduli (GPa) = 136.44848 12.36899 66.03161
#
# Poissons Ratio (x) = 0.08117 0.30588
# Poissons Ratio (y) = 0.89539 -0.93675
# Poissons Ratio (z) = 0.63208 -0.17547
#
# Static dielectric constant tensor:
#      x y z
#    x 1.791510 0.000000 0.000000 
#    y 0.000000 1.710760 0.000000 
#    z 0.000000 0.000000 1.696650 
# 
# From -- ./inp_files/24127.got.cif
#   From: 2010.05.17/outbox.cif.g08.bks.cpg/sg51_13_cif.got.tgz:24127.got - 2010.06.03 11:52:47.
