data_PCOD9401363
_publ_section_title
;
Structure prediction by ZEFSAII (Michael W. Deem and Ramdas Pophale) SiO2 
 PCOD9401363
Probable space group: P M M A
;
_chemical_formula_sum "Si O2"
_cell_formula_units_Z 64
_cell_length_a 24.778540
_cell_length_b 7.398407
_cell_length_c 15.131246
_cell_angle_alpha 90.000000
_cell_angle_beta 90.000000
_cell_angle_gamma 90.000000
_cell_volume 2773.886100
_symmetry_space_group_name_H-M "P M M A"
_symmetry_group_IT_number 51
_symmetry_cell_setting 'orthorhombic'
loop_
_space_group_symop_operation_xyz
x,y,z
1/2-x,-y,z
1/2+x,-y,-z
-x,y,-z
-x,-y,-z
1/2+x,y,-z
1/2-x,y,z
x,-y,z
loop_
_atom_site_type_symbol
_atom_site_label
_atom_site_fract_x
_atom_site_fract_y
_atom_site_fract_z
Si Si1 0.340195 0.792071 0.051768
Si Si2 0.001976 0.721538 0.283216
Si Si3 0.687916 0.720714 0.469689
Si Si4 0.119514 0.280089 0.700314
Si Si5 0.190666 0.291006 0.856296
Si Si6 0.105264 0.705077 0.383038
Si Si7 0.191445 0.219316 0.241007
Si Si8 0.535003 0.718735 0.915347
O O1 0.312394 0.719187 0.139821
O O2 0.403798 0.778539 0.069556
O O3 0.323717 0.000000 0.044142
O O4 0.325084 0.709342 0.958532
O O5 0.004250 0.500000 0.283540
O O6 0.942118 0.779770 0.310524
O O7 0.048602 0.784761 0.350494
O O8 0.014304 0.776389 0.181594
O O9 0.750000 0.781453 0.480007
O O10 0.689516 0.500000 0.474688
O O11 0.661363 0.770680 0.376200
O O12 0.645331 0.785580 0.543689
O O13 0.116183 0.500000 0.699196
O O14 0.144150 0.216498 0.793454
O O15 0.250000 0.209072 0.844413
O O16 0.195013 0.500000 0.829140
O O17 0.093619 0.500000 0.413164
O O18 0.142367 0.703158 0.295872
O O19 0.250000 0.268218 0.278961
O O20 0.186812 0.000000 0.242204
O O21 0.534158 0.500000 0.915251
O O22 0.500000 0.778472 0.000000
#
# Coordination Sequence:
#
# PCOD9401363 Si02
#       8
#     8   8   8   8   8   8   8   8
#     4  11  22  35  52  76 107 141 177 221 271 323
#     4   9  17  29  47  74 106 139 174 214 261 314
#     4   9  17  29  48  77 109 138 171 217 271 320
#     4   9  17  31  51  76 107 139 173 217 270 323
#     4  10  20  34  54  78 103 137 182 227 272 325
#     4  10  19  32  52  79 109 137 172 218 266 313
#     4  10  21  36  52  72 102 141 178 212 258 315
#     4  10  19  33  53  75 105 143 183 226 266 312
#
# _framework density 23.072323999999998
#
# number of rings (size 3 to 8) (size 9 to 14) (size 15 to 20)
#    0.000    2.250    1.250    2.250    0.000    6.250 
#    0.000    2.500    0.000    0.750    0.000    0.875 
#    0.000    0.000    0.000    0.000    0.000    0.000 
#
# Total GULP energy -357543.571584 kJ/mol
# GULP energy per Si atom -5586.618306 kJ/mol
# Density = 2.301981 g / cm^3
# Si number density = 23.072324 Si / 1000 Ang^3
#
#
#
# Elastic Constant Matrix: (Units=GPa)
#
#
# Indices 1 2 3 4 5 6 
#
# 1 150.0303 -1.9022 35.2373 0.0000 0.0000 0.0000
# 2 -1.9022 76.2347 -5.8862 0.0000 0.0000 0.0000
# 3 35.2373 -5.8862 74.2888 0.0000 0.0000 0.0000
# 4 0.0000 0.0000 0.0000 -82.7654 0.0000 0.0000
# 5 0.0000 0.0000 0.0000 0.0000 36.3043 0.0000
# 6 0.0000 0.0000 0.0000 0.0000 0.0000 63.2404
#
#
#
# Elastic Compliance Matrix: (Units=1/GPa)
#
#
# Indices 1 2 3 4 5 6 
#
# 1 0.007502 -0.000088 -0.003565 0.000000 0.000000 0.000000
# 2 -0.000088 0.013199 0.001088 0.000000 0.000000 0.000000
# 3 -0.003565 0.001088 0.015238 0.000000 0.000000 0.000000
# 4 0.000000 0.000000 0.000000 -0.012082 0.000000 0.000000
# 5 0.000000 0.000000 0.000000 0.000000 0.027545 0.000000
# 6 0.000000 0.000000 0.000000 0.000000 0.000000 0.015813
#
#
# Mechanical properties :
#
#
# Convention : Reuss Voigt Hill
#
# Bulk Modulus (GPa) = 32.45954 39.49464 35.97709
# Shear Modulus (GPa) = 60.52186 21.56284 41.04235
#
# Velocity S-wave (km/s) = 5.12721 3.06040 4.22222
# Velocity P-wave (km/s) = 7.01072 5.44454 6.27667
#
# Compressibility (1/GPa) = 0.03080758
#
# Stress axis : x y z
#
# Youngs Moduli (GPa) = 133.30577 75.76241 65.62446
#
# Poissons Ratio (x) = 0.00667 0.23396
# Poissons Ratio (y) = 0.01174 -0.07137
# Poissons Ratio (z) = 0.47526 -0.08240
#
# Static dielectric constant tensor:
#      x y z
#    x 1.868200 0.000000 0.000000 
#    y 0.000000 1.868760 0.000000 
#    z 0.000000 0.000000 1.835200 
# 
# From -- ./inp_files/26163.got.cif
#   From: 2010.05.17/outbox.cif.g08.bks.cpg/sg51_14_cif.got.tgz:26163.got - 2010.06.03 11:52:47.
