data_PCOD9401102
_publ_section_title
;
Structure prediction by ZEFSAII (Michael W. Deem and Ramdas Pophale) SiO2 
 PCOD9401102
Probable space group: P M M A
;
_chemical_formula_sum "Si O2"
_cell_formula_units_Z 52
_cell_length_a 8.015604
_cell_length_b 25.093471
_cell_length_c 14.441194
_cell_angle_alpha 90.000000
_cell_angle_beta 90.000000
_cell_angle_gamma 90.000000
_cell_volume 2904.692035
_symmetry_space_group_name_H-M "P M M A"
_symmetry_group_IT_number 51
_symmetry_cell_setting 'orthorhombic'
loop_
_space_group_symop_operation_xyz
x,y,z
1/2-x,-y,z
1/2+x,-y,-z
-x,y,-z
-x,-y,-z
1/2+x,y,-z
1/2-x,y,z
x,-y,z
loop_
_atom_site_type_symbol
_atom_site_label
_atom_site_fract_x
_atom_site_fract_y
_atom_site_fract_z
Si Si1 0.048715 0.557282 0.891569
Si Si2 0.550260 0.943015 0.608686
Si Si3 0.549747 0.776732 0.214976
Si Si4 0.450245 0.883196 0.108071
Si Si5 0.048072 0.326579 0.892370
Si Si6 0.951475 0.000000 0.891042
Si Si7 0.446583 0.173008 0.606227
O O1 0.250000 0.557102 0.885127
O O2 0.988512 0.500000 0.852902
O O3 0.989982 0.615121 0.856553
O O4 0.000000 0.557277 0.000000
O O5 0.500000 0.943749 0.500000
O O6 0.750000 0.941686 0.615624
O O7 0.485134 0.886663 0.642628
O O8 0.492168 0.000000 0.648413
O O9 0.750000 0.770554 0.220382
O O10 0.517072 0.830935 0.158522
O O11 0.483709 0.724294 0.163924
O O12 0.481772 0.786334 0.318518
O O13 0.250000 0.882363 0.115463
O O14 0.508632 0.941783 0.144409
O O15 0.500000 0.880322 0.000000
O O16 0.250000 0.326456 0.888408
O O17 0.000000 0.321350 0.000000
O O18 0.750000 0.000000 0.882722
O O19 0.000000 0.000000 0.000000
O O20 0.500000 0.178303 0.500000
O O21 0.250000 0.178823 0.605243
#
# Coordination Sequence:
#
# PCOD9401102 Si02
#       7
#     8   8   8   8   8   4   8
#     4   8  13  22  38  60  86 118 151 178 205 241
#     4   9  16  27  45  66  84 103 128 163 211 267
#     4  10  21  34  46  65  90 117 148 182 223 268
#     4  10  19  32  50  68  89 115 145 182 221 263
#     4   9  17  29  44  64  93 123 150 180 213 250
#     4   8  16  30  46  64  83 108 141 178 219 256
#     4  10  20  34  50  65  85 111 143 182 225 272
#
# _framework density 17.902069999999998
#
# number of rings (size 3 to 8) (size 9 to 14) (size 15 to 20)
#    0.000    2.769    0.000    2.769    0.000    4.615 
#    1.385    0.000    0.000    0.000    0.000    0.000 
#    0.000    0.615    0.000    0.462    0.000    1.231 
#
# Total GULP energy -289628.102488 kJ/mol
# GULP energy per Si atom -5569.771202 kJ/mol
# Density = 1.786132 g / cm^3
# Si number density = 17.902070 Si / 1000 Ang^3
#
#
#
# Elastic Constant Matrix: (Units=GPa)
#
#
# Indices 1 2 3 4 5 6 
#
# 1 15.9913 8.2553 3.3804 0.0000 0.0000 0.0000
# 2 8.2553 193.0483 69.7242 0.0000 0.0000 0.0000
# 3 3.3804 69.7242 65.4277 0.0000 0.0000 0.0000
# 4 0.0000 0.0000 0.0000 14.4737 0.0000 0.0000
# 5 0.0000 0.0000 0.0000 0.0000 8.0463 0.0000
# 6 0.0000 0.0000 0.0000 0.0000 0.0000 12.6187
#
#
#
# Elastic Compliance Matrix: (Units=1/GPa)
#
#
# Indices 1 2 3 4 5 6 
#
# 1 0.063962 -0.002506 -0.000634 0.000000 0.000000 0.000000
# 2 -0.002506 0.008520 -0.008950 0.000000 0.000000 0.000000
# 3 -0.000634 -0.008950 0.024854 0.000000 0.000000 0.000000
# 4 0.000000 0.000000 0.000000 0.069091 0.000000 0.000000
# 5 0.000000 0.000000 0.000000 0.000000 0.124280 0.000000
# 6 0.000000 0.000000 0.000000 0.000000 0.000000 0.079248
#
#
# Mechanical properties :
#
#
# Convention : Reuss Voigt Hill
#
# Bulk Modulus (GPa) = 13.66940 48.57636 31.12288
# Shear Modulus (GPa) = 11.94689 19.90156 15.92422
#
# Velocity S-wave (km/s) = 2.58611 3.33782 2.98572
# Velocity P-wave (km/s) = 4.07057 6.48445 5.41376
#
# Compressibility (1/GPa) = 0.07315608
#
# Stress axis : x y z
#
# Youngs Moduli (GPa) = 15.63433 117.37674 40.23490
#
# Poissons Ratio (x) = 0.29418 0.02550
# Poissons Ratio (y) = 0.03918 0.36008
# Poissons Ratio (z) = 0.00991 1.05047
#
# Static dielectric constant tensor:
#      x y z
#    x 1.651580 0.000000 0.000000 
#    y 0.000000 1.679470 0.000000 
#    z 0.000000 0.000000 1.624350 
# 
# From -- ./inp_files/22433.got.cif
#   From: 2010.05.17/outbox.cif.g08.bks.cpg/sg51_12_cif.got.tgz:22433.got - 2010.06.03 11:52:47.
