data_PCOD9401303
_publ_section_title
;
Structure prediction by ZEFSAII (Michael W. Deem and Ramdas Pophale) SiO2 
 PCOD9401303
Probable space group: P M M A
;
_chemical_formula_sum "Si O2"
_cell_formula_units_Z 64
_cell_length_a 8.642731
_cell_length_b 17.946402
_cell_length_c 21.269007
_cell_angle_alpha 90.000000
_cell_angle_beta 90.000000
_cell_angle_gamma 90.000000
_cell_volume 3298.949003
_symmetry_space_group_name_H-M "P M M A"
_symmetry_group_IT_number 51
_symmetry_cell_setting 'orthorhombic'
loop_
_space_group_symop_operation_xyz
x,y,z
1/2-x,-y,z
1/2+x,-y,-z
-x,y,-z
-x,-y,-z
1/2+x,y,-z
1/2-x,y,z
x,-y,z
loop_
_atom_site_type_symbol
_atom_site_label
_atom_site_fract_x
_atom_site_fract_y
_atom_site_fract_z
Si Si1 0.066714 0.419158 0.091468
Si Si2 0.428256 0.374562 0.782440
Si Si3 0.936560 0.879090 0.567909
Si Si4 0.563841 0.786859 0.794249
Si Si5 0.932175 0.707547 0.564639
Si Si6 0.065524 0.916049 0.704087
Si Si7 0.063803 0.252158 0.064834
Si Si8 0.929786 0.419783 0.357929
O O1 0.250000 0.419793 0.078610
O O2 0.001733 0.500000 0.070780
O O3 0.005370 0.338702 0.068375
O O4 0.035655 0.412018 0.165658
O O5 0.250000 0.374368 0.805002
O O6 0.485431 0.290068 0.772172
O O7 0.433728 0.416734 0.717031
O O8 0.750000 0.884776 0.566930
O O9 0.988050 0.792215 0.572722
O O10 0.000000 0.906615 0.500000
O O11 0.999246 0.912687 0.632885
O O12 0.750000 0.780694 0.789410
O O13 0.507663 0.854571 0.750548
O O14 0.523847 0.788671 0.869303
O O15 0.750000 0.712051 0.559853
O O16 0.000000 0.677304 0.500000
O O17 0.980317 0.651312 0.618034
O O18 0.250000 0.903790 0.701007
O O19 0.036539 0.000000 0.728108
O O20 0.250000 0.254280 0.062166
O O21 0.000000 0.219176 0.000000
O O22 0.750000 0.413005 0.377247
O O23 0.989695 0.500000 0.380342
#
# Coordination Sequence:
#
# PCOD9401303 Si02
#       8
#     8   8   8   8   8   8   8   8
#     4   9  18  32  48  70 106 147 184 227 278 329
#     4  10  19  32  52  76 102 135 178 225 271 323
#     4  10  21  38  61  87 116 151 189 227 269 322
#     4  10  21  38  59  83 112 146 184 226 275 332
#     4  10  21  36  54  74  95 126 170 216 262 314
#     4  11  24  40  60  89 121 150 182 221 267 322
#     4   9  19  34  53  79 109 144 188 235 283 335
#     4  10  21  34  47  67  97 131 169 218 272 321
#
# _framework density 19.400119
#
# number of rings (size 3 to 8) (size 9 to 14) (size 15 to 20)
#    0.000    2.125    0.000    3.750    0.000    9.750 
#    0.000    0.000    0.000    0.375    0.000    0.000 
#    0.000    0.000    0.000    0.000    0.000    0.000 
#
# Total GULP energy -356939.868948 kJ/mol
# GULP energy per Si atom -5577.185452 kJ/mol
# Density = 1.935596 g / cm^3
# Si number density = 19.400119 Si / 1000 Ang^3
#
#
#
# Elastic Constant Matrix: (Units=GPa)
#
#
# Indices 1 2 3 4 5 6 
#
# 1 24.1737 18.0863 19.5797 0.0000 0.0000 0.0000
# 2 18.0863 85.2249 43.4291 0.0000 0.0000 0.0000
# 3 19.5797 43.4291 96.1817 0.0000 0.0000 0.0000
# 4 0.0000 0.0000 0.0000 -22.0657 0.0000 0.0000
# 5 0.0000 0.0000 0.0000 0.0000 31.5024 0.0000
# 6 0.0000 0.0000 0.0000 0.0000 0.0000 -32.9269
#
#
#
# Elastic Compliance Matrix: (Units=1/GPa)
#
#
# Indices 1 2 3 4 5 6 
#
# 1 0.052952 -0.007461 -0.007410 0.000000 0.000000 0.000000
# 2 -0.007461 0.016292 -0.005837 0.000000 0.000000 0.000000
# 3 -0.007410 -0.005837 0.014541 0.000000 0.000000 0.000000
# 4 0.000000 0.000000 0.000000 -0.045319 0.000000 0.000000
# 5 0.000000 0.000000 0.000000 0.000000 0.031744 0.000000
# 6 0.000000 0.000000 0.000000 0.000000 0.000000 -0.030370
#
#
# Mechanical properties :
#
#
# Convention : Reuss Voigt Hill
#
# Bulk Modulus (GPa) = 23.60340 40.86340 32.23340
# Shear Modulus (GPa) = 52.42272 3.60098 28.01185
#
# Velocity S-wave (km/s) = 5.20389 1.36389 3.80399
# Velocity P-wave (km/s) = 6.94985 4.85690 5.99541
#
# Compressibility (1/GPa) = 0.04236677
#
# Stress axis : x y z
#
# Youngs Moduli (GPa) = 18.88520 61.38116 68.76977
#
# Poissons Ratio (x) = 0.45797 0.50961
# Poissons Ratio (y) = 0.14090 0.40143
# Poissons Ratio (z) = 0.13995 0.35830
#
# Static dielectric constant tensor:
#      x y z
#    x 1.664950 0.000000 0.000000 
#    y 0.000000 1.690980 0.000000 
#    z 0.000000 0.000000 1.690350 
# 
# From -- ./inp_files/32374.got.cif
#   From: 2010.05.17/outbox.cif.g08.bks.cpg/sg51_17_cif.got.tgz:32374.got - 2010.06.03 11:52:47.
