data_PCOD9401331
_publ_section_title
;
Structure prediction by ZEFSAII (Michael W. Deem and Ramdas Pophale) SiO2 
 PCOD9401331
Probable space group: P M M A
;
_chemical_formula_sum "Si O2"
_cell_formula_units_Z 48
_cell_length_a 8.668422
_cell_length_b 16.747800
_cell_length_c 19.030378
_cell_angle_alpha 90.000000
_cell_angle_beta 90.000000
_cell_angle_gamma 90.000000
_cell_volume 2762.773148
_symmetry_space_group_name_H-M "P M M A"
_symmetry_group_IT_number 51
_symmetry_cell_setting 'orthorhombic'
loop_
_space_group_symop_operation_xyz
x,y,z
1/2-x,-y,z
1/2+x,-y,-z
-x,y,-z
-x,-y,-z
1/2+x,y,-z
1/2-x,y,z
x,-y,z
loop_
_atom_site_type_symbol
_atom_site_label
_atom_site_fract_x
_atom_site_fract_y
_atom_site_fract_z
Si Si1 0.064962 0.746544 0.788736
Si Si2 0.434913 0.000000 0.420048
Si Si3 0.564401 0.409584 0.295702
Si Si4 0.064278 0.161135 0.648873
Si Si5 0.064417 0.000000 0.078785
Si Si6 0.565539 0.825860 0.921379
Si Si7 0.566612 0.318064 0.575500
O O1 0.250000 0.750330 0.794610
O O2 0.022447 0.658977 0.760002
O O3 0.019516 0.810500 0.727930
O O4 0.992234 0.764601 0.863603
O O5 0.500000 0.000000 0.500000
O O6 0.492957 0.078835 0.378846
O O7 0.250000 0.000000 0.423285
O O8 0.750000 0.404320 0.305891
O O9 0.526361 0.500000 0.275312
O O10 0.483154 0.383551 0.367483
O O11 0.250000 0.155970 0.645986
O O12 0.008011 0.234134 0.600096
O O13 0.015247 0.085944 0.107301
O O14 0.250000 0.000000 0.077719
O O15 0.000000 0.000000 0.000000
O O16 0.750000 0.824300 0.926186
O O17 0.500000 0.815006 0.000000
O O18 0.500000 0.339359 0.500000
O O19 0.750000 0.309561 0.573304
#
# Coordination Sequence:
#
# PCOD9401331 Si02
#       7
#     8   4   8   8   4   8   8
#     4   9  19  35  55  78 104 134 169 211 261 315
#     4  12  24  37  54  77 106 142 186 232 272 311
#     4   9  19  37  58  78 102 134 171 212 261 317
#     4  10  21  38  55  74 103 140 181 222 266 315
#     4   8  16  29  44  67  97 130 164 198 237 279
#     4  10  19  32  52  77 107 140 175 214 255 304
#     4  11  21  34  53  77 105 136 171 214 263 314
#
# _framework density 17.373847999999999
#
# number of rings (size 3 to 8) (size 9 to 14) (size 15 to 20)
#    0.000    2.167    0.000    4.750    0.000    5.333 
#    0.000    1.667    0.000    0.500    0.000    0.000 
#    0.000    0.000    0.000    0.000    0.000    0.000 
#
# Total GULP energy -267730.391831 kJ/mol
# GULP energy per Si atom -5577.716496 kJ/mol
# Density = 1.733430 g / cm^3
# Si number density = 17.373848 Si / 1000 Ang^3
#
#
#
# Elastic Constant Matrix: (Units=GPa)
#
#
# Indices 1 2 3 4 5 6 
#
# 1 58.3804 44.9323 45.2546 0.0000 0.0000 0.0000
# 2 44.9323 125.5814 70.4618 0.0000 0.0000 0.0000
# 3 45.2546 70.4618 124.8092 0.0000 0.0000 0.0000
# 4 0.0000 0.0000 0.0000 10.0256 0.0000 0.0000
# 5 0.0000 0.0000 0.0000 0.0000 29.3926 0.0000
# 6 0.0000 0.0000 0.0000 0.0000 0.0000 24.1172
#
#
#
# Elastic Compliance Matrix: (Units=1/GPa)
#
#
# Indices 1 2 3 4 5 6 
#
# 1 0.026601 -0.006009 -0.006253 0.000000 0.000000 0.000000
# 2 -0.006009 0.013012 -0.005167 0.000000 0.000000 0.000000
# 3 -0.006253 -0.005167 0.013197 0.000000 0.000000 0.000000
# 4 0.000000 0.000000 0.000000 0.099744 0.000000 0.000000
# 5 0.000000 0.000000 0.000000 0.000000 0.034022 0.000000
# 6 0.000000 0.000000 0.000000 0.000000 0.000000 0.041464
#
#
# Mechanical properties :
#
#
# Convention : Reuss Voigt Hill
#
# Bulk Modulus (GPa) = 55.70607 70.00757 62.85682
# Shear Modulus (GPa) = 18.59545 22.58190 20.58868
#
# Velocity S-wave (km/s) = 3.27511 3.60914 3.44617
# Velocity P-wave (km/s) = 6.81429 7.59935 7.21750
#
# Compressibility (1/GPa) = 0.01795136
#
# Stress axis : x y z
#
# Youngs Moduli (GPa) = 37.59255 76.84993 75.77733
#
# Poissons Ratio (x) = 0.46183 0.47380
# Poissons Ratio (y) = 0.22591 0.39156
# Poissons Ratio (z) = 0.23505 0.39710
#
# Static dielectric constant tensor:
#      x y z
#    x 1.582320 0.000000 0.000000 
#    y 0.000000 1.604940 0.000000 
#    z 0.000000 0.000000 1.576080 
# 
# From -- ./inp_files/27620.got.cif
#   From: 2010.05.17/outbox.cif.g08.bks.cpg/sg51_14_cif.got.tgz:27620.got - 2010.06.03 11:52:47.
