data_PCOD9401684
_publ_section_title
;
Structure prediction by ZEFSAII (Michael W. Deem and Ramdas Pophale) SiO2 
 PCOD9401684
Probable space group: P M M A
;
_chemical_formula_sum "Si O2"
_cell_formula_units_Z 64
_cell_length_a 8.700008
_cell_length_b 15.352052
_cell_length_c 25.556340
_cell_angle_alpha 90.000000
_cell_angle_beta 90.000000
_cell_angle_gamma 90.000000
_cell_volume 3413.380806
_symmetry_space_group_name_H-M "P M M A"
_symmetry_group_IT_number 51
_symmetry_cell_setting 'orthorhombic'
loop_
_space_group_symop_operation_xyz
x,y,z
1/2-x,-y,z
1/2+x,-y,-z
-x,y,-z
-x,-y,-z
1/2+x,y,-z
1/2-x,y,z
x,-y,z
loop_
_atom_site_type_symbol
_atom_site_label
_atom_site_fract_x
_atom_site_fract_y
_atom_site_fract_z
Si Si1 0.434714 0.726091 0.145932
Si Si2 0.565446 0.400462 0.058330
Si Si3 0.928736 0.136630 0.305723
Si Si4 0.564470 0.901560 0.186509
Si Si5 0.433698 0.907071 0.414461
Si Si6 0.565908 0.715745 0.554442
Si Si7 0.565412 0.405234 0.764910
Si Si8 0.572543 0.661562 0.338374
O O1 0.250000 0.726071 0.144570
O O2 0.497686 0.671708 0.096999
O O3 0.494340 0.824267 0.152209
O O4 0.488470 0.671898 0.197285
O O5 0.750000 0.394614 0.057518
O O6 0.523394 0.500000 0.074642
O O7 0.500000 0.388334 0.000000
O O8 0.750000 0.109383 0.311136
O O9 0.981112 0.112890 0.247463
O O10 0.934999 0.240154 0.315219
O O11 0.026158 0.097397 0.352967
O O12 0.750000 0.894697 0.184924
O O13 0.521425 0.000000 0.171013
O O14 0.250000 0.906461 0.420868
O O15 0.492560 0.816362 0.438494
O O16 0.494433 0.000000 0.434985
O O17 0.500000 0.681649 0.500000
O O18 0.750000 0.716465 0.553216
O O19 0.509874 0.664731 0.605689
O O20 0.750000 0.401251 0.763698
O O21 0.519038 0.500000 0.786097
O O22 0.504978 0.395333 0.706312
O O23 0.750000 0.637840 0.345281
#
# Coordination Sequence:
#
# PCOD9401684 Si02
#       8
#     8   8   8   8   8   8   8   8
#     4  11  22  36  57  85 122 160 197 240 285 335
#     4  10  21  38  62  91 123 159 199 241 287 341
#     4   9  17  30  48  70  99 136 178 223 270 322
#     4  10  20  34  52  76 111 154 199 245 289 334
#     4   9  18  30  44  65  94 127 166 215 269 325
#     4  10  20  34  51  70  95 129 172 218 270 329
#     4  10  21  36  55  82 116 151 182 218 273 336
#     4  10  19  33  54  77 103 135 175 221 270 327
#
# _framework density 18.749738000000001
#
# number of rings (size 3 to 8) (size 9 to 14) (size 15 to 20)
#    0.000    2.125    1.250    2.250    0.000    4.750 
#    0.000    0.000    0.000    0.750    0.000    0.000 
#    0.000    0.000    0.000    0.000    0.000    0.000 
#
# Total GULP energy -357175.246362 kJ/mol
# GULP energy per Si atom -5580.863224 kJ/mol
# Density = 1.870706 g / cm^3
# Si number density = 18.749738 Si / 1000 Ang^3
#
#
#
# Elastic Constant Matrix: (Units=GPa)
#
#
# Indices 1 2 3 4 5 6 
#
# 1 28.8936 32.2731 27.6586 0.0000 0.0000 0.0000
# 2 32.2731 96.5247 55.9255 0.0000 0.0000 0.0000
# 3 27.6586 55.9255 112.9107 0.0000 0.0000 0.0000
# 4 0.0000 0.0000 0.0000 3.8041 0.0000 0.0000
# 5 0.0000 0.0000 0.0000 0.0000 29.2606 0.0000
# 6 0.0000 0.0000 0.0000 0.0000 0.0000 13.7950
#
#
#
# Elastic Compliance Matrix: (Units=1/GPa)
#
#
# Indices 1 2 3 4 5 6 
#
# 1 0.058459 -0.015776 -0.006506 0.000000 0.000000 0.000000
# 2 -0.015776 0.018787 -0.005441 0.000000 0.000000 0.000000
# 3 -0.006506 -0.005441 0.013145 0.000000 0.000000 0.000000
# 4 0.000000 0.000000 0.000000 0.262875 0.000000 0.000000
# 5 0.000000 0.000000 0.000000 0.000000 0.034176 0.000000
# 6 0.000000 0.000000 0.000000 0.000000 0.000000 0.072490
#
#
# Mechanical properties :
#
#
# Convention : Reuss Voigt Hill
#
# Bulk Modulus (GPa) = 28.61627 52.22704 40.42166
# Shear Modulus (GPa) = 9.48717 17.53673 13.51195
#
# Velocity S-wave (km/s) = 2.25186 3.06159 2.68740
# Velocity P-wave (km/s) = 4.69644 6.35713 5.58881
#
# Compressibility (1/GPa) = 0.03494515
#
# Stress axis : x y z
#
# Youngs Moduli (GPa) = 17.10592 53.22743 76.07346
#
# Poissons Ratio (x) = 0.83974 0.49494
# Poissons Ratio (y) = 0.26987 0.41391
# Poissons Ratio (z) = 0.11129 0.28961
#
# Static dielectric constant tensor:
#      x y z
#    x 1.634180 0.000000 0.000000 
#    y 0.000000 1.684930 0.000000 
#    z 0.000000 0.000000 1.622730 
# 
# From -- ./inp_files/35017.got.cif
#   From: 2010.05.17/outbox.cif.g08.bks.cpg/sg51_18_cif.got.tgz:35017.got - 2010.06.03 11:52:47.
