data_PCOD9402909
_publ_section_title
;
Structure prediction by ZEFSAII (Michael W. Deem and Ramdas Pophale) SiO2 
 PCOD9402909
Probable space group: P M M A
;
_chemical_formula_sum "Si O2"
_cell_formula_units_Z 40
_cell_length_a 23.994509
_cell_length_b 17.779027
_cell_length_c 5.054808
_cell_angle_alpha 90.000000
_cell_angle_beta 90.000000
_cell_angle_gamma 90.000000
_cell_volume 2156.376156
_symmetry_space_group_name_H-M "P M M A"
_symmetry_group_IT_number 51
_symmetry_cell_setting 'orthorhombic'
loop_
_space_group_symop_operation_xyz
x,y,z
1/2-x,-y,z
1/2+x,-y,-z
-x,y,-z
-x,-y,-z
1/2+x,y,-z
1/2-x,y,z
x,-y,z
loop_
_atom_site_type_symbol
_atom_site_label
_atom_site_fract_x
_atom_site_fract_y
_atom_site_fract_z
Si Si1 0.938633 0.628638 0.612774
Si Si2 0.685677 0.259423 0.079349
Si Si3 0.127571 0.416555 0.888630
Si Si4 0.461462 0.085800 0.241891
Si Si5 0.619951 0.786082 0.584834
O O1 0.896692 0.590389 0.405576
O O2 0.924320 0.717537 0.609115
O O3 0.000000 0.615292 0.500000
O O4 0.922697 0.599188 0.903170
O O5 0.750000 0.247210 0.141846
O O6 0.670612 0.348163 0.082032
O O7 0.645334 0.218654 0.291444
O O8 0.669372 0.231501 0.788978
O O9 0.149911 0.500000 0.936100
O O10 0.500000 0.083406 0.500000
O O11 0.410527 0.138931 0.319937
O O12 0.444276 0.000000 0.174854
O O13 0.500000 0.114503 0.000000
#
# Coordination Sequence:
#
# PCOD9402909 Si02
#       5
#     8   8   8   8   8
#     4  10  20  32  49  73 102 137 169 204 256 317
#     4  10  21  37  56  75  98 136 181 225 269 304
#     4  10  21  34  49  73 100 130 173 218 263 314
#     4  10  20  34  56  86 116 143 168 201 252 309
#     4  10  20  35  55  78 106 136 175 218 254 310
#
# _framework density 18.54964
#
# number of rings (size 3 to 8) (size 9 to 14) (size 15 to 20)
#    0.000    2.000    0.000    3.600    0.000    6.000 
#    0.000    0.000    0.000   10.800    0.000    0.000 
#    0.000    0.000    0.000    0.000    0.000    0.000 
#
# Total GULP energy -223239.986063 kJ/mol
# GULP energy per Si atom -5580.999652 kJ/mol
# Density = 1.850742 g / cm^3
# Si number density = 18.549640 Si / 1000 Ang^3
#
#
#
# Elastic Constant Matrix: (Units=GPa)
#
#
# Indices 1 2 3 4 5 6 
#
# 1 50.9151 25.5359 -7.6466 0.0000 0.0000 0.0000
# 2 25.5359 68.6010 -0.9734 0.0000 0.0000 0.0000
# 3 -7.6466 -0.9734 74.7224 0.0000 0.0000 0.0000
# 4 0.0000 0.0000 0.0000 11.5189 0.0000 0.0000
# 5 0.0000 0.0000 0.0000 0.0000 20.8713 0.0000
# 6 0.0000 0.0000 0.0000 0.0000 0.0000 2.3516
#
#
#
# Elastic Compliance Matrix: (Units=1/GPa)
#
#
# Indices 1 2 3 4 5 6 
#
# 1 0.024570 -0.009112 0.002396 0.000000 0.000000 0.000000
# 2 -0.009112 0.017959 -0.000699 0.000000 0.000000 0.000000
# 3 0.002396 -0.000699 0.013619 0.000000 0.000000 0.000000
# 4 0.000000 0.000000 0.000000 0.086814 0.000000 0.000000
# 5 0.000000 0.000000 0.000000 0.000000 0.047913 0.000000
# 6 0.000000 0.000000 0.000000 0.000000 0.000000 0.425249
#
#
# Mechanical properties :
#
#
# Convention : Reuss Voigt Hill
#
# Bulk Modulus (GPa) = 24.20220 25.34112 24.77166
# Shear Modulus (GPa) = 7.75523 18.76987 13.26255
#
# Velocity S-wave (km/s) = 2.04692 3.18445 2.67680
# Velocity P-wave (km/s) = 4.31996 5.21650 4.78925
#
# Compressibility (1/GPa) = 0.04131856
#
# Stress axis : x y z
#
# Youngs Moduli (GPa) = 40.69945 55.68251 73.42720
#
# Poissons Ratio (x) = 0.50738 -0.17591
# Poissons Ratio (y) = 0.37085 0.05129
# Poissons Ratio (z) = -0.09750 0.03889
#
# Static dielectric constant tensor:
#      x y z
#    x 1.605380 0.000000 0.000000 
#    y 0.000000 1.666830 0.000000 
#    z 0.000000 0.000000 1.645080 
# 
# From -- ./inp_files/2454.got.cif
#   From: 2010.05.17/outbox.cif.g08.bks.cpg/sg51_2_cif.got.tgz:2454.got - 2010.06.03 11:52:47.
