data_PCOD9402271
_publ_section_title
;
Structure prediction by ZEFSAII (Michael W. Deem and Ramdas Pophale) SiO2 
 PCOD9402271
Probable space group: P M M A
;
_chemical_formula_sum "Si O2"
_cell_formula_units_Z 48
_cell_length_a 18.026518
_cell_length_b 9.324425
_cell_length_c 16.872644
_cell_angle_alpha 90.000000
_cell_angle_beta 90.000000
_cell_angle_gamma 90.000000
_cell_volume 2836.070680
_symmetry_space_group_name_H-M "P M M A"
_symmetry_group_IT_number 51
_symmetry_cell_setting 'orthorhombic'
loop_
_space_group_symop_operation_xyz
x,y,z
1/2-x,-y,z
1/2+x,-y,-z
-x,y,-z
-x,-y,-z
1/2+x,y,-z
1/2-x,y,z
x,-y,z
loop_
_atom_site_type_symbol
_atom_site_label
_atom_site_fract_x
_atom_site_fract_y
_atom_site_fract_z
Si Si1 0.587893 0.671588 0.002242
Si Si2 0.837251 0.829580 0.855356
Si Si3 0.608341 0.331962 0.182180
Si Si4 0.445491 0.667205 0.255494
Si Si5 0.165131 0.829429 0.667268
Si Si6 0.530685 0.328231 0.413471
O O1 0.595078 0.500000 0.989636
O O2 0.617886 0.705018 0.090207
O O3 0.500000 0.704439 0.000000
O O4 0.630209 0.755228 0.933913
O O5 0.750000 0.799518 0.848344
O O6 0.882765 0.764972 0.781897
O O7 0.848017 0.000000 0.859851
O O8 0.627702 0.500000 0.193756
O O9 0.520937 0.318814 0.203721
O O10 0.651310 0.235779 0.245212
O O11 0.423332 0.500000 0.252300
O O12 0.470659 0.703494 0.344654
O O13 0.250000 0.801337 0.643456
O O14 0.105368 0.753791 0.610580
O O15 0.152965 0.000000 0.668693
O O16 0.500000 0.292419 0.500000
O O17 0.544428 0.500000 0.409715
#
# Coordination Sequence:
#
# PCOD9402271 Si02
#       6
#     8   8   8   8   8   8
#     4  10  19  35  56  77 103 137 182 230 271 313
#     4  11  24  37  49  73 109 145 181 220 263 312
#     4   9  18  33  55  79 102 134 178 223 265 313
#     4   9  17  34  57  78 101 132 172 216 261 314
#     4  10  21  35  52  79 115 148 176 212 262 319
#     4   9  19  37  61  86 108 134 174 222 267 317
#
# _framework density 16.924824999999998
#
# number of rings (size 3 to 8) (size 9 to 14) (size 15 to 20)
#    0.000    2.333    1.667    2.000    0.000    7.333 
#    0.000    4.167    0.000    5.000    0.000    0.000 
#    0.000    0.000    0.000    0.000    0.000    0.000 
#
# Total GULP energy -267842.908804 kJ/mol
# GULP energy per Si atom -5580.060600 kJ/mol
# Density = 1.688630 g / cm^3
# Si number density = 16.924825 Si / 1000 Ang^3
#
#
#
# Elastic Constant Matrix: (Units=GPa)
#
#
# Indices 1 2 3 4 5 6 
#
# 1 109.5042 76.1334 80.3800 0.0000 0.0000 0.0000
# 2 76.1334 67.7250 69.0723 0.0000 0.0000 0.0000
# 3 80.3800 69.0723 146.8884 0.0000 0.0000 0.0000
# 4 0.0000 0.0000 0.0000 6.6962 0.0000 0.0000
# 5 0.0000 0.0000 0.0000 0.0000 13.8388 0.0000
# 6 0.0000 0.0000 0.0000 0.0000 0.0000 33.2778
#
#
#
# Elastic Compliance Matrix: (Units=1/GPa)
#
#
# Indices 1 2 3 4 5 6 
#
# 1 0.041980 -0.045662 -0.001500 0.000000 0.000000 0.000000
# 2 -0.045662 0.078040 -0.011710 0.000000 0.000000 0.000000
# 3 -0.001500 -0.011710 0.013135 0.000000 0.000000 0.000000
# 4 0.000000 0.000000 0.000000 0.149338 0.000000 0.000000
# 5 0.000000 0.000000 0.000000 0.000000 0.072261 0.000000
# 6 0.000000 0.000000 0.000000 0.000000 0.000000 0.030050
#
#
# Mechanical properties :
#
#
# Convention : Reuss Voigt Hill
#
# Bulk Modulus (GPa) = 64.89092 86.14323 75.51707
# Shear Modulus (GPa) = 9.84861 17.33134 13.58997
#
# Velocity S-wave (km/s) = 2.41488 3.20350 2.83673
# Velocity P-wave (km/s) = 6.79702 8.04309 7.44616
#
# Compressibility (1/GPa) = 0.01541048
#
# Stress axis : x y z
#
# Youngs Moduli (GPa) = 23.82084 12.81399 76.12990
#
# Poissons Ratio (x) = 0.58511 0.11422
# Poissons Ratio (y) = 1.08770 0.89149
# Poissons Ratio (z) = 0.03574 0.15005
#
# Static dielectric constant tensor:
#      x y z
#    x 1.555150 0.000000 0.000000 
#    y 0.000000 1.557780 0.000000 
#    z 0.000000 0.000000 1.566340 
# 
# From -- ./inp_files/29397.got.cif
#   From: 2010.05.17/outbox.cif.g08.bks.cpg/sg51_15_cif.got.tgz:29397.got - 2010.06.03 11:52:47.
