data_PCOD9402727
_publ_section_title
;
Structure prediction by ZEFSAII (Michael W. Deem and Ramdas Pophale) SiO2 
 PCOD9402727
Probable space group: P M M A
;
_chemical_formula_sum "Si O2"
_cell_formula_units_Z 36
_cell_length_a 7.481994
_cell_length_b 7.601262
_cell_length_c 27.329347
_cell_angle_alpha 90.000000
_cell_angle_beta 90.000000
_cell_angle_gamma 90.000000
_cell_volume 1554.290929
_symmetry_space_group_name_H-M "P M M A"
_symmetry_group_IT_number 51
_symmetry_cell_setting 'orthorhombic'
loop_
_space_group_symop_operation_xyz
x,y,z
1/2-x,-y,z
1/2+x,-y,-z
-x,y,-z
-x,-y,-z
1/2+x,y,-z
1/2-x,y,z
x,-y,z
loop_
_atom_site_type_symbol
_atom_site_label
_atom_site_fract_x
_atom_site_fract_y
_atom_site_fract_z
Si Si1 0.968815 0.203172 0.369893
Si Si2 0.550397 0.711334 0.053999
Si Si3 0.956396 0.788787 0.158431
Si Si4 0.536209 0.500000 0.442692
Si Si5 0.034687 0.789389 0.736897
O O1 0.750000 0.202066 0.369034
O O2 0.029142 0.328238 0.413557
O O3 0.026019 0.274194 0.316275
O O4 0.024156 0.000000 0.375744
O O5 0.750000 0.780418 0.060589
O O6 0.550802 0.500000 0.050603
O O7 0.457226 0.750342 0.105723
O O8 0.500000 0.776321 0.000000
O O9 0.750000 0.721868 0.156913
O O10 0.034365 0.724822 0.210370
O O11 0.949979 0.000000 0.162073
O O12 0.750000 0.500000 0.437310
O O13 0.500000 0.500000 0.500000
O O14 0.250000 0.764365 0.738749
O O15 0.003410 0.000000 0.735015
#
# Coordination Sequence:
#
# PCOD9402727 Si02
#       5
#     8   8   8   4   8
#     4   8  14  26  43  63  90 120 146 177 220 263
#     4   9  17  28  39  53  76 105 134 165 200 240
#     4   8  13  22  37  57  80 103 128 163 208 250
#     4  10  20  32  46  68  94 120 151 184 214 250
#     4   7  10  19  36  57  82 108 129 159 210 258
#
# _framework density 23.161687000000001
#
# number of rings (size 3 to 8) (size 9 to 14) (size 15 to 20)
#    0.000    3.778    0.000    2.667    0.000    0.889 
#    2.000    0.000    0.000    0.000    0.000    1.556 
#    0.000    5.333    0.000    0.000    0.000    0.000 
#
# Total GULP energy -200407.537663 kJ/mol
# GULP energy per Si atom -5566.876046 kJ/mol
# Density = 2.310897 g / cm^3
# Si number density = 23.161687 Si / 1000 Ang^3
#
#
#
# Elastic Constant Matrix: (Units=GPa)
#
#
# Indices 1 2 3 4 5 6 
#
# 1 55.8986 3.2906 14.8079 0.0000 0.0000 0.0000
# 2 3.2906 78.4692 70.3785 0.0000 0.0000 0.0000
# 3 14.8079 70.3785 315.7293 0.0000 0.0000 0.0000
# 4 0.0000 0.0000 0.0000 41.0548 0.0000 0.0000
# 5 0.0000 0.0000 0.0000 0.0000 9.1897 0.0000
# 6 0.0000 0.0000 0.0000 0.0000 0.0000 -6.6363
#
#
#
# Elastic Compliance Matrix: (Units=1/GPa)
#
#
# Indices 1 2 3 4 5 6 
#
# 1 0.018115 0.000003 -0.000850 0.000000 0.000000 0.000000
# 2 0.000003 0.015928 -0.003551 0.000000 0.000000 0.000000
# 3 -0.000850 -0.003551 0.003999 0.000000 0.000000 0.000000
# 4 0.000000 0.000000 0.000000 0.024358 0.000000 0.000000
# 5 0.000000 0.000000 0.000000 0.000000 0.108817 0.000000
# 6 0.000000 0.000000 0.000000 0.000000 0.000000 -0.150687
#
#
# Mechanical properties :
#
#
# Convention : Reuss Voigt Hill
#
# Bulk Modulus (GPa) = 34.19322 69.67235 51.93278
# Shear Modulus (GPa) = 127.96294 32.82966 80.39630
#
# Velocity S-wave (km/s) = 7.44094 3.76894 5.89799
# Velocity P-wave (km/s) = 9.41373 7.00614 8.29772
#
# Compressibility (1/GPa) = 0.02924556
#
# Stress axis : x y z
#
# Youngs Moduli (GPa) = 55.20408 62.78123 250.08610
#
# Poissons Ratio (x) = -0.00018 0.21263
# Poissons Ratio (y) = -0.00016 0.88798
# Poissons Ratio (z) = 0.04694 0.22292
#
# Static dielectric constant tensor:
#      x y z
#    x 1.964580 0.000000 0.000000 
#    y 0.000000 1.848790 0.000000 
#    z 0.000000 0.000000 1.950410 
# 
# From -- ./inp_files/32761.got.cif
#   From: 2010.05.17/outbox.cif.g08.bks.cpg/sg51_17_cif.got.tgz:32761.got - 2010.06.03 11:52:47.
