data_PCOD9402941
_publ_section_title
;
Structure prediction by ZEFSAII (Michael W. Deem and Ramdas Pophale) SiO2 
 PCOD9402941
Probable space group: P M M A
;
_chemical_formula_sum "Si O2"
_cell_formula_units_Z 56
_cell_length_a 14.464238
_cell_length_b 8.891872
_cell_length_c 23.819053
_cell_angle_alpha 90.000000
_cell_angle_beta 90.000000
_cell_angle_gamma 90.000000
_cell_volume 3063.467324
_symmetry_space_group_name_H-M "P M M A"
_symmetry_group_IT_number 51
_symmetry_cell_setting 'orthorhombic'
loop_
_space_group_symop_operation_xyz
x,y,z
1/2-x,-y,z
1/2+x,-y,-z
-x,y,-z
-x,-y,-z
1/2+x,y,-z
1/2-x,y,z
x,-y,z
loop_
_atom_site_type_symbol
_atom_site_label
_atom_site_fract_x
_atom_site_fract_y
_atom_site_fract_z
Si Si1 0.355121 0.681140 0.411819
Si Si2 0.860862 0.824896 0.468218
Si Si3 0.959310 0.179202 0.140596
Si Si4 0.458534 0.318725 0.638977
Si Si5 0.355909 0.819384 0.085754
Si Si6 0.639066 0.325041 0.034646
Si Si7 0.642418 0.318155 0.247113
O O1 0.250000 0.730235 0.398952
O O2 0.354617 0.500000 0.416510
O O3 0.382783 0.747959 0.472281
O O4 0.433469 0.723291 0.367010
O O5 0.750000 0.813811 0.461508
O O6 0.908117 0.745664 0.415692
O O7 0.886569 0.000000 0.470110
O O8 0.909228 0.232599 0.083722
O O9 0.910915 0.256501 0.193226
O O10 0.067290 0.219446 0.131833
O O11 0.951581 0.000000 0.146063
O O12 0.452328 0.500000 0.637230
O O13 0.408591 0.268168 0.695827
O O14 0.250000 0.778736 0.100048
O O15 0.359337 0.000000 0.077323
O O16 0.380888 0.740952 0.026885
O O17 0.750000 0.315824 0.042227
O O18 0.611999 0.500000 0.037775
O O19 0.750000 0.271304 0.246944
O O20 0.640699 0.500000 0.245454
#
# Coordination Sequence:
#
# PCOD9402941 Si02
#       7
#     8   8   8   8   8   8   8
#     4   9  18  33  53  77 105 136 170 208 252 305
#     4  10  20  32  49  77 110 139 168 208 258 307
#     4  11  22  35  54  78 103 136 176 214 254 302
#     4  10  20  35  55  76 100 135 176 214 254 302
#     4   9  19  36  55  76 105 138 171 209 254 305
#     4  10  20  33  52  80 111 140 170 208 256 306
#     4  10  22  39  56  75 102 135 170 211 258 305
#
# _framework density 18.279941000000001
#
# number of rings (size 3 to 8) (size 9 to 14) (size 15 to 20)
#    0.000    2.143    0.000    3.000    0.000   10.000 
#    0.000    0.714    0.000    0.857    0.000    0.000 
#    0.000    0.000    0.000    0.000    0.000    0.000 
#
# Total GULP energy -312659.628202 kJ/mol
# GULP energy per Si atom -5583.207646 kJ/mol
# Density = 1.823834 g / cm^3
# Si number density = 18.279941 Si / 1000 Ang^3
#
#
#
# Elastic Constant Matrix: (Units=GPa)
#
#
# Indices 1 2 3 4 5 6 
#
# 1 124.8814 34.3140 99.5337 0.0000 0.0000 0.0000
# 2 34.3140 15.1896 24.9507 0.0000 0.0000 0.0000
# 3 99.5337 24.9507 108.1144 0.0000 0.0000 0.0000
# 4 0.0000 0.0000 0.0000 815.6591 0.0000 0.0000
# 5 0.0000 0.0000 0.0000 0.0000 33.4468 0.0000
# 6 0.0000 0.0000 0.0000 0.0000 0.0000 21.3437
#
#
#
# Elastic Compliance Matrix: (Units=1/GPa)
#
#
# Indices 1 2 3 4 5 6 
#
# 1 0.051010 -0.061352 -0.032803 0.000000 0.000000 0.000000
# 2 -0.061352 0.179818 0.014984 0.000000 0.000000 0.000000
# 3 -0.032803 0.014984 0.035991 0.000000 0.000000 0.000000
# 4 0.000000 0.000000 0.000000 0.001226 0.000000 0.000000
# 5 0.000000 0.000000 0.000000 0.000000 0.029898 0.000000
# 6 0.000000 0.000000 0.000000 0.000000 0.000000 0.046852
#
#
# Mechanical properties :
#
#
# Convention : Reuss Voigt Hill
#
# Bulk Modulus (GPa) = 9.21849 62.86468 36.04159
# Shear Modulus (GPa) = 9.27136 180.04905 94.66020
#
# Velocity S-wave (km/s) = 2.25453 9.93525 7.20389
# Velocity P-wave (km/s) = 3.43963 12.88709 9.43154
#
# Compressibility (1/GPa) = 0.10847760
#
# Stress axis : x y z
#
# Youngs Moduli (GPa) = 19.60401 5.56118 27.78494
#
# Poissons Ratio (x) = 0.34119 0.91142
# Poissons Ratio (y) = 1.20274 -0.41633
# Poissons Ratio (z) = 0.64306 -0.08333
#
# Static dielectric constant tensor:
#      x y z
#    x 1.670900 0.000000 0.000000 
#    y 0.000000 1.613190 0.000000 
#    z 0.000000 0.000000 1.577960 
# 
# From -- ./inp_files/33321.got.cif
#   From: 2010.05.17/outbox.cif.g08.bks.cpg/sg51_17_cif.got.tgz:33321.got - 2010.06.03 11:52:47.
