data_PCOD9402584
_publ_section_title
;
Structure prediction by ZEFSAII (Michael W. Deem and Ramdas Pophale) SiO2 
 PCOD9402584
Probable space group: P M M A
;
_chemical_formula_sum "Si O2"
_cell_formula_units_Z 56
_cell_length_a 7.619504
_cell_length_b 20.017503
_cell_length_c 18.957477
_cell_angle_alpha 90.000000
_cell_angle_beta 90.000000
_cell_angle_gamma 90.000000
_cell_volume 2891.459685
_symmetry_space_group_name_H-M "P M M A"
_symmetry_group_IT_number 51
_symmetry_cell_setting 'orthorhombic'
loop_
_space_group_symop_operation_xyz
x,y,z
1/2-x,-y,z
1/2+x,-y,-z
-x,y,-z
-x,-y,-z
1/2+x,y,-z
1/2-x,y,z
x,-y,z
loop_
_atom_site_type_symbol
_atom_site_label
_atom_site_fract_x
_atom_site_fract_y
_atom_site_fract_z
Si Si1 0.541022 0.650983 0.420495
Si Si2 0.963807 0.291456 0.786454
Si Si3 0.960407 0.790249 0.919647
Si Si4 0.956572 0.425942 0.718832
Si Si5 0.956101 0.785906 0.355674
Si Si6 0.538349 0.074132 0.312586
Si Si7 0.460774 0.926496 0.146352
O O1 0.500000 0.631457 0.500000
O O2 0.750000 0.652959 0.411162
O O3 0.472443 0.600620 0.361244
O O4 0.470219 0.725956 0.403798
O O5 0.750000 0.291447 0.784069
O O6 0.022489 0.262605 0.861267
O O7 0.027576 0.365730 0.767016
O O8 0.024891 0.242857 0.723636
O O9 0.750000 0.792571 0.912606
O O10 0.028774 0.863743 0.897825
O O11 0.000000 0.773767 0.000000
O O12 0.750000 0.430310 0.734819
O O13 0.032902 0.500000 0.726781
O O14 0.750000 0.791675 0.372824
O O15 0.029948 0.861016 0.354386
O O16 0.750000 0.073825 0.318793
O O17 0.497521 0.083118 0.229505
O O18 0.474196 0.000000 0.333210
O O19 0.250000 0.927930 0.138504
O O20 0.529124 0.000000 0.126073
#
# Coordination Sequence:
#
# PCOD9402584 Si02
#       7
#     8   8   8   8   8   8   8
#     4  10  20  33  49  72 101 131 158 186 221 267
#     4   9  17  31  49  69  92 118 153 192 230 275
#     4  10  20  31  44  64  90 123 158 194 234 275
#     4   9  18  33  54  77  98 122 151 185 227 274
#     4   9  17  29  47  69  92 120 156 194 232 271
#     4   9  16  26  43  67  91 116 150 193 238 279
#     4   9  17  29  43  61  88 120 153 191 235 279
#
# _framework density 19.367381000000002
#
# number of rings (size 3 to 8) (size 9 to 14) (size 15 to 20)
#    0.000    2.714    1.429    0.429    0.000    2.571 
#    0.000    0.000    0.000    0.857    0.000    0.000 
#    0.000    0.000    0.000    0.000    0.000    0.429 
#
# Total GULP energy -312186.775344 kJ/mol
# GULP energy per Si atom -5574.763845 kJ/mol
# Density = 1.932330 g / cm^3
# Si number density = 19.367381 Si / 1000 Ang^3
#
#
#
# Elastic Constant Matrix: (Units=GPa)
#
#
# Indices 1 2 3 4 5 6 
#
# 1 35.2443 0.5428 1.3532 0.0000 0.0000 0.0000
# 2 0.5428 149.9226 40.8066 0.0000 0.0000 0.0000
# 3 1.3532 40.8066 42.6974 0.0000 0.0000 0.0000
# 4 0.0000 0.0000 0.0000 39.3683 0.0000 0.0000
# 5 0.0000 0.0000 0.0000 0.0000 26.4231 0.0000
# 6 0.0000 0.0000 0.0000 0.0000 0.0000 9.4947
#
#
#
# Elastic Compliance Matrix: (Units=1/GPa)
#
#
# Indices 1 2 3 4 5 6 
#
# 1 0.028412 0.000192 -0.001084 0.000000 0.000000 0.000000
# 2 0.000192 0.009017 -0.008623 0.000000 0.000000 0.000000
# 3 -0.001084 -0.008623 0.031696 0.000000 0.000000 0.000000
# 4 0.000000 0.000000 0.000000 0.025401 0.000000 0.000000
# 5 0.000000 0.000000 0.000000 0.000000 0.037846 0.000000
# 6 0.000000 0.000000 0.000000 0.000000 0.000000 0.105322
#
#
# Mechanical properties :
#
#
# Convention : Reuss Voigt Hill
#
# Bulk Modulus (GPa) = 19.96228 34.80772 27.38500
# Shear Modulus (GPa) = 18.28673 27.40133 22.84403
#
# Velocity S-wave (km/s) = 3.07612 3.76549 3.43813
# Velocity P-wave (km/s) = 4.79022 6.07590 5.47096
#
# Compressibility (1/GPa) = 0.05009447
#
# Stress axis : x y z
#
# Youngs Moduli (GPa) = 35.19632 110.90710 31.54927
#
# Poissons Ratio (x) = -0.02132 0.03420
# Poissons Ratio (y) = -0.00677 0.27206
# Poissons Ratio (z) = 0.03816 0.95639
#
# Static dielectric constant tensor:
#      x y z
#    x 1.723220 0.000000 0.000000 
#    y 0.000000 1.733250 0.000000 
#    z 0.000000 0.000000 1.639040 
# 
# From -- ./inp_files/28202.got.cif
#   From: 2010.05.17/outbox.cif.g08.bks.cpg/sg51_15_cif.got.tgz:28202.got - 2010.06.03 11:52:47.
