data_PCOD9402667
_publ_section_title
;
Structure prediction by ZEFSAII (Michael W. Deem and Ramdas Pophale) SiO2 
 PCOD9402667
Probable space group: P M M A
;
_chemical_formula_sum "Si O2"
_cell_formula_units_Z 64
_cell_length_a 13.953362
_cell_length_b 13.851166
_cell_length_c 15.798313
_cell_angle_alpha 90.000000
_cell_angle_beta 90.000000
_cell_angle_gamma 90.000000
_cell_volume 3053.345219
_symmetry_space_group_name_H-M "P M M A"
_symmetry_group_IT_number 51
_symmetry_cell_setting 'orthorhombic'
loop_
_space_group_symop_operation_xyz
x,y,z
1/2-x,-y,z
1/2+x,-y,-z
-x,y,-z
-x,-y,-z
1/2+x,y,-z
1/2-x,y,z
x,-y,z
loop_
_atom_site_type_symbol
_atom_site_label
_atom_site_fract_x
_atom_site_fract_y
_atom_site_fract_z
Si Si1 0.859406 0.116707 0.666281
Si Si2 0.390640 0.298495 0.527219
Si Si3 0.566801 0.387395 0.298984
Si Si4 0.866227 0.111306 0.853582
Si Si5 0.149237 0.385785 0.351952
Si Si6 0.864506 0.198310 0.214504
Si Si7 0.067009 0.111309 0.613202
Si Si8 0.866342 0.113507 0.037938
O O1 0.750000 0.145775 0.643471
O O2 0.884533 0.154985 0.760915
O O3 0.952849 0.135966 0.609176
O O4 0.856399 0.000000 0.671996
O O5 0.500000 0.308124 0.500000
O O6 0.381816 0.365098 0.610620
O O7 0.343686 0.332534 0.441420
O O8 0.374395 0.189739 0.559754
O O9 0.578010 0.500000 0.277292
O O10 0.453044 0.364374 0.309857
O O11 0.607790 0.308230 0.235297
O O12 0.750000 0.107310 0.856195
O O13 0.900560 0.000000 0.851262
O O14 0.896634 0.151535 0.945117
O O15 0.250000 0.366973 0.304156
O O16 0.144905 0.500000 0.369531
O O17 0.750000 0.189300 0.216747
O O18 0.904238 0.130422 0.289538
O O19 0.900439 0.165144 0.122840
O O20 0.081861 0.000000 0.589287
O O21 0.750000 0.119234 0.039572
O O22 0.890308 0.000000 0.042281
#
# Coordination Sequence:
#
# PCOD9402667 Si02
#       8
#     8   8   8   8   8   8   8   8
#     4   8  14  27  47  69  95 128 164 204 252 298
#     4   9  18  32  47  68  95 122 154 189 229 277
#     4   9  18  33  52  75 100 122 149 192 247 300
#     4   7  10  19  39  66  93 123 160 202 248 292
#     4   9  17  32  57  83 101 118 144 188 250 309
#     4  10  20  32  45  64  94 133 172 203 236 281
#     4  10  20  32  46  67  96 129 167 206 240 281
#     4   8  13  23  41  65  95 132 170 205 240 279
#
# _framework density 20.960616000000002
#
# number of rings (size 3 to 8) (size 9 to 14) (size 15 to 20)
#    0.000    3.250    0.000    2.250    0.000    4.750 
#    0.000    6.250    0.000    3.750    0.000    5.250 
#    0.000   10.000    0.000   21.250    0.000    9.500 
#
# Total GULP energy -356940.613486 kJ/mol
# GULP energy per Si atom -5577.197086 kJ/mol
# Density = 2.091291 g / cm^3
# Si number density = 20.960616 Si / 1000 Ang^3
#
#
#
# Elastic Constant Matrix: (Units=GPa)
#
#
# Indices 1 2 3 4 5 6 
#
# 1 86.8916 3.9561 4.7824 0.0000 0.0000 0.0000
# 2 3.9561 81.6483 10.1216 0.0000 0.0000 0.0000
# 3 4.7824 10.1216 33.9648 0.0000 0.0000 0.0000
# 4 0.0000 0.0000 0.0000 10.2419 0.0000 0.0000
# 5 0.0000 0.0000 0.0000 0.0000 8.0159 0.0000
# 6 0.0000 0.0000 0.0000 0.0000 0.0000 -46.2788
#
#
#
# Elastic Compliance Matrix: (Units=1/GPa)
#
#
# Indices 1 2 3 4 5 6 
#
# 1 0.011609 -0.000374 -0.001523 0.000000 0.000000 0.000000
# 2 -0.000374 0.012729 -0.003741 0.000000 0.000000 0.000000
# 3 -0.001523 -0.003741 0.030771 0.000000 0.000000 0.000000
# 4 0.000000 0.000000 0.000000 0.097638 0.000000 0.000000
# 5 0.000000 0.000000 0.000000 0.000000 0.124752 0.000000
# 6 0.000000 0.000000 0.000000 0.000000 0.000000 -0.021608
#
#
# Mechanical properties :
#
#
# Convention : Reuss Voigt Hill
#
# Bulk Modulus (GPa) = 22.81288 26.69166 24.75227
# Shear Modulus (GPa) = 17.74437 6.63878 12.19158
#
# Velocity S-wave (km/s) = 2.91272 1.78161 2.41434
# Velocity P-wave (km/s) = 4.71373 4.12238 4.42794
#
# Compressibility (1/GPa) = 0.04383488
#
# Stress axis : x y z
#
# Youngs Moduli (GPa) = 86.13673 78.55780 32.49761
#
# Poissons Ratio (x) = 0.02936 0.04950
# Poissons Ratio (y) = 0.03219 0.12157
# Poissons Ratio (z) = 0.13121 0.29387
#
# Static dielectric constant tensor:
#      x y z
#    x 1.857010 0.000000 0.000000 
#    y 0.000000 1.741640 0.000000 
#    z 0.000000 0.000000 1.796350 
# 
# From -- ./inp_files/29991.got.cif
#   From: 2010.05.17/outbox.cif.g08.bks.cpg/sg51_15_cif.got.tgz:29991.got - 2010.06.03 11:52:47.
