data_PCOD9402891
_publ_section_title
;
Structure prediction by ZEFSAII (Michael W. Deem and Ramdas Pophale) SiO2 
 PCOD9402891
Probable space group: P M M A
;
_chemical_formula_sum "Si O2"
_cell_formula_units_Z 48
_cell_length_a 9.474608
_cell_length_b 7.871589
_cell_length_c 31.545466
_cell_angle_alpha 90.000000
_cell_angle_beta 90.000000
_cell_angle_gamma 90.000000
_cell_volume 2352.667798
_symmetry_space_group_name_H-M "P M M A"
_symmetry_group_IT_number 51
_symmetry_cell_setting 'orthorhombic'
loop_
_space_group_symop_operation_xyz
x,y,z
1/2-x,-y,z
1/2+x,-y,-z
-x,y,-z
-x,-y,-z
1/2+x,y,-z
1/2-x,y,z
x,-y,z
loop_
_atom_site_type_symbol
_atom_site_label
_atom_site_fract_x
_atom_site_fract_y
_atom_site_fract_z
Si Si1 0.090714 0.202511 0.960699
Si Si2 0.411740 0.205341 0.799043
Si Si3 0.909709 0.298856 0.879911
Si Si4 0.587492 0.292040 0.458513
Si Si5 0.590339 0.703407 0.622213
Si Si6 0.410855 0.205032 0.703086
O O1 0.250000 0.272018 0.959114
O O2 0.007940 0.228148 0.917049
O O3 0.102375 0.000000 0.967146
O O4 0.000000 0.272699 0.000000
O O5 0.250000 0.259403 0.808361
O O6 0.518746 0.265272 0.834648
O O7 0.446531 0.260905 0.751021
O O8 0.412335 0.000000 0.799414
O O9 0.750000 0.229629 0.881904
O O10 0.902947 0.500000 0.886227
O O11 0.500000 0.240411 0.500000
O O12 0.750000 0.236273 0.459841
O O13 0.589178 0.500000 0.458181
O O14 0.507559 0.233144 0.416159
O O15 0.750000 0.770803 0.620209
O O16 0.598247 0.500000 0.617088
O O17 0.517394 0.738040 0.667069
O O18 0.250000 0.261934 0.693656
O O19 0.409697 0.000000 0.703408
#
# Coordination Sequence:
#
# PCOD9402891 Si02
#       6
#     8   8   8   8   8   8
#     4  10  21  38  61  86 110 140 180 222 263 310
#     4   9  19  37  59  80 102 133 176 221 263 311
#     4  11  24  38  53  79 114 147 178 215 262 313
#     4   9  16  27  45  69  98 132 170 212 257 305
#     4  10  20  32  48  74 106 137 171 212 257 307
#     4   9  19  36  56  77 102 134 173 216 262 313
#
# _framework density 20.402369
#
# number of rings (size 3 to 8) (size 9 to 14) (size 15 to 20)
#    0.000    2.333    0.000    3.500    0.000    9.667 
#    0.000    5.000    0.000    0.500    0.000    0.000 
#    0.000    0.000    0.000    0.000    0.000    0.000 
#
# Total GULP energy -268069.560030 kJ/mol
# GULP energy per Si atom -5584.782501 kJ/mol
# Density = 2.035593 g / cm^3
# Si number density = 20.402369 Si / 1000 Ang^3
#
#
#
# Elastic Constant Matrix: (Units=GPa)
#
#
# Indices 1 2 3 4 5 6 
#
# 1 212.5529 8.0639 124.8320 0.0000 0.0000 0.0000
# 2 8.0639 18.9076 -2.8792 0.0000 0.0000 0.0000
# 3 124.8320 -2.8792 149.1916 0.0000 0.0000 0.0000
# 4 0.0000 0.0000 0.0000 19.0317 0.0000 0.0000
# 5 0.0000 0.0000 0.0000 0.0000 40.6235 0.0000
# 6 0.0000 0.0000 0.0000 0.0000 0.0000 -6.1350
#
#
#
# Elastic Compliance Matrix: (Units=1/GPa)
#
#
# Indices 1 2 3 4 5 6 
#
# 1 0.009777 -0.005431 -0.008285 0.000000 0.000000 0.000000
# 2 -0.005431 0.056062 0.005626 0.000000 0.000000 0.000000
# 3 -0.008285 0.005626 0.013744 0.000000 0.000000 0.000000
# 4 0.000000 0.000000 0.000000 0.052544 0.000000 0.000000
# 5 0.000000 0.000000 0.000000 0.000000 0.024616 0.000000
# 6 0.000000 0.000000 0.000000 0.000000 0.000000 -0.162998
#
#
# Mechanical properties :
#
#
# Convention : Reuss Voigt Hill
#
# Bulk Modulus (GPa) = 15.77229 71.18728 43.47978
# Shear Modulus (GPa) = 160.98735 27.41306 94.20020
#
# Velocity S-wave (km/s) = 8.89255 3.66952 6.80231
# Velocity P-wave (km/s) = 10.63880 7.27470 9.11332
#
# Compressibility (1/GPa) = 0.06340235
#
# Stress axis : x y z
#
# Youngs Moduli (GPa) = 102.28500 17.83739 72.76050
#
# Poissons Ratio (x) = 0.09688 0.60283
# Poissons Ratio (y) = 0.55554 -0.40938
# Poissons Ratio (z) = 0.84744 -0.10036
#
# Static dielectric constant tensor:
#      x y z
#    x 1.715440 0.000000 0.000000 
#    y 0.000000 1.753880 0.000000 
#    z 0.000000 0.000000 1.687790 
# 
# From -- ./inp_files/36998.got.cif
#   From: 2010.05.17/outbox.cif.g08.bks.cpg/sg51_19_cif.got.tgz:36998.got - 2010.06.03 11:52:47.
