data_PCOD9402113
_publ_section_title
;
Structure prediction by ZEFSAII (Michael W. Deem and Ramdas Pophale) SiO2 
 PCOD9402113
Probable space group: P M M A
;
_chemical_formula_sum "Si O2"
_cell_formula_units_Z 56
_cell_length_a 14.322447
_cell_length_b 15.944038
_cell_length_c 12.116643
_cell_angle_alpha 90.000000
_cell_angle_beta 90.000000
_cell_angle_gamma 90.000000
_cell_volume 2766.927991
_symmetry_space_group_name_H-M "P M M A"
_symmetry_group_IT_number 51
_symmetry_cell_setting 'orthorhombic'
loop_
_space_group_symop_operation_xyz
x,y,z
1/2-x,-y,z
1/2+x,-y,-z
-x,y,-z
-x,-y,-z
1/2+x,y,-z
1/2-x,y,z
x,-y,z
loop_
_atom_site_type_symbol
_atom_site_label
_atom_site_fract_x
_atom_site_fract_y
_atom_site_fract_z
Si Si1 0.148853 0.143087 0.689120
Si Si2 0.444749 0.090081 0.323421
Si Si3 0.136061 0.405149 0.556884
Si Si4 0.635819 0.404714 0.187508
Si Si5 0.636970 0.906992 0.922062
Si Si6 0.856339 0.761172 0.540151
Si Si7 0.858091 0.240719 0.079790
O O1 0.250000 0.099700 0.688409
O O2 0.147971 0.205216 0.585007
O O3 0.142738 0.195074 0.801840
O O4 0.056172 0.089591 0.680701
O O5 0.404545 0.097582 0.200254
O O6 0.413579 0.170878 0.391803
O O7 0.411108 0.000000 0.370155
O O8 0.250000 0.400912 0.557413
O O9 0.110142 0.500000 0.526173
O O10 0.107465 0.390299 0.684494
O O11 0.105810 0.333014 0.472179
O O12 0.750000 0.400346 0.187524
O O13 0.610216 0.500000 0.157490
O O14 0.599996 0.332071 0.105968
O O15 0.750000 0.904341 0.916129
O O16 0.613101 0.000000 0.968929
O O17 0.604756 0.827732 0.993801
O O18 0.750000 0.759796 0.584072
O O19 0.750000 0.254883 0.046314
#
# Coordination Sequence:
#
# PCOD9402113 Si02
#       7
#     8   8   8   8   8   8   8
#     4  10  21  36  55  80 107 137 177 231 290 332
#     4  11  24  39  54  74 105 149 195 229 267 329
#     4   8  13  24  48  82 114 143 177 218 267 324
#     4   8  12  21  44  79 113 141 172 212 262 324
#     4   9  19  36  56  77 103 140 185 225 264 320
#     4  10  19  34  57  82 112 146 182 224 269 323
#     4   9  16  30  53  80 109 136 171 224 277 319
#
# _framework density 20.239052999999998
#
# number of rings (size 3 to 8) (size 9 to 14) (size 15 to 20)
#    0.000    2.714    1.429    1.714    0.000    3.429 
#    0.000    4.286    0.000    3.429    0.000    5.000 
#    0.000    0.000    0.000    0.000    0.000    0.000 
#
# Total GULP energy -312234.254048 kJ/mol
# GULP energy per Si atom -5575.611679 kJ/mol
# Density = 2.019299 g / cm^3
# Si number density = 20.239053 Si / 1000 Ang^3
#
#
#
# Elastic Constant Matrix: (Units=GPa)
#
#
# Indices 1 2 3 4 5 6 
#
# 1 78.7102 35.3805 13.4497 0.0000 0.0000 0.0000
# 2 35.3805 192.2077 53.3781 0.0000 0.0000 0.0000
# 3 13.4497 53.3781 51.0276 0.0000 0.0000 0.0000
# 4 0.0000 0.0000 0.0000 13.0513 0.0000 0.0000
# 5 0.0000 0.0000 0.0000 0.0000 -218.0630 0.0000
# 6 0.0000 0.0000 0.0000 0.0000 0.0000 -0.5636
#
#
#
# Elastic Compliance Matrix: (Units=1/GPa)
#
#
# Indices 1 2 3 4 5 6 
#
# 1 0.013921 -0.002175 -0.001394 0.000000 0.000000 0.000000
# 2 -0.002175 0.007673 -0.007453 0.000000 0.000000 0.000000
# 3 -0.001394 -0.007453 0.027761 0.000000 0.000000 0.000000
# 4 0.000000 0.000000 0.000000 0.076621 0.000000 0.000000
# 5 0.000000 0.000000 0.000000 0.000000 -0.004586 0.000000
# 6 0.000000 0.000000 0.000000 0.000000 0.000000 -1.774186
#
#
# Mechanical properties :
#
#
# Convention : Reuss Voigt Hill
#
# Bulk Modulus (GPa) = 36.61573 58.48467 47.55020
# Shear Modulus (GPa) = -3.08328 -26.46593 -14.77460
#
# Velocity S-wave (km/s) = -1.23561 -3.62009 -2.70479
# Velocity P-wave (km/s) = 4.01189 3.38914 3.71359
#
# Compressibility (1/GPa) = 0.02731067
#
# Stress axis : x y z
#
# Youngs Moduli (GPa) = 71.83474 130.32839 36.02197
#
# Poissons Ratio (x) = 0.28353 0.05020
# Poissons Ratio (y) = 0.15627 0.26847
# Poissons Ratio (z) = 0.10010 0.97133
#
# Static dielectric constant tensor:
#      x y z
#    x 1.742670 0.000000 0.000000 
#    y 0.000000 1.771870 0.000000 
#    z 0.000000 0.000000 1.677780 
# 
# From -- ./inp_files/16618.got.cif
#   From: 2010.05.17/outbox.cif.g08.bks.cpg/sg51_9_cif.got.tgz:16618.got - 2010.06.03 11:52:47.
