data_PCOD9402197
_publ_section_title
;
Structure prediction by ZEFSAII (Michael W. Deem and Ramdas Pophale) SiO2 
 PCOD9402197
Probable space group: P M M A
;
_chemical_formula_sum "Si O2"
_cell_formula_units_Z 48
_cell_length_a 27.915596
_cell_length_b 14.116737
_cell_length_c 6.621461
_cell_angle_alpha 90.000000
_cell_angle_beta 90.000000
_cell_angle_gamma 90.000000
_cell_volume 2609.366327
_symmetry_space_group_name_H-M "P M M A"
_symmetry_group_IT_number 51
_symmetry_cell_setting 'orthorhombic'
loop_
_space_group_symop_operation_xyz
x,y,z
1/2-x,-y,z
1/2+x,-y,-z
-x,y,-z
-x,-y,-z
1/2+x,y,-z
1/2-x,y,z
x,-y,z
loop_
_atom_site_type_symbol
_atom_site_label
_atom_site_fract_x
_atom_site_fract_y
_atom_site_fract_z
Si Si1 0.193294 0.731763 0.826680
Si Si2 0.856731 0.891466 0.444379
Si Si3 0.869206 0.745010 0.788661
Si Si4 0.033058 0.897477 0.696613
Si Si5 0.045225 0.705666 0.903594
Si Si6 0.119058 0.388201 0.596056
O O1 0.250000 0.725734 0.812932
O O2 0.174044 0.824398 0.704304
O O3 0.165947 0.644471 0.720622
O O4 0.174777 0.733772 0.056859
O O5 0.861045 0.841093 0.662129
O O6 0.910973 0.892133 0.361255
O O7 0.839689 0.000000 0.454293
O O8 0.876229 0.664901 0.617929
O O9 0.915828 0.737922 0.930492
O O10 0.023245 0.801334 0.811660
O O11 0.000000 0.897211 0.500000
O O12 0.025745 0.000000 0.797912
O O13 0.074301 0.651313 0.727943
O O14 0.000000 0.651443 0.000000
O O15 0.115761 0.500000 0.573251
#
# Coordination Sequence:
#
# PCOD9402197 Si02
#       6
#     8   8   8   8   8   8
#     4  10  22  41  63  88 118 155 199 250 308 368
#     4  10  20  37  59  86 125 163 198 244 294 350
#     4  10  20  38  59  89 115 160 197 248 295 361
#     4  10  19  34  58  89 122 160 202 240 284 343
#     4  11  22  36  62  88 124 161 201 244 298 351
#     4  10  23  43  62  86 117 152 196 253 311 364
#
# _framework density 18.395271999999999
#
# number of rings (size 3 to 8) (size 9 to 14) (size 15 to 20)
#    0.000    1.833    5.000    1.000    0.000    8.000 
#    0.000    0.833    0.000    0.000    0.000    0.000 
#    0.000    0.000    0.000    0.000    0.000    0.000 
#
# Total GULP energy -267672.644742 kJ/mol
# GULP energy per Si atom -5576.513432 kJ/mol
# Density = 1.835340 g / cm^3
# Si number density = 18.395272 Si / 1000 Ang^3
#
#
#
# Elastic Constant Matrix: (Units=GPa)
#
#
# Indices 1 2 3 4 5 6 
#
# 1 98.2869 11.7803 15.6963 0.0000 0.0000 0.0000
# 2 11.7803 121.6457 36.5344 0.0000 0.0000 0.0000
# 3 15.6963 36.5344 90.5334 0.0000 0.0000 0.0000
# 4 0.0000 0.0000 0.0000 -35.6074 0.0000 0.0000
# 5 0.0000 0.0000 0.0000 0.0000 19.2884 0.0000
# 6 0.0000 0.0000 0.0000 0.0000 0.0000 0.5934
#
#
#
# Elastic Compliance Matrix: (Units=1/GPa)
#
#
# Indices 1 2 3 4 5 6 
#
# 1 0.010494 -0.000535 -0.001604 0.000000 0.000000 0.000000
# 2 -0.000535 0.009382 -0.003693 0.000000 0.000000 0.000000
# 3 -0.001604 -0.003693 0.012814 0.000000 0.000000 0.000000
# 4 0.000000 0.000000 0.000000 -0.028084 0.000000 0.000000
# 5 0.000000 0.000000 0.000000 0.000000 0.051845 0.000000
# 6 0.000000 0.000000 0.000000 0.000000 0.000000 1.685307
#
#
# Mechanical properties :
#
#
# Convention : Reuss Voigt Hill
#
# Bulk Modulus (GPa) = 47.55798 48.72090 48.13944
# Shear Modulus (GPa) = 2.84022 13.28522 8.06272
#
# Velocity S-wave (km/s) = 1.24392 2.69031 2.09584
# Velocity P-wave (km/s) = 5.28892 6.01610 5.66419
#
# Compressibility (1/GPa) = 0.02102697
#
# Stress axis : x y z
#
# Youngs Moduli (GPa) = 95.28810 106.59202 78.03918
#
# Poissons Ratio (x) = 0.05699 0.12515
# Poissons Ratio (y) = 0.05094 0.28821
# Poissons Ratio (z) = 0.15282 0.39367
#
# Static dielectric constant tensor:
#      x y z
#    x 1.625050 0.000000 0.000000 
#    y 0.000000 1.636130 0.000000 
#    z 0.000000 0.000000 1.663580 
# 
# From -- ./inp_files/3526.got.cif
#   From: 2010.05.17/outbox.cif.g08.bks.cpg/sg51_2_cif.got.tgz:3526.got - 2010.06.03 11:52:47.
