data_PCOD9402740
_publ_section_title
;
Structure prediction by ZEFSAII (Michael W. Deem and Ramdas Pophale) SiO2 
 PCOD9402740
Probable space group: P M M A
;
_chemical_formula_sum "Si O2"
_cell_formula_units_Z 64
_cell_length_a 24.078592
_cell_length_b 9.375805
_cell_length_c 15.560988
_cell_angle_alpha 90.000000
_cell_angle_beta 90.000000
_cell_angle_gamma 90.000000
_cell_volume 3512.989259
_symmetry_space_group_name_H-M "P M M A"
_symmetry_group_IT_number 51
_symmetry_cell_setting 'orthorhombic'
loop_
_space_group_symop_operation_xyz
x,y,z
1/2-x,-y,z
1/2+x,-y,-z
-x,y,-z
-x,-y,-z
1/2+x,y,-z
1/2-x,y,z
x,-y,z
loop_
_atom_site_type_symbol
_atom_site_label
_atom_site_fract_x
_atom_site_fract_y
_atom_site_fract_z
Si Si1 0.897260 0.161338 0.190248
Si Si2 0.368372 0.336507 0.650919
Si Si3 0.064124 0.330234 0.976759
Si Si4 0.023263 0.157429 0.254394
Si Si5 0.110295 0.332599 0.161357
Si Si6 0.683632 0.168769 0.702103
Si Si7 0.001717 0.656960 0.601277
Si Si8 0.683084 0.666072 0.529110
O O1 0.861858 0.243593 0.262973
O O2 0.908832 0.247830 0.103006
O O3 0.958985 0.150007 0.230426
O O4 0.877104 0.000000 0.174495
O O5 0.349432 0.500000 0.665335
O O6 0.434126 0.342232 0.630230
O O7 0.340024 0.282621 0.562943
O O8 0.118870 0.500000 0.176407
O O9 0.103497 0.308677 0.059722
O O10 0.000000 0.285410 0.000000
O O11 0.051582 0.277932 0.197620
O O12 0.028254 0.214599 0.350839
O O13 0.047376 0.000000 0.241141
O O14 0.938818 0.500000 0.041867
O O15 0.154093 0.242243 0.216583
O O16 0.750000 0.188597 0.709453
O O17 0.665731 0.244673 0.612885
O O18 0.672637 0.000000 0.698585
O O19 0.978442 0.500000 0.624544
O O20 0.000000 0.671526 0.500000
O O21 0.750000 0.669630 0.525525
O O22 0.665472 0.500000 0.538997
#
# Coordination Sequence:
#
# PCOD9402740 Si02
#       8
#     8   8   8   8   8   8   8   8
#     4  10  20  33  51  75 108 143 175 217 263 314
#     4   9  18  32  50  72 102 139 175 217 265 313
#     4  10  20  35  55  79 107 141 180 220 262 315
#     4  10  20  32  46  71 104 138 174 213 261 312
#     4  11  22  35  56  80 104 139 181 224 268 317
#     4  10  22  39  57  80 111 143 175 219 273 323
#     4   9  18  30  44  65  96 137 179 214 252 308
#     4   9  18  34  57  83 107 137 181 227 269 319
#
# _framework density 18.218101999999998
#
# number of rings (size 3 to 8) (size 9 to 14) (size 15 to 20)
#    0.000    2.250    1.250    1.500    1.750    3.750 
#    0.000    0.000    0.000    0.750    0.000    1.750 
#    0.000    0.000    0.000    0.000    0.000    0.000 
#
# Total GULP energy -356716.896107 kJ/mol
# GULP energy per Si atom -5573.701502 kJ/mol
# Density = 1.817664 g / cm^3
# Si number density = 18.218102 Si / 1000 Ang^3
#
#
#
# Elastic Constant Matrix: (Units=GPa)
#
#
# Indices 1 2 3 4 5 6 
#
# 1 26.9515 19.3734 21.7617 0.0000 0.0000 0.0000
# 2 19.3734 101.2694 94.3750 0.0000 0.0000 0.0000
# 3 21.7617 94.3750 145.0878 0.0000 0.0000 0.0000
# 4 0.0000 0.0000 0.0000 11.1286 0.0000 0.0000
# 5 0.0000 0.0000 0.0000 0.0000 22.8022 0.0000
# 6 0.0000 0.0000 0.0000 0.0000 0.0000 18.8064
#
#
#
# Elastic Compliance Matrix: (Units=1/GPa)
#
#
# Indices 1 2 3 4 5 6 
#
# 1 0.043469 -0.005687 -0.002820 0.000000 0.000000 0.000000
# 2 -0.005687 0.025818 -0.015941 0.000000 0.000000 0.000000
# 3 -0.002820 -0.015941 0.017685 0.000000 0.000000 0.000000
# 4 0.000000 0.000000 0.000000 0.089858 0.000000 0.000000
# 5 0.000000 0.000000 0.000000 0.000000 0.043855 0.000000
# 6 0.000000 0.000000 0.000000 0.000000 0.000000 0.053173
#
#
# Mechanical properties :
#
#
# Convention : Reuss Voigt Hill
#
# Bulk Modulus (GPa) = 26.26435 60.48100 43.37267
# Shear Modulus (GPa) = 14.90539 19.73401 17.31970
#
# Velocity S-wave (km/s) = 2.86346 3.29478 3.08667
# Velocity P-wave (km/s) = 5.03790 6.90974 6.04669
#
# Compressibility (1/GPa) = 0.03807443
#
# Stress axis : x y z
#
# Youngs Moduli (GPa) = 23.00473 38.73193 56.54644
#
# Poissons Ratio (x) = 0.22029 0.15949
# Poissons Ratio (y) = 0.13084 0.90141
# Poissons Ratio (z) = 0.06488 0.61743
#
# Static dielectric constant tensor:
#      x y z
#    x 1.671750 0.000000 0.000000 
#    y 0.000000 1.641900 0.000000 
#    z 0.000000 0.000000 1.629300 
# 
# From -- ./inp_files/26201.got.cif
#   From: 2010.05.17/outbox.cif.g08.bks.cpg/sg51_14_cif.got.tgz:26201.got - 2010.06.03 11:52:47.
