data_PCOD9402398
_publ_section_title
;
Structure prediction by ZEFSAII (Michael W. Deem and Ramdas Pophale) SiO2 
 PCOD9402398
Probable space group: P M M A
;
_chemical_formula_sum "Si O2"
_cell_formula_units_Z 40
_cell_length_a 29.273136
_cell_length_b 8.760103
_cell_length_c 8.053287
_cell_angle_alpha 90.000000
_cell_angle_beta 90.000000
_cell_angle_gamma 90.000000
_cell_volume 2065.150180
_symmetry_space_group_name_H-M "P M M A"
_symmetry_group_IT_number 51
_symmetry_cell_setting 'orthorhombic'
loop_
_space_group_symop_operation_xyz
x,y,z
1/2-x,-y,z
1/2+x,-y,-z
-x,y,-z
-x,-y,-z
1/2+x,y,-z
1/2-x,y,z
x,-y,z
loop_
_atom_site_type_symbol
_atom_site_label
_atom_site_fract_x
_atom_site_fract_y
_atom_site_fract_z
Si Si1 0.948687 0.683685 0.946142
Si Si2 0.196450 0.683598 0.243415
Si Si3 0.549385 0.685432 0.560321
Si Si4 0.643290 0.819101 0.070827
Si Si5 0.354722 0.684425 0.582056
O O1 0.943946 0.500000 0.964416
O O2 0.942891 0.723636 0.752622
O O3 0.908816 0.761991 0.049024
O O4 0.000000 0.723850 0.000000
O O5 0.250000 0.720154 0.240703
O O6 0.191068 0.500000 0.230325
O O7 0.174259 0.728680 0.419683
O O8 0.170744 0.756629 0.087762
O O9 0.500000 0.741217 0.500000
O O10 0.548226 0.500000 0.551442
O O11 0.592938 0.734069 0.453652
O O12 0.661491 0.752953 0.244603
O O13 0.645032 0.000000 0.073095
O O14 0.353820 0.500000 0.594121
#
# Coordination Sequence:
#
# PCOD9402398 Si02
#       5
#     8   8   8   8   8
#     4  10  19  35  61  89 120 161 212 263 305 353
#     4  10  22  43  70  94 116 152 208 268 314 356
#     4   9  16  29  54  88 118 149 195 252 305 349
#     4  12  25  39  59  90 133 171 200 243 309 382
#     4  10  20  38  63  89 121 157 207 262 302 352
#
# _framework density 19.369052
#
# number of rings (size 3 to 8) (size 9 to 14) (size 15 to 20)
#    0.000    1.800    2.000    3.000    0.000    5.600 
#    0.000    2.000    0.000    2.400    0.000    0.000 
#    0.000    0.000    0.000    0.000    0.000    0.000 
#
# Total GULP energy -223477.242332 kJ/mol
# GULP energy per Si atom -5586.931058 kJ/mol
# Density = 1.932497 g / cm^3
# Si number density = 19.369052 Si / 1000 Ang^3
#
#
#
# Elastic Constant Matrix: (Units=GPa)
#
#
# Indices 1 2 3 4 5 6 
#
# 1 111.3356 48.3857 75.1030 0.0000 0.0000 0.0000
# 2 48.3857 29.2987 50.1953 0.0000 0.0000 0.0000
# 3 75.1030 50.1953 176.7625 0.0000 0.0000 0.0000
# 4 0.0000 0.0000 0.0000 -6.5232 0.0000 0.0000
# 5 0.0000 0.0000 0.0000 0.0000 24.9010 0.0000
# 6 0.0000 0.0000 0.0000 0.0000 0.0000 -3.4164
#
#
#
# Elastic Compliance Matrix: (Units=1/GPa)
#
#
# Indices 1 2 3 4 5 6 
#
# 1 0.032511 -0.058472 0.002791 0.000000 0.000000 0.000000
# 2 -0.058472 0.171633 -0.023895 0.000000 0.000000 0.000000
# 3 0.002791 -0.023895 0.011257 0.000000 0.000000 0.000000
# 4 0.000000 0.000000 0.000000 -0.153298 0.000000 0.000000
# 5 0.000000 0.000000 0.000000 0.000000 0.040159 0.000000
# 6 0.000000 0.000000 0.000000 0.000000 0.000000 -0.292702
#
#
# Mechanical properties :
#
#
# Convention : Reuss Voigt Hill
#
# Bulk Modulus (GPa) = 17.77813 73.86277 45.82045
# Shear Modulus (GPa) = -398.75186 12.57310 -193.08938
#
# Velocity S-wave (km/s) = -14.36376 2.55057 -9.99530
# Velocity P-wave (km/s) = 16.30618 6.84771 10.46423
#
# Compressibility (1/GPa) = 0.05624889
#
# Stress axis : x y z
#
# Youngs Moduli (GPa) = 30.75928 5.82638 88.83434
#
# Poissons Ratio (x) = 0.34068 -0.24795
# Poissons Ratio (y) = 1.79855 2.12271
# Poissons Ratio (z) = -0.08585 0.13922
#
# Static dielectric constant tensor:
#      x y z
#    x 1.677530 0.000000 0.000000 
#    y 0.000000 1.649140 0.000000 
#    z 0.000000 0.000000 1.671260 
# 
# From -- ./inp_files/12094.got.cif
#   From: 2010.05.17/outbox.cif.g08.bks.cpg/sg51_7_cif.got.tgz:12094.got - 2010.06.03 11:52:47.
