data_PCOD9402381
_publ_section_title
;
Structure prediction by ZEFSAII (Michael W. Deem and Ramdas Pophale) SiO2 
 PCOD9402381
Probable space group: P M M A
;
_chemical_formula_sum "Si O2"
_cell_formula_units_Z 40
_cell_length_a 8.555111
_cell_length_b 12.211251
_cell_length_c 20.993142
_cell_angle_alpha 90.000000
_cell_angle_beta 90.000000
_cell_angle_gamma 90.000000
_cell_volume 2193.124317
_symmetry_space_group_name_H-M "P M M A"
_symmetry_group_IT_number 51
_symmetry_cell_setting 'orthorhombic'
loop_
_space_group_symop_operation_xyz
x,y,z
1/2-x,-y,z
1/2+x,-y,-z
-x,y,-z
-x,-y,-z
1/2+x,y,-z
1/2-x,y,z
x,-y,z
loop_
_atom_site_type_symbol
_atom_site_label
_atom_site_fract_x
_atom_site_fract_y
_atom_site_fract_z
Si Si1 0.437614 0.270715 0.431004
Si Si2 0.561262 0.736801 0.812808
Si Si3 0.437016 0.874463 0.929701
Si Si4 0.436337 0.500000 0.619984
Si Si5 0.060608 0.500000 0.235616
Si Si6 0.940583 0.125493 0.688970
O O1 0.500000 0.237817 0.500000
O O2 0.250000 0.272783 0.431948
O O3 0.498202 0.391396 0.413443
O O4 0.489261 0.188796 0.374811
O O5 0.750000 0.740131 0.815083
O O6 0.497330 0.791955 0.876353
O O7 0.514772 0.611034 0.800650
O O8 0.509756 0.807612 0.751440
O O9 0.250000 0.872683 0.931039
O O10 0.488062 0.000000 0.914731
O O11 0.500000 0.847929 0.000000
O O12 0.250000 0.500000 0.616567
O O13 0.491500 0.500000 0.693419
O O14 0.250000 0.500000 0.242153
O O15 0.750000 0.125103 0.689282
O O16 0.993485 0.000000 0.690650
#
# Coordination Sequence:
#
# PCOD9402381 Si02
#       6
#     8   8   8   4   4   8
#     4  11  22  38  57  80 112 146 187 234 284 340
#     4  10  19  35  60  86 114 147 188 231 278 334
#     4  10  21  37  58  86 119 153 190 232 277 325
#     4  12  23  37  58  83 110 143 186 235 286 335
#     4  10  20  37  60  87 114 149 186 227 280 333
#     4   9  18  33  56  83 110 145 186 227 277 338
#
# _framework density 18.238821000000002
#
# number of rings (size 3 to 8) (size 9 to 14) (size 15 to 20)
#    0.000    1.800    2.000    3.000    0.000    3.200 
#    0.000    0.500    0.000    3.000    0.000    0.000 
#    0.000    0.000    0.000    0.000    0.000    0.000 
#
# Total GULP energy -223453.529136 kJ/mol
# GULP energy per Si atom -5586.338228 kJ/mol
# Density = 1.819731 g / cm^3
# Si number density = 18.238821 Si / 1000 Ang^3
#
#
#
# Elastic Constant Matrix: (Units=GPa)
#
#
# Indices 1 2 3 4 5 6 
#
# 1 34.9997 30.3113 32.8312 0.0000 0.0000 0.0000
# 2 30.3113 160.3164 96.1618 0.0000 0.0000 0.0000
# 3 32.8312 96.1618 161.4449 0.0000 0.0000 0.0000
# 4 0.0000 0.0000 0.0000 32.3916 0.0000 0.0000
# 5 0.0000 0.0000 0.0000 0.0000 34.3774 0.0000
# 6 0.0000 0.0000 0.0000 0.0000 0.0000 8.9516
#
#
#
# Elastic Compliance Matrix: (Units=1/GPa)
#
#
# Indices 1 2 3 4 5 6 
#
# 1 0.036764 -0.003838 -0.005190 0.000000 0.000000 0.000000
# 2 -0.003838 0.010106 -0.005239 0.000000 0.000000 0.000000
# 3 -0.005190 -0.005239 0.010370 0.000000 0.000000 0.000000
# 4 0.000000 0.000000 0.000000 0.030872 0.000000 0.000000
# 5 0.000000 0.000000 0.000000 0.000000 0.029089 0.000000
# 6 0.000000 0.000000 0.000000 0.000000 0.000000 0.111711
#
#
# Mechanical properties :
#
#
# Convention : Reuss Voigt Hill
#
# Bulk Modulus (GPa) = 34.83606 75.04108 54.93857
# Shear Modulus (GPa) = 18.72554 28.30791 23.51673
#
# Velocity S-wave (km/s) = 3.20767 3.94391 3.59469
# Velocity P-wave (km/s) = 5.73239 7.87224 6.88594
#
# Compressibility (1/GPa) = 0.02870589
#
# Stress axis : x y z
#
# Youngs Moduli (GPa) = 27.20035 98.95468 96.43207
#
# Poissons Ratio (x) = 0.37976 0.50053
# Poissons Ratio (y) = 0.10439 0.50519
# Poissons Ratio (z) = 0.14118 0.51840
#
# Static dielectric constant tensor:
#      x y z
#    x 1.626460 0.000000 0.000000 
#    y 0.000000 1.615740 0.000000 
#    z 0.000000 0.000000 1.593520 
# 
# From -- ./inp_files/31469.got.cif
#   From: 2010.05.17/outbox.cif.g08.bks.cpg/sg51_16_cif.got.tgz:31469.got - 2010.06.03 11:52:47.
