data_PCOD9402819
_publ_section_title
;
Structure prediction by ZEFSAII (Michael W. Deem and Ramdas Pophale) SiO2 
 PCOD9402819
Probable space group: P M M A
;
_chemical_formula_sum "Si O2"
_cell_formula_units_Z 64
_cell_length_a 22.138309
_cell_length_b 8.043748
_cell_length_c 18.234998
_cell_angle_alpha 90.000000
_cell_angle_beta 90.000000
_cell_angle_gamma 90.000000
_cell_volume 3247.196881
_symmetry_space_group_name_H-M "P M M A"
_symmetry_group_IT_number 51
_symmetry_cell_setting 'orthorhombic'
loop_
_space_group_symop_operation_xyz
x,y,z
1/2-x,-y,z
1/2+x,-y,-z
-x,y,-z
-x,-y,-z
1/2+x,y,-z
1/2-x,y,z
x,-y,z
loop_
_atom_site_type_symbol
_atom_site_label
_atom_site_fract_x
_atom_site_fract_y
_atom_site_fract_z
Si Si1 0.524660 0.809012 0.581670
Si Si2 0.577120 0.309144 0.315068
Si Si3 0.682807 0.701620 0.417609
Si Si4 0.982134 0.806203 0.793436
Si Si5 0.659810 0.307537 0.581097
Si Si6 0.183235 0.302169 0.098761
Si Si7 0.552944 0.692926 0.948847
Si Si8 0.851456 0.804128 0.740215
O O1 0.500000 0.822508 0.500000
O O2 0.476680 0.704371 0.626463
O O3 0.588299 0.719922 0.579071
O O4 0.530322 0.000000 0.611111
O O5 0.590444 0.500000 0.296048
O O6 0.633648 0.234520 0.359676
O O7 0.546015 0.223264 0.245548
O O8 0.750000 0.731850 0.390150
O O9 0.673154 0.500000 0.422410
O O10 0.679449 0.764688 0.501924
O O11 0.973225 0.702271 0.866744
O O12 0.923736 0.763799 0.742538
O O13 0.976201 0.000000 0.812294
O O14 0.676967 0.500000 0.581123
O O15 0.676690 0.239068 0.661326
O O16 0.250000 0.235748 0.077807
O O17 0.183687 0.500000 0.085534
O O18 0.121662 0.235885 0.059556
O O19 0.175158 0.277639 0.186534
O O20 0.560017 0.500000 0.971613
O O21 0.500000 0.768291 0.000000
O O22 0.845055 0.000000 0.750297
#
# Coordination Sequence:
#
# PCOD9402819 Si02
#       8
#     8   8   8   8   8   8   8   8
#     4  11  21  31  46  70 101 130 162 212 269 316
#     4  11  20  32  54  76  95 126 170 216 260 311
#     4   9  20  36  50  68  94 127 172 224 273 317
#     4  10  20  33  51  78 109 137 164 204 259 313
#     4  11  20  31  50  72  97 132 176 221 266 318
#     4   9  18  33  53  77 106 142 179 214 255 306
#     4   9  18  34  57  84 112 140 174 214 252 303
#     4  10  20  32  47  72 106 140 171 211 259 309
#
# _framework density 19.709308
#
# number of rings (size 3 to 8) (size 9 to 14) (size 15 to 20)
#    0.000    2.000    2.500    1.875    0.000    2.500 
#    0.000    1.250    0.000    6.375    0.000    3.500 
#    0.000    0.000    0.000    0.000    0.000    0.000 
#
# Total GULP energy -356619.413470 kJ/mol
# GULP energy per Si atom -5572.178335 kJ/mol
# Density = 1.966445 g / cm^3
# Si number density = 19.709308 Si / 1000 Ang^3
#
#
#
# Elastic Constant Matrix: (Units=GPa)
#
#
# Indices 1 2 3 4 5 6 
#
# 1 148.9827 0.2240 44.7920 0.0000 0.0000 0.0000
# 2 0.2240 27.5869 3.2775 0.0000 0.0000 0.0000
# 3 44.7920 3.2775 51.5762 0.0000 0.0000 0.0000
# 4 0.0000 0.0000 0.0000 -6.2770 0.0000 0.0000
# 5 0.0000 0.0000 0.0000 0.0000 -1.7878 0.0000
# 6 0.0000 0.0000 0.0000 0.0000 0.0000 -251.2203
#
#
#
# Elastic Compliance Matrix: (Units=1/GPa)
#
#
# Indices 1 2 3 4 5 6 
#
# 1 0.009105 0.000872 -0.007963 0.000000 0.000000 0.000000
# 2 0.000872 0.036608 -0.003084 0.000000 0.000000 0.000000
# 3 -0.007963 -0.003084 0.026500 0.000000 0.000000 0.000000
# 4 0.000000 0.000000 0.000000 -0.159311 0.000000 0.000000
# 5 0.000000 0.000000 0.000000 0.000000 -0.559359 0.000000
# 6 0.000000 0.000000 0.000000 0.000000 0.000000 -0.003981
#
#
# Mechanical properties :
#
#
# Convention : Reuss Voigt Hill
#
# Bulk Modulus (GPa) = 19.28095 36.08142 27.68119
# Shear Modulus (GPa) = -8.15926 -39.86687 -24.01306
#
# Velocity S-wave (km/s) = -2.03686 -4.50237 -3.49429
# Velocity P-wave (km/s) = 2.06693 2.94651 1.48488
#
# Compressibility (1/GPa) = 0.05186466
#
# Stress axis : x y z
#
# Youngs Moduli (GPa) = 109.83124 27.31617 37.73579
#
# Poissons Ratio (x) = -0.02382 0.30048
# Poissons Ratio (y) = -0.09578 0.11637
# Poissons Ratio (z) = 0.87455 0.08424
#
# Static dielectric constant tensor:
#      x y z
#    x 1.736100 0.000000 0.000000 
#    y 0.000000 1.716340 0.000000 
#    z 0.000000 0.000000 1.705450 
# 
# From -- ./inp_files/30663.got.cif
#   From: 2010.05.17/outbox.cif.g08.bks.cpg/sg51_16_cif.got.tgz:30663.got - 2010.06.03 11:52:47.
