data_PCOD9402483
_publ_section_title
;
Structure prediction by ZEFSAII (Michael W. Deem and Ramdas Pophale) SiO2 
 PCOD9402483
Probable space group: P M M A
;
_chemical_formula_sum "Si O2"
_cell_formula_units_Z 48
_cell_length_a 19.527304
_cell_length_b 8.539369
_cell_length_c 15.530872
_cell_angle_alpha 90.000000
_cell_angle_beta 90.000000
_cell_angle_gamma 90.000000
_cell_volume 2589.786176
_symmetry_space_group_name_H-M "P M M A"
_symmetry_group_IT_number 51
_symmetry_cell_setting 'orthorhombic'
loop_
_space_group_symop_operation_xyz
x,y,z
1/2-x,-y,z
1/2+x,-y,-z
-x,y,-z
-x,-y,-z
1/2+x,y,-z
1/2-x,y,z
x,-y,z
loop_
_atom_site_type_symbol
_atom_site_label
_atom_site_fract_x
_atom_site_fract_y
_atom_site_fract_z
Si Si1 0.576274 0.812330 0.029334
Si Si2 0.423086 0.312135 0.779567
Si Si3 0.075356 0.309299 0.278749
Si Si4 0.328936 0.812485 0.627552
Si Si5 0.077893 0.310702 0.474491
Si Si6 0.828878 0.310399 0.877687
O O1 0.590015 0.750960 0.125039
O O2 0.577589 0.000000 0.029460
O O3 0.500000 0.760498 0.000000
O O4 0.630702 0.749541 0.960805
O O5 0.422871 0.500000 0.781172
O O6 0.499057 0.259938 0.749240
O O7 0.368311 0.254254 0.710343
O O8 0.075231 0.500000 0.279275
O O9 0.090633 0.259573 0.376239
O O10 0.130005 0.258079 0.207531
O O11 0.250000 0.759967 0.625298
O O12 0.369549 0.757971 0.542921
O O13 0.330253 0.000000 0.631899
O O14 0.082236 0.500000 0.478434
O O15 0.000000 0.268324 0.500000
O O16 0.750000 0.259526 0.876760
O O17 0.830057 0.500000 0.878782
#
# Coordination Sequence:
#
# PCOD9402483 Si02
#       6
#     8   8   8   8   8   8
#     4  11  23  38  59  89 121 156 197 241 296 357
#     4  11  21  38  65  90 115 152 200 250 294 344
#     4   9  18  34  59  90 119 147 190 247 292 337
#     4  11  25  42  58  85 126 162 195 244 302 357
#     4  10  19  36  62  92 119 151 199 247 292 347
#     4  10  21  38  60  87 119 156 197 243 297 351
#
# _framework density 18.53435
#
# number of rings (size 3 to 8) (size 9 to 14) (size 15 to 20)
#    0.000    1.667    3.333    1.500    0.000    4.000 
#    0.000    2.500    0.000    0.000    0.000    0.000 
#    0.000    0.000    0.000    0.000    0.000    0.000 
#
# Total GULP energy -268183.809181 kJ/mol
# GULP energy per Si atom -5587.162691 kJ/mol
# Density = 1.849217 g / cm^3
# Si number density = 18.534350 Si / 1000 Ang^3
#
#
#
# Elastic Constant Matrix: (Units=GPa)
#
#
# Indices 1 2 3 4 5 6 
#
# 1 191.0846 37.8261 117.4504 0.0000 0.0000 0.0000
# 2 37.8261 23.7674 33.1024 0.0000 0.0000 0.0000
# 3 117.4504 33.1024 220.3954 0.0000 0.0000 0.0000
# 4 0.0000 0.0000 0.0000 3.9760 0.0000 0.0000
# 5 0.0000 0.0000 0.0000 0.0000 34.0850 0.0000
# 6 0.0000 0.0000 0.0000 0.0000 0.0000 19.1545
#
#
#
# Elastic Compliance Matrix: (Units=1/GPa)
#
#
# Indices 1 2 3 4 5 6 
#
# 1 0.009362 -0.010054 -0.003479 0.000000 0.000000 0.000000
# 2 -0.010054 0.064002 -0.004255 0.000000 0.000000 0.000000
# 3 -0.003479 -0.004255 0.007030 0.000000 0.000000 0.000000
# 4 0.000000 0.000000 0.000000 0.251507 0.000000 0.000000
# 5 0.000000 0.000000 0.000000 0.000000 0.029338 0.000000
# 6 0.000000 0.000000 0.000000 0.000000 0.000000 0.052207
#
#
# Mechanical properties :
#
#
# Convention : Reuss Voigt Hill
#
# Bulk Modulus (GPa) = 22.31238 90.22277 56.26757
# Shear Modulus (GPa) = 10.77674 27.90101 19.33888
#
# Velocity S-wave (km/s) = 2.41394 3.88412 3.23369
# Velocity P-wave (km/s) = 4.45354 8.30057 6.66084
#
# Compressibility (1/GPa) = 0.04481817
#
# Stress axis : x y z
#
# Youngs Moduli (GPa) = 106.81605 15.62452 142.24149
#
# Poissons Ratio (x) = 0.15709 0.49485
# Poissons Ratio (y) = 1.07395 0.60521
# Poissons Ratio (z) = 0.37160 0.06648
#
# Static dielectric constant tensor:
#      x y z
#    x 1.611540 0.000000 0.000000 
#    y 0.000000 1.632780 0.000000 
#    z 0.000000 0.000000 1.608640 
# 
# From -- ./inp_files/24705.got.cif
#   From: 2010.05.17/outbox.cif.g08.bks.cpg/sg51_13_cif.got.tgz:24705.got - 2010.06.03 11:52:47.
