data_PCOD9402508
_publ_section_title
;
Structure prediction by ZEFSAII (Michael W. Deem and Ramdas Pophale) SiO2 
 PCOD9402508
Probable space group: P M M A
;
_chemical_formula_sum "Si O2"
_cell_formula_units_Z 48
_cell_length_a 28.621562
_cell_length_b 8.791542
_cell_length_c 10.242749
_cell_angle_alpha 90.000000
_cell_angle_beta 90.000000
_cell_angle_gamma 90.000000
_cell_volume 2577.359008
_symmetry_space_group_name_H-M "P M M A"
_symmetry_group_IT_number 51
_symmetry_cell_setting 'orthorhombic'
loop_
_space_group_symop_operation_xyz
x,y,z
1/2-x,-y,z
1/2+x,-y,-z
-x,y,-z
-x,-y,-z
1/2+x,y,-z
1/2-x,y,z
x,-y,z
loop_
_atom_site_type_symbol
_atom_site_label
_atom_site_fract_x
_atom_site_fract_y
_atom_site_fract_z
Si Si1 0.867724 0.820336 0.997756
Si Si2 0.960296 0.322317 0.110675
Si Si3 0.019131 0.314701 0.360157
Si Si4 0.804895 0.817777 0.498976
Si Si5 0.693988 0.676792 0.219571
Si Si6 0.375179 0.317049 0.288841
O O1 0.865398 0.739943 0.857279
O O2 0.864036 0.000000 0.980197
O O3 0.916792 0.775085 0.064016
O O4 0.828793 0.760213 0.097342
O O5 0.945771 0.500000 0.124615
O O6 0.984164 0.269058 0.244503
O O7 0.000000 0.317998 0.000000
O O8 0.019423 0.500000 0.359528
O O9 0.072251 0.267696 0.329823
O O10 0.000000 0.263770 0.500000
O O11 0.750000 0.777986 0.519590
O O12 0.819242 0.753095 0.357359
O O13 0.837556 0.748551 0.610340
O O14 0.808581 0.000000 0.498494
O O15 0.750000 0.684632 0.210138
O O16 0.679812 0.500000 0.220511
O O17 0.373748 0.500000 0.291440
#
# Coordination Sequence:
#
# PCOD9402508 Si02
#       6
#     8   8   8   8   8   8
#     4  12  25  39  59  89 125 162 200 250 312 364
#     4  10  19  37  61  84 117 158 201 246 294 354
#     4   9  19  35  57  87 117 151 196 248 298 345
#     4  10  22  41  63  90 126 161 192 240 308 366
#     4  10  22  42  67  92 117 153 203 251 297 361
#     4  11  22  39  62  89 120 160 210 252 293 354
#
# _framework density 18.623715000000001
#
# number of rings (size 3 to 8) (size 9 to 14) (size 15 to 20)
#    0.000    1.667    1.667    3.000    2.333    3.000 
#    0.000    0.000    0.000    2.500    0.000    0.000 
#    0.000    0.000    0.000    0.000    0.000    0.000 
#
# Total GULP energy -268222.966760 kJ/mol
# GULP energy per Si atom -5587.978474 kJ/mol
# Density = 1.858133 g / cm^3
# Si number density = 18.623715 Si / 1000 Ang^3
#
#
#
# Elastic Constant Matrix: (Units=GPa)
#
#
# Indices 1 2 3 4 5 6 
#
# 1 62.8864 35.1505 66.1675 0.0000 0.0000 0.0000
# 2 35.1505 73.6858 40.7368 0.0000 0.0000 0.0000
# 3 66.1675 40.7368 178.4504 0.0000 0.0000 0.0000
# 4 0.0000 0.0000 0.0000 22.7840 0.0000 0.0000
# 5 0.0000 0.0000 0.0000 0.0000 35.6162 0.0000
# 6 0.0000 0.0000 0.0000 0.0000 0.0000 27.7103
#
#
#
# Elastic Compliance Matrix: (Units=1/GPa)
#
#
# Indices 1 2 3 4 5 6 
#
# 1 0.031142 -0.009695 -0.009334 0.000000 0.000000 0.000000
# 2 -0.009695 0.018550 -0.000640 0.000000 0.000000 0.000000
# 3 -0.009334 -0.000640 0.009211 0.000000 0.000000 0.000000
# 4 0.000000 0.000000 0.000000 0.043890 0.000000 0.000000
# 5 0.000000 0.000000 0.000000 0.000000 0.028077 0.000000
# 6 0.000000 0.000000 0.000000 0.000000 0.000000 0.036088
#
#
# Mechanical properties :
#
#
# Convention : Reuss Voigt Hill
#
# Bulk Modulus (GPa) = 51.11279 66.57024 58.84152
# Shear Modulus (GPa) = 23.49441 28.75328 26.12385
#
# Velocity S-wave (km/s) = 3.55566 3.93352 3.74935
# Velocity P-wave (km/s) = 6.66045 7.51349 7.09979
#
# Compressibility (1/GPa) = 0.01956457
#
# Stress axis : x y z
#
# Youngs Moduli (GPa) = 32.11124 53.90895 108.56993
#
# Poissons Ratio (x) = 0.52267 1.01336
# Poissons Ratio (y) = 0.31133 0.06944
# Poissons Ratio (z) = 0.29972 0.03448
#
# Static dielectric constant tensor:
#      x y z
#    x 1.639180 0.000000 0.000000 
#    y 0.000000 1.630650 0.000000 
#    z 0.000000 0.000000 1.612910 
# 
# From -- ./inp_files/12853.got.cif
#   From: 2010.05.17/outbox.cif.g08.bks.cpg/sg51_7_cif.got.tgz:12853.got - 2010.06.03 11:52:47.
