data_PCOD9402155
_publ_section_title
;
Structure prediction by ZEFSAII (Michael W. Deem and Ramdas Pophale) SiO2 
 PCOD9402155
Probable space group: P M M A
;
_chemical_formula_sum "Si O2"
_cell_formula_units_Z 56
_cell_length_a 15.935638
_cell_length_b 7.818227
_cell_length_c 21.992484
_cell_angle_alpha 90.000000
_cell_angle_beta 90.000000
_cell_angle_gamma 90.000000
_cell_volume 2740.009169
_symmetry_space_group_name_H-M "P M M A"
_symmetry_group_IT_number 51
_symmetry_cell_setting 'orthorhombic'
loop_
_space_group_symop_operation_xyz
x,y,z
1/2-x,-y,z
1/2+x,-y,-z
-x,y,-z
-x,-y,-z
1/2+x,y,-z
1/2-x,y,z
x,-y,z
loop_
_atom_site_type_symbol
_atom_site_label
_atom_site_fract_x
_atom_site_fract_y
_atom_site_fract_z
Si Si1 0.997757 0.204920 0.288169
Si Si2 0.655363 0.703482 0.075381
Si Si3 0.658005 0.204558 0.366893
Si Si4 0.993442 0.796990 0.848661
Si Si5 0.157500 0.293154 0.368490
Si Si6 0.845037 0.206953 0.935032
Si Si7 0.903037 0.706697 0.499791
O O1 0.002784 0.273899 0.219647
O O2 0.082764 0.237163 0.325018
O O3 0.918762 0.273889 0.326705
O O4 0.986837 0.000000 0.284166
O O5 0.750000 0.769358 0.088519
O O6 0.656443 0.500000 0.083132
O O7 0.581670 0.774080 0.117218
O O8 0.637358 0.742304 0.004631
O O9 0.750000 0.273331 0.350620
O O10 0.640171 0.235946 0.437881
O O11 0.659831 0.000000 0.358310
O O12 0.917030 0.727931 0.889811
O O13 0.978024 0.000000 0.843373
O O14 0.250000 0.235280 0.349021
O O15 0.157056 0.500000 0.369286
O O16 0.139582 0.235347 0.437666
O O17 0.750000 0.264541 0.919899
O O18 0.845266 0.000000 0.933280
O O19 0.902061 0.500000 0.499741
O O20 0.000000 0.763225 0.500000
#
# Coordination Sequence:
#
# PCOD9402155 Si02
#       7
#     8   8   8   8   8   8   8
#     4  10  22  38  55  78 109 144 182 224 266 315
#     4  10  21  36  55  82 113 142 176 220 269 319
#     4  10  21  36  54  78 108 141 178 222 273 325
#     4  10  21  36  56  81 108 144 185 221 263 315
#     4  10  21  37  56  79 108 141 179 223 271 323
#     4   9  18  34  56  81 109 140 177 222 268 316
#     4  10  19  34  58  82 105 136 176 224 273 322
#
# _framework density 20.437887
#
# number of rings (size 3 to 8) (size 9 to 14) (size 15 to 20)
#    0.000    2.143    1.429    1.286    0.000    6.857 
#    0.000    2.857    0.000    1.714    0.000    0.000 
#    0.000    0.000    0.000    0.000    0.000    0.000 
#
# Total GULP energy -312736.010781 kJ/mol
# GULP energy per Si atom -5584.571621 kJ/mol
# Density = 2.039137 g / cm^3
# Si number density = 20.437887 Si / 1000 Ang^3
#
#
#
# Elastic Constant Matrix: (Units=GPa)
#
#
# Indices 1 2 3 4 5 6 
#
# 1 159.9615 -7.9958 84.9750 0.0000 0.0000 0.0000
# 2 -7.9958 18.6392 -9.2623 0.0000 0.0000 0.0000
# 3 84.9750 -9.2623 130.0000 0.0000 0.0000 0.0000
# 4 0.0000 0.0000 0.0000 47.9251 0.0000 0.0000
# 5 0.0000 0.0000 0.0000 0.0000 -8.9181 0.0000
# 6 0.0000 0.0000 0.0000 0.0000 0.0000 8.8479
#
#
#
# Elastic Compliance Matrix: (Units=1/GPa)
#
#
# Indices 1 2 3 4 5 6 
#
# 1 0.009596 0.001036 -0.006199 0.000000 0.000000 0.000000
# 2 0.001036 0.055731 0.003293 0.000000 0.000000 0.000000
# 3 -0.006199 0.003293 0.011979 0.000000 0.000000 0.000000
# 4 0.000000 0.000000 0.000000 0.020866 0.000000 0.000000
# 5 0.000000 0.000000 0.000000 0.000000 -0.112131 0.000000
# 6 0.000000 0.000000 0.000000 0.000000 0.000000 0.113021
#
#
# Mechanical properties :
#
#
# Convention : Reuss Voigt Hill
#
# Bulk Modulus (GPa) = 13.59283 49.33718 31.46500
# Shear Modulus (GPa) = 39.27024 25.62991 32.45007
#
# Velocity S-wave (km/s) = 4.38818 3.54508 3.98897
# Velocity P-wave (km/s) = 5.68684 6.39916 6.05349
#
# Compressibility (1/GPa) = 0.07356819
#
# Stress axis : x y z
#
# Youngs Moduli (GPa) = 104.20768 17.94322 83.48070
#
# Poissons Ratio (x) = -0.01859 0.51748
# Poissons Ratio (y) = -0.10798 -0.27494
# Poissons Ratio (z) = 0.64596 -0.05910
#
# Static dielectric constant tensor:
#      x y z
#    x 1.732450 0.000000 0.000000 
#    y 0.000000 1.742730 0.000000 
#    z 0.000000 0.000000 1.692350 
# 
# From -- ./inp_files/33352.got.cif
#   From: 2010.05.17/outbox.cif.g08.bks.cpg/sg51_17_cif.got.tgz:33352.got - 2010.06.03 11:52:47.
