data_PCOD9402335
_publ_section_title
;
Structure prediction by ZEFSAII (Michael W. Deem and Ramdas Pophale) SiO2 
 PCOD9402335
Probable space group: P M M A
;
_chemical_formula_sum "Si O2"
_cell_formula_units_Z 56
_cell_length_a 16.295029
_cell_length_b 32.283768
_cell_length_c 5.107400
_cell_angle_alpha 90.000000
_cell_angle_beta 90.000000
_cell_angle_gamma 90.000000
_cell_volume 2686.824053
_symmetry_space_group_name_H-M "P M M A"
_symmetry_group_IT_number 51
_symmetry_cell_setting 'orthorhombic'
loop_
_space_group_symop_operation_xyz
x,y,z
1/2-x,-y,z
1/2+x,-y,-z
-x,y,-z
-x,-y,-z
1/2+x,y,-z
1/2-x,y,z
x,-y,z
loop_
_atom_site_type_symbol
_atom_site_label
_atom_site_fract_x
_atom_site_fract_y
_atom_site_fract_z
Si Si1 0.092741 0.686577 0.600006
Si Si2 0.850136 0.821024 0.681199
Si Si3 0.406561 0.451677 0.100442
Si Si4 0.845688 0.732250 0.892437
Si Si5 0.845176 0.594926 0.392136
Si Si6 0.348748 0.870132 0.817841
Si Si7 0.058774 0.045863 0.749291
O O1 0.146655 0.701458 0.353278
O O2 0.116251 0.639614 0.667853
O O3 0.000000 0.689013 0.500000
O O4 0.108115 0.714877 0.854101
O O5 0.750000 0.819067 0.673418
O O6 0.877363 0.776234 0.782727
O O7 0.877578 0.836648 0.397807
O O8 0.874824 0.854956 0.896004
O O9 0.388456 0.500000 0.147562
O O10 0.353151 0.433208 0.865065
O O11 0.500000 0.448094 0.000000
O O12 0.391527 0.426326 0.365187
O O13 0.750000 0.737049 0.968050
O O14 0.750000 0.599967 0.463308
O O15 0.250000 0.870171 0.812519
O O16 0.380594 0.915567 0.753427
O O17 0.000000 0.048660 0.500000
O O18 0.098560 0.000000 0.748742
O O19 0.000000 0.048383 0.000000
#
# Coordination Sequence:
#
# PCOD9402335 Si02
#       7
#     8   8   8   8   8   8   8
#     4  12  25  42  62  89 125 159 197 250 305 352
#     4   9  19  35  58  85 114 147 185 235 289 342
#     4  11  24  43  66  93 127 164 199 243 304 362
#     4  11  22  41  65  88 117 158 203 242 293 361
#     4  12  25  42  65  93 123 160 207 251 295 353
#     4  10  19  35  58  84 111 145 191 236 282 339
#     4  10  21  37  55  78 112 151 188 231 288 345
#
# _framework density 20.842452000000002
#
# number of rings (size 3 to 8) (size 9 to 14) (size 15 to 20)
#    0.000    1.286    0.000    6.429    0.000    5.429 
#    0.000    7.143    0.000    5.143    0.000    0.000 
#    0.000    0.000    0.000    0.000    0.000    0.000 
#
# Total GULP energy -313259.542746 kJ/mol
# GULP energy per Si atom -5593.920406 kJ/mol
# Density = 2.079501 g / cm^3
# Si number density = 20.842452 Si / 1000 Ang^3
#
#
#
# Elastic Constant Matrix: (Units=GPa)
#
#
# Indices 1 2 3 4 5 6 
#
# 1 30.6774 13.6464 -3.8948 0.0000 0.0000 0.0000
# 2 13.6464 77.1661 -6.8513 0.0000 0.0000 0.0000
# 3 -3.8948 -6.8513 85.2839 0.0000 0.0000 0.0000
# 4 0.0000 0.0000 0.0000 33.2709 0.0000 0.0000
# 5 0.0000 0.0000 0.0000 0.0000 27.2954 0.0000
# 6 0.0000 0.0000 0.0000 0.0000 0.0000 124.3496
#
#
#
# Elastic Compliance Matrix: (Units=1/GPa)
#
#
# Indices 1 2 3 4 5 6 
#
# 1 0.035487 -0.006176 0.001125 0.000000 0.000000 0.000000
# 2 -0.006176 0.014127 0.000853 0.000000 0.000000 0.000000
# 3 0.001125 0.000853 0.011845 0.000000 0.000000 0.000000
# 4 0.000000 0.000000 0.000000 0.030056 0.000000 0.000000
# 5 0.000000 0.000000 0.000000 0.000000 0.036636 0.000000
# 6 0.000000 0.000000 0.000000 0.000000 0.000000 0.008042
#
#
# Mechanical properties :
#
#
# Convention : Reuss Voigt Hill
#
# Bulk Modulus (GPa) = 18.84567 22.10312 20.47439
# Shear Modulus (GPa) = 30.81119 49.66498 40.23808
#
# Velocity S-wave (km/s) = 3.84902 4.88677 4.39861
# Velocity P-wave (km/s) = 5.36795 6.51679 5.97007
#
# Compressibility (1/GPa) = 0.05306260
#
# Stress axis : x y z
#
# Youngs Moduli (GPa) = 28.17908 70.78669 84.42087
#
# Poissons Ratio (x) = 0.43717 -0.09493
# Poissons Ratio (y) = 0.17403 -0.07200
# Poissons Ratio (z) = -0.03169 -0.06037
#
# Static dielectric constant tensor:
#      x y z
#    x 1.749830 0.000000 0.000000 
#    y 0.000000 1.737650 0.000000 
#    z 0.000000 0.000000 1.709900 
# 
# From -- ./inp_files/1487.got.cif
#   From: 2010.05.17/outbox.cif.g08.bks.cpg/sg51_1_cif.got.tgz:1487.got - 2010.06.03 11:52:47.
