data_PCOD9402829
_publ_section_title
;
Structure prediction by ZEFSAII (Michael W. Deem and Ramdas Pophale) SiO2 
 PCOD9402829
Probable space group: P M M A
;
_chemical_formula_sum "Si O2"
_cell_formula_units_Z 36
_cell_length_a 7.377811
_cell_length_b 7.630150
_cell_length_c 27.217463
_cell_angle_alpha 90.000000
_cell_angle_beta 90.000000
_cell_angle_gamma 90.000000
_cell_volume 1532.174544
_symmetry_space_group_name_H-M "P M M A"
_symmetry_group_IT_number 51
_symmetry_cell_setting 'orthorhombic'
loop_
_space_group_symop_operation_xyz
x,y,z
1/2-x,-y,z
1/2+x,-y,-z
-x,y,-z
-x,-y,-z
1/2+x,y,-z
1/2-x,y,z
x,-y,z
loop_
_atom_site_type_symbol
_atom_site_label
_atom_site_fract_x
_atom_site_fract_y
_atom_site_fract_z
Si Si1 0.527856 0.701518 0.630041
Si Si2 0.967036 0.798689 0.946854
Si Si3 0.542972 0.710265 0.736764
Si Si4 0.541599 0.210769 0.842514
Si Si5 0.533832 0.000000 0.557694
O O1 0.750000 0.701185 0.631855
O O2 0.472340 0.500000 0.622707
O O3 0.466879 0.766735 0.684099
O O4 0.467762 0.828632 0.586713
O O5 0.750000 0.806462 0.941553
O O6 0.034660 0.723785 0.894777
O O7 0.036726 0.000000 0.950292
O O8 0.000000 0.714542 0.000000
O O9 0.750000 0.780244 0.738957
O O10 0.550615 0.500000 0.733186
O O11 0.457232 0.750785 0.789517
O O12 0.750000 0.277117 0.839447
O O13 0.546080 0.000000 0.847068
O O14 0.500000 0.000000 0.500000
O O15 0.750000 0.000000 0.563697
#
# Coordination Sequence:
#
# PCOD9402829 Si02
#       5
#     8   8   8   8   4
#     4   8  15  27  42  63  91 119 147 180 218 260
#     4   8  13  21  32  48  71  98 127 160 196 236
#     4   8  13  21  34  54  80 106 129 161 209 254
#     4   8  13  19  30  50  73  96 125 162 203 244
#     4  10  20  32  48  70  94 122 151 180 216 252
#
# _framework density 23.496017999999999
#
# number of rings (size 3 to 8) (size 9 to 14) (size 15 to 20)
#    0.000    3.778    0.000    2.667    1.556    0.444 
#    0.000    0.000    0.000    0.667    0.000    1.556 
#    0.000    1.778    0.000    0.000    0.000    0.000 
#
# Total GULP energy -200564.004559 kJ/mol
# GULP energy per Si atom -5571.222349 kJ/mol
# Density = 2.344254 g / cm^3
# Si number density = 23.496018 Si / 1000 Ang^3
#
#
#
# Elastic Constant Matrix: (Units=GPa)
#
#
# Indices 1 2 3 4 5 6 
#
# 1 82.1494 1.9325 9.7295 0.0000 0.0000 0.0000
# 2 1.9325 77.0032 76.6737 0.0000 0.0000 0.0000
# 3 9.7295 76.6737 318.2329 0.0000 0.0000 0.0000
# 4 0.0000 0.0000 0.0000 95.9696 0.0000 0.0000
# 5 0.0000 0.0000 0.0000 0.0000 10.3108 0.0000
# 6 0.0000 0.0000 0.0000 0.0000 0.0000 -8.4269
#
#
#
# Elastic Compliance Matrix: (Units=1/GPa)
#
#
# Indices 1 2 3 4 5 6 
#
# 1 0.012218 0.000086 -0.000394 0.000000 0.000000 0.000000
# 2 0.000086 0.017086 -0.004119 0.000000 0.000000 0.000000
# 3 -0.000394 -0.004119 0.004147 0.000000 0.000000 0.000000
# 4 0.000000 0.000000 0.000000 0.010420 0.000000 0.000000
# 5 0.000000 0.000000 0.000000 0.000000 0.096986 0.000000
# 6 0.000000 0.000000 0.000000 0.000000 0.000000 -0.118667
#
#
# Mechanical properties :
#
#
# Convention : Reuss Voigt Hill
#
# Bulk Modulus (GPa) = 40.65813 72.67299 56.66556
# Shear Modulus (GPa) = 127.41283 45.50734 86.46008
#
# Velocity S-wave (km/s) = 7.37192 4.40570 6.07270
# Velocity P-wave (km/s) = 9.47639 7.54170 8.56386
#
# Compressibility (1/GPa) = 0.02459533
#
# Stress axis : x y z
#
# Youngs Moduli (GPa) = 81.84902 58.52767 241.14523
#
# Poissons Ratio (x) = -0.00503 0.09507
# Poissons Ratio (y) = -0.00703 0.99334
# Poissons Ratio (z) = 0.03227 0.24109
#
# Static dielectric constant tensor:
#      x y z
#    x 1.994940 0.000000 0.000000 
#    y 0.000000 1.878880 0.000000 
#    z 0.000000 0.000000 1.953650 
# 
# From -- ./inp_files/32762.got.cif
#   From: 2010.05.17/outbox.cif.g08.bks.cpg/sg51_17_cif.got.tgz:32762.got - 2010.06.03 11:52:47.
