data_PCOD9402697
_publ_section_title
;
Structure prediction by ZEFSAII (Michael W. Deem and Ramdas Pophale) SiO2 
 PCOD9402697
Probable space group: P M M A
;
_chemical_formula_sum "Si O2"
_cell_formula_units_Z 48
_cell_length_a 9.391279
_cell_length_b 7.342318
_cell_length_c 32.086697
_cell_angle_alpha 90.000000
_cell_angle_beta 90.000000
_cell_angle_gamma 90.000000
_cell_volume 2212.498303
_symmetry_space_group_name_H-M "P M M A"
_symmetry_group_IT_number 51
_symmetry_cell_setting 'orthorhombic'
loop_
_space_group_symop_operation_xyz
x,y,z
1/2-x,-y,z
1/2+x,-y,-z
-x,y,-z
-x,-y,-z
1/2+x,y,-z
1/2-x,y,z
x,-y,z
loop_
_atom_site_type_symbol
_atom_site_label
_atom_site_fract_x
_atom_site_fract_y
_atom_site_fract_z
Si Si1 0.586162 0.777430 0.205582
Si Si2 0.084325 0.278580 0.540266
Si Si3 0.413159 0.281152 0.632336
Si Si4 0.589715 0.215085 0.714941
Si Si5 0.585396 0.777805 0.041171
Si Si6 0.414361 0.777932 0.123409
O O1 0.750000 0.718726 0.203396
O O2 0.509329 0.714213 0.247814
O O3 0.495546 0.721732 0.165319
O O4 0.588280 0.000000 0.205686
O O5 0.250000 0.230620 0.536629
O O6 0.075796 0.500000 0.539919
O O7 0.036380 0.219298 0.586453
O O8 0.000000 0.212833 0.500000
O O9 0.250000 0.217325 0.639097
O O10 0.407033 0.500000 0.630668
O O11 0.514063 0.234553 0.670487
O O12 0.750000 0.289987 0.715046
O O13 0.601517 0.000000 0.722849
O O14 0.750000 0.719755 0.040896
O O15 0.501741 0.720658 0.082627
O O16 0.586530 0.000000 0.041174
O O17 0.500000 0.720883 0.000000
O O18 0.250000 0.719405 0.122528
O O19 0.413109 0.000000 0.123252
#
# Coordination Sequence:
#
# PCOD9402697 Si02
#       6
#     8   8   8   8   8   8
#     4   9  16  26  40  56  74 100 135 173 213 257
#     4   8  14  25  42  65  91 116 143 177 216 258
#     4   9  18  32  49  70  95 121 150 184 222 266
#     4  10  20  32  46  66  91 118 150 188 227 267
#     4   9  15  21  28  39  57  83 117 157 202 251
#     4   9  15  22  32  46  65  89 120 162 208 251
#
# _framework density 21.694932999999999
#
# number of rings (size 3 to 8) (size 9 to 14) (size 15 to 20)
#    0.000    3.000    0.000    3.000    0.000    8.000 
#    0.000    1.667    0.000    0.500    0.000    0.000 
#    0.000    0.000    0.000    0.000    0.000    0.833 
#
# Total GULP energy -268088.444529 kJ/mol
# GULP energy per Si atom -5585.175928 kJ/mol
# Density = 2.164555 g / cm^3
# Si number density = 21.694933 Si / 1000 Ang^3
#
#
#
# Elastic Constant Matrix: (Units=GPa)
#
#
# Indices 1 2 3 4 5 6 
#
# 1 215.5846 5.5542 155.7919 0.0000 0.0000 0.0000
# 2 5.5542 81.0200 0.7770 0.0000 0.0000 0.0000
# 3 155.7919 0.7770 247.9175 0.0000 0.0000 0.0000
# 4 0.0000 0.0000 0.0000 10.8044 0.0000 0.0000
# 5 0.0000 0.0000 0.0000 0.0000 45.1306 0.0000
# 6 0.0000 0.0000 0.0000 0.0000 0.0000 -4.0512
#
#
#
# Elastic Compliance Matrix: (Units=1/GPa)
#
#
# Indices 1 2 3 4 5 6 
#
# 1 0.008520 -0.000533 -0.005352 0.000000 0.000000 0.000000
# 2 -0.000533 0.012376 0.000296 0.000000 0.000000 0.000000
# 3 -0.005352 0.000296 0.007396 0.000000 0.000000 0.000000
# 4 0.000000 0.000000 0.000000 0.092555 0.000000 0.000000
# 5 0.000000 0.000000 0.000000 0.000000 0.022158 0.000000
# 6 0.000000 0.000000 0.000000 0.000000 0.000000 -0.246840
#
#
# Mechanical properties :
#
#
# Convention : Reuss Voigt Hill
#
# Bulk Modulus (GPa) = 58.43079 96.52981 77.48030
# Shear Modulus (GPa) = -57.50356 35.87001 -10.81677
#
# Velocity S-wave (km/s) = -5.15394 4.07059 -2.23532
# Velocity P-wave (km/s) = 2.90276 8.16601 5.39711
#
# Compressibility (1/GPa) = 0.01711426
#
# Stress axis : x y z
#
# Youngs Moduli (GPa) = 117.36779 80.79954 135.20508
#
# Poissons Ratio (x) = 0.04305 0.72368
# Poissons Ratio (y) = 0.06253 -0.04002
# Poissons Ratio (z) = 0.62821 -0.02392
#
# Static dielectric constant tensor:
#      x y z
#    x 1.734470 0.000000 0.000000 
#    y 0.000000 1.928910 0.000000 
#    z 0.000000 0.000000 1.747790 
# 
# From -- ./inp_files/36130.got.cif
#   From: 2010.05.17/outbox.cif.g08.bks.cpg/sg51_19_cif.got.tgz:36130.got - 2010.06.03 11:52:47.
