data_PCOD9402217
_publ_section_title
;
Structure prediction by ZEFSAII (Michael W. Deem and Ramdas Pophale) SiO2 
 PCOD9402217
Probable space group: P M M A
;
_chemical_formula_sum "Si O2"
_cell_formula_units_Z 48
_cell_length_a 20.798383
_cell_length_b 8.276616
_cell_length_c 13.944166
_cell_angle_alpha 90.000000
_cell_angle_beta 90.000000
_cell_angle_gamma 90.000000
_cell_volume 2400.351936
_symmetry_space_group_name_H-M "P M M A"
_symmetry_group_IT_number 51
_symmetry_cell_setting 'orthorhombic'
loop_
_space_group_symop_operation_xyz
x,y,z
1/2-x,-y,z
1/2+x,-y,-z
-x,y,-z
-x,-y,-z
1/2+x,y,-z
1/2-x,y,z
x,-y,z
loop_
_atom_site_type_symbol
_atom_site_label
_atom_site_fract_x
_atom_site_fract_y
_atom_site_fract_z
Si Si1 0.498828 0.697449 0.389676
Si Si2 0.638147 0.304742 0.319170
Si Si3 0.430602 0.195485 0.037895
Si Si4 0.750000 0.808972 0.683528
Si Si5 0.387887 0.693146 0.247178
Si Si6 0.750000 0.695623 0.464099
Si Si7 0.321641 0.805120 0.891420
O O1 0.500000 0.750038 0.500000
O O2 0.497953 0.500000 0.390117
O O3 0.565405 0.748220 0.340087
O O4 0.436570 0.752052 0.330541
O O5 0.639062 0.500000 0.317874
O O6 0.687293 0.253840 0.403107
O O7 0.661858 0.244318 0.216668
O O8 0.414261 0.248613 0.145106
O O9 0.431004 0.000000 0.036241
O O10 0.500000 0.251524 0.000000
O O11 0.375343 0.253810 0.965304
O O12 0.684791 0.746153 0.732402
O O13 0.750000 0.758472 0.571881
O O14 0.750000 0.000000 0.690716
O O15 0.389502 0.500000 0.248503
O O16 0.750000 0.500000 0.468937
O O17 0.250000 0.747248 0.916120
O O18 0.321511 0.000000 0.895724
#
# Coordination Sequence:
#
# PCOD9402217 Si02
#       7
#     8   8   8   4   8   4   8
#     4   9  18  34  58  86 118 153 190 237 296 353
#     4  10  19  34  59  89 118 153 195 244 297 346
#     4  10  22  40  61  86 120 162 204 247 300 358
#     4  12  26  42  61  84 117 160 201 244 300 364
#     4  11  23  40  63  91 120 155 202 253 304 359
#     4  10  20  36  59  88 121 156 199 246 294 350
#     4  10  21  36  55  81 115 156 196 238 293 352
#
# _framework density 19.997069
#
# number of rings (size 3 to 8) (size 9 to 14) (size 15 to 20)
#    0.000    1.833    0.833    3.250    1.167    4.333 
#    0.000    0.833    0.000    3.500    0.000    0.000 
#    0.000    0.000    0.000    0.000    0.000    0.000 
#
# Total GULP energy -268253.730798 kJ/mol
# GULP energy per Si atom -5588.619392 kJ/mol
# Density = 1.995155 g / cm^3
# Si number density = 19.997069 Si / 1000 Ang^3
#
#
#
# Elastic Constant Matrix: (Units=GPa)
#
#
# Indices 1 2 3 4 5 6 
#
# 1 221.1060 25.0086 107.5640 0.0000 0.0000 0.0000
# 2 25.0086 10.7858 16.0194 0.0000 0.0000 0.0000
# 3 107.5640 16.0194 164.7435 0.0000 0.0000 0.0000
# 4 0.0000 0.0000 0.0000 37.3618 0.0000 0.0000
# 5 0.0000 0.0000 0.0000 0.0000 45.6329 0.0000
# 6 0.0000 0.0000 0.0000 0.0000 0.0000 6.1937
#
#
#
# Elastic Compliance Matrix: (Units=1/GPa)
#
#
# Indices 1 2 3 4 5 6 
#
# 1 0.007816 -0.012323 -0.003905 0.000000 0.000000 0.000000
# 2 -0.012323 0.127794 -0.004380 0.000000 0.000000 0.000000
# 3 -0.003905 -0.004380 0.009046 0.000000 0.000000 0.000000
# 4 0.000000 0.000000 0.000000 0.026765 0.000000 0.000000
# 5 0.000000 0.000000 0.000000 0.000000 0.021914 0.000000
# 6 0.000000 0.000000 0.000000 0.000000 0.000000 0.161454
#
#
# Mechanical properties :
#
#
# Convention : Reuss Voigt Hill
#
# Bulk Modulus (GPa) = 9.66756 77.09102 43.37929
# Shear Modulus (GPa) = 11.61475 34.37389 22.99432
#
# Velocity S-wave (km/s) = 2.41264 4.15052 3.39467
# Velocity P-wave (km/s) = 3.55051 7.84881 6.09139
#
# Compressibility (1/GPa) = 0.10343874
#
# Stress axis : x y z
#
# Youngs Moduli (GPa) = 127.93675 7.82507 110.54972
#
# Poissons Ratio (x) = 0.09643 0.43171
# Poissons Ratio (y) = 1.57663 0.48424
# Poissons Ratio (z) = 0.49961 0.03428
#
# Static dielectric constant tensor:
#      x y z
#    x 1.713220 0.000000 0.000000 
#    y 0.000000 1.700650 0.000000 
#    z 0.000000 0.000000 1.661590 
# 
# From -- ./inp_files/24926.got.cif
#   From: 2010.05.17/outbox.cif.g08.bks.cpg/sg51_13_cif.got.tgz:24926.got - 2010.06.03 11:52:47.
