data_PCOD9402000
_publ_section_title
;
Structure prediction by ZEFSAII (Michael W. Deem and Ramdas Pophale) SiO2 
 PCOD9402000
Probable space group: P M M A
;
_chemical_formula_sum "Si O2"
_cell_formula_units_Z 48
_cell_length_a 8.720807
_cell_length_b 20.966408
_cell_length_c 14.851448
_cell_angle_alpha 90.000000
_cell_angle_beta 90.000000
_cell_angle_gamma 90.000000
_cell_volume 2715.498123
_symmetry_space_group_name_H-M "P M M A"
_symmetry_group_IT_number 51
_symmetry_cell_setting 'orthorhombic'
loop_
_space_group_symop_operation_xyz
x,y,z
1/2-x,-y,z
1/2+x,-y,-z
-x,y,-z
-x,-y,-z
1/2+x,y,-z
1/2-x,y,z
x,-y,z
loop_
_atom_site_type_symbol
_atom_site_label
_atom_site_fract_x
_atom_site_fract_y
_atom_site_fract_z
Si Si1 0.433295 0.926358 0.402515
Si Si2 0.065735 0.570929 0.720941
Si Si3 0.435149 0.690857 0.600192
Si Si4 0.065643 0.239478 0.906000
Si Si5 0.932877 0.382620 0.905435
Si Si6 0.565376 0.184598 0.285097
O O1 0.500000 0.907445 0.500000
O O2 0.250000 0.923634 0.406861
O O3 0.493680 0.878265 0.327615
O O4 0.479599 0.000000 0.385908
O O5 0.250000 0.576651 0.732310
O O6 0.032231 0.500000 0.685622
O O7 0.015893 0.627660 0.654737
O O8 0.989579 0.579889 0.818176
O O9 0.500000 0.692071 0.500000
O O10 0.250000 0.690453 0.596148
O O11 0.481740 0.753737 0.655924
O O12 0.250000 0.244833 0.910673
O O13 0.024286 0.198535 0.818412
O O14 0.997132 0.310483 0.894943
O O15 0.000000 0.213837 0.000000
O O16 0.750000 0.381392 0.910318
O O17 0.000000 0.407482 0.000000
O O18 0.750000 0.180074 0.290148
#
# Coordination Sequence:
#
# PCOD9402000 Si02
#       6
#     8   8   8   8   8   8
#     4  10  21  36  55  82 116 150 186 225 267 320
#     4  10  21  39  58  74 102 143 181 224 276 326
#     4  10  21  37  54  78 107 137 178 224 270 320
#     4  10  19  34  55  82 113 143 179 221 268 321
#     4  11  21  34  55  80 108 139 175 221 272 327
#     4  10  20  35  57  82 112 145 180 224 269 319
#
# _framework density 17.676314999999999
#
# number of rings (size 3 to 8) (size 9 to 14) (size 15 to 20)
#    0.000    1.833    1.667    4.000    0.000    6.000 
#    0.000    0.000    0.000    0.500    0.000    0.000 
#    0.000    0.000    0.000    0.000    0.000    0.000 
#
# Total GULP energy -268076.757654 kJ/mol
# GULP energy per Si atom -5584.932451 kJ/mol
# Density = 1.763608 g / cm^3
# Si number density = 17.676315 Si / 1000 Ang^3
#
#
#
# Elastic Constant Matrix: (Units=GPa)
#
#
# Indices 1 2 3 4 5 6 
#
# 1 40.3127 28.8903 35.6709 0.0000 0.0000 0.0000
# 2 28.8903 84.8454 63.1021 0.0000 0.0000 0.0000
# 3 35.6709 63.1021 138.6769 0.0000 0.0000 0.0000
# 4 0.0000 0.0000 0.0000 18.7755 0.0000 0.0000
# 5 0.0000 0.0000 0.0000 0.0000 33.6776 0.0000
# 6 0.0000 0.0000 0.0000 0.0000 0.0000 14.2026
#
#
#
# Elastic Compliance Matrix: (Units=1/GPa)
#
#
# Indices 1 2 3 4 5 6 
#
# 1 0.035358 -0.007974 -0.005466 0.000000 0.000000 0.000000
# 2 -0.007974 0.019613 -0.006874 0.000000 0.000000 0.000000
# 3 -0.005466 -0.006874 0.011745 0.000000 0.000000 0.000000
# 4 0.000000 0.000000 0.000000 0.053261 0.000000 0.000000
# 5 0.000000 0.000000 0.000000 0.000000 0.029693 0.000000
# 6 0.000000 0.000000 0.000000 0.000000 0.000000 0.070410
#
#
# Mechanical properties :
#
#
# Convention : Reuss Voigt Hill
#
# Bulk Modulus (GPa) = 38.33186 57.68461 48.00824
# Shear Modulus (GPa) = 18.55952 22.40926 20.48439
#
# Velocity S-wave (km/s) = 3.24383 3.56442 3.40790
# Velocity P-wave (km/s) = 5.98017 7.04591 6.53480
#
# Compressibility (1/GPa) = 0.02608796
#
# Stress axis : x y z
#
# Youngs Moduli (GPa) = 28.28241 50.98551 85.14406
#
# Poissons Ratio (x) = 0.40655 0.46544
# Poissons Ratio (y) = 0.22552 0.58525
# Poissons Ratio (z) = 0.15460 0.35045
#
# Static dielectric constant tensor:
#      x y z
#    x 1.593680 0.000000 0.000000 
#    y 0.000000 1.599240 0.000000 
#    z 0.000000 0.000000 1.588590 
# 
# From -- ./inp_files/21089.got.cif
#   From: 2010.05.17/outbox.cif.g08.bks.cpg/sg51_11_cif.got.tgz:21089.got - 2010.06.03 11:52:47.
