data_PCOD9402597
_publ_section_title
;
Structure prediction by ZEFSAII (Michael W. Deem and Ramdas Pophale) SiO2 
 PCOD9402597
Probable space group: P M M A
;
_chemical_formula_sum "Si O2"
_cell_formula_units_Z 52
_cell_length_a 8.912302
_cell_length_b 15.638651
_cell_length_c 23.191938
_cell_angle_alpha 90.000000
_cell_angle_beta 90.000000
_cell_angle_gamma 90.000000
_cell_volume 3232.408377
_symmetry_space_group_name_H-M "P M M A"
_symmetry_group_IT_number 51
_symmetry_cell_setting 'orthorhombic'
loop_
_space_group_symop_operation_xyz
x,y,z
1/2-x,-y,z
1/2+x,-y,-z
-x,y,-z
-x,-y,-z
1/2+x,y,-z
1/2-x,y,z
x,-y,z
loop_
_atom_site_type_symbol
_atom_site_label
_atom_site_fract_x
_atom_site_fract_y
_atom_site_fract_z
Si Si1 0.421366 0.396289 0.058615
Si Si2 0.423572 0.327004 0.399278
Si Si3 0.930098 0.903637 0.679056
Si Si4 0.077561 0.268223 0.266684
Si Si5 0.928967 0.500000 0.436830
Si Si6 0.429561 0.154657 0.559576
Si Si7 0.429300 0.401105 0.819620
O O1 0.250000 0.366526 0.061877
O O2 0.418743 0.500000 0.055399
O O3 0.508987 0.376710 0.117257
O O4 0.500000 0.365663 0.000000
O O5 0.250000 0.332112 0.419159
O O6 0.422674 0.303654 0.331917
O O7 0.508326 0.415443 0.406965
O O8 0.509632 0.251530 0.432323
O O9 0.750000 0.891439 0.669743
O O10 0.977976 0.829236 0.723493
O O11 0.010227 0.891312 0.617345
O O12 0.955080 0.000000 0.699780
O O13 0.250000 0.265905 0.246011
O O14 0.987241 0.332503 0.226409
O O15 0.750000 0.500000 0.438837
O O16 0.000000 0.500000 0.500000
O O17 0.500000 0.120512 0.500000
O O18 0.250000 0.152075 0.557079
O O19 0.250000 0.401346 0.820535
O O20 0.478864 0.500000 0.807080
#
# Coordination Sequence:
#
# PCOD9402597 Si02
#       7
#     8   8   8   8   4   8   8
#     4   9  16  27  44  66  95 132 171 209 245 282
#     4  10  21  37  52  68  91 122 158 198 244 291
#     4   9  19  37  57  75  96 123 156 197 247 302
#     4   9  19  34  52  72  95 125 159 198 243 289
#     4  12  24  36  50  68  90 118 157 200 243 290
#     4  11  21  34  52  73  96 121 150 189 239 296
#     4  10  20  31  45  69 101 137 173 207 239 278
#
# _framework density 16.087074999999999
#
# number of rings (size 3 to 8) (size 9 to 14) (size 15 to 20)
#    0.000    2.154    0.000    4.846    1.077    6.462 
#    0.000    0.000    0.000    0.000    0.000    0.000 
#    0.000    0.615    0.000    1.692    0.000    2.462 
#
# Total GULP energy -290067.804818 kJ/mol
# GULP energy per Si atom -5578.227016 kJ/mol
# Density = 1.605046 g / cm^3
# Si number density = 16.087075 Si / 1000 Ang^3
#
#
#
# Elastic Constant Matrix: (Units=GPa)
#
#
# Indices 1 2 3 4 5 6 
#
# 1 95.2618 38.6855 37.8165 0.0000 0.0000 0.0000
# 2 38.6855 101.6197 38.9586 0.0000 0.0000 0.0000
# 3 37.8165 38.9586 81.3142 0.0000 0.0000 0.0000
# 4 0.0000 0.0000 0.0000 8.6308 0.0000 0.0000
# 5 0.0000 0.0000 0.0000 0.0000 30.1358 0.0000
# 6 0.0000 0.0000 0.0000 0.0000 0.0000 16.9106
#
#
#
# Elastic Compliance Matrix: (Units=1/GPa)
#
#
# Indices 1 2 3 4 5 6 
#
# 1 0.013779 -0.003416 -0.004771 0.000000 0.000000 0.000000
# 2 -0.003416 0.012902 -0.004593 0.000000 0.000000 0.000000
# 3 -0.004771 -0.004593 0.016717 0.000000 0.000000 0.000000
# 4 0.000000 0.000000 0.000000 0.115864 0.000000 0.000000
# 5 0.000000 0.000000 0.000000 0.000000 0.033183 0.000000
# 6 0.000000 0.000000 0.000000 0.000000 0.000000 0.059135
#
#
# Mechanical properties :
#
#
# Convention : Reuss Voigt Hill
#
# Bulk Modulus (GPa) = 56.06131 56.56855 56.31493
# Shear Modulus (GPa) = 17.66250 21.98444 19.82347
#
# Velocity S-wave (km/s) = 3.31710 3.70075 3.51417
# Velocity P-wave (km/s) = 7.04238 7.31444 7.17970
#
# Compressibility (1/GPa) = 0.01783761
#
# Stress axis : x y z
#
# Youngs Moduli (GPa) = 72.57535 77.50831 59.81813
#
# Poissons Ratio (x) = 0.26479 0.28541
# Poissons Ratio (y) = 0.24793 0.27472
# Poissons Ratio (z) = 0.34628 0.35597
#
# Static dielectric constant tensor:
#      x y z
#    x 1.544030 0.000000 0.000000 
#    y 0.000000 1.547840 0.000000 
#    z 0.000000 0.000000 1.480320 
# 
# From -- ./inp_files/34728.got.cif
#   From: 2010.05.17/outbox.cif.g08.bks.cpg/sg51_18_cif.got.tgz:34728.got - 2010.06.03 11:52:47.
