data_PCOD9402089
_publ_section_title
;
Structure prediction by ZEFSAII (Michael W. Deem and Ramdas Pophale) SiO2 
 PCOD9402089
Probable space group: P M M A
;
_chemical_formula_sum "Si O2"
_cell_formula_units_Z 48
_cell_length_a 16.112624
_cell_length_b 16.686012
_cell_length_c 8.140725
_cell_angle_alpha 90.000000
_cell_angle_beta 90.000000
_cell_angle_gamma 90.000000
_cell_volume 2188.678181
_symmetry_space_group_name_H-M "P M M A"
_symmetry_group_IT_number 51
_symmetry_cell_setting 'orthorhombic'
loop_
_space_group_symop_operation_xyz
x,y,z
1/2-x,-y,z
1/2+x,-y,-z
-x,y,-z
-x,-y,-z
1/2+x,y,-z
1/2-x,y,z
x,-y,z
loop_
_atom_site_type_symbol
_atom_site_label
_atom_site_fract_x
_atom_site_fract_y
_atom_site_fract_z
Si Si1 0.844442 0.196554 0.224029
Si Si2 0.002751 0.091909 0.200480
Si Si3 0.066817 0.652802 0.619868
Si Si4 0.156838 0.799186 0.175431
Si Si5 0.155845 0.500000 0.467641
Si Si6 0.938082 0.650203 0.878027
Si Si7 0.343294 0.500000 0.070307
O O1 0.750000 0.177250 0.278402
O O2 0.873224 0.281980 0.297865
O O3 0.918818 0.134689 0.262841
O O4 0.841501 0.198325 0.024409
O O5 0.085975 0.141688 0.240716
O O6 0.007538 0.000000 0.255034
O O7 0.000000 0.091617 0.000000
O O8 0.113103 0.580361 0.532739
O O9 0.000000 0.695422 0.500000
O O10 0.003181 0.614739 0.751009
O O11 0.250000 0.814758 0.235163
O O12 0.126568 0.708742 0.208160
O O13 0.250000 0.500000 0.527064
O O14 0.157231 0.500000 0.269565
O O15 0.890360 0.581035 0.973086
O O16 0.000000 0.698653 0.000000
O O17 0.250000 0.500000 0.007522
#
# Coordination Sequence:
#
# PCOD9402089 Si02
#       7
#     8   8   8   8   4   8   4
#     4  10  20  36  58  86 118 154 198 244 290 349
#     4   9  17  32  55  87 122 152 185 235 296 352
#     4  12  22  39  61  82 114 155 205 245 298 353
#     4  10  19  34  56  86 121 155 193 241 293 352
#     4  11  24  40  55  81 116 153 201 253 298 351
#     4  12  21  39  59  82 115 152 197 246 302 353
#     4  11  24  39  55  84 116 151 197 247 303 358
#
# _framework density 21.931044
#
# number of rings (size 3 to 8) (size 9 to 14) (size 15 to 20)
#    0.000    1.333    5.000    2.500    0.000    0.667 
#    0.000    4.167    0.000    0.500    0.000    0.000 
#    0.000    0.000    0.000    0.000    0.000    0.000 
#
# Total GULP energy -268035.764581 kJ/mol
# GULP energy per Si atom -5584.078429 kJ/mol
# Density = 2.188113 g / cm^3
# Si number density = 21.931044 Si / 1000 Ang^3
#
#
#
# Elastic Constant Matrix: (Units=GPa)
#
#
# Indices 1 2 3 4 5 6 
#
# 1 222.9489 88.0117 22.0455 0.0000 0.0000 0.0000
# 2 88.0117 144.5161 2.1004 0.0000 0.0000 0.0000
# 3 22.0455 2.1004 21.0137 0.0000 0.0000 0.0000
# 4 0.0000 0.0000 0.0000 10.2076 0.0000 0.0000
# 5 0.0000 0.0000 0.0000 0.0000 20.6394 0.0000
# 6 0.0000 0.0000 0.0000 0.0000 0.0000 13.7600
#
#
#
# Elastic Compliance Matrix: (Units=1/GPa)
#
#
# Indices 1 2 3 4 5 6 
#
# 1 0.006721 -0.003996 -0.006651 0.000000 0.000000 0.000000
# 2 -0.003996 0.009306 0.003262 0.000000 0.000000 0.000000
# 3 -0.006651 0.003262 0.054240 0.000000 0.000000 0.000000
# 4 0.000000 0.000000 0.000000 0.097966 0.000000 0.000000
# 5 0.000000 0.000000 0.000000 0.000000 0.048451 0.000000
# 6 0.000000 0.000000 0.000000 0.000000 0.000000 0.072674
#
#
# Mechanical properties :
#
#
# Convention : Reuss Voigt Hill
#
# Bulk Modulus (GPa) = 18.01931 68.08821 43.05376
# Shear Modulus (GPa) = 15.49781 27.34281 21.42031
#
# Velocity S-wave (km/s) = 2.66119 3.53478 3.12863
# Velocity P-wave (km/s) = 4.20438 6.91184 5.72059
#
# Compressibility (1/GPa) = 0.05549601
#
# Stress axis : x y z
#
# Youngs Moduli (GPa) = 148.79707 107.45790 18.43672
#
# Poissons Ratio (x) = 0.42943 0.12263
# Poissons Ratio (y) = 0.59463 -0.06015
# Poissons Ratio (z) = 0.98967 -0.35056
#
# Static dielectric constant tensor:
#      x y z
#    x 1.791530 0.000000 0.000000 
#    y 0.000000 1.769120 0.000000 
#    z 0.000000 0.000000 1.899030 
# 
# From -- ./inp_files/8349.got.cif
#   From: 2010.05.17/outbox.cif.g08.bks.cpg/sg51_5_cif.got.tgz:8349.got - 2010.06.03 11:52:47.
