data_PCOD9402081
_publ_section_title
;
Structure prediction by ZEFSAII (Michael W. Deem and Ramdas Pophale) SiO2 
 PCOD9402081
Probable space group: P M M A
;
_chemical_formula_sum "Si O2"
_cell_formula_units_Z 56
_cell_length_a 14.298649
_cell_length_b 12.111255
_cell_length_c 14.013611
_cell_angle_alpha 90.000000
_cell_angle_beta 90.000000
_cell_angle_gamma 90.000000
_cell_volume 2426.801258
_symmetry_space_group_name_H-M "P M M A"
_symmetry_group_IT_number 51
_symmetry_cell_setting 'orthorhombic'
loop_
_space_group_symop_operation_xyz
x,y,z
1/2-x,-y,z
1/2+x,-y,-z
-x,y,-z
-x,-y,-z
1/2+x,y,-z
1/2-x,y,z
x,-y,z
loop_
_atom_site_type_symbol
_atom_site_label
_atom_site_fract_x
_atom_site_fract_y
_atom_site_fract_z
Si Si1 0.855422 0.127989 0.851131
Si Si2 0.082071 0.376792 0.923152
Si Si3 0.434765 0.127340 0.899895
Si Si4 0.046926 0.383593 0.701396
Si Si5 0.646998 0.163458 0.298682
Si Si6 0.350570 0.290333 0.330730
Si Si7 0.889134 0.881917 0.510656
O O1 0.750000 0.145146 0.894312
O O2 0.861170 0.210535 0.761733
O O3 0.951593 0.141406 0.912633
O O4 0.857706 0.000000 0.820545
O O5 0.132250 0.500000 0.935489
O O6 0.042422 0.383058 0.816316
O O7 0.116597 0.246365 0.925277
O O8 0.000000 0.379229 0.000000
O O9 0.422262 0.123635 0.783723
O O10 0.406389 0.000000 0.929895
O O11 0.083289 0.500000 0.667058
O O12 0.942960 0.362845 0.665038
O O13 0.117703 0.287689 0.677634
O O14 0.750000 0.152788 0.256910
O O15 0.645278 0.112360 0.402698
O O16 0.250000 0.347492 0.322024
O O17 0.351031 0.213954 0.423920
O O18 0.000000 0.867151 0.500000
O O19 0.870369 0.000000 0.558371
#
# Coordination Sequence:
#
# PCOD9402081 Si02
#       7
#     8   8   8   8   8   8   8
#     4   9  16  28  49  77 110 145 180 220 273 336
#     4   9  18  35  60  87 114 148 190 238 295 355
#     4  10  19  34  56  84 116 150 192 238 292 349
#     4  10  21  40  60  80 110 148 192 241 289 345
#     4  11  22  37  56  82 113 151 197 242 291 339
#     4  11  20  33  54  82 113 147 188 231 284 341
#     4  11  21  35  56  81 114 150 188 235 286 341
#
# _framework density 23.075641999999998
#
# number of rings (size 3 to 8) (size 9 to 14) (size 15 to 20)
#    0.000    1.857    4.286    1.286    0.000    5.714 
#    0.000    1.429    0.000    9.000    0.000   24.000 
#    0.000    0.000    0.000    0.000    0.000    0.000 
#
# Total GULP energy -311911.141038 kJ/mol
# GULP energy per Si atom -5569.841804 kJ/mol
# Density = 2.302312 g / cm^3
# Si number density = 23.075642 Si / 1000 Ang^3
#
#
#
# Elastic Constant Matrix: (Units=GPa)
#
#
# Indices 1 2 3 4 5 6 
#
# 1 79.4924 12.5291 -5.8615 0.0000 0.0000 0.0000
# 2 12.5291 164.8724 28.5407 0.0000 0.0000 0.0000
# 3 -5.8615 28.5407 26.7293 0.0000 0.0000 0.0000
# 4 0.0000 0.0000 0.0000 23.4395 0.0000 0.0000
# 5 0.0000 0.0000 0.0000 0.0000 13.7190 0.0000
# 6 0.0000 0.0000 0.0000 0.0000 0.0000 106.5836
#
#
#
# Elastic Compliance Matrix: (Units=1/GPa)
#
#
# Indices 1 2 3 4 5 6 
#
# 1 0.013231 -0.001850 0.004876 0.000000 0.000000 0.000000
# 2 -0.001850 0.007699 -0.008627 0.000000 0.000000 0.000000
# 3 0.004876 -0.008627 0.047693 0.000000 0.000000 0.000000
# 4 0.000000 0.000000 0.000000 0.042663 0.000000 0.000000
# 5 0.000000 0.000000 0.000000 0.000000 0.072892 0.000000
# 6 0.000000 0.000000 0.000000 0.000000 0.000000 0.009382
#
#
# Mechanical properties :
#
#
# Convention : Reuss Voigt Hill
#
# Bulk Modulus (GPa) = 17.41459 37.94562 27.68010
# Shear Modulus (GPa) = 22.33141 44.47416 33.40278
#
# Velocity S-wave (km/s) = 3.11424 4.39489 3.80878
# Velocity P-wave (km/s) = 4.52708 6.49870 5.60034
#
# Compressibility (1/GPa) = 0.05742313
#
# Stress axis : x y z
#
# Youngs Moduli (GPa) = 75.58058 129.88415 20.96765
#
# Poissons Ratio (x) = 0.24023 -0.10225
# Poissons Ratio (y) = 0.13979 0.18088
# Poissons Ratio (z) = -0.36856 1.12045
#
# Static dielectric constant tensor:
#      x y z
#    x 1.870520 0.000000 0.000000 
#    y 0.000000 1.955690 0.000000 
#    z 0.000000 0.000000 1.896320 
# 
# From -- ./inp_files/24173.got.cif
#   From: 2010.05.17/outbox.cif.g08.bks.cpg/sg51_13_cif.got.tgz:24173.got - 2010.06.03 11:52:47.
