data_PCOD9402392
_publ_section_title
;
Structure prediction by ZEFSAII (Michael W. Deem and Ramdas Pophale) SiO2 
 PCOD9402392
Probable space group: P M M A
;
_chemical_formula_sum "Si O2"
_cell_formula_units_Z 56
_cell_length_a 23.838182
_cell_length_b 7.528495
_cell_length_c 13.339923
_cell_angle_alpha 90.000000
_cell_angle_beta 90.000000
_cell_angle_gamma 90.000000
_cell_volume 2394.057739
_symmetry_space_group_name_H-M "P M M A"
_symmetry_group_IT_number 51
_symmetry_cell_setting 'orthorhombic'
loop_
_space_group_symop_operation_xyz
x,y,z
1/2-x,-y,z
1/2+x,-y,-z
-x,y,-z
-x,-y,-z
1/2+x,y,-z
1/2-x,y,z
x,-y,z
loop_
_atom_site_type_symbol
_atom_site_label
_atom_site_fract_x
_atom_site_fract_y
_atom_site_fract_z
Si Si1 0.164504 0.794196 0.639227
Si Si2 0.419497 0.785936 0.295490
Si Si3 0.811107 0.782359 0.581408
Si Si4 0.954294 0.708999 0.076063
Si Si5 0.250000 0.216927 0.805561
Si Si6 0.955990 0.708882 0.300135
Si Si7 0.371044 0.785910 0.088232
Si Si8 0.750000 0.782664 0.962294
O O1 0.184428 0.718866 0.533364
O O2 0.196035 0.725009 0.738730
O O3 0.097297 0.785896 0.643172
O O4 0.181042 0.000000 0.636503
O O5 0.365906 0.723787 0.358442
O O6 0.480419 0.733693 0.336478
O O7 0.409046 0.722537 0.181038
O O8 0.418747 0.000000 0.294573
O O9 0.750000 0.732054 0.622980
O O10 0.812877 0.000000 0.581897
O O11 0.966971 0.500000 0.086990
O O12 0.954772 0.785272 0.186920
O O13 0.896282 0.729975 0.017995
O O14 0.000000 0.787985 0.000000
O O15 0.250000 0.276235 0.921037
O O16 0.250000 0.000000 0.812820
O O17 0.944588 0.500000 0.296533
O O18 0.371779 0.000000 0.091369
O O19 0.306845 0.726728 0.092570
O O20 0.750000 0.000000 0.962485
#
# Coordination Sequence:
#
# PCOD9402392 Si02
#       8
#     8   8   8   8   4   8   8   4
#     4  10  19  35  61  86 109 141 183 228 276 331
#     4  10  21  35  55  83 113 146 186 229 271 324
#     4   9  18  35  60  87 112 142 182 228 278 330
#     4  10  20  36  55  74 105 149 186 220 265 319
#     4   9  16  30  54  82 110 139 175 223 276 327
#     4  11  23  38  56  80 112 149 185 227 279 328
#     4  10  20  33  53  82 113 145 181 224 271 320
#     4   9  18  30  46  78 116 139 165 219 280 317
#
# _framework density 23.391249999999999
#
# number of rings (size 3 to 8) (size 9 to 14) (size 15 to 20)
#    0.000    2.143    2.143    1.286    1.000    3.143 
#    0.000    4.286    0.000    3.857    0.000    0.000 
#    0.000    0.000    0.000    0.000    0.000    0.000 
#
# Total GULP energy -312842.665915 kJ/mol
# GULP energy per Si atom -5586.476177 kJ/mol
# Density = 2.333801 g / cm^3
# Si number density = 23.391250 Si / 1000 Ang^3
#
#
#
# Elastic Constant Matrix: (Units=GPa)
#
#
# Indices 1 2 3 4 5 6 
#
# 1 163.7833 -12.4123 20.4513 0.0000 0.0000 0.0000
# 2 -12.4123 60.8990 1.1794 0.0000 0.0000 0.0000
# 3 20.4513 1.1794 36.9994 0.0000 0.0000 0.0000
# 4 0.0000 0.0000 0.0000 -8.7411 0.0000 0.0000
# 5 0.0000 0.0000 0.0000 0.0000 40.5870 0.0000
# 6 0.0000 0.0000 0.0000 0.0000 0.0000 12.8628
#
#
#
# Elastic Compliance Matrix: (Units=1/GPa)
#
#
# Indices 1 2 3 4 5 6 
#
# 1 0.006681 0.001434 -0.003739 0.000000 0.000000 0.000000
# 2 0.001434 0.016739 -0.001326 0.000000 0.000000 0.000000
# 3 -0.003739 -0.001326 0.029136 0.000000 0.000000 0.000000
# 4 0.000000 0.000000 0.000000 -0.114402 0.000000 0.000000
# 5 0.000000 0.000000 0.000000 0.000000 0.024638 0.000000
# 6 0.000000 0.000000 0.000000 0.000000 0.000000 0.077744
#
#
# Mechanical properties :
#
#
# Convention : Reuss Voigt Hill
#
# Bulk Modulus (GPa) = 22.07778 31.12428 26.60103
# Shear Modulus (GPa) = 79.49545 25.77260 52.63402
#
# Velocity S-wave (km/s) = 5.83600 3.32295 4.74873
# Velocity P-wave (km/s) = 7.40749 5.29693 6.43927
#
# Compressibility (1/GPa) = 0.04529441
#
# Stress axis : x y z
#
# Youngs Moduli (GPa) = 149.67452 59.74206 34.32139
#
# Poissons Ratio (x) = -0.08568 0.12832
# Poissons Ratio (y) = -0.21466 0.04552
# Poissons Ratio (z) = 0.55959 0.07924
#
# Static dielectric constant tensor:
#      x y z
#    x 1.895780 0.000000 0.000000 
#    y 0.000000 1.890320 0.000000 
#    z 0.000000 0.000000 1.874640 
# 
# From -- ./inp_files/25820.got.cif
#   From: 2010.05.17/outbox.cif.g08.bks.cpg/sg51_13_cif.got.tgz:25820.got - 2010.06.03 11:52:47.
