data_PCOD9402421
_publ_section_title
;
Structure prediction by ZEFSAII (Michael W. Deem and Ramdas Pophale) SiO2 
 PCOD9402421
Probable space group: P M M A
;
_chemical_formula_sum "Si O2"
_cell_formula_units_Z 48
_cell_length_a 29.643411
_cell_length_b 8.104632
_cell_length_c 10.267008
_cell_angle_alpha 90.000000
_cell_angle_beta 90.000000
_cell_angle_gamma 90.000000
_cell_volume 2466.637762
_symmetry_space_group_name_H-M "P M M A"
_symmetry_group_IT_number 51
_symmetry_cell_setting 'orthorhombic'
loop_
_space_group_symop_operation_xyz
x,y,z
1/2-x,-y,z
1/2+x,-y,-z
-x,y,-z
-x,-y,-z
1/2+x,y,-z
1/2-x,y,z
x,-y,z
loop_
_atom_site_type_symbol
_atom_site_label
_atom_site_fract_x
_atom_site_fract_y
_atom_site_fract_z
Si Si1 0.479778 0.702010 0.361720
Si Si2 0.301400 0.198240 0.486996
Si Si3 0.197776 0.798928 0.779505
Si Si4 0.879374 0.694556 0.707557
Si Si5 0.870127 0.192624 0.002310
Si Si6 0.036687 0.304234 0.886270
O O1 0.500000 0.752575 0.500000
O O2 0.478816 0.500000 0.358243
O O3 0.428736 0.761058 0.334863
O O4 0.513226 0.753657 0.246177
O O5 0.250000 0.257177 0.459239
O O6 0.314751 0.256346 0.632939
O O7 0.338337 0.241461 0.379905
O O8 0.299058 0.000000 0.493020
O O9 0.250000 0.756105 0.800239
O O10 0.194651 0.000000 0.779716
O O11 0.166564 0.738003 0.896320
O O12 0.881126 0.500000 0.686839
O O13 0.871940 0.726944 0.860364
O O14 0.860406 0.000000 0.980706
O O15 0.918216 0.213265 0.071995
O O16 0.047095 0.500000 0.875043
O O17 0.000000 0.286277 0.000000
#
# Coordination Sequence:
#
# PCOD9402421 Si02
#       6
#     8   8   8   8   8   8
#     4   9  19  35  54  77 106 145 186 223 272 334
#     4   9  19  38  61  82 108 143 180 223 278 332
#     4   8  17  36  59  81 108 143 182 223 271 330
#     4  11  22  37  56  82 114 146 185 229 274 328
#     4  11  22  35  56  85 113 145 188 232 276 328
#     4  10  19  36  57  76 107 148 185 222 273 332
#
# _framework density 19.459688
#
# number of rings (size 3 to 8) (size 9 to 14) (size 15 to 20)
#    0.000    2.333    1.667    2.000    2.333    1.333 
#    0.000    2.500    0.000    6.000    0.000    0.000 
#    0.000    0.000    0.000    0.000    0.000    0.000 
#
# Total GULP energy -267851.322788 kJ/mol
# GULP energy per Si atom -5580.235891 kJ/mol
# Density = 1.941540 g / cm^3
# Si number density = 19.459688 Si / 1000 Ang^3
#
#
#
# Elastic Constant Matrix: (Units=GPa)
#
#
# Indices 1 2 3 4 5 6 
#
# 1 109.1724 1.9345 86.1043 0.0000 0.0000 0.0000
# 2 1.9345 6.9489 4.4856 0.0000 0.0000 0.0000
# 3 86.1043 4.4856 158.9988 0.0000 0.0000 0.0000
# 4 0.0000 0.0000 0.0000 6.1346 0.0000 0.0000
# 5 0.0000 0.0000 0.0000 0.0000 38.7023 0.0000
# 6 0.0000 0.0000 0.0000 0.0000 0.0000 28.1533
#
#
#
# Elastic Compliance Matrix: (Units=1/GPa)
#
#
# Indices 1 2 3 4 5 6 
#
# 1 0.015998 0.001160 -0.008696 0.000000 0.000000 0.000000
# 2 0.001160 0.146660 -0.004766 0.000000 0.000000 0.000000
# 3 -0.008696 -0.004766 0.011133 0.000000 0.000000 0.000000
# 4 0.000000 0.000000 0.000000 0.163010 0.000000 0.000000
# 5 0.000000 0.000000 0.000000 0.000000 0.025838 0.000000
# 6 0.000000 0.000000 0.000000 0.000000 0.000000 0.035520
#
#
# Mechanical properties :
#
#
# Convention : Reuss Voigt Hill
#
# Bulk Modulus (GPa) = 6.70299 51.12987 28.91643
# Shear Modulus (GPa) = 10.58218 26.77110 18.67664
#
# Velocity S-wave (km/s) = 2.33448 3.71309 3.10136
# Velocity P-wave (km/s) = 3.27390 6.68690 5.26465
#
# Compressibility (1/GPa) = 0.14918723
#
# Stress axis : x y z
#
# Youngs Moduli (GPa) = 62.50758 6.81849 89.82133
#
# Poissons Ratio (x) = -0.00791 0.78112
# Poissons Ratio (y) = -0.07250 0.42805
# Poissons Ratio (z) = 0.54359 0.03249
#
# Static dielectric constant tensor:
#      x y z
#    x 1.679060 0.000000 0.000000 
#    y 0.000000 1.711310 0.000000 
#    z 0.000000 0.000000 1.663210 
# 
# From -- ./inp_files/12849.got.cif
#   From: 2010.05.17/outbox.cif.g08.bks.cpg/sg51_7_cif.got.tgz:12849.got - 2010.06.03 11:52:47.
