data_PCOD9402405
_publ_section_title
;
Structure prediction by ZEFSAII (Michael W. Deem and Ramdas Pophale) SiO2 
 PCOD9402405
Probable space group: P M M A
;
_chemical_formula_sum "Si O2"
_cell_formula_units_Z 56
_cell_length_a 20.645876
_cell_length_b 14.177285
_cell_length_c 9.658466
_cell_angle_alpha 90.000000
_cell_angle_beta 90.000000
_cell_angle_gamma 90.000000
_cell_volume 2827.056837
_symmetry_space_group_name_H-M "P M M A"
_symmetry_group_IT_number 51
_symmetry_cell_setting 'orthorhombic'
loop_
_space_group_symop_operation_xyz
x,y,z
1/2-x,-y,z
1/2+x,-y,-z
-x,y,-z
-x,-y,-z
1/2+x,y,-z
1/2-x,y,z
x,-y,z
loop_
_atom_site_type_symbol
_atom_site_label
_atom_site_fract_x
_atom_site_fract_y
_atom_site_fract_z
Si Si1 0.556038 0.887330 0.381445
Si Si2 0.952690 0.243318 0.133280
Si Si3 0.994799 0.606058 0.655998
Si Si4 0.826601 0.898841 0.790166
Si Si5 0.674830 0.725857 0.974126
Si Si6 0.822538 0.212136 0.509243
Si Si7 0.657096 0.606920 0.701036
O O1 0.500000 0.873846 0.500000
O O2 0.538284 0.850814 0.227218
O O3 0.617616 0.819398 0.415407
O O4 0.571356 0.000000 0.381947
O O5 0.974104 0.326398 0.234657
O O6 0.879800 0.275048 0.090347
O O7 0.000000 0.240429 0.000000
O O8 0.022573 0.500000 0.656883
O O9 0.919873 0.602171 0.693572
O O10 0.000000 0.642982 0.500000
O O11 0.750000 0.906007 0.819185
O O12 0.849229 0.818353 0.890971
O O13 0.830431 0.861899 0.635155
O O14 0.858200 0.000000 0.807334
O O15 0.750000 0.734626 0.020610
O O16 0.674469 0.645718 0.854120
O O17 0.750000 0.201558 0.448612
O O18 0.824643 0.314543 0.585339
O O19 0.680610 0.500000 0.677434
#
# Coordination Sequence:
#
# PCOD9402405 Si02
#       7
#     8   8   8   8   8   8   8
#     4  11  26  45  65  90 126 169 213 267 331 390
#     4  12  24  41  64  90 126 167 211 267 318 382
#     4  10  21  39  66  96 125 166 217 263 311 376
#     4   8  15  30  54  82 112 151 200 250 301 364
#     4  10  22  37  55  87 127 166 206 254 314 378
#     4  10  20  36  61  92 123 160 209 262 316 378
#     4  10  19  35  61  94 132 170 208 255 309 377
#
# _framework density 19.808586999999999
#
# number of rings (size 3 to 8) (size 9 to 14) (size 15 to 20)
#    0.000    1.857    1.429    3.857    2.000    4.286 
#    0.000    0.000    0.000    0.000    0.000    2.000 
#    0.000    0.000    0.000    0.000    0.000    0.000 
#
# Total GULP energy -312038.238152 kJ/mol
# GULP energy per Si atom -5572.111396 kJ/mol
# Density = 1.976350 g / cm^3
# Si number density = 19.808587 Si / 1000 Ang^3
#
#
#
# Elastic Constant Matrix: (Units=GPa)
#
#
# Indices 1 2 3 4 5 6 
#
# 1 105.2284 28.3784 50.0486 0.0000 0.0000 0.0000
# 2 28.3784 115.8949 42.8400 0.0000 0.0000 0.0000
# 3 50.0486 42.8400 101.4999 0.0000 0.0000 0.0000
# 4 0.0000 0.0000 0.0000 9.9255 0.0000 0.0000
# 5 0.0000 0.0000 0.0000 0.0000 23.1366 0.0000
# 6 0.0000 0.0000 0.0000 0.0000 0.0000 23.6561
#
#
#
# Elastic Compliance Matrix: (Units=1/GPa)
#
#
# Indices 1 2 3 4 5 6 
#
# 1 0.012498 -0.000927 -0.005771 0.000000 0.000000 0.000000
# 2 -0.000927 0.010292 -0.003887 0.000000 0.000000 0.000000
# 3 -0.005771 -0.003887 0.014339 0.000000 0.000000 0.000000
# 4 0.000000 0.000000 0.000000 0.100751 0.000000 0.000000
# 5 0.000000 0.000000 0.000000 0.000000 0.043222 0.000000
# 6 0.000000 0.000000 0.000000 0.000000 0.000000 0.042272
#
#
# Mechanical properties :
#
#
# Convention : Reuss Voigt Hill
#
# Bulk Modulus (GPa) = 62.66343 62.79526 62.72934
# Shear Modulus (GPa) = 20.01089 24.76738 22.38914
#
# Velocity S-wave (km/s) = 3.18183 3.53984 3.36560
# Velocity P-wave (km/s) = 6.72324 6.96256 6.84394
#
# Compressibility (1/GPa) = 0.01595827
#
# Stress axis : x y z
#
# Youngs Moduli (GPa) = 80.01189 97.16008 69.74147
#
# Poissons Ratio (x) = 0.09006 0.40251
# Poissons Ratio (y) = 0.07417 0.27109
# Poissons Ratio (z) = 0.46179 0.37766
#
# Static dielectric constant tensor:
#      x y z
#    x 1.723150 0.000000 0.000000 
#    y 0.000000 -0.469300 0.000000 
#    z 0.000000 0.000000 1.549300 
# 
# From -- ./inp_files/10991.got.cif
#   From: 2010.05.17/outbox.cif.g08.bks.cpg/sg51_6_cif.got.tgz:10991.got - 2010.06.03 11:52:47.
