data_PCOD9402990
_publ_section_title
;
Structure prediction by ZEFSAII (Michael W. Deem and Ramdas Pophale) SiO2 
 PCOD9402990
Probable space group: P M M A
;
_chemical_formula_sum "Si O2"
_cell_formula_units_Z 56
_cell_length_a 15.366339
_cell_length_b 20.565285
_cell_length_c 8.018637
_cell_angle_alpha 90.000000
_cell_angle_beta 90.000000
_cell_angle_gamma 90.000000
_cell_volume 2533.994664
_symmetry_space_group_name_H-M "P M M A"
_symmetry_group_IT_number 51
_symmetry_cell_setting 'orthorhombic'
loop_
_space_group_symop_operation_xyz
x,y,z
1/2-x,-y,z
1/2+x,-y,-z
-x,y,-z
-x,-y,-z
1/2+x,y,-z
1/2-x,y,z
x,-y,z
loop_
_atom_site_type_symbol
_atom_site_label
_atom_site_fract_x
_atom_site_fract_y
_atom_site_fract_z
Si Si1 0.854666 0.207368 0.213485
Si Si2 0.395170 0.349844 0.671212
Si Si3 0.102267 0.342996 0.310511
Si Si4 0.354436 0.204392 0.174409
Si Si5 0.651477 0.070491 0.267402
Si Si6 0.091961 0.071077 0.096746
Si Si7 0.106776 0.425071 0.996387
O O1 0.750000 0.201322 0.212257
O O2 0.878028 0.273915 0.300257
O O3 0.889311 0.141300 0.300323
O O4 0.882703 0.213492 0.019845
O O5 0.499463 0.357062 0.677457
O O6 0.360586 0.365362 0.487707
O O7 0.361936 0.392299 0.825015
O O8 0.114024 0.266076 0.278500
O O9 0.137292 0.381788 0.151747
O O10 0.250000 0.203261 0.182771
O O11 0.389757 0.132324 0.213132
O O12 0.750000 0.069873 0.333745
O O13 0.610688 0.000000 0.309885
O O14 0.655537 0.072321 0.064008
O O15 0.098187 0.000000 0.177154
O O16 0.000000 0.076053 0.000000
O O17 0.132535 0.500000 0.009439
O O18 0.000000 0.423338 0.000000
#
# Coordination Sequence:
#
# PCOD9402990 Si02
#       7
#     8   8   8   8   8   8   8
#     4   9  17  29  50  76 102 139 182 222 271 327
#     4  10  20  34  54  82 110 143 179 224 274 322
#     4  10  21  34  54  82 111 142 183 223 269 329
#     4  10  20  32  51  77 107 149 190 230 280 333
#     4   8  14  25  41  66 100 134 174 223 268 313
#     4   9  17  26  43  75 107 141 185 233 283 330
#     4   9  18  34  57  83 112 143 173 217 274 326
#
# _framework density 22.099495000000001
#
# number of rings (size 3 to 8) (size 9 to 14) (size 15 to 20)
#    0.000    2.714    1.429    1.286    4.000    2.000 
#    0.000    2.857    0.000    2.571    0.000    6.000 
#    0.000    0.000    0.000    0.000    0.000    0.000 
#
# Total GULP energy -312253.510175 kJ/mol
# GULP energy per Si atom -5575.955539 kJ/mol
# Density = 2.204920 g / cm^3
# Si number density = 22.099495 Si / 1000 Ang^3
#
#
#
# Elastic Constant Matrix: (Units=GPa)
#
#
# Indices 1 2 3 4 5 6 
#
# 1 43.2441 -5.3339 6.0622 0.0000 0.0000 0.0000
# 2 -5.3339 163.8344 72.0405 0.0000 0.0000 0.0000
# 3 6.0622 72.0405 109.6858 0.0000 0.0000 0.0000
# 4 0.0000 0.0000 0.0000 -8.6320 0.0000 0.0000
# 5 0.0000 0.0000 0.0000 0.0000 -0.2240 0.0000
# 6 0.0000 0.0000 0.0000 0.0000 0.0000 24.1048
#
#
#
# Elastic Compliance Matrix: (Units=1/GPa)
#
#
# Indices 1 2 3 4 5 6 
#
# 1 0.023717 0.001896 -0.002556 0.000000 0.000000 0.000000
# 2 0.001896 0.008734 -0.005841 0.000000 0.000000 0.000000
# 3 -0.002556 -0.005841 0.013095 0.000000 0.000000 0.000000
# 4 0.000000 0.000000 0.000000 -0.115848 0.000000 0.000000
# 5 0.000000 0.000000 0.000000 0.000000 -4.464201 0.000000
# 6 0.000000 0.000000 0.000000 0.000000 0.000000 0.041486
#
#
# Mechanical properties :
#
#
# Convention : Reuss Voigt Hill
#
# Bulk Modulus (GPa) = 30.72864 51.36689 41.04777
# Shear Modulus (GPa) = -1.11878 19.31613 9.09868
#
# Velocity S-wave (km/s) = -0.71228 2.95965 2.03128
# Velocity P-wave (km/s) = 3.64121 5.91382 4.91079
#
# Compressibility (1/GPa) = 0.03254293
#
# Stress axis : x y z
#
# Youngs Moduli (GPa) = 42.16433 114.49656 76.36729
#
# Poissons Ratio (x) = -0.21710 0.19520
# Poissons Ratio (y) = -0.07995 0.44607
# Poissons Ratio (z) = 0.10778 0.66879
#
# Static dielectric constant tensor:
#      x y z
#    x 1.840480 0.000000 0.000000 
#    y 0.000000 1.833050 0.000000 
#    z 0.000000 0.000000 1.825110 
# 
# From -- ./inp_files/11126.got.cif
#   From: 2010.05.17/outbox.cif.g08.bks.cpg/sg51_6_cif.got.tgz:11126.got - 2010.06.03 11:52:47.
