data_PCOD9402103
_publ_section_title
;
Structure prediction by ZEFSAII (Michael W. Deem and Ramdas Pophale) SiO2 
 PCOD9402103
Probable space group: P M M A
;
_chemical_formula_sum "Si O2"
_cell_formula_units_Z 48
_cell_length_a 15.061001
_cell_length_b 15.933848
_cell_length_c 10.761781
_cell_angle_alpha 90.000000
_cell_angle_beta 90.000000
_cell_angle_gamma 90.000000
_cell_volume 2582.608983
_symmetry_space_group_name_H-M "P M M A"
_symmetry_group_IT_number 51
_symmetry_cell_setting 'orthorhombic'
loop_
_space_group_symop_operation_xyz
x,y,z
1/2-x,-y,z
1/2+x,-y,-z
-x,y,-z
-x,-y,-z
1/2+x,y,-z
1/2-x,y,z
x,-y,z
loop_
_atom_site_type_symbol
_atom_site_label
_atom_site_fract_x
_atom_site_fract_y
_atom_site_fract_z
Si Si1 0.944519 0.594364 0.873007
Si Si2 0.516925 0.095648 0.853737
Si Si3 0.355326 0.748937 0.509548
Si Si4 0.438139 0.409106 0.623016
Si Si5 0.145484 0.902966 0.671771
Si Si6 0.144404 0.754350 0.226486
O O1 0.904272 0.500000 0.875220
O O2 0.878400 0.671846 0.853679
O O3 0.008285 0.596417 0.751755
O O4 0.000000 0.604626 0.000000
O O5 0.423212 0.109862 0.783865
O O6 0.588464 0.165377 0.816880
O O7 0.545986 0.000000 0.822913
O O8 0.500000 0.100307 0.000000
O O9 0.250000 0.749979 0.501979
O O10 0.381942 0.673926 0.600379
O O11 0.382720 0.838188 0.565221
O O12 0.386343 0.736262 0.368591
O O13 0.500000 0.411293 0.500000
O O14 0.390179 0.500000 0.624211
O O15 0.250000 0.887849 0.703849
O O16 0.139045 0.000000 0.631915
O O17 0.250000 0.770243 0.223895
#
# Coordination Sequence:
#
# PCOD9402103 Si02
#       6
#     8   8   8   8   8   8
#     4  10  21  38  59  84 114 150 193 241 289 339
#     4  10  22  39  58  81 111 149 191 235 283 340
#     4  10  21  35  54  82 114 146 185 237 286 338
#     4  10  19  34  57  81 108 147 191 232 280 337
#     4   9  19  36  58  83 110 144 187 236 291 343
#     4  11  23  37  56  84 116 152 191 232 283 344
#
# _framework density 18.585857000000001
#
# number of rings (size 3 to 8) (size 9 to 14) (size 15 to 20)
#    0.000    2.000    1.667    1.500    0.000    2.333 
#    0.000    9.167    0.000    3.000    0.000    0.000 
#    0.000    0.000    0.000    0.000    0.000    0.000 
#
# Total GULP energy -267596.711942 kJ/mol
# GULP energy per Si atom -5574.931499 kJ/mol
# Density = 1.854355 g / cm^3
# Si number density = 18.585857 Si / 1000 Ang^3
#
#
#
# Elastic Constant Matrix: (Units=GPa)
#
#
# Indices 1 2 3 4 5 6 
#
# 1 57.8172 69.3573 32.1819 0.0000 0.0000 0.0000
# 2 69.3573 144.6212 44.0667 0.0000 0.0000 0.0000
# 3 32.1819 44.0667 88.4170 0.0000 0.0000 0.0000
# 4 0.0000 0.0000 0.0000 30.5283 0.0000 0.0000
# 5 0.0000 0.0000 0.0000 0.0000 21.8499 0.0000
# 6 0.0000 0.0000 0.0000 0.0000 0.0000 20.8864
#
#
#
# Elastic Compliance Matrix: (Units=1/GPa)
#
#
# Indices 1 2 3 4 5 6 
#
# 1 0.043617 -0.018960 -0.006426 0.000000 0.000000 0.000000
# 2 -0.018960 0.016394 -0.001270 0.000000 0.000000 0.000000
# 3 -0.006426 -0.001270 0.014282 0.000000 0.000000 0.000000
# 4 0.000000 0.000000 0.000000 0.032756 0.000000 0.000000
# 5 0.000000 0.000000 0.000000 0.000000 0.045767 0.000000
# 6 0.000000 0.000000 0.000000 0.000000 0.000000 0.047878
#
#
# Mechanical properties :
#
#
# Convention : Reuss Voigt Hill
#
# Bulk Modulus (GPa) = 47.66101 64.67411 56.16756
# Shear Modulus (GPa) = 19.15715 24.33623 21.74669
#
# Velocity S-wave (km/s) = 3.21399 3.62248 3.42433
# Velocity P-wave (km/s) = 6.28270 7.23668 6.77650
#
# Compressibility (1/GPa) = 0.02098151
#
# Stress axis : x y z
#
# Youngs Moduli (GPa) = 22.92702 60.99721 70.01846
#
# Poissons Ratio (x) = 1.15648 0.44995
# Poissons Ratio (y) = 0.43469 0.08892
# Poissons Ratio (z) = 0.14733 0.07746
#
# Static dielectric constant tensor:
#      x y z
#    x 1.626290 0.000000 0.000000 
#    y 0.000000 1.673340 0.000000 
#    z 0.000000 0.000000 1.634120 
# 
# From -- ./inp_files/16444.got.cif
#   From: 2010.05.17/outbox.cif.g08.bks.cpg/sg51_9_cif.got.tgz:16444.got - 2010.06.03 11:52:47.
