data_PCOD9402035
_publ_section_title
;
Structure prediction by ZEFSAII (Michael W. Deem and Ramdas Pophale) SiO2 
 PCOD9402035
Probable space group: P M M A
;
_chemical_formula_sum "Si O2"
_cell_formula_units_Z 56
_cell_length_a 15.164259
_cell_length_b 17.674492
_cell_length_c 10.990276
_cell_angle_alpha 90.000000
_cell_angle_beta 90.000000
_cell_angle_gamma 90.000000
_cell_volume 2945.620086
_symmetry_space_group_name_H-M "P M M A"
_symmetry_group_IT_number 51
_symmetry_cell_setting 'orthorhombic'
loop_
_space_group_symop_operation_xyz
x,y,z
1/2-x,-y,z
1/2+x,-y,-z
-x,y,-z
-x,-y,-z
1/2+x,y,-z
1/2-x,y,z
x,-y,z
loop_
_atom_site_type_symbol
_atom_site_label
_atom_site_fract_x
_atom_site_fract_y
_atom_site_fract_z
Si Si1 0.351465 0.190070 0.448182
Si Si2 0.498236 0.589242 0.647505
Si Si3 0.152349 0.855745 0.811480
Si Si4 0.351173 0.707527 0.678646
Si Si5 0.406179 0.183955 0.061769
Si Si6 0.530543 0.910949 0.709241
Si Si7 0.848172 0.314004 0.766306
O O1 0.250000 0.161657 0.464565
O O2 0.378027 0.237914 0.566570
O O3 0.422222 0.128211 0.406187
O O4 0.348423 0.251882 0.341224
O O5 0.500000 0.600152 0.500000
O O6 0.492397 0.500000 0.669589
O O7 0.413832 0.636760 0.689972
O O8 0.580419 0.625371 0.720520
O O9 0.250000 0.878815 0.769269
O O10 0.143763 0.765339 0.790165
O O11 0.072805 0.894106 0.737617
O O12 0.144985 0.861494 0.956705
O O13 0.250000 0.685015 0.657588
O O14 0.421735 0.128224 0.175274
O O15 0.368836 0.262601 0.115103
O O16 0.500000 0.200393 0.000000
O O17 0.543615 0.000000 0.704788
O O18 0.750000 0.346797 0.776564
#
# Coordination Sequence:
#
# PCOD9402035 Si02
#       7
#     8   8   8   8   8   8   8
#     4   9  18  34  56  78 101 138 187 233 274 326
#     4  11  22  33  53  86 119 146 175 219 280 341
#     4  10  21  35  55  82 108 144 191 230 272 330
#     4  10  20  37  59  79 107 146 186 231 278 330
#     4   9  18  34  58  82 107 143 194 245 282 329
#     4  10  21  35  54  80 110 144 180 229 290 341
#     4  10  19  34  56  80 112 152 191 232 277 327
#
# _framework density 19.011278000000001
#
# number of rings (size 3 to 8) (size 9 to 14) (size 15 to 20)
#    0.000    2.143    1.429    3.000    0.000    4.286 
#    0.000    2.857    0.000    6.429    0.000    4.000 
#    0.000    0.000    0.000    0.000    0.000    0.000 
#
# Total GULP energy -312235.058665 kJ/mol
# GULP energy per Si atom -5575.626048 kJ/mol
# Density = 1.896801 g / cm^3
# Si number density = 19.011278 Si / 1000 Ang^3
#
#
#
# Elastic Constant Matrix: (Units=GPa)
#
#
# Indices 1 2 3 4 5 6 
#
# 1 130.3705 82.0815 32.8770 0.0000 0.0000 0.0000
# 2 82.0815 110.3693 16.8175 0.0000 0.0000 0.0000
# 3 32.8770 16.8175 32.1536 0.0000 0.0000 0.0000
# 4 0.0000 0.0000 0.0000 8.6948 0.0000 0.0000
# 5 0.0000 0.0000 0.0000 0.0000 11.0964 0.0000
# 6 0.0000 0.0000 0.0000 0.0000 0.0000 5.3166
#
#
#
# Elastic Compliance Matrix: (Units=1/GPa)
#
#
# Indices 1 2 3 4 5 6 
#
# 1 0.018082 -0.011551 -0.012447 0.000000 0.000000 0.000000
# 2 -0.011551 0.017224 0.002802 0.000000 0.000000 0.000000
# 3 -0.012447 0.002802 0.042362 0.000000 0.000000 0.000000
# 4 0.000000 0.000000 0.000000 0.115011 0.000000 0.000000
# 5 0.000000 0.000000 0.000000 0.000000 0.090119 0.000000
# 6 0.000000 0.000000 0.000000 0.000000 0.000000 0.188091
#
#
# Mechanical properties :
#
#
# Convention : Reuss Voigt Hill
#
# Bulk Modulus (GPa) = 28.34785 59.60505 43.97645
# Shear Modulus (GPa) = 9.52310 14.42940 11.97625
#
# Velocity S-wave (km/s) = 2.24055 2.75797 2.51261
# Velocity P-wave (km/s) = 4.65154 6.44689 5.62135
#
# Compressibility (1/GPa) = 0.03527604
#
# Stress axis : x y z
#
# Youngs Moduli (GPa) = 55.30453 58.05918 23.60591
#
# Poissons Ratio (x) = 0.67063 0.29382
# Poissons Ratio (y) = 0.63881 -0.06614
# Poissons Ratio (z) = 0.68838 -0.16268
#
# Static dielectric constant tensor:
#      x y z
#    x 1.742770 0.000000 0.000000 
#    y 0.000000 1.604070 0.000000 
#    z 0.000000 0.000000 1.733220 
# 
# From -- ./inp_files/16603.got.cif
#   From: 2010.05.17/outbox.cif.g08.bks.cpg/sg51_9_cif.got.tgz:16603.got - 2010.06.03 11:52:47.
