data_PCOD9402938
_publ_section_title
;
Structure prediction by ZEFSAII (Michael W. Deem and Ramdas Pophale) SiO2 
 PCOD9402938
Probable space group: P M M A
;
_chemical_formula_sum "Si O2"
_cell_formula_units_Z 52
_cell_length_a 7.886565
_cell_length_b 15.144382
_cell_length_c 21.027717
_cell_angle_alpha 90.000000
_cell_angle_beta 90.000000
_cell_angle_gamma 90.000000
_cell_volume 2511.490653
_symmetry_space_group_name_H-M "P M M A"
_symmetry_group_IT_number 51
_symmetry_cell_setting 'orthorhombic'
loop_
_space_group_symop_operation_xyz
x,y,z
1/2-x,-y,z
1/2+x,-y,-z
-x,y,-z
-x,-y,-z
1/2+x,y,-z
1/2-x,y,z
x,-y,z
loop_
_atom_site_type_symbol
_atom_site_label
_atom_site_fract_x
_atom_site_fract_y
_atom_site_fract_z
Si Si1 0.548102 0.694609 0.573368
Si Si2 0.545567 0.788955 0.068179
Si Si3 0.947732 0.404378 0.767459
Si Si4 0.549084 0.771758 0.302529
Si Si5 0.053904 0.404261 0.909598
Si Si6 0.545346 0.500000 0.574829
Si Si7 0.457663 0.101232 0.808160
O O1 0.500000 0.709495 0.500000
O O2 0.750000 0.689656 0.576383
O O3 0.491444 0.768961 0.622925
O O4 0.480921 0.597041 0.594976
O O5 0.750000 0.783618 0.073018
O O6 0.475398 0.688374 0.069061
O O7 0.487081 0.843125 0.129858
O O8 0.500000 0.829520 0.000000
O O9 0.750000 0.404528 0.785267
O O10 0.984141 0.500000 0.736429
O O11 0.979785 0.319876 0.725305
O O12 0.050062 0.399033 0.832917
O O13 0.750000 0.769967 0.295488
O O14 0.486347 0.849745 0.256500
O O15 0.250000 0.405842 0.930510
O O16 0.976246 0.500000 0.926576
O O17 0.750000 0.500000 0.584405
O O18 0.500000 0.500000 0.500000
O O19 0.250000 0.100881 0.808820
O O20 0.513512 0.000000 0.811182
#
# Coordination Sequence:
#
# PCOD9402938 Si02
#       7
#     8   8   8   8   8   4   8
#     4  10  20  35  53  79 115 153 190 227 268 318
#     4  10  20  35  54  80 110 144 182 223 273 330
#     4  10  20  32  49  76 110 145 182 226 273 322
#     4  11  21  35  57  83 108 144 188 228 277 330
#     4   9  17  32  52  74 105 144 185 226 266 320
#     4   8  16  30  48  70 106 150 187 218 253 302
#     4   9  19  38  61  82 107 139 179 229 286 344
#
# _framework density 20.704834999999999
#
# number of rings (size 3 to 8) (size 9 to 14) (size 15 to 20)
#    0.000    2.308    1.538    1.385    1.077    2.769 
#    0.000    0.000    0.000    4.154    0.000    0.000 
#    0.000    0.000    0.000    0.000    0.000    0.000 
#
# Total GULP energy -290061.085050 kJ/mol
# GULP energy per Si atom -5578.097789 kJ/mol
# Density = 2.065771 g / cm^3
# Si number density = 20.704835 Si / 1000 Ang^3
#
#
#
# Elastic Constant Matrix: (Units=GPa)
#
#
# Indices 1 2 3 4 5 6 
#
# 1 35.2971 11.2465 2.9643 0.0000 0.0000 0.0000
# 2 11.2465 137.0858 73.9130 0.0000 0.0000 0.0000
# 3 2.9643 73.9130 116.1536 0.0000 0.0000 0.0000
# 4 0.0000 0.0000 0.0000 5.1342 0.0000 0.0000
# 5 0.0000 0.0000 0.0000 0.0000 20.7081 0.0000
# 6 0.0000 0.0000 0.0000 0.0000 0.0000 3.2314
#
#
#
# Elastic Compliance Matrix: (Units=1/GPa)
#
#
# Indices 1 2 3 4 5 6 
#
# 1 0.029198 -0.003035 0.001186 0.000000 0.000000 0.000000
# 2 -0.003035 0.011420 -0.007190 0.000000 0.000000 0.000000
# 3 0.001186 -0.007190 0.013154 0.000000 0.000000 0.000000
# 4 0.000000 0.000000 0.000000 0.194772 0.000000 0.000000
# 5 0.000000 0.000000 0.000000 0.000000 0.048290 0.000000
# 6 0.000000 0.000000 0.000000 0.000000 0.000000 0.309460
#
#
# Mechanical properties :
#
#
# Convention : Reuss Voigt Hill
#
# Bulk Modulus (GPa) = 28.01466 51.64267 39.82866
# Shear Modulus (GPa) = 7.85829 19.17558 13.51694
#
# Velocity S-wave (km/s) = 1.95029 3.04656 2.55784
# Velocity P-wave (km/s) = 4.31641 6.11325 5.29165
#
# Compressibility (1/GPa) = 0.03569560
#
# Stress axis : x y z
#
# Youngs Moduli (GPa) = 34.24852 87.56454 76.02214
#
# Poissons Ratio (x) = 0.26575 -0.09017
# Poissons Ratio (y) = 0.10394 0.54657
# Poissons Ratio (z) = -0.04062 0.62956
#
# Static dielectric constant tensor:
#      x y z
#    x 1.757580 0.000000 0.000000 
#    y 0.000000 1.756480 0.000000 
#    z 0.000000 0.000000 1.760240 
# 
# From -- ./inp_files/31697.got.cif
#   From: 2010.05.17/outbox.cif.g08.bks.cpg/sg51_16_cif.got.tgz:31697.got - 2010.06.03 11:52:47.
