data_PCOD9402129
_publ_section_title
;
Structure prediction by ZEFSAII (Michael W. Deem and Ramdas Pophale) SiO2 
 PCOD9402129
Probable space group: P M M A
;
_chemical_formula_sum "Si O2"
_cell_formula_units_Z 64
_cell_length_a 8.965593
_cell_length_b 25.750742
_cell_length_c 14.927471
_cell_angle_alpha 90.000000
_cell_angle_beta 90.000000
_cell_angle_gamma 90.000000
_cell_volume 3446.315264
_symmetry_space_group_name_H-M "P M M A"
_symmetry_group_IT_number 51
_symmetry_cell_setting 'orthorhombic'
loop_
_space_group_symop_operation_xyz
x,y,z
1/2-x,-y,z
1/2+x,-y,-z
-x,y,-z
-x,-y,-z
1/2+x,y,-z
1/2-x,y,z
x,-y,z
loop_
_atom_site_type_symbol
_atom_site_label
_atom_site_fract_x
_atom_site_fract_y
_atom_site_fract_z
Si Si1 0.929647 0.647295 0.098472
Si Si2 0.421349 0.936675 0.409179
Si Si3 0.926616 0.406193 0.405907
Si Si4 0.926276 0.281155 0.407266
Si Si5 0.573402 0.439880 0.778430
Si Si6 0.929476 0.059708 0.223584
Si Si7 0.569835 0.847877 0.097230
Si Si8 0.931339 0.250962 0.213415
O O1 0.750000 0.645338 0.092659
O O2 0.972347 0.698409 0.155733
O O3 0.990552 0.598021 0.152916
O O4 0.000000 0.649639 0.000000
O O5 0.500000 0.918413 0.500000
O O6 0.250000 0.920428 0.407136
O O7 0.504934 0.921762 0.318333
O O8 0.424871 0.000000 0.411222
O O9 0.750000 0.417274 0.405563
O O10 0.945611 0.343591 0.398251
O O11 0.000000 0.422422 0.500000
O O12 0.005797 0.430985 0.320337
O O13 0.750000 0.271362 0.413483
O O14 0.985174 0.255861 0.315622
O O15 0.000000 0.264280 0.500000
O O16 0.750000 0.428249 0.777188
O O17 0.553626 0.500000 0.803714
O O18 0.750000 0.060437 0.230482
O O19 0.973932 0.098219 0.144496
O O20 0.976444 0.000000 0.208224
O O21 0.750000 0.846503 0.090218
O O22 0.522404 0.800685 0.161617
O O23 0.500000 0.842309 0.000000
O O24 0.750000 0.250790 0.217672
#
# Coordination Sequence:
#
# PCOD9402129 Si02
#       8
#     8   8   8   8   8   8   8   8
#     4  11  22  39  61  84 108 140 182 230 282 337
#     4   9  16  27  47  75 105 139 179 223 268 316
#     4  10  19  34  57  84 114 149 186 227 273 326
#     4   9  17  32  54  82 111 141 175 214 263 321
#     4  11  24  40  57  81 113 148 188 231 274 327
#     4   9  18  33  52  76 108 148 189 225 270 327
#     4  10  21  37  57  79 108 144 181 231 283 328
#     4   9  18  36  59  82 111 143 178 221 275 330
#
# _framework density 18.570557999999998
#
# number of rings (size 3 to 8) (size 9 to 14) (size 15 to 20)
#    0.000    2.250    1.250    1.875    0.000    4.250 
#    0.000    1.875    0.000    1.500    0.000    0.000 
#    0.000    0.000    0.000    0.000    0.000    0.000 
#
# Total GULP energy -357248.241669 kJ/mol
# GULP energy per Si atom -5582.003776 kJ/mol
# Density = 1.852829 g / cm^3
# Si number density = 18.570558 Si / 1000 Ang^3
#
#
#
# Elastic Constant Matrix: (Units=GPa)
#
#
# Indices 1 2 3 4 5 6 
#
# 1 43.3394 40.2888 43.6692 0.0000 0.0000 0.0000
# 2 40.2888 80.0294 75.1129 0.0000 0.0000 0.0000
# 3 43.6692 75.1129 164.6004 0.0000 0.0000 0.0000
# 4 0.0000 0.0000 0.0000 -10.4606 0.0000 0.0000
# 5 0.0000 0.0000 0.0000 0.0000 38.8600 0.0000
# 6 0.0000 0.0000 0.0000 0.0000 0.0000 10.1782
#
#
#
# Elastic Compliance Matrix: (Units=1/GPa)
#
#
# Indices 1 2 3 4 5 6 
#
# 1 0.044067 -0.019611 -0.002742 0.000000 0.000000 0.000000
# 2 -0.019611 0.030584 -0.008754 0.000000 0.000000 0.000000
# 3 -0.002742 -0.008754 0.010797 0.000000 0.000000 0.000000
# 4 0.000000 0.000000 0.000000 -0.095597 0.000000 0.000000
# 5 0.000000 0.000000 0.000000 0.000000 0.025733 0.000000
# 6 0.000000 0.000000 0.000000 0.000000 0.000000 0.098250
#
#
# Mechanical properties :
#
#
# Convention : Reuss Voigt Hill
#
# Bulk Modulus (GPa) = 43.03808 67.34566 55.19187
# Shear Modulus (GPa) = 27.20458 16.30873 21.75665
#
# Velocity S-wave (km/s) = 3.83159 2.96667 3.42653
# Velocity P-wave (km/s) = 6.54221 6.93385 6.74088
#
# Compressibility (1/GPa) = 0.02323524
#
# Stress axis : x y z
#
# Youngs Moduli (GPa) = 22.69262 32.69697 92.61497
#
# Poissons Ratio (x) = 0.64122 0.25396
# Poissons Ratio (y) = 0.44502 0.81072
# Poissons Ratio (z) = 0.06222 0.28622
#
# Static dielectric constant tensor:
#      x y z
#    x 1.623910 0.000000 0.000000 
#    y 0.000000 1.646460 0.000000 
#    z 0.000000 0.000000 1.614410 
# 
# From -- ./inp_files/22204.got.cif
#   From: 2010.05.17/outbox.cif.g08.bks.cpg/sg51_12_cif.got.tgz:22204.got - 2010.06.03 11:52:47.
