data_PCOD9402127
_publ_section_title
;
Structure prediction by ZEFSAII (Michael W. Deem and Ramdas Pophale) SiO2 
 PCOD9402127
Probable space group: P M M A
;
_chemical_formula_sum "Si O2"
_cell_formula_units_Z 40
_cell_length_a 18.961263
_cell_length_b 7.551819
_cell_length_c 12.669128
_cell_angle_alpha 90.000000
_cell_angle_beta 90.000000
_cell_angle_gamma 90.000000
_cell_volume 1814.118108
_symmetry_space_group_name_H-M "P M M A"
_symmetry_group_IT_number 51
_symmetry_cell_setting 'orthorhombic'
loop_
_space_group_symop_operation_xyz
x,y,z
1/2-x,-y,z
1/2+x,-y,-z
-x,y,-z
-x,-y,-z
1/2+x,y,-z
1/2-x,y,z
x,-y,z
loop_
_atom_site_type_symbol
_atom_site_label
_atom_site_fract_x
_atom_site_fract_y
_atom_site_fract_z
Si Si1 0.423912 0.215738 0.454843
Si Si2 0.086372 0.785431 0.213137
Si Si3 0.171699 0.293988 0.015992
Si Si4 0.068470 0.205991 0.834181
Si Si5 0.330140 0.216915 0.649078
O O1 0.500000 0.272416 0.500000
O O2 0.411063 0.272309 0.334865
O O3 0.364027 0.268940 0.537599
O O4 0.425481 0.000000 0.453279
O O5 0.010793 0.722297 0.166692
O O6 0.089279 0.000000 0.210823
O O7 0.148412 0.723355 0.137042
O O8 0.250000 0.218378 0.997319
O O9 0.173865 0.500000 0.988213
O O10 0.110692 0.214301 0.943059
O O11 0.118759 0.280330 0.742629
O O12 0.059077 0.000000 0.806219
O O13 0.250000 0.276158 0.662877
O O14 0.329259 0.000000 0.652119
#
# Coordination Sequence:
#
# PCOD9402127 Si02
#       5
#     8   8   8   8   8
#     4   9  15  28  49  77 114 144 167 209 265 319
#     4  10  20  34  58  86 111 141 179 222 271 326
#     4  11  25  41  54  73 107 148 186 228 276 321
#     4  10  19  34  57  84 110 138 177 227 276 324
#     4   9  16  26  46  78 111 142 175 214 265 318
#
# _framework density 22.049281000000001
#
# number of rings (size 3 to 8) (size 9 to 14) (size 15 to 20)
#    0.000    2.200    2.000    1.800    0.000    6.400 
#    0.000    2.000    0.000    1.800    0.000    2.800 
#    0.000    0.000    0.000    0.000    0.000    0.000 
#
# Total GULP energy -223467.415635 kJ/mol
# GULP energy per Si atom -5586.685391 kJ/mol
# Density = 2.199910 g / cm^3
# Si number density = 22.049281 Si / 1000 Ang^3
#
#
#
# Elastic Constant Matrix: (Units=GPa)
#
#
# Indices 1 2 3 4 5 6 
#
# 1 60.3257 0.1682 0.0261 0.0000 0.0000 0.0000
# 2 0.1682 50.4661 -14.9597 0.0000 0.0000 0.0000
# 3 0.0261 -14.9597 87.5120 0.0000 0.0000 0.0000
# 4 0.0000 0.0000 0.0000 -94.4286 0.0000 0.0000
# 5 0.0000 0.0000 0.0000 0.0000 24.7262 0.0000
# 6 0.0000 0.0000 0.0000 0.0000 0.0000 127.8839
#
#
#
# Elastic Compliance Matrix: (Units=1/GPa)
#
#
# Indices 1 2 3 4 5 6 
#
# 1 0.016577 -0.000060 -0.000015 0.000000 0.000000 0.000000
# 2 -0.000060 0.020873 0.003568 0.000000 0.000000 0.000000
# 3 -0.000015 0.003568 0.012037 0.000000 0.000000 0.000000
# 4 0.000000 0.000000 0.000000 -0.010590 0.000000 0.000000
# 5 0.000000 0.000000 0.000000 0.000000 0.040443 0.000000
# 6 0.000000 0.000000 0.000000 0.000000 0.000000 0.007820
#
#
# Mechanical properties :
#
#
# Convention : Reuss Voigt Hill
#
# Bulk Modulus (GPa) = 17.70738 18.75254 18.22996
# Shear Modulus (GPa) = 50.50634 25.84092 38.17363
#
# Velocity S-wave (km/s) = 4.79123 3.42711 4.16539
# Velocity P-wave (km/s) = 6.21740 4.91766 5.60533
#
# Compressibility (1/GPa) = 0.05647363
#
# Stress axis : x y z
#
# Youngs Moduli (GPa) = 60.32505 47.90829 83.07739
#
# Poissons Ratio (x) = 0.00286 0.00126
# Poissons Ratio (y) = 0.00360 -0.29643
# Poissons Ratio (z) = 0.00091 -0.17095
#
# Static dielectric constant tensor:
#      x y z
#    x 1.784390 0.000000 0.000000 
#    y 0.000000 1.870590 0.000000 
#    z 0.000000 0.000000 1.776170 
# 
# From -- ./inp_files/17080.got.cif
#   From: 2010.05.17/outbox.cif.g08.bks.cpg/sg51_9_cif.got.tgz:17080.got - 2010.06.03 11:52:47.
