data_PCOD9402469
_publ_section_title
;
Structure prediction by ZEFSAII (Michael W. Deem and Ramdas Pophale) SiO2 
 PCOD9402469
Probable space group: P M M A
;
_chemical_formula_sum "Si O2"
_cell_formula_units_Z 48
_cell_length_a 15.539016
_cell_length_b 7.816053
_cell_length_c 19.716831
_cell_angle_alpha 90.000000
_cell_angle_beta 90.000000
_cell_angle_gamma 90.000000
_cell_volume 2394.683509
_symmetry_space_group_name_H-M "P M M A"
_symmetry_group_IT_number 51
_symmetry_cell_setting 'orthorhombic'
loop_
_space_group_symop_operation_xyz
x,y,z
1/2-x,-y,z
1/2+x,-y,-z
-x,y,-z
-x,-y,-z
1/2+x,y,-z
1/2-x,y,z
x,-y,z
loop_
_atom_site_type_symbol
_atom_site_label
_atom_site_fract_x
_atom_site_fract_y
_atom_site_fract_z
Si Si1 0.847923 0.790413 0.176291
Si Si2 0.250000 0.295832 0.577734
Si Si3 0.250000 0.710373 0.423190
Si Si4 0.502761 0.204632 0.076480
Si Si5 0.593466 0.202988 0.325357
Si Si6 0.100247 0.702576 0.324329
Si Si7 0.651655 0.292898 0.825416
O O1 0.750000 0.737806 0.162231
O O2 0.876022 0.732315 0.251441
O O3 0.917326 0.730105 0.121410
O O4 0.848837 0.000000 0.176834
O O5 0.250000 0.500000 0.575035
O O6 0.250000 0.230042 0.500689
O O7 0.334251 0.241836 0.619376
O O8 0.250000 0.500000 0.425154
O O9 0.166476 0.767787 0.380727
O O10 0.415294 0.237087 0.117543
O O11 0.514281 0.000000 0.071943
O O12 0.500000 0.273406 0.000000
O O13 0.499041 0.271056 0.341963
O O14 0.585627 0.000000 0.319498
O O15 0.116404 0.500000 0.320242
O O16 0.120396 0.770481 0.248737
O O17 0.750000 0.237384 0.837126
O O18 0.651023 0.500000 0.824355
#
# Coordination Sequence:
#
# PCOD9402469 Si02
#       7
#     8   4   4   8   8   8   8
#     4   9  17  32  54  77 105 145 184 221 272 328
#     4  11  23  39  59  85 114 147 190 238 280 332
#     4   9  20  39  61  83 114 151 188 232 282 336
#     4  10  21  36  56  84 115 147 188 233 279 337
#     4  11  21  36  58  84 114 149 187 233 286 339
#     4  10  19  36  61  86 110 146 194 235 277 338
#     4  10  20  35  58  85 113 146 187 236 285 333
#
# _framework density 20.044402000000002
#
# number of rings (size 3 to 8) (size 9 to 14) (size 15 to 20)
#    0.000    2.000    3.333    0.750    0.000    2.000 
#    0.000    7.083    0.000    0.000    0.000    0.000 
#    0.000    0.000    0.000    0.000    0.000    0.000 
#
# Total GULP energy -268076.119326 kJ/mol
# GULP energy per Si atom -5584.919153 kJ/mol
# Density = 1.999878 g / cm^3
# Si number density = 20.044402 Si / 1000 Ang^3
#
#
#
# Elastic Constant Matrix: (Units=GPa)
#
#
# Indices 1 2 3 4 5 6 
#
# 1 184.4104 -18.0334 108.5266 0.0000 0.0000 0.0000
# 2 -18.0334 16.1444 -0.4163 0.0000 0.0000 0.0000
# 3 108.5266 -0.4163 201.6619 0.0000 0.0000 0.0000
# 4 0.0000 0.0000 0.0000 13.4027 0.0000 0.0000
# 5 0.0000 0.0000 0.0000 0.0000 33.2125 0.0000
# 6 0.0000 0.0000 0.0000 0.0000 0.0000 858.3651
#
#
#
# Elastic Compliance Matrix: (Units=1/GPa)
#
#
# Indices 1 2 3 4 5 6 
#
# 1 0.009402 0.010372 -0.005038 0.000000 0.000000 0.000000
# 2 0.010372 0.073387 -0.005430 0.000000 0.000000 0.000000
# 3 -0.005038 -0.005430 0.007659 0.000000 0.000000 0.000000
# 4 0.000000 0.000000 0.000000 0.074612 0.000000 0.000000
# 5 0.000000 0.000000 0.000000 0.000000 0.030109 0.000000
# 6 0.000000 0.000000 0.000000 0.000000 0.000000 0.001165
#
#
# Mechanical properties :
#
#
# Convention : Reuss Voigt Hill
#
# Bulk Modulus (GPa) = 11.07976 64.70784 37.89380
# Shear Modulus (GPa) = 22.06414 201.80539 111.93477
#
# Velocity S-wave (km/s) = 3.32137 10.04479 7.48095
# Velocity P-wave (km/s) = 4.49981 12.91831 9.67293
#
# Compressibility (1/GPa) = 0.09025467
#
# Stress axis : x y z
#
# Youngs Moduli (GPa) = 106.35875 13.62645 130.56398
#
# Poissons Ratio (x) = -0.14134 0.65784
# Poissons Ratio (y) = -1.10318 0.70902
# Poissons Ratio (z) = 0.53588 0.07400
#
# Static dielectric constant tensor:
#      x y z
#    x 1.661110 0.000000 0.000000 
#    y 0.000000 1.749900 0.000000 
#    z 0.000000 0.000000 1.695360 
# 
# From -- ./inp_files/29609.got.cif
#   From: 2010.05.17/outbox.cif.g08.bks.cpg/sg51_15_cif.got.tgz:29609.got - 2010.06.03 11:52:47.
