data_PCOD9402500
_publ_section_title
;
Structure prediction by ZEFSAII (Michael W. Deem and Ramdas Pophale) SiO2 
 PCOD9402500
Probable space group: P M M A
;
_chemical_formula_sum "Si O2"
_cell_formula_units_Z 56
_cell_length_a 21.476567
_cell_length_b 8.044567
_cell_length_c 15.933820
_cell_angle_alpha 90.000000
_cell_angle_beta 90.000000
_cell_angle_gamma 90.000000
_cell_volume 2752.881017
_symmetry_space_group_name_H-M "P M M A"
_symmetry_group_IT_number 51
_symmetry_cell_setting 'orthorhombic'
loop_
_space_group_symop_operation_xyz
x,y,z
1/2-x,-y,z
1/2+x,-y,-z
-x,y,-z
-x,-y,-z
1/2+x,y,-z
1/2-x,y,z
x,-y,z
loop_
_atom_site_type_symbol
_atom_site_label
_atom_site_fract_x
_atom_site_fract_y
_atom_site_fract_z
Si Si1 0.960708 0.198245 0.082394
Si Si2 0.320208 0.303551 0.950051
Si Si3 0.818266 0.702262 0.533158
Si Si4 0.483307 0.810611 0.731100
Si Si5 0.114243 0.310504 0.300454
Si Si6 0.941467 0.302233 0.444339
Si Si7 0.678080 0.810284 0.859324
O O1 0.886025 0.228571 0.080187
O O2 0.981920 0.262907 0.174397
O O3 0.971748 0.000000 0.082188
O O4 0.000000 0.262071 0.000000
O O5 0.250000 0.242113 0.923325
O O6 0.321640 0.500000 0.932933
O O7 0.323432 0.269189 0.049374
O O8 0.750000 0.765928 0.511055
O O9 0.816316 0.500000 0.525596
O O10 0.835704 0.737636 0.629729
O O11 0.876229 0.764929 0.479121
O O12 0.553973 0.802594 0.699027
O O13 0.446940 0.726272 0.654905
O O14 0.461460 0.000000 0.737344
O O15 0.094188 0.500000 0.318863
O O16 0.142411 0.295249 0.208709
O O17 0.940911 0.500000 0.458576
O O18 0.000000 0.237361 0.500000
O O19 0.750000 0.818609 0.833682
O O20 0.653226 0.000000 0.863461
#
# Coordination Sequence:
#
# PCOD9402500 Si02
#       7
#     8   8   8   8   8   8   8
#     4  10  22  40  60  84 118 157 198 246 300 360
#     4  10  21  37  58  84 112 148 198 250 298 350
#     4   9  18  33  55  82 112 147 188 236 289 340
#     4  11  23  37  57  86 115 149 194 240 296 357
#     4  11  20  33  54  81 113 147 190 240 291 347
#     4  10  19  37  60  83 112 151 196 236 280 340
#     4  10  20  33  50  76 113 154 191 230 288 357
#
# _framework density 20.342324000000001
#
# number of rings (size 3 to 8) (size 9 to 14) (size 15 to 20)
#    0.000    1.857    1.429    3.000    0.000    5.143 
#    0.000    0.714    0.000    4.714    0.000    0.000 
#    0.000    0.000    0.000    0.000    0.000    0.000 
#
# Total GULP energy -312197.056095 kJ/mol
# GULP energy per Si atom -5574.947430 kJ/mol
# Density = 2.029602 g / cm^3
# Si number density = 20.342324 Si / 1000 Ang^3
#
#
#
# Elastic Constant Matrix: (Units=GPa)
#
#
# Indices 1 2 3 4 5 6 
#
# 1 131.2384 1.5118 53.0903 0.0000 0.0000 0.0000
# 2 1.5118 8.9338 6.0000 0.0000 0.0000 0.0000
# 3 53.0903 6.0000 93.0725 0.0000 0.0000 0.0000
# 4 0.0000 0.0000 0.0000 -1.1477 0.0000 0.0000
# 5 0.0000 0.0000 0.0000 0.0000 17.9478 0.0000
# 6 0.0000 0.0000 0.0000 0.0000 0.0000 21.1665
#
#
#
# Elastic Compliance Matrix: (Units=1/GPa)
#
#
# Indices 1 2 3 4 5 6 
#
# 1 0.009948 0.002224 -0.005818 0.000000 0.000000 0.000000
# 2 0.002224 0.117497 -0.008843 0.000000 0.000000 0.000000
# 3 -0.005818 -0.008843 0.014633 0.000000 0.000000 0.000000
# 4 0.000000 0.000000 0.000000 -0.871340 0.000000 0.000000
# 5 0.000000 0.000000 0.000000 0.000000 0.055717 0.000000
# 6 0.000000 0.000000 0.000000 0.000000 0.000000 0.047245
#
#
# Mechanical properties :
#
#
# Convention : Reuss Voigt Hill
#
# Bulk Modulus (GPa) = 8.53217 39.38318 23.95768
# Shear Modulus (GPa) = -8.89111 19.10283 5.10586
#
# Velocity S-wave (km/s) = -2.09290 3.06775 1.58601
# Velocity P-wave (km/s) = 1.27942 5.65246 3.89316
#
# Compressibility (1/GPa) = 0.11720347
#
# Stress axis : x y z
#
# Youngs Moduli (GPa) = 100.52756 8.51088 68.33939
#
# Poissons Ratio (x) = -0.01893 0.39757
# Poissons Ratio (y) = -0.22355 0.60432
# Poissons Ratio (z) = 0.58483 0.07526
#
# Static dielectric constant tensor:
#      x y z
#    x 1.797520 0.000000 0.000000 
#    y 0.000000 1.745660 0.000000 
#    z 0.000000 0.000000 1.720460 
# 
# From -- ./inp_files/25677.got.cif
#   From: 2010.05.17/outbox.cif.g08.bks.cpg/sg51_13_cif.got.tgz:25677.got - 2010.06.03 11:52:47.
