data_PCOD9402326
_publ_section_title
;
Structure prediction by ZEFSAII (Michael W. Deem and Ramdas Pophale) SiO2 
 PCOD9402326
Probable space group: P M M A
;
_chemical_formula_sum "Si O2"
_cell_formula_units_Z 40
_cell_length_a 26.581036
_cell_length_b 8.339928
_cell_length_c 9.208643
_cell_angle_alpha 90.000000
_cell_angle_beta 90.000000
_cell_angle_gamma 90.000000
_cell_volume 2041.408137
_symmetry_space_group_name_H-M "P M M A"
_symmetry_group_IT_number 51
_symmetry_cell_setting 'orthorhombic'
loop_
_space_group_symop_operation_xyz
x,y,z
1/2-x,-y,z
1/2+x,-y,-z
-x,y,-z
-x,-y,-z
1/2+x,y,-z
1/2-x,y,z
x,-y,z
loop_
_atom_site_type_symbol
_atom_site_label
_atom_site_fract_x
_atom_site_fract_y
_atom_site_fract_z
Si Si1 0.349793 0.805931 0.587007
Si Si2 0.750000 0.195937 0.583535
Si Si3 0.449647 0.195945 0.416859
Si Si4 0.150305 0.690420 0.918035
Si Si5 0.250000 0.192287 0.081933
Si Si6 0.050591 0.194050 0.082000
O O1 0.299975 0.752297 0.501397
O O2 0.399879 0.752308 0.502673
O O3 0.349530 0.750000 0.752408
O O4 0.349838 0.000000 0.587127
O O5 0.750000 0.248680 0.750742
O O6 0.750000 0.000000 0.584389
O O7 0.500000 0.247516 0.500000
O O8 0.449181 0.248002 0.249467
O O9 0.449655 0.000000 0.416333
O O10 0.150359 0.500000 0.919385
O O11 0.200055 0.751318 0.999836
O O12 0.100480 0.751932 0.999141
O O13 0.250000 0.000000 0.083157
O O14 0.050171 0.000000 0.082263
O O15 0.000000 0.248300 0.000000
#
# Coordination Sequence:
#
# PCOD9402326 Si02
#       6
#     8   4   8   8   4   8
#     4  10  19  35  58  82 110 147 191 234 279 333
#     4   9  19  35  60  88 108 135 184 243 288 330
#     4   9  17  31  55  86 113 140 186 244 288 328
#     4  12  25  39  56  85 123 157 191 233 287 345
#     4  11  22  41  66  88 112 147 194 241 288 342
#     4  10  20  37  63  90 115 150 196 241 287 340
#
# _framework density 19.594318000000001
#
# number of rings (size 3 to 8) (size 9 to 14) (size 15 to 20)
#    0.000    1.800    0.000    5.100    0.000    7.600 
#    0.000    5.000    0.000    2.400    0.000    0.000 
#    0.000    0.000    0.000    0.000    0.000    0.000 
#
# Total GULP energy -223601.315999 kJ/mol
# GULP energy per Si atom -5590.032900 kJ/mol
# Density = 1.954972 g / cm^3
# Si number density = 19.594318 Si / 1000 Ang^3
#
#
#
# Elastic Constant Matrix: (Units=GPa)
#
#
# Indices 1 2 3 4 5 6 
#
# 1 249.4405 26.2683 155.9663 0.0000 0.0000 0.0000
# 2 26.2683 19.8340 26.1118 0.0000 0.0000 0.0000
# 3 155.9663 26.1118 250.3808 0.0000 0.0000 0.0000
# 4 0.0000 0.0000 0.0000 -13.3786 0.0000 0.0000
# 5 0.0000 0.0000 0.0000 0.0000 48.3233 0.0000
# 6 0.0000 0.0000 0.0000 0.0000 0.0000 34.0582
#
#
#
# Elastic Compliance Matrix: (Units=1/GPa)
#
#
# Indices 1 2 3 4 5 6 
#
# 1 0.006829 -0.003992 -0.003837 0.000000 0.000000 0.000000
# 2 -0.003992 0.060776 -0.003852 0.000000 0.000000 0.000000
# 3 -0.003837 -0.003852 0.006786 0.000000 0.000000 0.000000
# 4 0.000000 0.000000 0.000000 -0.074746 0.000000 0.000000
# 5 0.000000 0.000000 0.000000 0.000000 0.020694 0.000000
# 6 0.000000 0.000000 0.000000 0.000000 0.000000 0.029361
#
#
# Mechanical properties :
#
#
# Convention : Reuss Voigt Hill
#
# Bulk Modulus (GPa) = 19.59676 104.03868 61.81772
# Shear Modulus (GPa) = 55.51122 34.55452 45.03287
#
# Velocity S-wave (km/s) = 5.32839 4.20396 4.79922
# Velocity P-wave (km/s) = 6.91944 8.76219 7.89476
#
# Compressibility (1/GPa) = 0.05102884
#
# Stress axis : x y z
#
# Youngs Moduli (GPa) = 146.43906 16.45384 147.36250
#
# Poissons Ratio (x) = 0.06568 0.56549
# Poissons Ratio (y) = 0.58459 0.56757
# Poissons Ratio (z) = 0.56195 0.06337
#
# Static dielectric constant tensor:
#      x y z
#    x 1.686420 0.000000 0.000000 
#    y 0.000000 1.663010 0.000000 
#    z 0.000000 0.000000 1.654340 
# 
# From -- ./inp_files/12153.got.cif
#   From: 2010.05.17/outbox.cif.g08.bks.cpg/sg51_7_cif.got.tgz:12153.got - 2010.06.03 11:52:47.
