data_PCOD9402796
_publ_section_title
;
Structure prediction by ZEFSAII (Michael W. Deem and Ramdas Pophale) SiO2 
 PCOD9402796
Probable space group: P M M A
;
_chemical_formula_sum "Si O2"
_cell_formula_units_Z 48
_cell_length_a 9.602100
_cell_length_b 7.504577
_cell_length_c 32.033940
_cell_angle_alpha 90.000000
_cell_angle_beta 90.000000
_cell_angle_gamma 90.000000
_cell_volume 2308.356068
_symmetry_space_group_name_H-M "P M M A"
_symmetry_group_IT_number 51
_symmetry_cell_setting 'orthorhombic'
loop_
_space_group_symop_operation_xyz
x,y,z
1/2-x,-y,z
1/2+x,-y,-z
-x,y,-z
-x,-y,-z
1/2+x,y,-z
1/2-x,y,z
x,-y,z
loop_
_atom_site_type_symbol
_atom_site_label
_atom_site_fract_x
_atom_site_fract_y
_atom_site_fract_z
Si Si1 0.908491 0.286657 0.538252
Si Si2 0.091571 0.213741 0.369424
Si Si3 0.409406 0.785336 0.801442
Si Si4 0.592239 0.288802 0.881507
Si Si5 0.410861 0.717869 0.959542
Si Si6 0.910532 0.217384 0.292062
O O1 0.750000 0.216560 0.537008
O O2 0.900810 0.500000 0.533792
O O3 0.967091 0.251764 0.584510
O O4 0.000000 0.217417 0.500000
O O5 0.250000 0.282619 0.368407
O O6 0.004088 0.281260 0.330230
O O7 0.097385 0.000000 0.365652
O O8 0.250000 0.723923 0.809812
O O9 0.515821 0.734018 0.837395
O O10 0.451372 0.725913 0.754776
O O11 0.404774 0.000000 0.800645
O O12 0.750000 0.216448 0.881972
O O13 0.603502 0.500000 0.889034
O O14 0.492266 0.219672 0.918252
O O15 0.250000 0.776392 0.960893
O O16 0.407581 0.500000 0.959123
O O17 0.500000 0.770558 0.000000
O O18 0.750000 0.268355 0.298281
O O19 0.915088 0.000000 0.292236
#
# Coordination Sequence:
#
# PCOD9402796 Si02
#       6
#     8   8   8   8   8   8
#     4   9  18  32  47  63  87 119 150 180 218 265
#     4   9  17  29  46  68  91 114 144 183 224 265
#     4   9  18  33  52  72  95 126 163 199 237 285
#     4  10  20  32  47  71 101 129 160 199 240 283
#     4   9  16  27  45  68  94 125 160 198 240 285
#     4   8  15  29  48  69  92 118 150 188 228 271
#
# _framework density 20.79402
#
# number of rings (size 3 to 8) (size 9 to 14) (size 15 to 20)
#    0.000    3.000    0.000    2.000    0.000    5.000 
#    0.000    2.500    0.000    3.500    0.000    0.000 
#    0.000    0.000    0.000    0.000    0.000    0.000 
#
# Total GULP energy -267814.594074 kJ/mol
# GULP energy per Si atom -5579.470710 kJ/mol
# Density = 2.074669 g / cm^3
# Si number density = 20.794020 Si / 1000 Ang^3
#
#
#
# Elastic Constant Matrix: (Units=GPa)
#
#
# Indices 1 2 3 4 5 6 
#
# 1 150.2573 4.8969 134.1840 0.0000 0.0000 0.0000
# 2 4.8969 54.5286 -1.6005 0.0000 0.0000 0.0000
# 3 134.1840 -1.6005 220.0229 0.0000 0.0000 0.0000
# 4 0.0000 0.0000 0.0000 19.3923 0.0000 0.0000
# 5 0.0000 0.0000 0.0000 0.0000 39.6052 0.0000
# 6 0.0000 0.0000 0.0000 0.0000 0.0000 5.0691
#
#
#
# Elastic Compliance Matrix: (Units=1/GPa)
#
#
# Indices 1 2 3 4 5 6 
#
# 1 0.014751 -0.001589 -0.009008 0.000000 0.000000 0.000000
# 2 -0.001589 0.018514 0.001104 0.000000 0.000000 0.000000
# 3 -0.009008 0.001104 0.010047 0.000000 0.000000 0.000000
# 4 0.000000 0.000000 0.000000 0.051567 0.000000 0.000000
# 5 0.000000 0.000000 0.000000 0.000000 0.025249 0.000000
# 6 0.000000 0.000000 0.000000 0.000000 0.000000 0.197272
#
#
# Mechanical properties :
#
#
# Convention : Reuss Voigt Hill
#
# Bulk Modulus (GPa) = 41.10880 77.75218 59.43049
# Shear Modulus (GPa) = 14.51400 31.96855 23.24127
#
# Velocity S-wave (km/s) = 2.64481 3.92521 3.34681
# Velocity P-wave (km/s) = 5.39807 7.61681 6.60133
#
# Compressibility (1/GPa) = 0.02432569
#
# Stress axis : x y z
#
# Youngs Moduli (GPa) = 67.79074 54.01284 99.53659
#
# Poissons Ratio (x) = 0.08583 0.89661
# Poissons Ratio (y) = 0.10773 -0.10987
# Poissons Ratio (z) = 0.61065 -0.05962
#
# Static dielectric constant tensor:
#      x y z
#    x 1.721480 0.000000 0.000000 
#    y 0.000000 1.804690 0.000000 
#    z 0.000000 0.000000 1.725600 
# 
# From -- ./inp_files/37055.got.cif
#   From: 2010.05.17/outbox.cif.g08.bks.cpg/sg51_19_cif.got.tgz:37055.got - 2010.06.03 11:52:47.
