data_PCOD9402233
_publ_section_title
;
Structure prediction by ZEFSAII (Michael W. Deem and Ramdas Pophale) SiO2 
 PCOD9402233
Probable space group: P M M A
;
_chemical_formula_sum "Si O2"
_cell_formula_units_Z 64
_cell_length_a 23.747925
_cell_length_b 15.078600
_cell_length_c 8.873285
_cell_angle_alpha 90.000000
_cell_angle_beta 90.000000
_cell_angle_gamma 90.000000
_cell_volume 3177.394358
_symmetry_space_group_name_H-M "P M M A"
_symmetry_group_IT_number 51
_symmetry_cell_setting 'orthorhombic'
loop_
_space_group_symop_operation_xyz
x,y,z
1/2-x,-y,z
1/2+x,-y,-z
-x,y,-z
-x,-y,-z
1/2+x,y,-z
1/2-x,y,z
x,-y,z
loop_
_atom_site_type_symbol
_atom_site_label
_atom_site_fract_x
_atom_site_fract_y
_atom_site_fract_z
Si Si1 0.639119 0.400256 0.781098
Si Si2 0.683714 0.219281 0.652332
Si Si3 0.008340 0.596825 0.318800
Si Si4 0.888555 0.897819 0.172954
Si Si5 0.183407 0.236894 0.686460
Si Si6 0.317507 0.600739 0.884456
Si Si7 0.093509 0.103666 0.182321
Si Si8 0.011354 0.792059 0.678990
O O1 0.659860 0.500000 0.742958
O O2 0.672279 0.319388 0.707194
O O3 0.574229 0.395848 0.727434
O O4 0.648196 0.389630 0.960448
O O5 0.750000 0.200166 0.658386
O O6 0.661743 0.217047 0.480569
O O7 0.649088 0.149757 0.751382
O O8 0.987948 0.500000 0.261153
O O9 0.000000 0.594640 0.500000
O O10 0.981624 0.689831 0.268534
O O11 0.832274 0.842950 0.203685
O O12 0.935289 0.849080 0.272696
O O13 0.883109 0.000000 0.215824
O O14 0.905245 0.892660 0.998383
O O15 0.250000 0.245879 0.670637
O O16 0.163319 0.327993 0.761917
O O17 0.250000 0.614056 0.916319
O O18 0.323874 0.500000 0.829749
O O19 0.041924 0.161640 0.242992
O O20 0.088712 0.000000 0.226723
O O21 0.000000 0.792224 0.500000
#
# Coordination Sequence:
#
# PCOD9402233 Si02
#       8
#     8   8   8   8   8   8   8   8
#     4  10  19  34  60  90 121 160 205 249 298 359
#     4  11  23  39  61  92 123 157 205 253 306 368
#     4   9  19  35  58  90 126 162 200 245 299 359
#     4  11  25  42  63  90 119 158 207 254 306 368
#     4  10  23  40  60  89 126 162 198 249 309 367
#     4   9  18  35  59  88 124 163 203 249 302 363
#     4  11  24  43  64  88 120 158 202 256 310 361
#     4  11  22  39  66  93 122 161 202 250 306 359
#
# _framework density 20.142289999999999
#
# number of rings (size 3 to 8) (size 9 to 14) (size 15 to 20)
#    0.000    1.750    1.250    2.625    1.750    6.750 
#    0.000    4.375    0.000    2.250    0.000    0.000 
#    0.000    0.000    0.000    0.000    0.000    0.000 
#
# Total GULP energy -357397.186632 kJ/mol
# GULP energy per Si atom -5584.331041 kJ/mol
# Density = 2.009644 g / cm^3
# Si number density = 20.142290 Si / 1000 Ang^3
#
#
#
# Elastic Constant Matrix: (Units=GPa)
#
#
# Indices 1 2 3 4 5 6 
#
# 1 40.2488 16.5060 22.8369 0.0000 0.0000 0.0000
# 2 16.5060 148.6785 45.3851 0.0000 0.0000 0.0000
# 3 22.8369 45.3851 55.2252 0.0000 0.0000 0.0000
# 4 0.0000 0.0000 0.0000 28.6749 0.0000 0.0000
# 5 0.0000 0.0000 0.0000 0.0000 26.9564 0.0000
# 6 0.0000 0.0000 0.0000 0.0000 0.0000 30.3499
#
#
#
# Elastic Compliance Matrix: (Units=1/GPa)
#
#
# Indices 1 2 3 4 5 6 
#
# 1 0.032511 0.000660 -0.013986 0.000000 0.000000 0.000000
# 2 0.000660 0.008992 -0.007663 0.000000 0.000000 0.000000
# 3 -0.013986 -0.007663 0.030189 0.000000 0.000000 0.000000
# 4 0.000000 0.000000 0.000000 0.034874 0.000000 0.000000
# 5 0.000000 0.000000 0.000000 0.000000 0.037097 0.000000
# 6 0.000000 0.000000 0.000000 0.000000 0.000000 0.032949
#
#
# Mechanical properties :
#
#
# Convention : Reuss Voigt Hill
#
# Bulk Modulus (GPa) = 33.65502 45.95652 39.80577
# Shear Modulus (GPa) = 21.88256 27.82453 24.85355
#
# Velocity S-wave (km/s) = 3.29963 3.72075 3.51650
# Velocity P-wave (km/s) = 5.59121 6.42838 6.02436
#
# Compressibility (1/GPa) = 0.02971325
#
# Stress axis : x y z
#
# Youngs Moduli (GPa) = 30.75927 111.21410 33.12510
#
# Poissons Ratio (x) = -0.07342 0.46330
# Poissons Ratio (y) = -0.02031 0.25382
# Poissons Ratio (z) = 0.43021 0.85218
#
# Static dielectric constant tensor:
#      x y z
#    x 1.738170 0.000000 0.000000 
#    y 0.000000 1.707910 0.000000 
#    z 0.000000 0.000000 1.704810 
# 
# From -- ./inp_files/11904.got.cif
#   From: 2010.05.17/outbox.cif.g08.bks.cpg/sg51_6_cif.got.tgz:11904.got - 2010.06.03 11:52:47.
