data_PCOD9402368
_publ_section_title
;
Structure prediction by ZEFSAII (Michael W. Deem and Ramdas Pophale) SiO2 
 PCOD9402368
Probable space group: P M M A
;
_chemical_formula_sum "Si O2"
_cell_formula_units_Z 64
_cell_length_a 31.838818
_cell_length_b 8.552474
_cell_length_c 12.237440
_cell_angle_alpha 90.000000
_cell_angle_beta 90.000000
_cell_angle_gamma 90.000000
_cell_volume 3332.263027
_symmetry_space_group_name_H-M "P M M A"
_symmetry_group_IT_number 51
_symmetry_cell_setting 'orthorhombic'
loop_
_space_group_symop_operation_xyz
x,y,z
1/2-x,-y,z
1/2+x,-y,-z
-x,y,-z
-x,-y,-z
1/2+x,y,-z
1/2-x,y,z
x,-y,z
loop_
_atom_site_type_symbol
_atom_site_label
_atom_site_fract_x
_atom_site_fract_y
_atom_site_fract_z
Si Si1 0.797540 0.189076 0.264430
Si Si2 0.327405 0.812200 0.494826
Si Si3 0.047776 0.186976 0.735699
Si Si4 0.203573 0.311675 0.266382
Si Si5 0.042272 0.686615 0.264209
Si Si6 0.874626 0.687271 0.124325
Si Si7 0.123640 0.691015 0.127235
Si Si8 0.073313 0.811958 0.492823
O O1 0.750000 0.236790 0.237024
O O2 0.808560 0.237362 0.388755
O O3 0.832656 0.254207 0.183900
O O4 0.799691 0.000000 0.261918
O O5 0.305379 0.736930 0.390746
O O6 0.377025 0.775695 0.491917
O O7 0.322927 0.000000 0.487238
O O8 0.085052 0.253070 0.809432
O O9 0.054958 0.237900 0.609682
O O10 0.001891 0.241626 0.771844
O O11 0.050341 0.000000 0.737182
O O12 0.250000 0.256286 0.232935
O O13 0.203404 0.500000 0.260597
O O14 0.165252 0.254648 0.191200
O O15 0.039709 0.500000 0.256597
O O16 0.081815 0.741042 0.191545
O O17 0.051563 0.735038 0.388927
O O18 0.874860 0.500000 0.125265
O O19 0.876243 0.740808 0.998513
O O20 0.123900 0.500000 0.129055
O O21 0.068426 0.000000 0.483847
#
# Coordination Sequence:
#
# PCOD9402368 Si02
#       8
#     8   8   8   8   8   8   8   8
#     4  10  21  39  61  86 120 158 191 232 292 349
#     4  10  19  35  59  85 116 153 188 226 283 347
#     4  11  23  41  61  85 120 154 189 233 291 349
#     4  10  20  36  59  86 116 151 191 235 285 340
#     4  11  22  38  61  88 118 150 191 237 288 345
#     4  11  23  40  62  85 112 151 201 245 285 335
#     4   9  21  40  58  81 115 154 190 238 294 340
#     4  10  20  36  59  85 116 154 188 228 287 350
#
# _framework density 19.206167000000001
#
# number of rings (size 3 to 8) (size 9 to 14) (size 15 to 20)
#    0.000    1.750    2.500    1.875    0.000    5.000 
#    0.000    7.500    0.000    0.000    0.000    0.000 
#    0.000    0.000    0.000    0.000    0.000    0.000 
#
# Total GULP energy -357611.997164 kJ/mol
# GULP energy per Si atom -5587.687456 kJ/mol
# Density = 1.916245 g / cm^3
# Si number density = 19.206167 Si / 1000 Ang^3
#
#
#
# Elastic Constant Matrix: (Units=GPa)
#
#
# Indices 1 2 3 4 5 6 
#
# 1 184.8735 32.5451 90.8327 0.0000 0.0000 0.0000
# 2 32.5451 16.4144 21.6254 0.0000 0.0000 0.0000
# 3 90.8327 21.6254 150.2218 0.0000 0.0000 0.0000
# 4 0.0000 0.0000 0.0000 37.5802 0.0000 0.0000
# 5 0.0000 0.0000 0.0000 0.0000 0.2789 0.0000
# 6 0.0000 0.0000 0.0000 0.0000 0.0000 28.2754
#
#
#
# Elastic Compliance Matrix: (Units=1/GPa)
#
#
# Indices 1 2 3 4 5 6 
#
# 1 0.009857 -0.014427 -0.003883 0.000000 0.000000 0.000000
# 2 -0.014427 0.096298 -0.005139 0.000000 0.000000 0.000000
# 3 -0.003883 -0.005139 0.009745 0.000000 0.000000 0.000000
# 4 0.000000 0.000000 0.000000 0.026610 0.000000 0.000000
# 5 0.000000 0.000000 0.000000 0.000000 3.585420 0.000000
# 6 0.000000 0.000000 0.000000 0.000000 0.000000 0.035366
#
#
# Mechanical properties :
#
#
# Convention : Reuss Voigt Hill
#
# Bulk Modulus (GPa) = 14.49269 71.27958 42.88613
# Shear Modulus (GPa) = 1.30440 26.99400 14.14920
#
# Velocity S-wave (km/s) = 0.82500 3.75305 2.71717
# Velocity P-wave (km/s) = 2.91028 7.48157 5.67643
#
# Compressibility (1/GPa) = 0.06900033
#
# Stress axis : x y z
#
# Youngs Moduli (GPa) = 101.45361 10.38443 102.62165
#
# Poissons Ratio (x) = 0.14982 0.39848
# Poissons Ratio (y) = 1.46371 0.52738
# Poissons Ratio (z) = 0.39395 0.05337
#
# Static dielectric constant tensor:
#      x y z
#    x 1.664590 0.000000 0.000000 
#    y 0.000000 1.657480 0.000000 
#    z 0.000000 0.000000 1.640050 
# 
# From -- ./inp_files/19519.got.cif
#   From: 2010.05.17/outbox.cif.g08.bks.cpg/sg51_10_cif.got.tgz:19519.got - 2010.06.03 11:52:47.
