data_PCOD9402996
_publ_section_title
;
Structure prediction by ZEFSAII (Michael W. Deem and Ramdas Pophale) SiO2 
 PCOD9402996
Probable space group: P M M A
;
_chemical_formula_sum "Si O2"
_cell_formula_units_Z 56
_cell_length_a 8.626880
_cell_length_b 17.493796
_cell_length_c 21.144809
_cell_angle_alpha 90.000000
_cell_angle_beta 90.000000
_cell_angle_gamma 90.000000
_cell_volume 3191.108578
_symmetry_space_group_name_H-M "P M M A"
_symmetry_group_IT_number 51
_symmetry_cell_setting 'orthorhombic'
loop_
_space_group_symop_operation_xyz
x,y,z
1/2-x,-y,z
1/2+x,-y,-z
-x,y,-z
-x,-y,-z
1/2+x,y,-z
1/2-x,y,z
x,-y,z
loop_
_atom_site_type_symbol
_atom_site_label
_atom_site_fract_x
_atom_site_fract_y
_atom_site_fract_z
Si Si1 0.936159 0.500000 0.120324
Si Si2 0.063074 0.762175 0.186983
Si Si3 0.937109 0.754727 0.567034
Si Si4 0.936051 0.340897 0.931511
Si Si5 0.437305 0.338413 0.308643
Si Si6 0.564953 0.913977 0.238658
Si Si7 0.937170 0.084738 0.619415
Si Si8 0.435443 0.500000 0.731566
O O1 0.750000 0.500000 0.116725
O O2 0.983269 0.500000 0.194326
O O3 0.000844 0.424198 0.087510
O O4 0.250000 0.766534 0.188350
O O5 0.016153 0.718062 0.123527
O O6 0.013833 0.712282 0.248104
O O7 0.995822 0.846539 0.194689
O O8 0.750000 0.754633 0.565667
O O9 0.985912 0.703200 0.626673
O O10 0.990597 0.842122 0.579809
O O11 0.000000 0.727590 0.500000
O O12 0.750000 0.343833 0.933081
O O13 0.000000 0.319339 0.000000
O O14 0.250000 0.341362 0.307993
O O15 0.501453 0.423294 0.300454
O O16 0.750000 0.909070 0.244613
O O17 0.491254 0.904311 0.308328
O O18 0.524748 0.000000 0.216965
O O19 0.750000 0.085048 0.618909
O O20 0.990216 0.000000 0.598402
O O21 0.250000 0.500000 0.729509
#
# Coordination Sequence:
#
# PCOD9402996 Si02
#       8
#     4   8   8   8   8   8   8   4
#     4  11  22  36  55  84 119 151 182 218 270 326
#     4  10  20  36  59  82 107 146 189 224 266 324
#     4  10  21  36  54  78 107 143 183 225 275 326
#     4  11  23  38  57  82 115 151 186 224 269 323
#     4  10  20  38  59  80 107 141 184 227 271 325
#     4  10  20  32  51  83 116 143 177 228 281 319
#     4   9  17  32  53  76 107 146 184 220 264 326
#     4  11  23  36  57  88 113 137 177 230 279 318
#
# _framework density 17.548760999999999
#
# number of rings (size 3 to 8) (size 9 to 14) (size 15 to 20)
#    0.000    1.857    2.857    1.500    0.000    4.571 
#    0.000    0.357    0.000    0.429    0.000    0.000 
#    0.000    0.000    0.000    0.000    0.000    0.000 
#
# Total GULP energy -312669.782856 kJ/mol
# GULP energy per Si atom -5583.388980 kJ/mol
# Density = 1.750882 g / cm^3
# Si number density = 17.548761 Si / 1000 Ang^3
#
#
#
# Elastic Constant Matrix: (Units=GPa)
#
#
# Indices 1 2 3 4 5 6 
#
# 1 11.8238 20.9406 24.9614 0.0000 0.0000 0.0000
# 2 20.9406 126.2325 73.2734 0.0000 0.0000 0.0000
# 3 24.9614 73.2734 141.8305 0.0000 0.0000 0.0000
# 4 0.0000 0.0000 0.0000 12.0143 0.0000 0.0000
# 5 0.0000 0.0000 0.0000 0.0000 23.5824 0.0000
# 6 0.0000 0.0000 0.0000 0.0000 0.0000 16.9003
#
#
#
# Elastic Compliance Matrix: (Units=1/GPa)
#
#
# Indices 1 2 3 4 5 6 
#
# 1 0.149290 -0.013590 -0.019253 0.000000 0.000000 0.000000
# 2 -0.013590 0.012552 -0.004093 0.000000 0.000000 0.000000
# 3 -0.019253 -0.004093 0.012554 0.000000 0.000000 0.000000
# 4 0.000000 0.000000 0.000000 0.083234 0.000000 0.000000
# 5 0.000000 0.000000 0.000000 0.000000 0.042404 0.000000
# 6 0.000000 0.000000 0.000000 0.000000 0.000000 0.059170
#
#
# Mechanical properties :
#
#
# Convention : Reuss Voigt Hill
#
# Bulk Modulus (GPa) = 9.94795 57.58196 33.76496
# Shear Modulus (GPa) = 10.71617 21.21350 15.96484
#
# Velocity S-wave (km/s) = 2.47382 3.48060 3.01946
# Velocity P-wave (km/s) = 3.72031 7.00261 5.60702
#
# Compressibility (1/GPa) = 0.10052326
#
# Stress axis : x y z
#
# Youngs Moduli (GPa) = 6.69839 79.66769 79.65737
#
# Poissons Ratio (x) = 1.08265 1.53368
# Poissons Ratio (y) = 0.09103 0.32604
# Poissons Ratio (z) = 0.12897 0.32609
#
# Static dielectric constant tensor:
#      x y z
#    x 1.595410 0.000000 0.000000 
#    y 0.000000 1.593050 0.000000 
#    z 0.000000 0.000000 1.581610 
# 
# From -- ./inp_files/32159.got.cif
#   From: 2010.05.17/outbox.cif.g08.bks.cpg/sg51_17_cif.got.tgz:32159.got - 2010.06.03 11:52:47.
