data_PCOD9402830
_publ_section_title
;
Structure prediction by ZEFSAII (Michael W. Deem and Ramdas Pophale) SiO2 
 PCOD9402830
Probable space group: P M M A
;
_chemical_formula_sum "Si O2"
_cell_formula_units_Z 44
_cell_length_a 9.242411
_cell_length_b 7.327374
_cell_length_c 32.166812
_cell_angle_alpha 90.000000
_cell_angle_beta 90.000000
_cell_angle_gamma 90.000000
_cell_volume 2178.420209
_symmetry_space_group_name_H-M "P M M A"
_symmetry_group_IT_number 51
_symmetry_cell_setting 'orthorhombic'
loop_
_space_group_symop_operation_xyz
x,y,z
1/2-x,-y,z
1/2+x,-y,-z
-x,y,-z
-x,-y,-z
1/2+x,y,-z
1/2-x,y,z
x,-y,z
loop_
_atom_site_type_symbol
_atom_site_label
_atom_site_fract_x
_atom_site_fract_y
_atom_site_fract_z
Si Si1 0.920009 0.778569 0.797192
Si Si2 0.424793 0.500000 0.044347
Si Si3 0.081297 0.777612 0.293266
Si Si4 0.416279 0.222783 0.624237
Si Si5 0.416375 0.777329 0.458575
Si Si6 0.573573 0.209847 0.887362
O O1 0.750000 0.729358 0.795935
O O2 0.977980 0.720634 0.752163
O O3 0.978368 0.719313 0.842102
O O4 0.926260 0.000000 0.798553
O O5 0.250000 0.500000 0.039507
O O6 0.467302 0.328515 0.073132
O O7 0.500000 0.500000 0.000000
O O8 0.250000 0.724272 0.297157
O O9 0.991344 0.717405 0.333042
O O10 0.080159 0.000000 0.293186
O O11 0.250000 0.279294 0.621963
O O12 0.503901 0.280653 0.583489
O O13 0.418357 0.000000 0.624425
O O14 0.500000 0.719277 0.500000
O O15 0.250000 0.719807 0.459186
O O16 0.417290 0.000000 0.458586
O O17 0.750000 0.214449 0.885131
O O18 0.529803 0.000000 0.892254
#
# Coordination Sequence:
#
# PCOD9402830 Si02
#       6
#     8   4   8   8   8   8
#     4   7  10  18  34  54  73  94 123 160 201 245
#     4  10  20  32  48  70  94 122 156 192 231 274
#     4   8  12  18  29  44  59  76 102 138 181 229
#     4   9  15  20  25  35  53  76 101 134 181 235
#     4   9  15  21  27  33  43  64  99 144 192 241
#     4   8  14  26  44  66  91 118 150 189 230 272
#
# _framework density 20.198125000000001
#
# number of rings (size 3 to 8) (size 9 to 14) (size 15 to 20)
#    0.000    3.636    0.000    3.273    0.000    4.727 
#    0.000    0.000    0.000    1.091    0.000    2.545 
#    0.000    0.000    0.000    0.000    0.000    0.000 
#
# Total GULP energy -245264.993559 kJ/mol
# GULP energy per Si atom -5574.204399 kJ/mol
# Density = 2.015215 g / cm^3
# Si number density = 20.198125 Si / 1000 Ang^3
#
#
#
# Elastic Constant Matrix: (Units=GPa)
#
#
# Indices 1 2 3 4 5 6 
#
# 1 86.7778 15.3667 93.0801 0.0000 0.0000 0.0000
# 2 15.3667 83.8762 44.0386 0.0000 0.0000 0.0000
# 3 93.0801 44.0386 276.1516 0.0000 0.0000 0.0000
# 4 0.0000 0.0000 0.0000 1216.3673 0.0000 0.0000
# 5 0.0000 0.0000 0.0000 0.0000 31.6669 0.0000
# 6 0.0000 0.0000 0.0000 0.0000 0.0000 -7.1722
#
#
#
# Elastic Compliance Matrix: (Units=1/GPa)
#
#
# Indices 1 2 3 4 5 6 
#
# 1 0.018050 -0.000123 -0.006064 0.000000 0.000000 0.000000
# 2 -0.000123 0.013013 -0.002034 0.000000 0.000000 0.000000
# 3 -0.006064 -0.002034 0.005990 0.000000 0.000000 0.000000
# 4 0.000000 0.000000 0.000000 0.000822 0.000000 0.000000
# 5 0.000000 0.000000 0.000000 0.000000 0.031579 0.000000
# 6 0.000000 0.000000 0.000000 0.000000 0.000000 -0.139427
#
#
# Mechanical properties :
#
#
# Convention : Reuss Voigt Hill
#
# Bulk Modulus (GPa) = 48.51901 83.53070 66.02485
# Shear Modulus (GPa) = -107.15599 267.79373 80.31887
#
# Velocity S-wave (km/s) = -7.29161 11.52698 6.31283
# Velocity P-wave (km/s) = 6.84226 14.78537 9.26797
#
# Compressibility (1/GPa) = 0.02061048
#
# Stress axis : x y z
#
# Youngs Moduli (GPa) = 55.40053 76.84829 166.95503
#
# Poissons Ratio (x) = 0.00944 1.01250
# Poissons Ratio (y) = 0.00681 0.33955
# Poissons Ratio (z) = 0.33598 0.15629
#
# Static dielectric constant tensor:
#      x y z
#    x 1.669180 0.000000 0.000000 
#    y 0.000000 1.572520 0.000000 
#    z 0.000000 0.000000 1.714200 
# 
# From -- ./inp_files/36769.got.cif
#   From: 2010.05.17/outbox.cif.g08.bks.cpg/sg51_19_cif.got.tgz:36769.got - 2010.06.03 11:52:47.
