data_PCOD9402486
_publ_section_title
;
Structure prediction by ZEFSAII (Michael W. Deem and Ramdas Pophale) SiO2 
 PCOD9402486
Probable space group: P M M A
;
_chemical_formula_sum "Si O2"
_cell_formula_units_Z 48
_cell_length_a 15.561047
_cell_length_b 8.590304
_cell_length_c 19.522977
_cell_angle_alpha 90.000000
_cell_angle_beta 90.000000
_cell_angle_gamma 90.000000
_cell_volume 2609.716854
_symmetry_space_group_name_H-M "P M M A"
_symmetry_group_IT_number 51
_symmetry_cell_setting 'orthorhombic'
loop_
_space_group_symop_operation_xyz
x,y,z
1/2-x,-y,z
1/2+x,-y,-z
-x,y,-z
-x,-y,-z
1/2+x,y,-z
1/2-x,y,z
x,-y,z
loop_
_atom_site_type_symbol
_atom_site_label
_atom_site_fract_x
_atom_site_fract_y
_atom_site_fract_z
Si Si1 0.848293 0.811694 0.172639
Si Si2 0.250000 0.188723 0.575498
Si Si3 0.250000 0.684850 0.422072
Si Si4 0.500395 0.313619 0.078774
Si Si5 0.596293 0.189551 0.325793
Si Si6 0.099643 0.811672 0.327147
Si Si7 0.651715 0.187976 0.827991
O O1 0.750000 0.764616 0.159056
O O2 0.875106 0.762404 0.249518
O O3 0.916183 0.747527 0.118764
O O4 0.851975 0.000000 0.171214
O O5 0.250000 0.250042 0.498818
O O6 0.334118 0.239385 0.618209
O O7 0.250000 0.000000 0.573821
O O8 0.250000 0.500000 0.423594
O O9 0.166802 0.744227 0.380757
O O10 0.501361 0.500000 0.079492
O O11 0.416532 0.255511 0.119177
O O12 0.500000 0.259757 0.000000
O O13 0.498586 0.238149 0.339713
O O14 0.596859 0.000000 0.325522
O O15 0.126246 0.767487 0.249695
O O16 0.103621 0.000000 0.330887
O O17 0.750000 0.235521 0.841609
O O18 0.647394 0.000000 0.831147
#
# Coordination Sequence:
#
# PCOD9402486 Si02
#       7
#     8   4   4   8   8   8   8
#     4  10  19  36  64  93 117 146 193 251 298 342
#     4  10  20  38  62  88 117 150 189 234 287 346
#     4  12  26  40  54  82 123 160 193 236 287 342
#     4  11  25  41  56  82 124 166 198 234 287 353
#     4   9  17  33  63  93 113 141 188 240 288 342
#     4  10  19  37  63  88 114 148 192 243 291 343
#     4  10  20  37  64  92 115 145 194 252 299 343
#
# _framework density 18.392800000000001
#
# number of rings (size 3 to 8) (size 9 to 14) (size 15 to 20)
#    0.000    1.833    3.333    1.250    0.000    4.000 
#    0.000    8.333    0.000    0.000    0.000    0.000 
#    0.000    0.000    0.000    0.000    0.000    0.000 
#
# Total GULP energy -268093.122961 kJ/mol
# GULP energy per Si atom -5585.273395 kJ/mol
# Density = 1.835094 g / cm^3
# Si number density = 18.392800 Si / 1000 Ang^3
#
#
#
# Elastic Constant Matrix: (Units=GPa)
#
#
# Indices 1 2 3 4 5 6 
#
# 1 229.1613 41.0257 127.8022 0.0000 0.0000 0.0000
# 2 41.0257 19.9022 37.8638 0.0000 0.0000 0.0000
# 3 127.8022 37.8638 197.2819 0.0000 0.0000 0.0000
# 4 0.0000 0.0000 0.0000 98.9864 0.0000 0.0000
# 5 0.0000 0.0000 0.0000 0.0000 34.2934 0.0000
# 6 0.0000 0.0000 0.0000 0.0000 0.0000 -3.4964
#
#
#
# Elastic Compliance Matrix: (Units=1/GPa)
#
#
# Indices 1 2 3 4 5 6 
#
# 1 0.008011 -0.010459 -0.003182 0.000000 0.000000 0.000000
# 2 -0.010459 0.092801 -0.011035 0.000000 0.000000 0.000000
# 3 -0.003182 -0.011035 0.009248 0.000000 0.000000 0.000000
# 4 0.000000 0.000000 0.000000 0.010102 0.000000 0.000000
# 5 0.000000 0.000000 0.000000 0.000000 0.029160 0.000000
# 6 0.000000 0.000000 0.000000 0.000000 0.000000 -0.286007
#
#
# Mechanical properties :
#
#
# Convention : Reuss Voigt Hill
#
# Bulk Modulus (GPa) = 16.47274 95.52541 55.99908
# Shear Modulus (GPa) = -74.52022 41.93358 -16.29332
#
# Velocity S-wave (km/s) = -6.37212 4.78000 -2.97956
# Velocity P-wave (km/s) = 6.72035 9.08370 4.32149
#
# Compressibility (1/GPa) = 0.06070634
#
# Stress axis : x y z
#
# Youngs Moduli (GPa) = 124.83002 10.77579 108.12799
#
# Poissons Ratio (x) = 0.11271 0.34408
# Poissons Ratio (y) = 1.30564 1.19322
# Poissons Ratio (z) = 0.39723 0.11891
#
# Static dielectric constant tensor:
#      x y z
#    x 1.620860 0.000000 0.000000 
#    y 0.000000 1.621820 0.000000 
#    z 0.000000 0.000000 1.600130 
# 
# From -- ./inp_files/29578.got.cif
#   From: 2010.05.17/outbox.cif.g08.bks.cpg/sg51_15_cif.got.tgz:29578.got - 2010.06.03 11:52:47.
