data_PCOD9402099
_publ_section_title
;
Structure prediction by ZEFSAII (Michael W. Deem and Ramdas Pophale) SiO2 
 PCOD9402099
Probable space group: P M M A
;
_chemical_formula_sum "Si O2"
_cell_formula_units_Z 48
_cell_length_a 19.554401
_cell_length_b 7.597601
_cell_length_c 15.592405
_cell_angle_alpha 90.000000
_cell_angle_beta 90.000000
_cell_angle_gamma 90.000000
_cell_volume 2316.509608
_symmetry_space_group_name_H-M "P M M A"
_symmetry_group_IT_number 51
_symmetry_cell_setting 'orthorhombic'
loop_
_space_group_symop_operation_xyz
x,y,z
1/2-x,-y,z
1/2+x,-y,-z
-x,y,-z
-x,-y,-z
1/2+x,y,-z
1/2-x,y,z
x,-y,z
loop_
_atom_site_type_symbol
_atom_site_label
_atom_site_fract_x
_atom_site_fract_y
_atom_site_fract_z
Si Si1 0.074516 0.712086 0.531296
Si Si2 0.933716 0.206446 0.767787
Si Si3 0.426081 0.712906 0.035583
Si Si4 0.828581 0.715744 0.116884
Si Si5 0.913624 0.703633 0.278474
Si Si6 0.172390 0.211059 0.373710
O O1 0.068891 0.500000 0.537715
O O2 0.091357 0.781349 0.626270
O O3 0.131930 0.752258 0.461359
O O4 0.000000 0.776939 0.500000
O O5 0.915499 0.227916 0.867254
O O6 0.875115 0.276733 0.704392
O O7 0.007061 0.291910 0.749150
O O8 0.942787 0.000000 0.749173
O O9 0.426779 0.500000 0.036719
O O10 0.500000 0.770850 0.000000
O O11 0.368834 0.771549 0.968311
O O12 0.750000 0.769435 0.117023
O O13 0.830686 0.500000 0.117124
O O14 0.868557 0.779418 0.201447
O O15 0.892016 0.500000 0.285772
O O16 0.250000 0.279736 0.373561
O O17 0.176604 0.000000 0.364330
#
# Coordination Sequence:
#
# PCOD9402099 Si02
#       6
#     8   8   8   8   8   8
#     4  10  20  34  58  88 113 140 184 238 282 327
#     4  11  22  35  56  83 110 145 189 231 272 326
#     4  10  19  34  57  81 106 142 183 227 279 332
#     4   9  18  33  54  80 108 139 178 223 275 336
#     4  10  19  35  58  83 112 145 181 226 278 334
#     4  10  23  41  57  78 114 156 191 228 279 335
#
# _framework density 20.720828000000001
#
# number of rings (size 3 to 8) (size 9 to 14) (size 15 to 20)
#    0.000    2.000    3.333    0.500    0.000    3.667 
#    0.000    1.667    0.000    1.500    0.000    0.000 
#    0.000    0.000    0.000    0.000    0.000    0.000 
#
# Total GULP energy -268130.114723 kJ/mol
# GULP energy per Si atom -5586.044057 kJ/mol
# Density = 2.067367 g / cm^3
# Si number density = 20.720828 Si / 1000 Ang^3
#
#
#
# Elastic Constant Matrix: (Units=GPa)
#
#
# Indices 1 2 3 4 5 6 
#
# 1 173.7451 -8.8865 103.4242 0.0000 0.0000 0.0000
# 2 -8.8865 41.9495 -9.0800 0.0000 0.0000 0.0000
# 3 103.4242 -9.0800 211.4989 0.0000 0.0000 0.0000
# 4 0.0000 0.0000 0.0000 17.4084 0.0000 0.0000
# 5 0.0000 0.0000 0.0000 0.0000 34.9819 0.0000
# 6 0.0000 0.0000 0.0000 0.0000 0.0000 15.1302
#
#
#
# Elastic Compliance Matrix: (Units=1/GPa)
#
#
# Indices 1 2 3 4 5 6 
#
# 1 0.008150 0.000872 -0.003948 0.000000 0.000000 0.000000
# 2 0.000872 0.024155 0.000611 0.000000 0.000000 0.000000
# 3 -0.003948 0.000611 0.006685 0.000000 0.000000 0.000000
# 4 0.000000 0.000000 0.000000 0.057443 0.000000 0.000000
# 5 0.000000 0.000000 0.000000 0.000000 0.028586 0.000000
# 6 0.000000 0.000000 0.000000 0.000000 0.000000 0.066093
#
#
# Mechanical properties :
#
#
# Convention : Reuss Voigt Hill
#
# Bulk Modulus (GPa) = 29.36046 66.45652 47.90849
# Shear Modulus (GPa) = 24.10834 36.28651 30.19742
#
# Velocity S-wave (km/s) = 3.41469 4.18929 3.82166
# Velocity P-wave (km/s) = 5.45409 7.45266 6.53028
#
# Compressibility (1/GPa) = 0.03405942
#
# Stress axis : x y z
#
# Youngs Moduli (GPa) = 122.69440 41.39912 149.58803
#
# Poissons Ratio (x) = -0.03610 0.59059
# Poissons Ratio (y) = -0.10699 -0.09134
# Poissons Ratio (z) = 0.48441 -0.02528
#
# Static dielectric constant tensor:
#      x y z
#    x 1.700310 0.000000 0.000000 
#    y 0.000000 1.793380 0.000000 
#    z 0.000000 0.000000 1.722740 
# 
# From -- ./inp_files/24716.got.cif
#   From: 2010.05.17/outbox.cif.g08.bks.cpg/sg51_13_cif.got.tgz:24716.got - 2010.06.03 11:52:47.
