data_PCOD9402808
_publ_section_title
;
Structure prediction by ZEFSAII (Michael W. Deem and Ramdas Pophale) SiO2 
 PCOD9402808
Probable space group: P M M A
;
_chemical_formula_sum "Si O2"
_cell_formula_units_Z 64
_cell_length_a 9.270561
_cell_length_b 15.825126
_cell_length_c 23.660242
_cell_angle_alpha 90.000000
_cell_angle_beta 90.000000
_cell_angle_gamma 90.000000
_cell_volume 3471.141955
_symmetry_space_group_name_H-M "P M M A"
_symmetry_group_IT_number 51
_symmetry_cell_setting 'orthorhombic'
loop_
_space_group_symop_operation_xyz
x,y,z
1/2-x,-y,z
1/2+x,-y,-z
-x,y,-z
-x,-y,-z
1/2+x,y,-z
1/2-x,y,z
x,-y,z
loop_
_atom_site_type_symbol
_atom_site_label
_atom_site_fract_x
_atom_site_fract_y
_atom_site_fract_z
Si Si1 0.079519 0.905235 0.395113
Si Si2 0.909006 0.600373 0.773028
Si Si3 0.578406 0.255674 0.444364
Si Si4 0.412223 0.673417 0.677254
Si Si5 0.423024 0.402725 0.884753
Si Si6 0.424521 0.769712 0.941852
Si Si7 0.925145 0.095699 0.153782
Si Si8 0.916856 0.133583 0.282225
O O1 0.250000 0.885352 0.395214
O O2 0.991641 0.834916 0.429268
O O3 0.017399 0.903014 0.331268
O O4 0.059796 0.000000 0.417684
O O5 0.750000 0.638152 0.780229
O O6 0.898425 0.500000 0.777513
O O7 0.974120 0.621289 0.712497
O O8 0.014163 0.624753 0.824056
O O9 0.500000 0.288865 0.500000
O O10 0.750000 0.246774 0.452488
O O11 0.555770 0.312561 0.388627
O O12 0.250000 0.638704 0.683263
O O13 0.413698 0.766349 0.705630
O O14 0.250000 0.403892 0.881240
O O15 0.469626 0.500000 0.898012
O O16 0.464264 0.327630 0.927157
O O17 0.250000 0.773795 0.946788
O O18 0.469323 0.832795 0.891019
O O19 0.500000 0.794694 0.000000
O O20 0.750000 0.097138 0.153995
O O21 0.967102 0.114868 0.218679
O O22 0.970533 0.000000 0.138709
O O23 0.750000 0.103738 0.288560
#
# Coordination Sequence:
#
# PCOD9402808 Si02
#       8
#     8   8   8   8   8   8   8   8
#     4  10  20  32  47  71 103 134 163 201 252 306
#     4  10  20  32  50  80 111 134 159 195 241 293
#     4  10  21  36  53  72  95 128 172 214 251 294
#     4   9  18  32  51  75 101 132 167 202 245 299
#     4   9  18  34  55  76 101 134 166 200 248 304
#     4  10  21  36  52  72  98 129 170 212 249 298
#     4   9  17  30  50  73  97 129 167 208 254 302
#     4   9  17  31  52  75  97 125 166 210 252 302
#
# _framework density 18.437736000000001
#
# number of rings (size 3 to 8) (size 9 to 14) (size 15 to 20)
#    0.000    2.500    0.000    3.000    0.000    8.000 
#    0.000    0.625    0.000    1.125    0.000    0.000 
#    0.000    0.000    0.000    0.000    0.000    0.000 
#
# Total GULP energy -356802.181363 kJ/mol
# GULP energy per Si atom -5575.034084 kJ/mol
# Density = 1.839577 g / cm^3
# Si number density = 18.437736 Si / 1000 Ang^3
#
#
#
# Elastic Constant Matrix: (Units=GPa)
#
#
# Indices 1 2 3 4 5 6 
#
# 1 20.4980 7.4743 14.0625 0.0000 0.0000 0.0000
# 2 7.4743 32.6577 27.3319 0.0000 0.0000 0.0000
# 3 14.0625 27.3319 84.7681 0.0000 0.0000 0.0000
# 4 0.0000 0.0000 0.0000 4.5627 0.0000 0.0000
# 5 0.0000 0.0000 0.0000 0.0000 29.6352 0.0000
# 6 0.0000 0.0000 0.0000 0.0000 0.0000 16.0346
#
#
#
# Elastic Compliance Matrix: (Units=1/GPa)
#
#
# Indices 1 2 3 4 5 6 
#
# 1 0.056172 -0.006926 -0.007085 0.000000 0.000000 0.000000
# 2 -0.006926 0.042791 -0.012648 0.000000 0.000000 0.000000
# 3 -0.007085 -0.012648 0.017051 0.000000 0.000000 0.000000
# 4 0.000000 0.000000 0.000000 0.219167 0.000000 0.000000
# 5 0.000000 0.000000 0.000000 0.000000 0.033744 0.000000
# 6 0.000000 0.000000 0.000000 0.000000 0.000000 0.062365
#
#
# Mechanical properties :
#
#
# Convention : Reuss Voigt Hill
#
# Bulk Modulus (GPa) = 15.95045 26.18456 21.06751
# Shear Modulus (GPa) = 9.89107 15.98351 12.93729
#
# Velocity S-wave (km/s) = 2.31867 2.94750 2.65179
# Velocity P-wave (km/s) = 3.97971 5.08095 4.56367
#
# Compressibility (1/GPa) = 0.06269414
#
# Stress axis : x y z
#
# Youngs Moduli (GPa) = 17.80260 23.36916 58.64927
#
# Poissons Ratio (x) = 0.16186 0.41555
# Poissons Ratio (y) = 0.12330 0.74181
# Poissons Ratio (z) = 0.12614 0.29558
#
# Static dielectric constant tensor:
#      x y z
#    x 1.634250 0.000000 0.000000 
#    y 0.000000 1.665480 0.000000 
#    z 0.000000 0.000000 1.623150 
# 
# From -- ./inp_files/34929.got.cif
#   From: 2010.05.17/outbox.cif.g08.bks.cpg/sg51_18_cif.got.tgz:34929.got - 2010.06.03 11:52:47.
