data_PCOD9402234
_publ_section_title
;
Structure prediction by ZEFSAII (Michael W. Deem and Ramdas Pophale) SiO2 
 PCOD9402234
Probable space group: P M M A
;
_chemical_formula_sum "Si O2"
_cell_formula_units_Z 64
_cell_length_a 15.268918
_cell_length_b 8.856315
_cell_length_c 24.592731
_cell_angle_alpha 90.000000
_cell_angle_beta 90.000000
_cell_angle_gamma 90.000000
_cell_volume 3325.585189
_symmetry_space_group_name_H-M "P M M A"
_symmetry_group_IT_number 51
_symmetry_cell_setting 'orthorhombic'
loop_
_space_group_symop_operation_xyz
x,y,z
1/2-x,-y,z
1/2+x,-y,-z
-x,y,-z
-x,-y,-z
1/2+x,y,-z
1/2-x,y,z
x,-y,z
loop_
_atom_site_type_symbol
_atom_site_label
_atom_site_fract_x
_atom_site_fract_y
_atom_site_fract_z
Si Si1 0.006071 0.181078 0.308028
Si Si2 0.395163 0.675028 0.504972
Si Si3 0.354283 0.819499 0.104261
Si Si4 0.646677 0.180423 0.124756
Si Si5 0.154304 0.181265 0.392364
Si Si6 0.643677 0.673035 0.010108
Si Si7 0.510946 0.680342 0.810329
Si Si8 0.648154 0.679196 0.373049
O O1 0.077485 0.233440 0.352630
O O2 0.022649 0.257391 0.250328
O O3 0.913060 0.230847 0.332225
O O4 0.010742 0.000000 0.302531
O O5 0.500000 0.681655 0.500000
O O6 0.367353 0.500000 0.501267
O O7 0.357632 0.762262 0.453646
O O8 0.367935 0.730563 0.564627
O O9 0.250000 0.787771 0.111523
O O10 0.413227 0.745663 0.150736
O O11 0.365342 0.000000 0.104427
O O12 0.382701 0.753047 0.045779
O O13 0.750000 0.217075 0.132980
O O14 0.620187 0.237063 0.064530
O O15 0.581983 0.259923 0.166794
O O16 0.637252 0.000000 0.128119
O O17 0.250000 0.228900 0.372111
O O18 0.150931 0.000000 0.393033
O O19 0.750000 0.670441 0.009256
O O20 0.612780 0.500000 0.012555
O O21 0.512448 0.500000 0.811290
O O22 0.750000 0.695722 0.360065
O O23 0.625724 0.500000 0.370968
#
# Coordination Sequence:
#
# PCOD9402234 Si02
#       8
#     8   8   8   8   8   8   8   8
#     4  11  24  42  61  82 113 152 198 247 296 348
#     4  10  19  34  60  90 122 155 190 234 287 346
#     4  10  21  39  63  90 122 159 198 243 296 353
#     4  10  21  39  63  90 121 157 198 244 297 358
#     4  10  22  39  60  87 118 153 193 237 288 346
#     4   9  17  32  57  90 126 159 194 240 295 353
#     4  12  26  42  62  87 117 154 201 251 300 355
#     4  10  21  38  60  87 119 155 194 238 291 348
#
# _framework density 19.244733
#
# number of rings (size 3 to 8) (size 9 to 14) (size 15 to 20)
#    0.000    1.750    1.250    3.000    0.000    6.750 
#    0.000    3.750    0.000    0.000    0.000    0.000 
#    0.000    0.000    0.000    0.000    0.000    0.000 
#
# Total GULP energy -357664.692864 kJ/mol
# GULP energy per Si atom -5588.510826 kJ/mol
# Density = 1.920093 g / cm^3
# Si number density = 19.244733 Si / 1000 Ang^3
#
#
#
# Elastic Constant Matrix: (Units=GPa)
#
#
# Indices 1 2 3 4 5 6 
#
# 1 41.0013 16.6742 -12.1720 0.0000 0.0000 0.0000
# 2 16.6742 64.3981 6.7785 0.0000 0.0000 0.0000
# 3 -12.1720 6.7785 39.8206 0.0000 0.0000 0.0000
# 4 0.0000 0.0000 0.0000 37.8367 0.0000 0.0000
# 5 0.0000 0.0000 0.0000 0.0000 5.5465 0.0000
# 6 0.0000 0.0000 0.0000 0.0000 0.0000 24.6885
#
#
#
# Elastic Compliance Matrix: (Units=1/GPa)
#
#
# Indices 1 2 3 4 5 6 
#
# 1 0.031522 -0.009343 0.011226 0.000000 0.000000 0.000000
# 2 -0.009343 0.018581 -0.006019 0.000000 0.000000 0.000000
# 3 0.011226 -0.006019 0.029569 0.000000 0.000000 0.000000
# 4 0.000000 0.000000 0.000000 0.026429 0.000000 0.000000
# 5 0.000000 0.000000 0.000000 0.000000 0.180295 0.000000
# 6 0.000000 0.000000 0.000000 0.000000 0.000000 0.040505
#
#
# Mechanical properties :
#
#
# Convention : Reuss Voigt Hill
#
# Bulk Modulus (GPa) = 14.00590 18.64236 16.32413
# Shear Modulus (GPa) = 13.92864 22.54362 18.23613
#
# Velocity S-wave (km/s) = 2.69320 3.42631 3.08164
# Velocity P-wave (km/s) = 4.11882 5.03595 4.60030
#
# Compressibility (1/GPa) = 0.07139847
#
# Stress axis : x y z
#
# Youngs Moduli (GPa) = 31.72413 53.81798 33.81964
#
# Poissons Ratio (x) = 0.50284 -0.37965
# Poissons Ratio (y) = 0.29641 0.20356
# Poissons Ratio (z) = -0.35613 0.32393
#
# Static dielectric constant tensor:
#      x y z
#    x 1.688070 0.000000 0.000000 
#    y 0.000000 1.648740 0.000000 
#    z 0.000000 0.000000 1.633790 
# 
# From -- ./inp_files/35853.got.cif
#   From: 2010.05.17/outbox.cif.g08.bks.cpg/sg51_18_cif.got.tgz:35853.got - 2010.06.03 11:52:47.
