data_PCOD9402902
_publ_section_title
;
Structure prediction by ZEFSAII (Michael W. Deem and Ramdas Pophale) SiO2 
 PCOD9402902
Probable space group: P M M A
;
_chemical_formula_sum "Si O2"
_cell_formula_units_Z 56
_cell_length_a 24.623883
_cell_length_b 8.975943
_cell_length_c 14.132107
_cell_angle_alpha 90.000000
_cell_angle_beta 90.000000
_cell_angle_gamma 90.000000
_cell_volume 3123.514612
_symmetry_space_group_name_H-M "P M M A"
_symmetry_group_IT_number 51
_symmetry_cell_setting 'orthorhombic'
loop_
_space_group_symop_operation_xyz
x,y,z
1/2-x,-y,z
1/2+x,-y,-z
-x,y,-z
-x,-y,-z
1/2+x,y,-z
1/2-x,y,z
x,-y,z
loop_
_atom_site_type_symbol
_atom_site_label
_atom_site_fract_x
_atom_site_fract_y
_atom_site_fract_z
Si Si1 0.979396 0.323127 0.727596
Si Si2 0.312973 0.678040 0.976723
Si Si3 0.311531 0.820489 0.773439
Si Si4 0.907282 0.322708 0.541245
Si Si5 0.872425 0.320198 0.833362
Si Si6 0.916811 0.822018 0.340917
Si Si7 0.313443 0.821967 0.344914
O O1 0.990546 0.500000 0.732889
O O2 0.948873 0.294083 0.627580
O O3 0.934766 0.284578 0.807229
O O4 0.034919 0.233103 0.726891
O O5 0.250000 0.709151 0.003380
O O6 0.317772 0.500000 0.963351
O O7 0.323788 0.757892 0.877678
O O8 0.352133 0.722040 0.062658
O O9 0.250000 0.772688 0.747823
O O10 0.358474 0.774759 0.701060
O O11 0.311837 0.000000 0.777342
O O12 0.902692 0.500000 0.531251
O O13 0.925205 0.251138 0.443197
O O14 0.850468 0.252293 0.574732
O O15 0.866604 0.500000 0.823040
O O16 0.835167 0.243096 0.754276
O O17 0.917875 0.000000 0.349313
O O18 0.250000 0.788692 0.356674
O O19 0.320860 0.000000 0.346621
#
# Coordination Sequence:
#
# PCOD9402902 Si02
#       7
#     8   8   8   8   8   8   8
#     4   9  19  35  53  75 104 136 169 206 252 307
#     4   9  17  31  54  81 104 130 169 213 253 297
#     4   9  20  38  55  73 101 134 168 209 256 305
#     4  10  21  36  54  75 101 136 176 215 256 305
#     4   9  18  33  53  77 106 138 170 208 255 303
#     4  11  22  35  54  77 100 132 172 214 262 308
#     4  10  20  32  48  75 109 140 171 209 254 305
#
# _framework density 17.928521
#
# number of rings (size 3 to 8) (size 9 to 14) (size 15 to 20)
#    0.000    2.429    0.000    3.000    0.000    8.571 
#    0.000    3.571    0.000    4.286    0.000    0.000 
#    0.000    0.000    0.000    0.000    0.000    0.000 
#
# Total GULP energy -312466.661984 kJ/mol
# GULP energy per Si atom -5579.761821 kJ/mol
# Density = 1.788771 g / cm^3
# Si number density = 17.928521 Si / 1000 Ang^3
#
#
#
# Elastic Constant Matrix: (Units=GPa)
#
#
# Indices 1 2 3 4 5 6 
#
# 1 78.7659 33.4283 10.3213 0.0000 0.0000 0.0000
# 2 33.4283 22.7546 10.2782 0.0000 0.0000 0.0000
# 3 10.3213 10.2782 30.6534 0.0000 0.0000 0.0000
# 4 0.0000 0.0000 0.0000 18.3593 0.0000 0.0000
# 5 0.0000 0.0000 0.0000 0.0000 18.1365 0.0000
# 6 0.0000 0.0000 0.0000 0.0000 0.0000 29.5386
#
#
#
# Elastic Compliance Matrix: (Units=1/GPa)
#
#
# Indices 1 2 3 4 5 6 
#
# 1 0.034747 -0.053929 0.006383 0.000000 0.000000 0.000000
# 2 -0.053929 0.135492 -0.027272 0.000000 0.000000 0.000000
# 3 0.006383 -0.027272 0.039618 0.000000 0.000000 0.000000
# 4 0.000000 0.000000 0.000000 0.054468 0.000000 0.000000
# 5 0.000000 0.000000 0.000000 0.000000 0.055137 0.000000
# 6 0.000000 0.000000 0.000000 0.000000 0.000000 0.033854
#
#
# Mechanical properties :
#
#
# Convention : Reuss Voigt Hill
#
# Bulk Modulus (GPa) = 16.60577 26.69216 21.64896
# Shear Modulus (GPa) = 9.55972 18.41662 13.98817
#
# Velocity S-wave (km/s) = 2.31165 3.20851 2.79627
# Velocity P-wave (km/s) = 4.05059 5.35224 4.74625
#
# Compressibility (1/GPa) = 0.06022004
#
# Stress axis : x y z
#
# Youngs Moduli (GPa) = 28.77947 7.38050 25.24096
#
# Poissons Ratio (x) = 0.39802 -0.16111
# Poissons Ratio (y) = 1.55205 0.68838
# Poissons Ratio (z) = -0.18370 0.20128
#
# Static dielectric constant tensor:
#      x y z
#    x 1.625740 0.000000 0.000000 
#    y 0.000000 1.598790 0.000000 
#    z 0.000000 0.000000 1.590550 
# 
# From -- ./inp_files/25617.got.cif
#   From: 2010.05.17/outbox.cif.g08.bks.cpg/sg51_13_cif.got.tgz:25617.got - 2010.06.03 11:52:47.
