data_PCOD9402540
_publ_section_title
;
Structure prediction by ZEFSAII (Michael W. Deem and Ramdas Pophale) SiO2 
 PCOD9402540
Probable space group: P M M A
;
_chemical_formula_sum "Si O2"
_cell_formula_units_Z 28
_cell_length_a 19.713177
_cell_length_b 5.767808
_cell_length_c 9.550887
_cell_angle_alpha 90.000000
_cell_angle_beta 90.000000
_cell_angle_gamma 90.000000
_cell_volume 1085.953235
_symmetry_space_group_name_H-M "P M M A"
_symmetry_group_IT_number 51
_symmetry_cell_setting 'orthorhombic'
loop_
_space_group_symop_operation_xyz
x,y,z
1/2-x,-y,z
1/2+x,-y,-z
-x,y,-z
-x,-y,-z
1/2+x,y,-z
1/2-x,y,z
x,-y,z
loop_
_atom_site_type_symbol
_atom_site_label
_atom_site_fract_x
_atom_site_fract_y
_atom_site_fract_z
Si Si1 0.170322 0.500000 0.620057
Si Si2 0.060609 0.249058 0.885074
Si Si3 0.558972 0.500000 0.615066
Si Si4 0.403308 0.000000 0.321742
Si Si5 0.669799 0.000000 0.381123
Si Si6 0.828953 0.000000 0.956184
O O1 0.250000 0.500000 0.588500
O O2 0.128383 0.500000 0.476424
O O3 0.157872 0.750655 0.690687
O O4 0.057287 0.500000 0.813563
O O5 0.053761 0.000000 0.808289
O O6 0.128951 0.214508 0.978336
O O7 0.000000 0.249425 0.000000
O O8 0.500000 0.500000 0.500000
O O9 0.559559 0.749261 0.693011
O O10 0.375081 0.000000 0.479679
O O11 0.343208 0.000000 0.208773
O O12 0.750000 0.000000 0.416054
O O13 0.750000 0.000000 0.991726
#
# Coordination Sequence:
#
# PCOD9402540 Si02
#       6
#     4   8   4   4   4   4
#     4   8  14  24  40  56  72  95 131 176 221 263
#     4   8  16  31  47  64  95 141 180 199 223 284
#     4  10  20  34  46  58  85 125 168 200 234 291
#     4  10  20  29  43  64  89 123 156 199 244 288
#     4   8  13  23  34  51  77 106 132 159 205 266
#     4  10  20  30  47  77 112 137 160 200 257 308
#
# _framework density 25.783799999999999
#
# number of rings (size 3 to 8) (size 9 to 14) (size 15 to 20)
#    0.857    2.286    0.000    0.857    2.000    1.714 
#    0.000    0.000    0.000    0.000    0.000    0.000 
#    0.000    9.143    0.000    0.000    0.000    0.000 
#
# Total GULP energy -156326.310716 kJ/mol
# GULP energy per Si atom -5583.082526 kJ/mol
# Density = 2.572512 g / cm^3
# Si number density = 25.783800 Si / 1000 Ang^3
#
#
#
# Elastic Constant Matrix: (Units=GPa)
#
#
# Indices 1 2 3 4 5 6 
#
# 1 154.1868 86.6538 35.3096 0.0000 0.0000 0.0000
# 2 86.6538 312.1898 18.4072 0.0000 0.0000 0.0000
# 3 35.3096 18.4072 72.8775 0.0000 0.0000 0.0000
# 4 0.0000 0.0000 0.0000 48.2319 0.0000 0.0000
# 5 0.0000 0.0000 0.0000 0.0000 33.6619 0.0000
# 6 0.0000 0.0000 0.0000 0.0000 0.0000 37.5303
#
#
#
# Elastic Compliance Matrix: (Units=1/GPa)
#
#
# Indices 1 2 3 4 5 6 
#
# 1 0.008516 -0.002152 -0.003582 0.000000 0.000000 0.000000
# 2 -0.002152 0.003796 0.000084 0.000000 0.000000 0.000000
# 3 -0.003582 0.000084 0.015436 0.000000 0.000000 0.000000
# 4 0.000000 0.000000 0.000000 0.020733 0.000000 0.000000
# 5 0.000000 0.000000 0.000000 0.000000 0.029707 0.000000
# 6 0.000000 0.000000 0.000000 0.000000 0.000000 0.026645
#
#
# Mechanical properties :
#
#
# Convention : Reuss Voigt Hill
#
# Bulk Modulus (GPa) = 60.80386 91.11060 75.95723
# Shear Modulus (GPa) = 41.11298 50.47703 45.79500
#
# Velocity S-wave (km/s) = 3.99749 4.42939 4.21897
# Velocity P-wave (km/s) = 6.70372 7.84681 7.29768
#
# Compressibility (1/GPa) = 0.01644632
#
# Stress axis : x y z
#
# Youngs Moduli (GPa) = 117.43024 263.45803 64.78353
#
# Poissons Ratio (x) = 0.56708 0.23207
# Poissons Ratio (y) = 0.25276 -0.00545
# Poissons Ratio (z) = 0.42066 -0.02218
#
# Static dielectric constant tensor:
#      x y z
#    x 2.141250 0.000000 0.000000 
#    y 0.000000 2.092790 0.000000 
#    z 0.000000 0.000000 1.952670 
# 
# From -- ./inp_files/17753.got.cif
#   From: 2010.05.17/outbox.cif.g08.bks.cpg/sg51_9_cif.got.tgz:17753.got - 2010.06.03 11:52:47.
