data_PCOD9402746
_publ_section_title
;
Structure prediction by ZEFSAII (Michael W. Deem and Ramdas Pophale) SiO2 
 PCOD9402746
Probable space group: P M M A
;
_chemical_formula_sum "Si O2"
_cell_formula_units_Z 64
_cell_length_a 8.026655
_cell_length_b 24.511429
_cell_length_c 19.836003
_cell_angle_alpha 90.000000
_cell_angle_beta 90.000000
_cell_angle_gamma 90.000000
_cell_volume 3902.630128
_symmetry_space_group_name_H-M "P M M A"
_symmetry_group_IT_number 51
_symmetry_cell_setting 'orthorhombic'
loop_
_space_group_symop_operation_xyz
x,y,z
1/2-x,-y,z
1/2+x,-y,-z
-x,y,-z
-x,-y,-z
1/2+x,y,-z
1/2-x,y,z
x,-y,z
loop_
_atom_site_type_symbol
_atom_site_label
_atom_site_fract_x
_atom_site_fract_y
_atom_site_fract_z
Si Si1 0.552308 0.727033 0.215247
Si Si2 0.548550 0.061396 0.212182
Si Si3 0.548978 0.758707 0.073423
Si Si4 0.048616 0.561464 0.577203
Si Si5 0.448918 0.165875 0.292119
Si Si6 0.051315 0.773475 0.423948
Si Si7 0.949971 0.666574 0.345451
Si Si8 0.049509 0.115318 0.926460
O O1 0.750000 0.716658 0.211641
O O2 0.486072 0.726479 0.139056
O O3 0.527648 0.788350 0.243402
O O4 0.482451 0.687154 0.273091
O O5 0.750000 0.060845 0.210638
O O6 0.495973 0.106287 0.266564
O O7 0.490309 0.081740 0.138281
O O8 0.490275 0.000000 0.225874
O O9 0.750000 0.760152 0.076661
O O10 0.489240 0.821783 0.078032
O O11 0.500000 0.737337 0.000000
O O12 0.250000 0.561220 0.580422
O O13 0.989954 0.500000 0.593397
O O14 0.985807 0.609374 0.625789
O O15 0.000000 0.573335 0.500000
O O16 0.250000 0.172009 0.288056
O O17 0.502968 0.182266 0.367806
O O18 0.250000 0.770347 0.421696
O O19 0.000000 0.785463 0.500000
O O20 0.984102 0.715196 0.398240
O O21 0.750000 0.661927 0.339345
O O22 0.250000 0.116471 0.923828
O O23 0.000000 0.093620 0.000000
#
# Coordination Sequence:
#
# PCOD9402746 Si02
#       8
#     8   8   8   8   8   8   8   8
#     4   9  16  29  46  63  85 114 146 176 215 261
#     4  10  20  34  50  65  84 112 144 175 209 255
#     4   9  16  26  41  60  84 112 140 173 210 255
#     4   9  17  28  41  60  88 122 156 185 213 247
#     4  10  20  32  47  67  89 109 136 174 216 257
#     4  10  20  32  47  69  92 114 139 175 217 258
#     4   9  17  28  45  66  89 119 150 183 217 253
#     4   9  17  29  43  62  85 111 141 173 207 246
#
# _framework density 16.399197000000001
#
# number of rings (size 3 to 8) (size 9 to 14) (size 15 to 20)
#    0.000    2.625    1.250    1.125    0.000    4.500 
#    0.000    0.000    0.000    0.375    0.000    0.000 
#    0.000    0.500    0.000    0.375    0.000    0.750 
#
# Total GULP energy -356675.369834 kJ/mol
# GULP energy per Si atom -5573.052654 kJ/mol
# Density = 1.636187 g / cm^3
# Si number density = 16.399197 Si / 1000 Ang^3
#
#
#
# Elastic Constant Matrix: (Units=GPa)
#
#
# Indices 1 2 3 4 5 6 
#
# 1 9.5330 4.3294 3.7208 0.0000 0.0000 0.0000
# 2 4.3294 106.2944 73.8896 0.0000 0.0000 0.0000
# 3 3.7208 73.8896 148.5878 0.0000 0.0000 0.0000
# 4 0.0000 0.0000 0.0000 34.5789 0.0000 0.0000
# 5 0.0000 0.0000 0.0000 0.0000 20.4025 0.0000
# 6 0.0000 0.0000 0.0000 0.0000 0.0000 24.0799
#
#
#
# Elastic Compliance Matrix: (Units=1/GPa)
#
#
# Indices 1 2 3 4 5 6 
#
# 1 0.106935 -0.003812 -0.000782 0.000000 0.000000 0.000000
# 2 -0.003812 0.014514 -0.007122 0.000000 0.000000 0.000000
# 3 -0.000782 -0.007122 0.010291 0.000000 0.000000 0.000000
# 4 0.000000 0.000000 0.000000 0.028919 0.000000 0.000000
# 5 0.000000 0.000000 0.000000 0.000000 0.049014 0.000000
# 6 0.000000 0.000000 0.000000 0.000000 0.000000 0.041528
#
#
# Mechanical properties :
#
#
# Convention : Reuss Voigt Hill
#
# Bulk Modulus (GPa) = 9.23290 47.58831 28.41061
# Shear Modulus (GPa) = 16.09081 27.97729 22.03405
#
# Velocity S-wave (km/s) = 3.13580 4.13488 3.66950
# Velocity P-wave (km/s) = 4.33051 7.20263 5.94270
#
# Compressibility (1/GPa) = 0.10830829
#
# Stress axis : x y z
#
# Youngs Moduli (GPa) = 9.35146 68.89954 97.17004
#
# Poissons Ratio (x) = 0.26263 0.07601
# Poissons Ratio (y) = 0.03565 0.69204
# Poissons Ratio (z) = 0.00732 0.49070
#
# Static dielectric constant tensor:
#      x y z
#    x 1.584550 0.000000 0.000000 
#    y 0.000000 1.543530 0.000000 
#    z 0.000000 0.000000 1.645150 
# 
# From -- ./inp_files/32714.got.cif
#   From: 2010.05.17/outbox.cif.g08.bks.cpg/sg51_17_cif.got.tgz:32714.got - 2010.06.03 11:52:47.
