data_PCOD9402278
_publ_section_title
;
Structure prediction by ZEFSAII (Michael W. Deem and Ramdas Pophale) SiO2 
 PCOD9402278
Probable space group: P M M A
;
_chemical_formula_sum "Si O2"
_cell_formula_units_Z 64
_cell_length_a 14.719959
_cell_length_b 21.767822
_cell_length_c 9.336488
_cell_angle_alpha 90.000000
_cell_angle_beta 90.000000
_cell_angle_gamma 90.000000
_cell_volume 2991.610998
_symmetry_space_group_name_H-M "P M M A"
_symmetry_group_IT_number 51
_symmetry_cell_setting 'orthorhombic'
loop_
_space_group_symop_operation_xyz
x,y,z
1/2-x,-y,z
1/2+x,-y,-z
-x,y,-z
-x,-y,-z
1/2+x,y,-z
1/2-x,y,z
x,-y,z
loop_
_atom_site_type_symbol
_atom_site_label
_atom_site_fract_x
_atom_site_fract_y
_atom_site_fract_z
Si Si1 0.581978 0.567630 0.221003
Si Si2 0.362520 0.817889 0.080657
Si Si3 0.084718 0.386784 0.073434
Si Si4 0.360724 0.314811 0.596952
Si Si5 0.646345 0.932827 0.755916
Si Si6 0.398262 0.929903 0.559020
Si Si7 0.639960 0.812345 0.247999
Si Si8 0.353253 0.711081 0.281440
O O1 0.606318 0.500000 0.275199
O O2 0.475211 0.569546 0.175614
O O3 0.602766 0.624635 0.323384
O O4 0.627424 0.580593 0.064433
O O5 0.250000 0.815628 0.082044
O O6 0.396237 0.882118 0.144032
O O7 0.395011 0.767158 0.193947
O O8 0.389656 0.809259 0.917113
O O9 0.145711 0.344501 0.169217
O O10 0.000000 0.348956 0.000000
O O11 0.250000 0.319680 0.601819
O O12 0.387205 0.250736 0.672776
O O13 0.393090 0.309652 0.432490
O O14 0.750000 0.938311 0.806124
O O15 0.651985 0.913959 0.589669
O O16 0.602298 0.000000 0.761859
O O17 0.500000 0.932185 0.500000
O O18 0.388359 0.875443 0.672836
O O19 0.372119 0.000000 0.604832
O O20 0.750000 0.813155 0.249736
O O21 0.250000 0.729496 0.315997
#
# Coordination Sequence:
#
# PCOD9402278 Si02
#       8
#     8   8   8   8   8   8   8   8
#     4   9  19  38  60  81 113 149 183 230 280 335
#     4   9  18  32  54  80 105 138 182 233 282 327
#     4   8  19  36  56  85 108 144 191 229 277 339
#     4  10  21  36  57  85 115 148 190 236 283 336
#     4   9  17  32  53  75 101 137 179 220 268 325
#     4  10  21  37  54  79 112 148 185 227 277 334
#     4  10  20  36  57  82 110 143 185 235 281 327
#     4  10  19  35  56  79 113 149 185 234 286 337
#
# _framework density 21.393156000000001
#
# number of rings (size 3 to 8) (size 9 to 14) (size 15 to 20)
#    0.750    1.750    0.000    2.625    0.000    5.500 
#    4.500    3.750    0.000    4.875    0.000    0.000 
#    0.000    0.000    0.000    0.000    0.000    0.000 
#
# Total GULP energy -356516.361722 kJ/mol
# GULP energy per Si atom -5570.568152 kJ/mol
# Density = 2.134446 g / cm^3
# Si number density = 21.393156 Si / 1000 Ang^3
#
#
#
# Elastic Constant Matrix: (Units=GPa)
#
#
# Indices 1 2 3 4 5 6 
#
# 1 36.0663 10.4457 14.2928 0.0000 0.0000 0.0000
# 2 10.4457 166.3511 106.2549 0.0000 0.0000 0.0000
# 3 14.2928 106.2549 143.7214 0.0000 0.0000 0.0000
# 4 0.0000 0.0000 0.0000 29.2416 0.0000 0.0000
# 5 0.0000 0.0000 0.0000 0.0000 19.8187 0.0000
# 6 0.0000 0.0000 0.0000 0.0000 0.0000 -9.1033
#
#
#
# Elastic Compliance Matrix: (Units=1/GPa)
#
#
# Indices 1 2 3 4 5 6 
#
# 1 0.028864 0.000040 -0.002900 0.000000 0.000000 0.000000
# 2 0.000040 0.011390 -0.008425 0.000000 0.000000 0.000000
# 3 -0.002900 -0.008425 0.013475 0.000000 0.000000 0.000000
# 4 0.000000 0.000000 0.000000 0.034198 0.000000 0.000000
# 5 0.000000 0.000000 0.000000 0.000000 0.050457 0.000000
# 6 0.000000 0.000000 0.000000 0.000000 0.000000 -0.109850
#
#
# Mechanical properties :
#
#
# Convention : Reuss Voigt Hill
#
# Bulk Modulus (GPa) = 32.09294 67.56952 49.83123
# Shear Modulus (GPa) = 81.31302 22.33443 51.82372
#
# Velocity S-wave (km/s) = 6.17182 3.23460 4.92717
# Velocity P-wave (km/s) = 8.11311 6.75303 7.46411
#
# Compressibility (1/GPa) = 0.03115950
#
# Stress axis : x y z
#
# Youngs Moduli (GPa) = 34.64478 87.79514 74.21216
#
# Poissons Ratio (x) = -0.00349 0.21521
# Poissons Ratio (y) = -0.00138 0.62523
# Poissons Ratio (z) = 0.10047 0.73966
#
# Static dielectric constant tensor:
#      x y z
#    x 1.755830 0.000000 0.000000 
#    y 0.000000 1.803210 0.000000 
#    z 0.000000 0.000000 1.762430 
# 
# From -- ./inp_files/10053.got.cif
#   From: 2010.05.17/outbox.cif.g08.bks.cpg/sg51_6_cif.got.tgz:10053.got - 2010.06.03 11:52:47.
