data_PCOD9402635
_publ_section_title
;
Structure prediction by ZEFSAII (Michael W. Deem and Ramdas Pophale) SiO2 
 PCOD9402635
Probable space group: P M M A
;
_chemical_formula_sum "Si O2"
_cell_formula_units_Z 48
_cell_length_a 17.680229
_cell_length_b 16.337592
_cell_length_c 8.894483
_cell_angle_alpha 90.000000
_cell_angle_beta 90.000000
_cell_angle_gamma 90.000000
_cell_volume 2569.192476
_symmetry_space_group_name_H-M "P M M A"
_symmetry_group_IT_number 51
_symmetry_cell_setting 'orthorhombic'
loop_
_space_group_symop_operation_xyz
x,y,z
1/2-x,-y,z
1/2+x,-y,-z
-x,y,-z
-x,-y,-z
1/2+x,y,-z
1/2-x,y,z
x,-y,z
loop_
_atom_site_type_symbol
_atom_site_label
_atom_site_fract_x
_atom_site_fract_y
_atom_site_fract_z
Si Si1 0.339044 0.280917 0.942844
Si Si2 0.840493 0.000000 0.240641
Si Si3 0.158102 0.181519 0.647261
Si Si4 0.569796 0.284172 0.597758
Si Si5 0.841511 0.595803 0.815249
Si Si6 0.918436 0.000000 0.921179
Si Si7 0.061899 0.173358 0.133267
O O1 0.250000 0.289543 0.930022
O O2 0.363132 0.243079 0.784303
O O3 0.366842 0.363915 0.024439
O O4 0.363035 0.213452 0.064405
O O5 0.866659 0.087539 0.312149
O O6 0.750000 0.000000 0.252620
O O7 0.862529 0.000000 0.063903
O O8 0.250000 0.179951 0.635137
O O9 0.121452 0.223390 0.501905
O O10 0.500000 0.317023 0.500000
O O11 0.618327 0.353851 0.681685
O O12 0.535951 0.227073 0.728669
O O13 0.750000 0.605105 0.803074
O O14 0.859094 0.500000 0.809500
O O15 0.916666 0.081622 0.825532
O O16 0.000000 0.000000 0.000000
O O17 0.000000 0.174881 0.000000
#
# Coordination Sequence:
#
# PCOD9402635 Si02
#       7
#     8   4   8   8   8   4   8
#     4   9  17  32  57  79 100 135 179 226 272 329
#     4  10  20  35  57  81 112 153 194 237 280 326
#     4  10  20  36  56  82 115 149 186 228 281 336
#     4  11  23  35  55  82 115 153 183 229 282 345
#     4   9  19  38  61  83 107 139 183 233 283 336
#     4  10  20  31  53  78 105 147 193 248 270 319
#     4  10  20  35  52  75 108 146 193 231 270 318
#
# _framework density 18.682912000000002
#
# number of rings (size 3 to 8) (size 9 to 14) (size 15 to 20)
#    0.000    2.167    1.667    1.500    2.333    1.667 
#    0.000    1.667    0.000   20.000    0.000    0.000 
#    0.000    0.000    0.000    0.000    0.000    0.000 
#
# Total GULP energy -267287.168603 kJ/mol
# GULP energy per Si atom -5568.482679 kJ/mol
# Density = 1.864039 g / cm^3
# Si number density = 18.682912 Si / 1000 Ang^3
#
#
#
# Elastic Constant Matrix: (Units=GPa)
#
#
# Indices 1 2 3 4 5 6 
#
# 1 29.2400 38.4586 34.4625 0.0000 0.0000 0.0000
# 2 38.4586 163.0884 60.5333 0.0000 0.0000 0.0000
# 3 34.4625 60.5333 88.8600 0.0000 0.0000 0.0000
# 4 0.0000 0.0000 0.0000 -12.9168 0.0000 0.0000
# 5 0.0000 0.0000 0.0000 0.0000 27.9177 0.0000
# 6 0.0000 0.0000 0.0000 0.0000 0.0000 8.8826
#
#
#
# Elastic Compliance Matrix: (Units=1/GPa)
#
#
# Indices 1 2 3 4 5 6 
#
# 1 0.071264 -0.008762 -0.021669 0.000000 0.000000 0.000000
# 2 -0.008762 0.009284 -0.002926 0.000000 0.000000 0.000000
# 3 -0.021669 -0.002926 0.021651 0.000000 0.000000 0.000000
# 4 0.000000 0.000000 0.000000 -0.077419 0.000000 0.000000
# 5 0.000000 0.000000 0.000000 0.000000 0.035820 0.000000
# 6 0.000000 0.000000 0.000000 0.000000 0.000000 0.112580
#
#
# Mechanical properties :
#
#
# Convention : Reuss Voigt Hill
#
# Bulk Modulus (GPa) = 28.18193 60.89967 44.54080
# Shear Modulus (GPa) = 19.86308 14.62563 17.24436
#
# Velocity S-wave (km/s) = 3.26416 2.80095 3.04139
# Velocity P-wave (km/s) = 5.41511 6.56717 6.01877
#
# Compressibility (1/GPa) = 0.03548373
#
# Stress axis : x y z
#
# Youngs Moduli (GPa) = 14.03234 107.71211 46.18714
#
# Poissons Ratio (x) = 0.94379 1.00084
# Poissons Ratio (y) = 0.12295 0.13516
# Poissons Ratio (z) = 0.30407 0.31519
#
# Static dielectric constant tensor:
#      x y z
#    x 1.663240 0.000000 0.000000 
#    y 0.000000 1.671110 0.000000 
#    z 0.000000 0.000000 1.666870 
# 
# From -- ./inp_files/9727.got.cif
#   From: 2010.05.17/outbox.cif.g08.bks.cpg/sg51_5_cif.got.tgz:9727.got - 2010.06.03 11:52:47.
