data_PCOD9402195
_publ_section_title
;
Structure prediction by ZEFSAII (Michael W. Deem and Ramdas Pophale) SiO2 
 PCOD9402195
Probable space group: P M M A
;
_chemical_formula_sum "Si O2"
_cell_formula_units_Z 48
_cell_length_a 9.181509
_cell_length_b 30.125746
_cell_length_c 9.179565
_cell_angle_alpha 90.000000
_cell_angle_beta 90.000000
_cell_angle_gamma 90.000000
_cell_volume 2539.065917
_symmetry_space_group_name_H-M "P M M A"
_symmetry_group_IT_number 51
_symmetry_cell_setting 'orthorhombic'
loop_
_space_group_symop_operation_xyz
x,y,z
1/2-x,-y,z
1/2+x,-y,-z
-x,y,-z
-x,-y,-z
1/2+x,y,-z
1/2-x,y,z
x,-y,z
loop_
_atom_site_type_symbol
_atom_site_label
_atom_site_fract_x
_atom_site_fract_y
_atom_site_fract_z
Si Si1 0.750000 0.054739 0.335792
Si Si2 0.576494 0.449009 0.157492
Si Si3 0.992836 0.895987 0.826765
Si Si4 0.927385 0.372150 0.660112
Si Si5 0.250000 0.948257 0.325040
Si Si6 0.927773 0.716876 0.337691
Si Si7 0.925194 0.194185 0.658374
O O1 0.624096 0.080443 0.253784
O O2 0.750000 0.067583 0.507323
O O3 0.750000 0.000000 0.323489
O O4 0.750000 0.438060 0.149988
O O5 0.565851 0.500000 0.211188
O O6 0.486476 0.414727 0.254692
O O7 0.500000 0.447736 0.000000
O O8 0.876772 0.930797 0.772947
O O9 0.954266 0.848406 0.757658
O O10 0.000000 0.892525 0.000000
O O11 0.250000 0.369400 0.345931
O O12 0.000376 0.327552 0.728468
O O13 0.000000 0.375308 0.500000
O O14 0.250000 0.000000 0.339171
O O15 0.750000 0.715533 0.341785
O O16 0.000000 0.717550 0.500000
O O17 0.992237 0.762716 0.275485
O O18 0.750000 0.201552 0.642381
O O19 0.000000 0.186263 0.500000
#
# Coordination Sequence:
#
# PCOD9402195 Si02
#       7
#     4   8   8   8   4   8   8
#     4  11  25  43  69  93 121 161 207 253 294 361
#     4  10  21  38  59  84 117 159 208 258 312 379
#     4  12  26  41  62  93 129 162 197 250 311 364
#     4  11  21  36  59  88 124 161 204 259 313 368
#     4  11  23  45  67  93 121 159 209 249 296 361
#     4  10  19  34  58  89 120 156 201 251 302 359
#     4  11  22  39  63  90 118 157 204 247 294 362
#
# _framework density 18.904589999999999
#
# number of rings (size 3 to 8) (size 9 to 14) (size 15 to 20)
#    0.000    1.167    0.833    8.500    2.333    4.667 
#    0.000    0.833    0.000    0.000    0.000    0.000 
#    0.000    0.000    0.000    0.000    0.000    0.000 
#
# Total GULP energy -267337.662500 kJ/mol
# GULP energy per Si atom -5569.534635 kJ/mol
# Density = 1.886156 g / cm^3
# Si number density = 18.904590 Si / 1000 Ang^3
#
#
#
# Elastic Constant Matrix: (Units=GPa)
#
#
# Indices 1 2 3 4 5 6 
#
# 1 187.9357 27.8653 27.0184 0.0000 0.0000 0.0000
# 2 27.8653 71.1681 37.7780 0.0000 0.0000 0.0000
# 3 27.0184 37.7780 88.6911 0.0000 0.0000 0.0000
# 4 0.0000 0.0000 0.0000 -23.0658 0.0000 0.0000
# 5 0.0000 0.0000 0.0000 0.0000 30.8577 0.0000
# 6 0.0000 0.0000 0.0000 0.0000 0.0000 37.3663
#
#
#
# Elastic Compliance Matrix: (Units=1/GPa)
#
#
# Indices 1 2 3 4 5 6 
#
# 1 0.005719 -0.001699 -0.001019 0.000000 0.000000 0.000000
# 2 -0.001699 0.018661 -0.007431 0.000000 0.000000 0.000000
# 3 -0.001019 -0.007431 0.014751 0.000000 0.000000 0.000000
# 4 0.000000 0.000000 0.000000 -0.043354 0.000000 0.000000
# 5 0.000000 0.000000 0.000000 0.000000 0.032407 0.000000
# 6 0.000000 0.000000 0.000000 0.000000 0.000000 0.026762
#
#
# Mechanical properties :
#
#
# Convention : Reuss Voigt Hill
#
# Bulk Modulus (GPa) = 53.09565 59.23536 56.16551
# Shear Modulus (GPa) = 61.33400 26.04051 43.68726
#
# Velocity S-wave (km/s) = 5.70214 3.71546 4.81243
# Velocity P-wave (km/s) = 8.45575 7.05748 7.78806
#
# Compressibility (1/GPa) = 0.01883394
#
# Stress axis : x y z
#
# Youngs Moduli (GPa) = 174.84724 53.58776 67.79295
#
# Poissons Ratio (x) = 0.09102 0.06907
# Poissons Ratio (y) = 0.29698 0.50379
# Poissons Ratio (z) = 0.17813 0.39822
#
# Static dielectric constant tensor:
#      x y z
#    x 1.613900 0.000000 0.000000 
#    y 0.000000 1.695890 0.000000 
#    z 0.000000 0.000000 1.657600 
# 
# From -- ./inp_files/6230.got.cif
#   From: 2010.05.17/outbox.cif.g08.bks.cpg/sg51_4_cif.got.tgz:6230.got - 2010.06.03 11:52:47.
