data_PCOD9402169
_publ_section_title
;
Structure prediction by ZEFSAII (Michael W. Deem and Ramdas Pophale) SiO2 
 PCOD9402169
Probable space group: P M M A
;
_chemical_formula_sum "Si O2"
_cell_formula_units_Z 64
_cell_length_a 18.599644
_cell_length_b 19.736490
_cell_length_c 9.738143
_cell_angle_alpha 90.000000
_cell_angle_beta 90.000000
_cell_angle_gamma 90.000000
_cell_volume 3574.791350
_symmetry_space_group_name_H-M "P M M A"
_symmetry_group_IT_number 51
_symmetry_cell_setting 'orthorhombic'
loop_
_space_group_symop_operation_xyz
x,y,z
1/2-x,-y,z
1/2+x,-y,-z
-x,y,-z
-x,-y,-z
1/2+x,y,-z
1/2-x,y,z
x,-y,z
loop_
_atom_site_type_symbol
_atom_site_label
_atom_site_fract_x
_atom_site_fract_y
_atom_site_fract_z
Si Si1 0.541593 0.423101 0.872840
Si Si2 0.404226 0.807406 0.122170
Si Si3 0.940554 0.422085 0.389706
Si Si4 0.664863 0.322173 0.245863
Si Si5 0.835701 0.921426 0.687672
Si Si6 0.424304 0.922092 0.580074
Si Si7 0.566528 0.807297 0.194336
Si Si8 0.168537 0.665762 0.080762
O O1 0.561119 0.500000 0.912434
O O2 0.486562 0.424932 0.749415
O O3 0.612863 0.382327 0.843397
O O4 0.500000 0.389413 0.000000
O O5 0.372849 0.869088 0.209429
O O6 0.482232 0.787311 0.183927
O O7 0.352665 0.742362 0.118220
O O8 0.413481 0.826124 0.962062
O O9 0.920011 0.500000 0.427441
O O10 0.873097 0.374791 0.350558
O O11 0.000000 0.397167 0.500000
O O12 0.750000 0.312074 0.275114
O O13 0.617257 0.253722 0.245487
O O14 0.660744 0.345003 0.084746
O O15 0.750000 0.915321 0.695955
O O16 0.863588 0.907524 0.533628
O O17 0.855730 0.000000 0.717818
O O18 0.500000 0.916296 0.500000
O O19 0.424268 0.870147 0.704422
O O20 0.416751 0.000000 0.626412
O O21 0.250000 0.651717 0.117919
#
# Coordination Sequence:
#
# PCOD9402169 Si02
#       8
#     8   8   8   8   8   8   8   8
#     4  10  19  34  58  84 110 143 187 232 275 330
#     4  10  20  35  57  85 114 150 191 228 281 337
#     4  10  21  38  59  83 112 149 188 229 279 334
#     4  10  21  37  57  83 114 147 187 233 280 334
#     4  10  21  38  59  83 114 149 185 230 285 342
#     4  10  20  37  58  82 111 146 188 232 278 329
#     4  10  21  35  58  85 113 150 188 237 280 327
#     4  10  20  34  56  84 115 147 184 234 281 328
#
# _framework density 17.903144000000001
#
# number of rings (size 3 to 8) (size 9 to 14) (size 15 to 20)
#    0.000    2.000    2.500    1.125    1.750    2.500 
#    2.250    3.125    0.000    3.750    0.000    0.000 
#    0.000    0.000    0.000    0.000    0.000    0.000 
#
# Total GULP energy -356913.729213 kJ/mol
# GULP energy per Si atom -5576.777019 kJ/mol
# Density = 1.786240 g / cm^3
# Si number density = 17.903144 Si / 1000 Ang^3
#
#
#
# Elastic Constant Matrix: (Units=GPa)
#
#
# Indices 1 2 3 4 5 6 
#
# 1 118.8015 48.9304 28.4436 0.0000 0.0000 0.0000
# 2 48.9304 67.3209 29.0922 0.0000 0.0000 0.0000
# 3 28.4436 29.0922 39.5357 0.0000 0.0000 0.0000
# 4 0.0000 0.0000 0.0000 19.7993 0.0000 0.0000
# 5 0.0000 0.0000 0.0000 0.0000 23.1641 0.0000
# 6 0.0000 0.0000 0.0000 0.0000 0.0000 -54.8613
#
#
#
# Elastic Compliance Matrix: (Units=1/GPa)
#
#
# Indices 1 2 3 4 5 6 
#
# 1 0.012306 -0.007505 -0.003331 0.000000 0.000000 0.000000
# 2 -0.007505 0.026357 -0.013995 0.000000 0.000000 0.000000
# 3 -0.003331 -0.013995 0.037988 0.000000 0.000000 0.000000
# 4 0.000000 0.000000 0.000000 0.050507 0.000000 0.000000
# 5 0.000000 0.000000 0.000000 0.000000 0.043170 0.000000
# 6 0.000000 0.000000 0.000000 0.000000 0.000000 -0.018228
#
#
# Mechanical properties :
#
#
# Convention : Reuss Voigt Hill
#
# Bulk Modulus (GPa) = 37.05219 48.73227 42.89223
# Shear Modulus (GPa) = 23.72379 5.56655 14.64517
#
# Velocity S-wave (km/s) = 3.64417 1.76522 2.86321
# Velocity P-wave (km/s) = 6.20060 5.60658 5.91106
#
# Compressibility (1/GPa) = 0.02698896
#
# Stress axis : x y z
#
# Youngs Moduli (GPa) = 81.26217 37.94091 26.32379
#
# Poissons Ratio (x) = 0.28473 0.08769
# Poissons Ratio (y) = 0.60985 0.36841
# Poissons Ratio (z) = 0.27069 0.53100
#
# Static dielectric constant tensor:
#      x y z
#    x 1.617150 0.000000 0.000000 
#    y 0.000000 1.618660 0.000000 
#    z 0.000000 0.000000 1.608030 
# 
# From -- ./inp_files/10056.got.cif
#   From: 2010.05.17/outbox.cif.g08.bks.cpg/sg51_6_cif.got.tgz:10056.got - 2010.06.03 11:52:47.
