data_PCOD9402724
_publ_section_title
;
Structure prediction by ZEFSAII (Michael W. Deem and Ramdas Pophale) SiO2 
 PCOD9402724
Probable space group: P M M A
;
_chemical_formula_sum "Si O2"
_cell_formula_units_Z 56
_cell_length_a 20.109436
_cell_length_b 8.035686
_cell_length_c 17.131696
_cell_angle_alpha 90.000000
_cell_angle_beta 90.000000
_cell_angle_gamma 90.000000
_cell_volume 2768.364093
_symmetry_space_group_name_H-M "P M M A"
_symmetry_group_IT_number 51
_symmetry_cell_setting 'orthorhombic'
loop_
_space_group_symop_operation_xyz
x,y,z
1/2-x,-y,z
1/2+x,-y,-z
-x,y,-z
-x,-y,-z
1/2+x,y,-z
1/2-x,y,z
x,-y,z
loop_
_atom_site_type_symbol
_atom_site_label
_atom_site_fract_x
_atom_site_fract_y
_atom_site_fract_z
Si Si1 0.036096 0.807539 0.213373
Si Si2 0.675527 0.697328 0.609887
Si Si3 0.946840 0.810483 0.059313
Si Si4 0.321892 0.806220 0.214218
Si Si5 0.415615 0.801069 0.695556
Si Si6 0.674260 0.697870 0.157833
Si Si7 0.574061 0.700911 0.479345
O O1 0.107052 0.731087 0.190252
O O2 0.988295 0.813006 0.139334
O O3 0.988985 0.730991 0.279999
O O4 0.050568 0.000000 0.235971
O O5 0.750000 0.712092 0.577475
O O6 0.663998 0.500000 0.626235
O O7 0.673852 0.791305 0.691909
O O8 0.623158 0.758987 0.547258
O O9 0.875061 0.743617 0.086036
O O10 0.935524 0.000000 0.030811
O O11 0.000000 0.728491 0.000000
O O12 0.250000 0.731255 0.191373
O O13 0.319852 0.000000 0.189860
O O14 0.361775 0.749461 0.760877
O O15 0.402711 0.751599 0.606849
O O16 0.419822 0.000000 0.700366
O O17 0.750000 0.764857 0.151778
O O18 0.678108 0.500000 0.159129
O O19 0.500000 0.760360 0.500000
O O20 0.573941 0.500000 0.481264
#
# Coordination Sequence:
#
# PCOD9402724 Si02
#       7
#     8   8   8   8   8   8   8
#     4   8  15  29  47  69  97 125 155 194 240 287
#     4   9  18  31  44  59  84 118 152 190 241 294
#     4   9  18  34  56  81 109 139 170 206 250 304
#     4   9  16  27  45  66  88 118 157 198 237 283
#     4  10  20  33  51  73  98 131 171 217 265 313
#     4  10  21  37  57  80 107 140 177 218 265 318
#     4  10  20  32  46  67  96 129 168 214 262 313
#
# _framework density 20.228553000000002
#
# number of rings (size 3 to 8) (size 9 to 14) (size 15 to 20)
#    0.000    2.714    0.000    2.571    0.000    2.857 
#    0.000    5.000    0.000    2.571    0.000    2.000 
#    0.000    0.000    0.000    0.000    0.000    0.000 
#
# Total GULP energy -311780.667297 kJ/mol
# GULP energy per Si atom -5567.511916 kJ/mol
# Density = 2.018251 g / cm^3
# Si number density = 20.228553 Si / 1000 Ang^3
#
#
#
# Elastic Constant Matrix: (Units=GPa)
#
#
# Indices 1 2 3 4 5 6 
#
# 1 147.5392 12.7473 5.6966 0.0000 0.0000 0.0000
# 2 12.7473 26.3702 -2.4592 0.0000 0.0000 0.0000
# 3 5.6966 -2.4592 23.1365 0.0000 0.0000 0.0000
# 4 0.0000 0.0000 0.0000 41.3486 0.0000 0.0000
# 5 0.0000 0.0000 0.0000 0.0000 25.9966 0.0000
# 6 0.0000 0.0000 0.0000 0.0000 0.0000 9.7217
#
#
#
# Elastic Compliance Matrix: (Units=1/GPa)
#
#
# Indices 1 2 3 4 5 6 
#
# 1 0.007178 -0.003671 -0.002158 0.000000 0.000000 0.000000
# 2 -0.003671 0.040179 0.005175 0.000000 0.000000 0.000000
# 3 -0.002158 0.005175 0.044303 0.000000 0.000000 0.000000
# 4 0.000000 0.000000 0.000000 0.024185 0.000000 0.000000
# 5 0.000000 0.000000 0.000000 0.000000 0.038467 0.000000
# 6 0.000000 0.000000 0.000000 0.000000 0.000000 0.102863
#
#
# Mechanical properties :
#
#
# Convention : Reuss Voigt Hill
#
# Bulk Modulus (GPa) = 11.06788 25.44615 18.25701
# Shear Modulus (GPa) = 17.32503 27.48413 22.40458
#
# Velocity S-wave (km/s) = 2.92972 3.69003 3.33163
# Velocity P-wave (km/s) = 4.11432 5.54632 4.88310
#
# Compressibility (1/GPa) = 0.09035157
#
# Stress axis : x y z
#
# Youngs Moduli (GPa) = 139.30750 24.88870 22.57183
#
# Poissons Ratio (x) = 0.09137 0.04870
# Poissons Ratio (y) = 0.51143 -0.11680
# Poissons Ratio (z) = 0.30058 -0.12879
#
# Static dielectric constant tensor:
#      x y z
#    x 1.828190 0.000000 0.000000 
#    y 0.000000 1.740260 0.000000 
#    z 0.000000 0.000000 1.702660 
# 
# From -- ./inp_files/30360.got.cif
#   From: 2010.05.17/outbox.cif.g08.bks.cpg/sg51_16_cif.got.tgz:30360.got - 2010.06.03 11:52:47.
