data_PCOD9402915
_publ_section_title
;
Structure prediction by ZEFSAII (Michael W. Deem and Ramdas Pophale) SiO2 
 PCOD9402915
Probable space group: P M M A
;
_chemical_formula_sum "Si O2"
_cell_formula_units_Z 64
_cell_length_a 9.034414
_cell_length_b 16.430118
_cell_length_c 23.504518
_cell_angle_alpha 90.000000
_cell_angle_beta 90.000000
_cell_angle_gamma 90.000000
_cell_volume 3488.928106
_symmetry_space_group_name_H-M "P M M A"
_symmetry_group_IT_number 51
_symmetry_cell_setting 'orthorhombic'
loop_
_space_group_symop_operation_xyz
x,y,z
1/2-x,-y,z
1/2+x,-y,-z
-x,y,-z
-x,-y,-z
1/2+x,y,-z
1/2-x,y,z
x,-y,z
loop_
_atom_site_type_symbol
_atom_site_label
_atom_site_fract_x
_atom_site_fract_y
_atom_site_fract_z
Si Si1 0.576982 0.326500 0.145714
Si Si2 0.071331 0.243727 0.630990
Si Si3 0.925254 0.909011 0.836481
Si Si4 0.428022 0.093452 0.437369
Si Si5 0.423637 0.171669 0.938689
Si Si6 0.087143 0.594728 0.053578
Si Si7 0.571909 0.407878 0.437851
Si Si8 0.072625 0.239010 0.245424
O O1 0.750000 0.335311 0.157940
O O2 0.558100 0.253064 0.099800
O O3 0.506844 0.399219 0.110520
O O4 0.485726 0.307370 0.202075
O O5 0.250000 0.236728 0.630258
O O6 0.030791 0.329725 0.600412
O O7 0.999546 0.165681 0.599514
O O8 0.008956 0.244565 0.694791
O O9 0.750000 0.897769 0.846714
O O10 0.967921 0.843983 0.788391
O O11 0.006977 0.894428 0.896012
O O12 0.951762 0.000000 0.815777
O O13 0.500000 0.098662 0.500000
O O14 0.250000 0.104043 0.440417
O O15 0.455540 0.000000 0.416498
O O16 0.250000 0.158176 0.946894
O O17 0.500000 0.174808 0.000000
O O18 0.250000 0.632884 0.060005
O O19 0.106608 0.500000 0.040812
O O20 0.000000 0.630870 0.000000
O O21 0.500000 0.398534 0.500000
O O22 0.750000 0.406158 0.443386
O O23 0.532183 0.500000 0.416864
O O24 0.250000 0.242107 0.252472
#
# Coordination Sequence:
#
# PCOD9402915 Si02
#       8
#     8   8   8   8   8   8   8   8
#     4  10  20  35  54  74  99 133 173 216 263 316
#     4  11  22  36  57  84 114 149 190 234 278 328
#     4   9  19  36  55  73  96 129 169 214 264 315
#     4  10  21  37  57  83 117 154 190 230 279 334
#     4  10  20  32  49  74 100 128 164 206 256 314
#     4  10  20  33  51  77 106 134 167 209 260 320
#     4   9  19  36  58  85 116 148 182 222 270 323
#     4  10  21  37  56  77 104 139 180 224 267 315
#
# _framework density 18.343743
#
# number of rings (size 3 to 8) (size 9 to 14) (size 15 to 20)
#    0.000    2.125    0.000    3.000    0.000    7.500 
#    0.000    1.875    0.000    2.250    0.000    0.000 
#    0.000    0.000    0.000    0.000    0.000    0.000 
#
# Total GULP energy -356879.421554 kJ/mol
# GULP energy per Si atom -5576.240962 kJ/mol
# Density = 1.830199 g / cm^3
# Si number density = 18.343743 Si / 1000 Ang^3
#
#
#
# Elastic Constant Matrix: (Units=GPa)
#
#
# Indices 1 2 3 4 5 6 
#
# 1 65.7501 49.8472 52.5249 0.0000 0.0000 0.0000
# 2 49.8472 95.7457 66.8934 0.0000 0.0000 0.0000
# 3 52.5249 66.8934 129.9879 0.0000 0.0000 0.0000
# 4 0.0000 0.0000 0.0000 6.4617 0.0000 0.0000
# 5 0.0000 0.0000 0.0000 0.0000 36.3218 0.0000
# 6 0.0000 0.0000 0.0000 0.0000 0.0000 16.7447
#
#
#
# Elastic Compliance Matrix: (Units=1/GPa)
#
#
# Indices 1 2 3 4 5 6 
#
# 1 0.027750 -0.010326 -0.005899 0.000000 0.000000 0.000000
# 2 -0.010326 0.020150 -0.006197 0.000000 0.000000 0.000000
# 3 -0.005899 -0.006197 0.013266 0.000000 0.000000 0.000000
# 4 0.000000 0.000000 0.000000 0.154757 0.000000 0.000000
# 5 0.000000 0.000000 0.000000 0.000000 0.027532 0.000000
# 6 0.000000 0.000000 0.000000 0.000000 0.000000 0.059720
#
#
# Mechanical properties :
#
#
# Convention : Reuss Voigt Hill
#
# Bulk Modulus (GPa) = 61.26841 70.00160 65.63501
# Shear Modulus (GPa) = 14.14591 20.05354 17.09973
#
# Velocity S-wave (km/s) = 2.77998 3.30996 3.05648
# Velocity P-wave (km/s) = 6.61643 7.26991 6.95085
#
# Compressibility (1/GPa) = 0.01632162
#
# Stress axis : x y z
#
# Youngs Moduli (GPa) = 36.03599 49.62894 75.38156
#
# Poissons Ratio (x) = 0.51245 0.44471
# Poissons Ratio (y) = 0.37209 0.46713
# Poissons Ratio (z) = 0.21259 0.30755
#
# Static dielectric constant tensor:
#      x y z
#    x 1.643240 0.000000 0.000000 
#    y 0.000000 1.683580 0.000000 
#    z 0.000000 0.000000 1.590770 
# 
# From -- ./inp_files/32416.got.cif
#   From: 2010.05.17/outbox.cif.g08.bks.cpg/sg51_17_cif.got.tgz:32416.got - 2010.06.03 11:52:47.
