data_PCOD9402232
_publ_section_title
;
Structure prediction by ZEFSAII (Michael W. Deem and Ramdas Pophale) SiO2 
 PCOD9402232
Probable space group: P M M A
;
_chemical_formula_sum "Si O2"
_cell_formula_units_Z 64
_cell_length_a 8.533799
_cell_length_b 15.976659
_cell_length_c 24.451193
_cell_angle_alpha 90.000000
_cell_angle_beta 90.000000
_cell_angle_gamma 90.000000
_cell_volume 3333.714692
_symmetry_space_group_name_H-M "P M M A"
_symmetry_group_IT_number 51
_symmetry_cell_setting 'orthorhombic'
loop_
_space_group_symop_operation_xyz
x,y,z
1/2-x,-y,z
1/2+x,-y,-z
-x,y,-z
-x,-y,-z
1/2+x,y,-z
1/2-x,y,z
x,-y,z
loop_
_atom_site_type_symbol
_atom_site_label
_atom_site_fract_x
_atom_site_fract_y
_atom_site_fract_z
Si Si1 0.440006 0.749999 0.938438
Si Si2 0.938561 0.348360 0.751023
Si Si3 0.561257 0.592499 0.133337
Si Si4 0.938743 0.092500 0.133336
Si Si5 0.063759 0.750001 0.561449
Si Si6 0.939599 0.593949 0.630684
Si Si7 0.061439 0.151641 0.248976
Si Si8 0.560401 0.906051 0.630685
O O1 0.250000 0.749999 0.938769
O O2 0.494319 0.667661 0.905441
O O3 0.494319 0.832339 0.905443
O O4 0.500000 0.749998 0.000000
O O5 0.750000 0.354946 0.754738
O O6 0.986920 0.389422 0.693682
O O7 0.979753 0.250000 0.749816
O O8 0.010721 0.389536 0.804607
O O9 0.750000 0.593107 0.131404
O O10 0.506040 0.500000 0.116612
O O11 0.750000 0.093107 0.131403
O O12 0.989279 0.110465 0.195392
O O13 0.993961 0.000000 0.116612
O O14 0.250000 0.750001 0.560494
O O15 0.000000 0.750002 0.500000
O O16 0.005030 0.667603 0.593270
O O17 0.005029 0.832397 0.593271
O O18 0.750000 0.598569 0.628942
O O19 0.986820 0.500000 0.614169
O O20 0.250000 0.145054 0.245261
O O21 0.013080 0.110577 0.306317
O O22 0.750000 0.901432 0.628943
O O23 0.513180 0.000000 0.614170
#
# Coordination Sequence:
#
# PCOD9402232 Si02
#       8
#     8   8   8   8   8   8   8   8
#     4  10  22  39  56  77 107 144 190 238 285 334
#     4  10  19  34  60  90 120 152 188 230 280 340
#     4  10  21  37  57  82 114 150 186 228 282 342
#     4  10  21  37  57  82 114 150 186 228 282 342
#     4  12  26  43  64  87 119 158 202 250 295 348
#     4  10  21  40  65  91 122 158 196 241 293 349
#     4  10  19  34  60  90 120 152 188 230 280 340
#     4  10  21  40  65  91 122 158 196 241 293 349
#
# _framework density 19.197804000000001
#
# number of rings (size 3 to 8) (size 9 to 14) (size 15 to 20)
#    0.000    1.750    2.500    1.875    0.000    5.000 
#    0.000    0.000    0.000    0.000    0.000    0.000 
#    0.000    0.000    0.000    0.000    0.000    0.000 
#
# Total GULP energy -357566.584344 kJ/mol
# GULP energy per Si atom -5586.977880 kJ/mol
# Density = 1.915411 g / cm^3
# Si number density = 19.197804 Si / 1000 Ang^3
#
#
#
# Elastic Constant Matrix: (Units=GPa)
#
#
# Indices 1 2 3 4 5 6 
#
# 1 16.1004 41.2018 25.9552 0.0000 0.0000 0.0000
# 2 41.2018 213.2777 104.7646 0.0000 0.0000 0.0000
# 3 25.9552 104.7646 162.6876 0.0000 0.0000 0.0000
# 4 0.0000 0.0000 0.0000 -1.3804 0.0000 0.0000
# 5 0.0000 0.0000 0.0000 0.0000 34.1306 0.0000
# 6 0.0000 0.0000 0.0000 0.0000 0.0000 13.1268
#
#
#
# Elastic Compliance Matrix: (Units=1/GPa)
#
#
# Indices 1 2 3 4 5 6 
#
# 1 0.127435 -0.021401 -0.006549 0.000000 0.000000 0.000000
# 2 -0.021401 0.010452 -0.003316 0.000000 0.000000 0.000000
# 3 -0.006549 -0.003316 0.009327 0.000000 0.000000 0.000000
# 4 0.000000 0.000000 0.000000 -0.724443 0.000000 0.000000
# 5 0.000000 0.000000 0.000000 0.000000 0.029299 0.000000
# 6 0.000000 0.000000 0.000000 0.000000 0.000000 0.076180
#
#
# Mechanical properties :
#
#
# Convention : Reuss Voigt Hill
#
# Bulk Modulus (GPa) = 11.80910 81.76765 46.78838
# Shear Modulus (GPa) = -13.12375 23.85170 5.36397
#
# Velocity S-wave (km/s) = -2.61742 3.52862 1.67336
# Velocity P-wave (km/s) = 1.72334 7.69975 5.30642
#
# Compressibility (1/GPa) = 0.08468044
#
# Stress axis : x y z
#
# Youngs Moduli (GPa) = 7.84712 95.67395 107.21199
#
# Poissons Ratio (x) = 2.04754 0.70218
# Poissons Ratio (y) = 0.16794 0.35556
# Poissons Ratio (z) = 0.05139 0.31730
#
# Static dielectric constant tensor:
#      x y z
#    x 1.655470 0.000000 0.000000 
#    y 0.000000 1.683870 0.000000 
#    z 0.000000 0.000000 1.622850 
# 
# From -- ./inp_files/34819.got.cif
#   From: 2010.05.17/outbox.cif.g08.bks.cpg/sg51_18_cif.got.tgz:34819.got - 2010.06.03 11:52:47.
