data_PCOD9402933
_publ_section_title
;
Structure prediction by ZEFSAII (Michael W. Deem and Ramdas Pophale) SiO2 
 PCOD9402933
Probable space group: P M M A
;
_chemical_formula_sum "Si O2"
_cell_formula_units_Z 48
_cell_length_a 7.864264
_cell_length_b 19.215781
_cell_length_c 14.634187
_cell_angle_alpha 90.000000
_cell_angle_beta 90.000000
_cell_angle_gamma 90.000000
_cell_volume 2211.488702
_symmetry_space_group_name_H-M "P M M A"
_symmetry_group_IT_number 51
_symmetry_cell_setting 'orthorhombic'
loop_
_space_group_symop_operation_xyz
x,y,z
1/2-x,-y,z
1/2+x,-y,-z
-x,y,-z
-x,-y,-z
1/2+x,y,-z
1/2-x,y,z
x,-y,z
loop_
_atom_site_type_symbol
_atom_site_label
_atom_site_fract_x
_atom_site_fract_y
_atom_site_fract_z
Si Si1 0.947701 0.787116 0.896754
Si Si2 0.442087 0.683398 0.249424
Si Si3 0.044617 0.577740 0.393641
Si Si4 0.050784 0.582369 0.898228
Si Si5 0.044430 0.919226 0.797658
Si Si6 0.453895 0.919651 0.597017
O O1 0.750000 0.770339 0.892468
O O2 0.027623 0.744248 0.811349
O O3 0.977034 0.867763 0.874107
O O4 0.000000 0.770771 0.000000
O O5 0.250000 0.705162 0.275993
O O6 0.522423 0.643701 0.336049
O O7 0.439752 0.621606 0.175319
O O8 0.250000 0.577918 0.384042
O O9 0.984845 0.500000 0.363146
O O10 0.000000 0.584169 0.500000
O O11 0.750000 0.597245 0.117171
O O12 0.024783 0.500000 0.891925
O O13 0.000000 0.604233 0.000000
O O14 0.250000 0.917639 0.800447
O O15 0.988185 0.893258 0.696136
O O16 0.993253 0.000000 0.807813
O O17 0.500000 0.885784 0.500000
O O18 0.250000 0.921586 0.600302
O O19 0.516643 0.000000 0.593703
#
# Coordination Sequence:
#
# PCOD9402933 Si02
#       6
#     8   8   8   8   8   8
#     4  11  24  40  58  80 107 141 183 230 283 343
#     4  10  21  37  56  78 107 144 183 223 270 323
#     4   9  18  34  57  84 114 148 186 228 270 313
#     4  10  20  32  49  76 107 139 177 219 262 311
#     4   9  19  37  59  82 109 142 183 231 283 340
#     4   8  14  26  47  76 107 136 166 204 253 310
#
# _framework density 21.704836
#
# number of rings (size 3 to 8) (size 9 to 14) (size 15 to 20)
#    0.000    2.500    0.000    3.000    0.000    6.333 
#    0.000    4.167    0.000    4.000    0.000    0.000 
#    0.000    0.000    0.000    0.000    0.000    0.000 
#
# Total GULP energy -267543.515454 kJ/mol
# GULP energy per Si atom -5573.823239 kJ/mol
# Density = 2.165543 g / cm^3
# Si number density = 21.704836 Si / 1000 Ang^3
#
#
#
# Elastic Constant Matrix: (Units=GPa)
#
#
# Indices 1 2 3 4 5 6 
#
# 1 20.9322 7.6890 -2.7694 0.0000 0.0000 0.0000
# 2 7.6890 81.2662 53.2171 0.0000 0.0000 0.0000
# 3 -2.7694 53.2171 89.6888 0.0000 0.0000 0.0000
# 4 0.0000 0.0000 0.0000 50.4882 0.0000 0.0000
# 5 0.0000 0.0000 0.0000 0.0000 25.2524 0.0000
# 6 0.0000 0.0000 0.0000 0.0000 0.0000 12.8321
#
#
#
# Elastic Compliance Matrix: (Units=1/GPa)
#
#
# Indices 1 2 3 4 5 6 
#
# 1 0.052372 -0.009836 0.007453 0.000000 0.000000 0.000000
# 2 -0.009836 0.021972 -0.013341 0.000000 0.000000 0.000000
# 3 0.007453 -0.013341 0.019296 0.000000 0.000000 0.000000
# 4 0.000000 0.000000 0.000000 0.019807 0.000000 0.000000
# 5 0.000000 0.000000 0.000000 0.000000 0.039600 0.000000
# 6 0.000000 0.000000 0.000000 0.000000 0.000000 0.077930
#
#
# Mechanical properties :
#
#
# Convention : Reuss Voigt Hill
#
# Bulk Modulus (GPa) = 16.07898 34.24006 25.15952
# Shear Modulus (GPa) = 17.65818 26.63124 22.14471
#
# Velocity S-wave (km/s) = 2.85539 3.50662 3.19763
# Velocity P-wave (km/s) = 4.27728 5.67492 5.02493
#
# Compressibility (1/GPa) = 0.06219300
#
# Stress axis : x y z
#
# Youngs Moduli (GPa) = 19.09404 45.51209 51.82505
#
# Poissons Ratio (x) = 0.44766 -0.38627
# Poissons Ratio (y) = 0.18781 0.69140
# Poissons Ratio (z) = -0.14231 0.60717
#
# Static dielectric constant tensor:
#      x y z
#    x 1.828090 0.000000 0.000000 
#    y 0.000000 1.811700 0.000000 
#    z 0.000000 0.000000 1.820640 
# 
# From -- ./inp_files/21122.got.cif
#   From: 2010.05.17/outbox.cif.g08.bks.cpg/sg51_11_cif.got.tgz:21122.got - 2010.06.03 11:52:47.
