data_PCOD9402216
_publ_section_title
;
Structure prediction by ZEFSAII (Michael W. Deem and Ramdas Pophale) SiO2 
 PCOD9402216
Probable space group: P M M A
;
_chemical_formula_sum "Si O2"
_cell_formula_units_Z 56
_cell_length_a 23.632546
_cell_length_b 9.250415
_cell_length_c 12.824133
_cell_angle_alpha 90.000000
_cell_angle_beta 90.000000
_cell_angle_gamma 90.000000
_cell_volume 2803.494718
_symmetry_space_group_name_H-M "P M M A"
_symmetry_group_IT_number 51
_symmetry_cell_setting 'orthorhombic'
loop_
_space_group_symop_operation_xyz
x,y,z
1/2-x,-y,z
1/2+x,-y,-z
-x,y,-z
-x,-y,-z
1/2+x,y,-z
1/2-x,y,z
x,-y,z
loop_
_atom_site_type_symbol
_atom_site_label
_atom_site_fract_x
_atom_site_fract_y
_atom_site_fract_z
Si Si1 0.083012 0.329697 0.197744
Si Si2 0.557653 0.835666 0.434781
Si Si3 0.250000 0.826912 0.451986
Si Si4 0.467929 0.169639 0.810479
Si Si5 0.187417 0.827654 0.090935
Si Si6 0.636168 0.669430 0.580673
Si Si7 0.750000 0.176101 0.303152
Si Si8 0.155015 0.173845 0.855870
O O1 0.081078 0.500000 0.177451
O O2 0.136642 0.257712 0.142754
O O3 0.094348 0.308084 0.321341
O O4 0.024691 0.255075 0.164545
O O5 0.500000 0.819027 0.500000
O O6 0.543549 0.820391 0.313643
O O7 0.603946 0.726780 0.478693
O O8 0.579100 0.000000 0.451724
O O9 0.306667 0.759668 0.404205
O O10 0.250000 0.786020 0.575493
O O11 0.250000 0.000000 0.442567
O O12 0.409534 0.227099 0.859455
O O13 0.475952 0.000000 0.837113
O O14 0.250000 0.786032 0.129155
O O15 0.180317 0.000000 0.107881
O O16 0.184176 0.802555 0.966636
O O17 0.649210 0.500000 0.573514
O O18 0.805459 0.225916 0.238848
O O19 0.750000 0.000000 0.299004
O O20 0.150057 0.000000 0.841211
#
# Coordination Sequence:
#
# PCOD9402216 Si02
#       8
#     8   8   4   8   8   8   4   8
#     4  11  25  41  57  80 116 160 200 240 291 347
#     4  10  19  34  59  89 118 151 195 240 279 330
#     4  11  23  37  60  89 118 152 195 245 292 337
#     4  10  20  36  60  90 122 154 192 240 292 346
#     4  10  21  39  64  90 112 144 193 244 293 348
#     4  11  24  40  57  81 119 162 198 235 290 351
#     4   9  16  33  60  91 122 146 181 235 296 351
#     4   9  17  33  61  92 119 146 181 235 298 354
#
# _framework density 19.975069999999999
#
# number of rings (size 3 to 8) (size 9 to 14) (size 15 to 20)
#    0.000    1.857    2.143    1.929    1.000    5.714 
#    0.000    3.571    0.000    1.714    0.000    0.000 
#    0.000    0.000    0.000    0.000    0.000    0.000 
#
# Total GULP energy -312836.269616 kJ/mol
# GULP energy per Si atom -5586.361957 kJ/mol
# Density = 1.992961 g / cm^3
# Si number density = 19.975070 Si / 1000 Ang^3
#
#
#
# Elastic Constant Matrix: (Units=GPa)
#
#
# Indices 1 2 3 4 5 6 
#
# 1 155.8419 58.5043 17.7116 0.0000 0.0000 0.0000
# 2 58.5043 54.3134 16.9531 0.0000 0.0000 0.0000
# 3 17.7116 16.9531 12.6036 0.0000 0.0000 0.0000
# 4 0.0000 0.0000 0.0000 12.5079 0.0000 0.0000
# 5 0.0000 0.0000 0.0000 0.0000 34.0322 0.0000
# 6 0.0000 0.0000 0.0000 0.0000 0.0000 0.9817
#
#
#
# Elastic Compliance Matrix: (Units=1/GPa)
#
#
# Indices 1 2 3 4 5 6 
#
# 1 0.010778 -0.011863 0.000810 0.000000 0.000000 0.000000
# 2 -0.011863 0.044793 -0.043580 0.000000 0.000000 0.000000
# 3 0.000810 -0.043580 0.136824 0.000000 0.000000 0.000000
# 4 0.000000 0.000000 0.000000 0.079950 0.000000 0.000000
# 5 0.000000 0.000000 0.000000 0.000000 0.029384 0.000000
# 6 0.000000 0.000000 0.000000 0.000000 0.000000 1.018638
#
#
# Mechanical properties :
#
#
# Convention : Reuss Voigt Hill
#
# Bulk Modulus (GPa) = 12.02952 45.45522 28.74237
# Shear Modulus (GPa) = 3.43091 18.14368 10.78729
#
# Velocity S-wave (km/s) = 1.31199 3.01710 2.32639
# Velocity P-wave (km/s) = 2.88625 5.91122 4.65150
#
# Compressibility (1/GPa) = 0.08312886
#
# Stress axis : x y z
#
# Youngs Moduli (GPa) = 92.78190 22.32515 7.30868
#
# Poissons Ratio (x) = 0.26483 -0.00592
# Poissons Ratio (y) = 1.10063 0.31851
# Poissons Ratio (z) = -0.07518 0.97294
#
# Static dielectric constant tensor:
#      x y z
#    x 1.711110 0.000000 0.000000 
#    y 0.000000 1.664780 0.000000 
#    z 0.000000 0.000000 1.712540 
# 
# From -- ./inp_files/25793.got.cif
#   From: 2010.05.17/outbox.cif.g08.bks.cpg/sg51_13_cif.got.tgz:25793.got - 2010.06.03 11:52:47.
