data_PCOD9402848
_publ_section_title
;
Structure prediction by ZEFSAII (Michael W. Deem and Ramdas Pophale) SiO2 
 PCOD9402848
Probable space group: P M M A
;
_chemical_formula_sum "Si O2"
_cell_formula_units_Z 48
_cell_length_a 9.802344
_cell_length_b 7.779981
_cell_length_c 31.392318
_cell_angle_alpha 90.000000
_cell_angle_beta 90.000000
_cell_angle_gamma 90.000000
_cell_volume 2394.042527
_symmetry_space_group_name_H-M "P M M A"
_symmetry_group_IT_number 51
_symmetry_cell_setting 'orthorhombic'
loop_
_space_group_symop_operation_xyz
x,y,z
1/2-x,-y,z
1/2+x,-y,-z
-x,y,-z
-x,-y,-z
1/2+x,y,-z
1/2-x,y,z
x,-y,z
loop_
_atom_site_type_symbol
_atom_site_label
_atom_site_fract_x
_atom_site_fract_y
_atom_site_fract_z
Si Si1 0.404064 0.795973 0.113735
Si Si2 0.596367 0.705368 0.788559
Si Si3 0.407257 0.209768 0.461277
Si Si4 0.404064 0.703935 0.962582
Si Si5 0.407363 0.789917 0.365598
Si Si6 0.904063 0.794643 0.288991
O O1 0.250000 0.727803 0.104960
O O2 0.435188 0.758819 0.163090
O O3 0.516372 0.725747 0.081666
O O4 0.400389 0.000000 0.107954
O O5 0.750000 0.770548 0.778397
O O6 0.600008 0.500000 0.787318
O O7 0.487077 0.764861 0.754273
O O8 0.500000 0.271232 0.500000
O O9 0.250000 0.259905 0.467451
O O10 0.448647 0.262640 0.413476
O O11 0.411200 0.000000 0.461620
O O12 0.250000 0.774939 0.962109
O O13 0.392101 0.500000 0.970376
O O14 0.500000 0.777212 0.000000
O O15 0.250000 0.737488 0.358198
O O16 0.507314 0.727271 0.328716
O O17 0.407642 0.000000 0.364969
O O18 0.750000 0.725901 0.287380
O O19 0.894935 0.000000 0.294763
#
# Coordination Sequence:
#
# PCOD9402848 Si02
#       6
#     8   8   8   8   8   8
#     4  10  21  37  58  83 109 138 173 213 257 304
#     4  10  21  37  57  78 100 131 170 209 252 304
#     4   8  13  20  31  50  78 114 154 194 238 288
#     4  10  21  37  58  83 111 145 182 218 257 300
#     4   8  14  25  40  58  84 121 162 201 243 293
#     4  10  20  32  48  72 100 130 165 206 253 302
#
# _framework density 20.049768
#
# number of rings (size 3 to 8) (size 9 to 14) (size 15 to 20)
#    0.000    2.667    0.000    3.000    0.000    5.667 
#    0.000    3.333    0.000    0.000    0.000    0.000 
#    0.000    0.667    0.000    2.167    0.000    4.333 
#
# Total GULP energy -267865.503871 kJ/mol
# GULP energy per Si atom -5580.531331 kJ/mol
# Density = 2.000413 g / cm^3
# Si number density = 20.049768 Si / 1000 Ang^3
#
#
#
# Elastic Constant Matrix: (Units=GPa)
#
#
# Indices 1 2 3 4 5 6 
#
# 1 175.7727 6.8971 135.2352 0.0000 0.0000 0.0000
# 2 6.8971 27.9901 -4.8727 0.0000 0.0000 0.0000
# 3 135.2352 -4.8727 148.1692 0.0000 0.0000 0.0000
# 4 0.0000 0.0000 0.0000 14.8520 0.0000 0.0000
# 5 0.0000 0.0000 0.0000 0.0000 38.6225 0.0000
# 6 0.0000 0.0000 0.0000 0.0000 0.0000 9.3393
#
#
#
# Elastic Compliance Matrix: (Units=1/GPa)
#
#
# Indices 1 2 3 4 5 6 
#
# 1 0.020956 -0.008543 -0.019408 0.000000 0.000000 0.000000
# 2 -0.008543 0.039415 0.009093 0.000000 0.000000 0.000000
# 3 -0.019408 0.009093 0.024762 0.000000 0.000000 0.000000
# 4 0.000000 0.000000 0.000000 0.067331 0.000000 0.000000
# 5 0.000000 0.000000 0.000000 0.000000 0.025892 0.000000
# 6 0.000000 0.000000 0.000000 0.000000 0.000000 0.107075
#
#
# Mechanical properties :
#
#
# Convention : Reuss Voigt Hill
#
# Bulk Modulus (GPa) = 21.08887 69.60568 45.34728
# Shear Modulus (GPa) = 14.75134 26.87424 20.81279
#
# Velocity S-wave (km/s) = 2.71539 3.66509 3.22538
# Velocity P-wave (km/s) = 4.51356 7.25964 6.04461
#
# Compressibility (1/GPa) = 0.04741837
#
# Stress axis : x y z
#
# Youngs Moduli (GPa) = 47.71792 25.37103 40.38443
#
# Poissons Ratio (x) = 0.21674 0.78379
# Poissons Ratio (y) = 0.40764 -0.36722
# Poissons Ratio (z) = 0.92611 -0.23070
#
# Static dielectric constant tensor:
#      x y z
#    x 1.734900 0.000000 0.000000 
#    y 0.000000 1.751940 0.000000 
#    z 0.000000 0.000000 1.685620 
# 
# From -- ./inp_files/37062.got.cif
#   From: 2010.05.17/outbox.cif.g08.bks.cpg/sg51_19_cif.got.tgz:37062.got - 2010.06.03 11:52:47.
