data_PCOD9402777
_publ_section_title
;
Structure prediction by ZEFSAII (Michael W. Deem and Ramdas Pophale) SiO2 
 PCOD9402777
Probable space group: P M M A
;
_chemical_formula_sum "Si O2"
_cell_formula_units_Z 56
_cell_length_a 8.938784
_cell_length_b 19.559774
_cell_length_c 18.942698
_cell_angle_alpha 90.000000
_cell_angle_beta 90.000000
_cell_angle_gamma 90.000000
_cell_volume 3311.952587
_symmetry_space_group_name_H-M "P M M A"
_symmetry_group_IT_number 51
_symmetry_cell_setting 'orthorhombic'
loop_
_space_group_symop_operation_xyz
x,y,z
1/2-x,-y,z
1/2+x,-y,-z
-x,y,-z
-x,-y,-z
1/2+x,y,-z
1/2-x,y,z
x,-y,z
loop_
_atom_site_type_symbol
_atom_site_label
_atom_site_fract_x
_atom_site_fract_y
_atom_site_fract_z
Si Si1 0.927926 0.798285 0.791430
Si Si2 0.427761 0.718959 0.354627
Si Si3 0.570267 0.291458 0.925350
Si Si4 0.071616 0.578394 0.855319
Si Si5 0.929284 0.422877 0.700387
Si Si6 0.571572 0.155405 0.426498
Si Si7 0.069760 0.077954 0.716332
O O1 0.750000 0.809342 0.794720
O O2 0.955237 0.748592 0.724344
O O3 0.975091 0.760512 0.862811
O O4 0.007145 0.869349 0.773659
O O5 0.250000 0.725033 0.368903
O O6 0.470103 0.639272 0.351235
O O7 0.516022 0.768378 0.406861
O O8 0.750000 0.292789 0.929133
O O9 0.510213 0.365869 0.902806
O O10 0.500000 0.272023 0.000000
O O11 0.250000 0.589060 0.857143
O O12 0.040339 0.500000 0.877086
O O13 0.012200 0.585519 0.775097
O O14 0.750000 0.416768 0.713487
O O15 0.958803 0.500000 0.674448
O O16 0.500000 0.133440 0.500000
O O17 0.750000 0.154206 0.431653
O O18 0.525103 0.107644 0.360565
O O19 0.250000 0.079296 0.718795
O O20 0.019416 0.000000 0.725388
#
# Coordination Sequence:
#
# PCOD9402777 Si02
#       7
#     8   8   8   8   8   8   8
#     4   9  18  33  52  75 101 129 166 207 248 298
#     4   9  16  30  50  72  98 130 167 208 250 298
#     4  11  22  36  52  73 100 134 173 215 260 308
#     4  10  20  32  47  70 100 134 172 213 258 307
#     4   9  16  28  48  72  98 130 167 211 260 303
#     4  10  20  33  50  75 105 138 168 200 241 291
#     4   9  19  35  55  80 107 134 164 198 241 293
#
# _framework density 16.908455
#
# number of rings (size 3 to 8) (size 9 to 14) (size 15 to 20)
#    0.000    2.429    1.429    1.286    0.000    4.000 
#    0.000    0.000    0.000    0.857    0.000    0.000 
#    0.000    0.000    0.000    0.000    0.000    0.000 
#
# Total GULP energy -312313.341253 kJ/mol
# GULP energy per Si atom -5577.023951 kJ/mol
# Density = 1.686997 g / cm^3
# Si number density = 16.908455 Si / 1000 Ang^3
#
#
#
# Elastic Constant Matrix: (Units=GPa)
#
#
# Indices 1 2 3 4 5 6 
#
# 1 30.8691 36.7754 26.5174 0.0000 0.0000 0.0000
# 2 36.7754 119.0038 39.5142 0.0000 0.0000 0.0000
# 3 26.5174 39.5142 60.4081 0.0000 0.0000 0.0000
# 4 0.0000 0.0000 0.0000 13.5675 0.0000 0.0000
# 5 0.0000 0.0000 0.0000 0.0000 26.9606 0.0000
# 6 0.0000 0.0000 0.0000 0.0000 0.0000 25.1603
#
#
#
# Elastic Compliance Matrix: (Units=1/GPa)
#
#
# Indices 1 2 3 4 5 6 
#
# 1 0.065892 -0.013743 -0.019935 0.000000 0.000000 0.000000
# 2 -0.013743 0.013601 -0.002864 0.000000 0.000000 0.000000
# 3 -0.019935 -0.002864 0.027178 0.000000 0.000000 0.000000
# 4 0.000000 0.000000 0.000000 0.073706 0.000000 0.000000
# 5 0.000000 0.000000 0.000000 0.000000 0.037091 0.000000
# 6 0.000000 0.000000 0.000000 0.000000 0.000000 0.039745
#
#
# Mechanical properties :
#
#
# Convention : Reuss Voigt Hill
#
# Bulk Modulus (GPa) = 29.77310 46.21055 37.99183
# Shear Modulus (GPa) = 14.64156 20.30262 17.47209
#
# Velocity S-wave (km/s) = 2.94586 3.46893 3.21804
# Velocity P-wave (km/s) = 5.40532 6.59043 6.02707
#
# Compressibility (1/GPa) = 0.03358737
#
# Stress axis : x y z
#
# Youngs Moduli (GPa) = 15.17625 73.52388 36.79408
#
# Poissons Ratio (x) = 1.01046 0.73349
# Poissons Ratio (y) = 0.20857 0.10537
# Poissons Ratio (z) = 0.30254 0.21056
#
# Static dielectric constant tensor:
#      x y z
#    x 1.564620 0.000000 0.000000 
#    y 0.000000 1.580270 0.000000 
#    z 0.000000 0.000000 1.551510 
# 
# From -- ./inp_files/28201.got.cif
#   From: 2010.05.17/outbox.cif.g08.bks.cpg/sg51_15_cif.got.tgz:28201.got - 2010.06.03 11:52:47.
