data_PCOD9402453
_publ_section_title
;
Structure prediction by ZEFSAII (Michael W. Deem and Ramdas Pophale) SiO2 
 PCOD9402453
Probable space group: P M M A
;
_chemical_formula_sum "Si O2"
_cell_formula_units_Z 40
_cell_length_a 8.646747
_cell_length_b 10.440866
_cell_length_c 24.844452
_cell_angle_alpha 90.000000
_cell_angle_beta 90.000000
_cell_angle_gamma 90.000000
_cell_volume 2242.945369
_symmetry_space_group_name_H-M "P M M A"
_symmetry_group_IT_number 51
_symmetry_cell_setting 'orthorhombic'
loop_
_space_group_symop_operation_xyz
x,y,z
1/2-x,-y,z
1/2+x,-y,-z
-x,y,-z
-x,-y,-z
1/2+x,y,-z
1/2-x,y,z
x,-y,z
loop_
_atom_site_type_symbol
_atom_site_label
_atom_site_fract_x
_atom_site_fract_y
_atom_site_fract_z
Si Si1 0.435224 0.353378 0.940341
Si Si2 0.563090 0.148674 0.856419
Si Si3 0.566251 0.500000 0.439586
Si Si4 0.935937 0.000000 0.559962
Si Si5 0.562597 0.256827 0.623360
Si Si6 0.938110 0.147512 0.734257
O O1 0.250000 0.348434 0.942048
O O2 0.481610 0.500000 0.925916
O O3 0.496403 0.249123 0.898476
O O4 0.500000 0.327506 0.000000
O O5 0.750000 0.154002 0.858275
O O6 0.513711 0.180085 0.794986
O O7 0.519168 0.000000 0.867267
O O8 0.750000 0.500000 0.442945
O O9 0.500000 0.500000 0.500000
O O10 0.508240 0.376465 0.407097
O O11 0.982010 0.127275 0.592009
O O12 0.000000 0.000000 0.500000
O O13 0.750000 0.000000 0.557740
O O14 0.750000 0.267465 0.622223
O O15 0.512839 0.238190 0.685460
O O16 0.750000 0.147703 0.734078
O O17 0.984333 0.000000 0.723204
#
# Coordination Sequence:
#
# PCOD9402453 Si02
#       6
#     8   8   4   4   8   8
#     4  10  21  37  56  78 108 147 187 229 274 321
#     4   9  18  33  56  85 113 143 181 224 267 318
#     4  12  26  42  56  76 108 146 183 224 273 326
#     4  10  20  32  54  84 108 134 173 222 269 318
#     4  10  19  36  60  83 108 141 179 222 270 322
#     4   8  14  30  57  85 111 139 177 222 266 316
#
# _framework density 17.833694000000001
#
# number of rings (size 3 to 8) (size 9 to 14) (size 15 to 20)
#    0.000    2.400    1.000    3.300    0.000    4.400 
#    1.800    1.000    0.000    1.200    0.000    0.000 
#    0.000    0.000    0.000    0.000    0.000    0.000 
#
# Total GULP energy -223147.925530 kJ/mol
# GULP energy per Si atom -5578.698138 kJ/mol
# Density = 1.779310 g / cm^3
# Si number density = 17.833694 Si / 1000 Ang^3
#
#
#
# Elastic Constant Matrix: (Units=GPa)
#
#
# Indices 1 2 3 4 5 6 
#
# 1 30.9968 47.1903 46.1808 0.0000 0.0000 0.0000
# 2 47.1903 159.7400 126.1801 0.0000 0.0000 0.0000
# 3 46.1808 126.1801 185.8543 0.0000 0.0000 0.0000
# 4 0.0000 0.0000 0.0000 33.9549 0.0000 0.0000
# 5 0.0000 0.0000 0.0000 0.0000 26.1798 0.0000
# 6 0.0000 0.0000 0.0000 0.0000 0.0000 15.7139
#
#
#
# Elastic Compliance Matrix: (Units=1/GPa)
#
#
# Indices 1 2 3 4 5 6 
#
# 1 0.061974 -0.013250 -0.006403 0.000000 0.000000 0.000000
# 2 -0.013250 0.016333 -0.007796 0.000000 0.000000 0.000000
# 3 -0.006403 -0.007796 0.012265 0.000000 0.000000 0.000000
# 4 0.000000 0.000000 0.000000 0.029451 0.000000 0.000000
# 5 0.000000 0.000000 0.000000 0.000000 0.038197 0.000000
# 6 0.000000 0.000000 0.000000 0.000000 0.000000 0.063638
#
#
# Mechanical properties :
#
#
# Convention : Reuss Voigt Hill
#
# Bulk Modulus (GPa) = 28.03342 90.63261 59.33302
# Shear Modulus (GPa) = 17.32214 25.63907 21.48060
#
# Velocity S-wave (km/s) = 3.11997 3.79578 3.47435
# Velocity P-wave (km/s) = 5.36027 8.37508 7.03116
#
# Compressibility (1/GPa) = 0.03567171
#
# Stress axis : x y z
#
# Youngs Moduli (GPa) = 16.13583 61.22579 81.53440
#
# Poissons Ratio (x) = 0.81126 0.52209
# Poissons Ratio (y) = 0.21380 0.63567
# Poissons Ratio (z) = 0.10332 0.47734
#
# Static dielectric constant tensor:
#      x y z
#    x 1.608600 0.000000 0.000000 
#    y 0.000000 1.598370 0.000000 
#    z 0.000000 0.000000 1.602370 
# 
# From -- ./inp_files/36015.got.cif
#   From: 2010.05.17/outbox.cif.g08.bks.cpg/sg51_19_cif.got.tgz:36015.got - 2010.06.03 11:52:47.
